
*** ChampSim Multicore Out-of-Order Simulator ***

Warmup Instructions: 10000000
Simulation Instructions: 100000000
Configuration: 2
Number of CPUs: 1
LLC sets: 2048
LLC ways: 16
Off-chip DRAM Channels: 1 Width: 64-bit Data Rate: 1600 MT/s

CPU 0 runs /datasets/cs240c-wi22-a00-public/data/Assignment2-gz/libquantum_1735B.trace.gz
CPU 0 L1D next line prefetcher
CPU 0 L2C IP-based stride prefetcher
Heartbeat CPU 0 instructions: 1000001 cycles: 333341 heartbeat IPC: 2.99993 cumulative IPC: 2.99993 (Simulation time: 0 hr 0 min 14 sec) 
Heartbeat CPU 0 instructions: 2000000 cycles: 666674 heartbeat IPC: 3 cumulative IPC: 2.99997 (Simulation time: 0 hr 0 min 28 sec) 
Heartbeat CPU 0 instructions: 3000000 cycles: 989045 heartbeat IPC: 3.10202 cumulative IPC: 3.03323 (Simulation time: 0 hr 0 min 40 sec) 
Heartbeat CPU 0 instructions: 4000000 cycles: 1290770 heartbeat IPC: 3.31428 cumulative IPC: 3.09893 (Simulation time: 0 hr 0 min 55 sec) 
Heartbeat CPU 0 instructions: 5000001 cycles: 1592495 heartbeat IPC: 3.31428 cumulative IPC: 3.13973 (Simulation time: 0 hr 1 min 7 sec) 
Heartbeat CPU 0 instructions: 6000001 cycles: 1894219 heartbeat IPC: 3.31429 cumulative IPC: 3.16753 (Simulation time: 0 hr 1 min 18 sec) 
Heartbeat CPU 0 instructions: 7000002 cycles: 2195942 heartbeat IPC: 3.3143 cumulative IPC: 3.1877 (Simulation time: 0 hr 1 min 30 sec) 
Heartbeat CPU 0 instructions: 8000000 cycles: 2501897 heartbeat IPC: 3.26845 cumulative IPC: 3.19757 (Simulation time: 0 hr 1 min 43 sec) 
Heartbeat CPU 0 instructions: 9000000 cycles: 2835230 heartbeat IPC: 3 cumulative IPC: 3.17435 (Simulation time: 0 hr 1 min 56 sec) 
Heartbeat CPU 0 instructions: 10000002 cycles: 3168564 heartbeat IPC: 3 cumulative IPC: 3.156 (Simulation time: 0 hr 2 min 8 sec) 

Warmup complete CPU 0 instructions: 10000002 cycles: 3168564 (Simulation time: 0 hr 2 min 8 sec) 

Heartbeat CPU 0 instructions: 11000001 cycles: 4593870 heartbeat IPC: 0.701603 cumulative IPC: 0.701603 (Simulation time: 0 hr 2 min 32 sec) 
Heartbeat CPU 0 instructions: 12000000 cycles: 6018722 heartbeat IPC: 0.701827 cumulative IPC: 0.701715 (Simulation time: 0 hr 2 min 56 sec) 
Heartbeat CPU 0 instructions: 13000001 cycles: 7840823 heartbeat IPC: 0.548818 cumulative IPC: 0.642087 (Simulation time: 0 hr 3 min 17 sec) 
Heartbeat CPU 0 instructions: 14000000 cycles: 10330355 heartbeat IPC: 0.401682 cumulative IPC: 0.558519 (Simulation time: 0 hr 3 min 34 sec) 
Heartbeat CPU 0 instructions: 15000000 cycles: 12812926 heartbeat IPC: 0.402808 cumulative IPC: 0.518437 (Simulation time: 0 hr 3 min 53 sec) 
Heartbeat CPU 0 instructions: 16000000 cycles: 15281685 heartbeat IPC: 0.405062 cumulative IPC: 0.49533 (Simulation time: 0 hr 4 min 11 sec) 
Heartbeat CPU 0 instructions: 17000002 cycles: 17766375 heartbeat IPC: 0.402465 cumulative IPC: 0.479524 (Simulation time: 0 hr 4 min 28 sec) 
Heartbeat CPU 0 instructions: 18000001 cycles: 19934459 heartbeat IPC: 0.461236 cumulative IPC: 0.477159 (Simulation time: 0 hr 4 min 48 sec) 
Heartbeat CPU 0 instructions: 19000000 cycles: 21434040 heartbeat IPC: 0.666852 cumulative IPC: 0.492733 (Simulation time: 0 hr 5 min 11 sec) 
Heartbeat CPU 0 instructions: 20000000 cycles: 22933542 heartbeat IPC: 0.666888 cumulative IPC: 0.505945 (Simulation time: 0 hr 5 min 36 sec) 
Heartbeat CPU 0 instructions: 21000001 cycles: 24433172 heartbeat IPC: 0.666832 cumulative IPC: 0.517291 (Simulation time: 0 hr 5 min 58 sec) 
Heartbeat CPU 0 instructions: 22000000 cycles: 25932678 heartbeat IPC: 0.666886 cumulative IPC: 0.527145 (Simulation time: 0 hr 6 min 20 sec) 
Heartbeat CPU 0 instructions: 23000000 cycles: 28137769 heartbeat IPC: 0.453496 cumulative IPC: 0.520641 (Simulation time: 0 hr 6 min 39 sec) 
Heartbeat CPU 0 instructions: 24000000 cycles: 30799521 heartbeat IPC: 0.375692 cumulative IPC: 0.506678 (Simulation time: 0 hr 6 min 57 sec) 
Heartbeat CPU 0 instructions: 25000000 cycles: 33468393 heartbeat IPC: 0.37469 cumulative IPC: 0.495052 (Simulation time: 0 hr 7 min 16 sec) 
Heartbeat CPU 0 instructions: 26000000 cycles: 36117145 heartbeat IPC: 0.377536 cumulative IPC: 0.485605 (Simulation time: 0 hr 7 min 36 sec) 
Heartbeat CPU 0 instructions: 27000001 cycles: 38783468 heartbeat IPC: 0.375049 cumulative IPC: 0.477328 (Simulation time: 0 hr 7 min 57 sec) 
Heartbeat CPU 0 instructions: 28000000 cycles: 40752027 heartbeat IPC: 0.507985 cumulative IPC: 0.478934 (Simulation time: 0 hr 8 min 21 sec) 
Heartbeat CPU 0 instructions: 29000000 cycles: 42170779 heartbeat IPC: 0.704845 cumulative IPC: 0.487152 (Simulation time: 0 hr 8 min 46 sec) 
Heartbeat CPU 0 instructions: 30000001 cycles: 43600202 heartbeat IPC: 0.699584 cumulative IPC: 0.494662 (Simulation time: 0 hr 9 min 10 sec) 
Heartbeat CPU 0 instructions: 31000000 cycles: 45022097 heartbeat IPC: 0.703286 cumulative IPC: 0.50175 (Simulation time: 0 hr 9 min 35 sec) 
Heartbeat CPU 0 instructions: 32000000 cycles: 46443913 heartbeat IPC: 0.703326 cumulative IPC: 0.508372 (Simulation time: 0 hr 9 min 59 sec) 
Heartbeat CPU 0 instructions: 33000002 cycles: 48478974 heartbeat IPC: 0.491387 cumulative IPC: 0.50761 (Simulation time: 0 hr 10 min 17 sec) 
Heartbeat CPU 0 instructions: 34000000 cycles: 50657199 heartbeat IPC: 0.459088 cumulative IPC: 0.505384 (Simulation time: 0 hr 10 min 35 sec) 
Heartbeat CPU 0 instructions: 35000000 cycles: 52818272 heartbeat IPC: 0.462733 cumulative IPC: 0.503528 (Simulation time: 0 hr 10 min 53 sec) 
Heartbeat CPU 0 instructions: 36000000 cycles: 54989924 heartbeat IPC: 0.460479 cumulative IPC: 0.501724 (Simulation time: 0 hr 11 min 12 sec) 
Heartbeat CPU 0 instructions: 37000002 cycles: 57162997 heartbeat IPC: 0.460179 cumulative IPC: 0.500052 (Simulation time: 0 hr 11 min 31 sec) 
Heartbeat CPU 0 instructions: 38000003 cycles: 58871665 heartbeat IPC: 0.585252 cumulative IPC: 0.502665 (Simulation time: 0 hr 11 min 53 sec) 
Heartbeat CPU 0 instructions: 39000000 cycles: 60283071 heartbeat IPC: 0.708511 cumulative IPC: 0.507752 (Simulation time: 0 hr 12 min 17 sec) 
Heartbeat CPU 0 instructions: 40000000 cycles: 61694543 heartbeat IPC: 0.70848 cumulative IPC: 0.512593 (Simulation time: 0 hr 12 min 41 sec) 
Heartbeat CPU 0 instructions: 41000000 cycles: 63106069 heartbeat IPC: 0.708453 cumulative IPC: 0.517205 (Simulation time: 0 hr 13 min 3 sec) 
Heartbeat CPU 0 instructions: 42000001 cycles: 64517474 heartbeat IPC: 0.708515 cumulative IPC: 0.521607 (Simulation time: 0 hr 13 min 29 sec) 
Heartbeat CPU 0 instructions: 43000000 cycles: 66587209 heartbeat IPC: 0.483153 cumulative IPC: 0.520352 (Simulation time: 0 hr 13 min 50 sec) 
Heartbeat CPU 0 instructions: 44000000 cycles: 68755987 heartbeat IPC: 0.461089 cumulative IPC: 0.518392 (Simulation time: 0 hr 14 min 12 sec) 
Heartbeat CPU 0 instructions: 45000001 cycles: 70919217 heartbeat IPC: 0.462272 cumulative IPC: 0.5166 (Simulation time: 0 hr 14 min 35 sec) 
Heartbeat CPU 0 instructions: 46000002 cycles: 73071346 heartbeat IPC: 0.464657 cumulative IPC: 0.515001 (Simulation time: 0 hr 14 min 54 sec) 
Heartbeat CPU 0 instructions: 47000000 cycles: 75238865 heartbeat IPC: 0.461356 cumulative IPC: 0.513388 (Simulation time: 0 hr 15 min 13 sec) 
Heartbeat CPU 0 instructions: 48000000 cycles: 76973829 heartbeat IPC: 0.576381 cumulative IPC: 0.514868 (Simulation time: 0 hr 15 min 35 sec) 
Heartbeat CPU 0 instructions: 49000002 cycles: 78463266 heartbeat IPC: 0.671396 cumulative IPC: 0.517965 (Simulation time: 0 hr 15 min 57 sec) 
Heartbeat CPU 0 instructions: 50000001 cycles: 79992490 heartbeat IPC: 0.653926 cumulative IPC: 0.520671 (Simulation time: 0 hr 16 min 21 sec) 
Heartbeat CPU 0 instructions: 51000000 cycles: 81512061 heartbeat IPC: 0.65808 cumulative IPC: 0.523336 (Simulation time: 0 hr 16 min 45 sec) 
Heartbeat CPU 0 instructions: 52000000 cycles: 83031735 heartbeat IPC: 0.658036 cumulative IPC: 0.525899 (Simulation time: 0 hr 17 min 7 sec) 
Heartbeat CPU 0 instructions: 53000002 cycles: 84553673 heartbeat IPC: 0.657058 cumulative IPC: 0.528352 (Simulation time: 0 hr 17 min 29 sec) 
Heartbeat CPU 0 instructions: 54000001 cycles: 86073612 heartbeat IPC: 0.65792 cumulative IPC: 0.530728 (Simulation time: 0 hr 17 min 50 sec) 
Heartbeat CPU 0 instructions: 55000000 cycles: 87586049 heartbeat IPC: 0.661184 cumulative IPC: 0.533065 (Simulation time: 0 hr 18 min 17 sec) 
Heartbeat CPU 0 instructions: 56000000 cycles: 89105236 heartbeat IPC: 0.658247 cumulative IPC: 0.535278 (Simulation time: 0 hr 18 min 43 sec) 
Heartbeat CPU 0 instructions: 57000000 cycles: 90624829 heartbeat IPC: 0.658071 cumulative IPC: 0.537411 (Simulation time: 0 hr 19 min 5 sec) 
Heartbeat CPU 0 instructions: 58000002 cycles: 92144300 heartbeat IPC: 0.658125 cumulative IPC: 0.539473 (Simulation time: 0 hr 19 min 31 sec) 
Heartbeat CPU 0 instructions: 59000001 cycles: 93663846 heartbeat IPC: 0.658091 cumulative IPC: 0.541465 (Simulation time: 0 hr 19 min 54 sec) 
Heartbeat CPU 0 instructions: 60000000 cycles: 95183310 heartbeat IPC: 0.658126 cumulative IPC: 0.543391 (Simulation time: 0 hr 20 min 21 sec) 
Heartbeat CPU 0 instructions: 61000003 cycles: 96702930 heartbeat IPC: 0.658061 cumulative IPC: 0.545254 (Simulation time: 0 hr 20 min 48 sec) 
Heartbeat CPU 0 instructions: 62000002 cycles: 98222402 heartbeat IPC: 0.658123 cumulative IPC: 0.547058 (Simulation time: 0 hr 21 min 9 sec) 
Heartbeat CPU 0 instructions: 63000001 cycles: 99739196 heartbeat IPC: 0.659285 cumulative IPC: 0.548821 (Simulation time: 0 hr 21 min 34 sec) 
Heartbeat CPU 0 instructions: 64000000 cycles: 101258573 heartbeat IPC: 0.658164 cumulative IPC: 0.550515 (Simulation time: 0 hr 22 min 2 sec) 
Heartbeat CPU 0 instructions: 65000001 cycles: 102778061 heartbeat IPC: 0.658117 cumulative IPC: 0.552156 (Simulation time: 0 hr 22 min 25 sec) 
Heartbeat CPU 0 instructions: 66000000 cycles: 104295335 heartbeat IPC: 0.659076 cumulative IPC: 0.55376 (Simulation time: 0 hr 22 min 49 sec) 
Heartbeat CPU 0 instructions: 67000001 cycles: 105782170 heartbeat IPC: 0.67257 cumulative IPC: 0.555482 (Simulation time: 0 hr 23 min 12 sec) 
Heartbeat CPU 0 instructions: 68000000 cycles: 107256903 heartbeat IPC: 0.678088 cumulative IPC: 0.557219 (Simulation time: 0 hr 23 min 35 sec) 
Heartbeat CPU 0 instructions: 69000002 cycles: 108753437 heartbeat IPC: 0.668212 cumulative IPC: 0.558792 (Simulation time: 0 hr 23 min 57 sec) 
Heartbeat CPU 0 instructions: 70000001 cycles: 110246085 heartbeat IPC: 0.66995 cumulative IPC: 0.560342 (Simulation time: 0 hr 24 min 23 sec) 
Heartbeat CPU 0 instructions: 71000003 cycles: 111798181 heartbeat IPC: 0.644291 cumulative IPC: 0.561541 (Simulation time: 0 hr 24 min 47 sec) 
Heartbeat CPU 0 instructions: 72000000 cycles: 113944727 heartbeat IPC: 0.465863 cumulative IPC: 0.559687 (Simulation time: 0 hr 25 min 7 sec) 
Heartbeat CPU 0 instructions: 73000000 cycles: 116106717 heartbeat IPC: 0.462537 cumulative IPC: 0.557827 (Simulation time: 0 hr 25 min 25 sec) 
Heartbeat CPU 0 instructions: 74000000 cycles: 118239042 heartbeat IPC: 0.468972 cumulative IPC: 0.556181 (Simulation time: 0 hr 25 min 45 sec) 
Heartbeat CPU 0 instructions: 75000000 cycles: 120387274 heartbeat IPC: 0.465499 cumulative IPC: 0.554519 (Simulation time: 0 hr 26 min 6 sec) 
Heartbeat CPU 0 instructions: 76000000 cycles: 122558745 heartbeat IPC: 0.460517 cumulative IPC: 0.552809 (Simulation time: 0 hr 26 min 24 sec) 
Heartbeat CPU 0 instructions: 77000001 cycles: 124151794 heartbeat IPC: 0.627728 cumulative IPC: 0.553796 (Simulation time: 0 hr 26 min 50 sec) 
Heartbeat CPU 0 instructions: 78000000 cycles: 125656944 heartbeat IPC: 0.664385 cumulative IPC: 0.555155 (Simulation time: 0 hr 27 min 12 sec) 
Heartbeat CPU 0 instructions: 79000001 cycles: 127162167 heartbeat IPC: 0.664354 cumulative IPC: 0.55648 (Simulation time: 0 hr 27 min 36 sec) 
Heartbeat CPU 0 instructions: 80000000 cycles: 128667310 heartbeat IPC: 0.664388 cumulative IPC: 0.557774 (Simulation time: 0 hr 27 min 58 sec) 
Heartbeat CPU 0 instructions: 81000002 cycles: 130270280 heartbeat IPC: 0.623843 cumulative IPC: 0.558608 (Simulation time: 0 hr 28 min 20 sec) 
Heartbeat CPU 0 instructions: 82000003 cycles: 132418538 heartbeat IPC: 0.465494 cumulative IPC: 0.55706 (Simulation time: 0 hr 28 min 40 sec) 
Heartbeat CPU 0 instructions: 83000000 cycles: 134578055 heartbeat IPC: 0.463065 cumulative IPC: 0.555515 (Simulation time: 0 hr 28 min 58 sec) 
Heartbeat CPU 0 instructions: 84000000 cycles: 136739548 heartbeat IPC: 0.462643 cumulative IPC: 0.554013 (Simulation time: 0 hr 29 min 17 sec) 
Heartbeat CPU 0 instructions: 85000002 cycles: 138892527 heartbeat IPC: 0.464474 cumulative IPC: 0.552592 (Simulation time: 0 hr 29 min 35 sec) 
Heartbeat CPU 0 instructions: 86000002 cycles: 141065202 heartbeat IPC: 0.460262 cumulative IPC: 0.551137 (Simulation time: 0 hr 29 min 55 sec) 
Heartbeat CPU 0 instructions: 87000002 cycles: 142714718 heartbeat IPC: 0.606238 cumulative IPC: 0.551789 (Simulation time: 0 hr 30 min 19 sec) 
Heartbeat CPU 0 instructions: 88000000 cycles: 144291301 heartbeat IPC: 0.634282 cumulative IPC: 0.55271 (Simulation time: 0 hr 30 min 44 sec) 
Heartbeat CPU 0 instructions: 89000000 cycles: 145870622 heartbeat IPC: 0.633183 cumulative IPC: 0.553601 (Simulation time: 0 hr 31 min 8 sec) 
Heartbeat CPU 0 instructions: 90000000 cycles: 147772660 heartbeat IPC: 0.525752 cumulative IPC: 0.553235 (Simulation time: 0 hr 31 min 31 sec) 
Heartbeat CPU 0 instructions: 91000001 cycles: 150516774 heartbeat IPC: 0.364417 cumulative IPC: 0.549718 (Simulation time: 0 hr 31 min 50 sec) 
Heartbeat CPU 0 instructions: 92000000 cycles: 153321636 heartbeat IPC: 0.356523 cumulative IPC: 0.546109 (Simulation time: 0 hr 32 min 10 sec) 
Heartbeat CPU 0 instructions: 93000001 cycles: 156210353 heartbeat IPC: 0.346175 cumulative IPC: 0.542336 (Simulation time: 0 hr 32 min 30 sec) 
Heartbeat CPU 0 instructions: 94000001 cycles: 158902266 heartbeat IPC: 0.371483 cumulative IPC: 0.539382 (Simulation time: 0 hr 32 min 49 sec) 
Heartbeat CPU 0 instructions: 95000000 cycles: 160474200 heartbeat IPC: 0.636158 cumulative IPC: 0.540349 (Simulation time: 0 hr 33 min 12 sec) 
Heartbeat CPU 0 instructions: 96000000 cycles: 162046182 heartbeat IPC: 0.63614 cumulative IPC: 0.541297 (Simulation time: 0 hr 33 min 34 sec) 
Heartbeat CPU 0 instructions: 97000002 cycles: 163623721 heartbeat IPC: 0.6339 cumulative IPC: 0.542208 (Simulation time: 0 hr 33 min 59 sec) 
Heartbeat CPU 0 instructions: 98000001 cycles: 165760197 heartbeat IPC: 0.46806 cumulative IPC: 0.541233 (Simulation time: 0 hr 34 min 24 sec) 
Heartbeat CPU 0 instructions: 99000003 cycles: 168461367 heartbeat IPC: 0.370211 cumulative IPC: 0.538438 (Simulation time: 0 hr 34 min 45 sec) 
Heartbeat CPU 0 instructions: 100000000 cycles: 171170092 heartbeat IPC: 0.369176 cumulative IPC: 0.535709 (Simulation time: 0 hr 35 min 3 sec) 
Heartbeat CPU 0 instructions: 101000000 cycles: 173861480 heartbeat IPC: 0.371556 cumulative IPC: 0.533121 (Simulation time: 0 hr 35 min 23 sec) 
Heartbeat CPU 0 instructions: 102000000 cycles: 176102881 heartbeat IPC: 0.44615 cumulative IPC: 0.531994 (Simulation time: 0 hr 35 min 42 sec) 
Heartbeat CPU 0 instructions: 103000002 cycles: 177573746 heartbeat IPC: 0.679873 cumulative IPC: 0.533241 (Simulation time: 0 hr 36 min 0 sec) 
Heartbeat CPU 0 instructions: 104000000 cycles: 179043036 heartbeat IPC: 0.680599 cumulative IPC: 0.534472 (Simulation time: 0 hr 36 min 18 sec) 
Heartbeat CPU 0 instructions: 105000000 cycles: 180532219 heartbeat IPC: 0.671509 cumulative IPC: 0.535623 (Simulation time: 0 hr 36 min 38 sec) 
Heartbeat CPU 0 instructions: 106000003 cycles: 182005608 heartbeat IPC: 0.678709 cumulative IPC: 0.536802 (Simulation time: 0 hr 36 min 53 sec) 
Heartbeat CPU 0 instructions: 107000000 cycles: 184132387 heartbeat IPC: 0.470193 cumulative IPC: 0.536019 (Simulation time: 0 hr 37 min 7 sec) 
Heartbeat CPU 0 instructions: 108000000 cycles: 186582082 heartbeat IPC: 0.408214 cumulative IPC: 0.534312 (Simulation time: 0 hr 37 min 21 sec) 
Heartbeat CPU 0 instructions: 109000002 cycles: 188964447 heartbeat IPC: 0.419752 cumulative IPC: 0.532843 (Simulation time: 0 hr 37 min 33 sec) 
Heartbeat CPU 0 instructions: 110000002 cycles: 191261033 heartbeat IPC: 0.435429 cumulative IPC: 0.531653 (Simulation time: 0 hr 37 min 45 sec) 
Finished CPU 0 instructions: 100000000 cycles: 188092469 cummulative IPC: 0.531653 (Simulation time: 0 hr 37 min 45 sec) 

ChampSim completed all CPUs

Region of Interest Statistics

CPU 0 cummulative IPC: 0.531653 instructions: 100000000 cycles: 188092469
LLC TOTAL     ACCESS:    3801551  HIT:     103966  MISS:    3697585
LLC LOAD      ACCESS:     657054  HIT:       6175  MISS:     650879
LLC RFO       ACCESS:         20  HIT:         15  MISS:          5
LLC PREFETCH  ACCESS:    2132372  HIT:      32616  MISS:    2099756
LLC WRITEBACK ACCESS:    1012105  HIT:      65160  MISS:     946945
