
*** ChampSim Multicore Out-of-Order Simulator ***

Warmup Instructions: 10000000
Simulation Instructions: 100000000
Configuration: 2
Number of CPUs: 1
LLC sets: 2048
LLC ways: 16
Off-chip DRAM Channels: 1 Width: 64-bit Data Rate: 1600 MT/s

CPU 0 runs /datasets/cs240c-wi22-a00-public/data/Assignment2-gz/perlbench_135B.trace.gz
CPU 0 L1D next line prefetcher
CPU 0 L2C IP-based stride prefetcher
Initialize SRRIP state
Heartbeat CPU 0 instructions: 1000000 cycles: 600033 heartbeat IPC: 1.66657 cumulative IPC: 1.66657 (Simulation time: 0 hr 0 min 42 sec) 
Heartbeat CPU 0 instructions: 2000000 cycles: 1209304 heartbeat IPC: 1.64131 cumulative IPC: 1.65384 (Simulation time: 0 hr 1 min 25 sec) 
Heartbeat CPU 0 instructions: 3000000 cycles: 1832837 heartbeat IPC: 1.60376 cumulative IPC: 1.63681 (Simulation time: 0 hr 2 min 4 sec) 
Heartbeat CPU 0 instructions: 4000000 cycles: 2492645 heartbeat IPC: 1.51559 cumulative IPC: 1.60472 (Simulation time: 0 hr 2 min 50 sec) 
Heartbeat CPU 0 instructions: 5000001 cycles: 3079308 heartbeat IPC: 1.70456 cumulative IPC: 1.62374 (Simulation time: 0 hr 3 min 23 sec) 
Heartbeat CPU 0 instructions: 6000002 cycles: 3681733 heartbeat IPC: 1.65996 cumulative IPC: 1.62967 (Simulation time: 0 hr 3 min 59 sec) 
Heartbeat CPU 0 instructions: 7000001 cycles: 4282494 heartbeat IPC: 1.66455 cumulative IPC: 1.63456 (Simulation time: 0 hr 4 min 34 sec) 
Heartbeat CPU 0 instructions: 8000000 cycles: 4892986 heartbeat IPC: 1.63802 cumulative IPC: 1.63499 (Simulation time: 0 hr 5 min 17 sec) 
Heartbeat CPU 0 instructions: 9000001 cycles: 5534102 heartbeat IPC: 1.55978 cumulative IPC: 1.62628 (Simulation time: 0 hr 5 min 56 sec) 
Heartbeat CPU 0 instructions: 10000000 cycles: 6192789 heartbeat IPC: 1.51817 cumulative IPC: 1.61478 (Simulation time: 0 hr 6 min 32 sec) 

Warmup complete CPU 0 instructions: 10000004 cycles: 6192790 (Simulation time: 0 hr 6 min 32 sec) 

Heartbeat CPU 0 instructions: 11000003 cycles: 8935519 heartbeat IPC: 0.364601 cumulative IPC: 0.3646 (Simulation time: 0 hr 7 min 25 sec) 
Heartbeat CPU 0 instructions: 12000000 cycles: 11272814 heartbeat IPC: 0.427844 cumulative IPC: 0.393698 (Simulation time: 0 hr 8 min 10 sec) 
Heartbeat CPU 0 instructions: 13000000 cycles: 13823379 heartbeat IPC: 0.39207 cumulative IPC: 0.393154 (Simulation time: 0 hr 8 min 58 sec) 
Heartbeat CPU 0 instructions: 14000000 cycles: 16827872 heartbeat IPC: 0.332835 cumulative IPC: 0.376113 (Simulation time: 0 hr 9 min 47 sec) 
Heartbeat CPU 0 instructions: 15000003 cycles: 19505811 heartbeat IPC: 0.373423 cumulative IPC: 0.375572 (Simulation time: 0 hr 10 min 35 sec) 
Heartbeat CPU 0 instructions: 16000000 cycles: 22139304 heartbeat IPC: 0.379723 cumulative IPC: 0.376258 (Simulation time: 0 hr 11 min 24 sec) 
Heartbeat CPU 0 instructions: 17000000 cycles: 24841765 heartbeat IPC: 0.370033 cumulative IPC: 0.375356 (Simulation time: 0 hr 12 min 11 sec) 
Heartbeat CPU 0 instructions: 18000000 cycles: 27524382 heartbeat IPC: 0.37277 cumulative IPC: 0.37503 (Simulation time: 0 hr 12 min 56 sec) 
Heartbeat CPU 0 instructions: 19000003 cycles: 30156847 heartbeat IPC: 0.379873 cumulative IPC: 0.375562 (Simulation time: 0 hr 13 min 44 sec) 
Heartbeat CPU 0 instructions: 20000000 cycles: 32795889 heartbeat IPC: 0.378924 cumulative IPC: 0.375896 (Simulation time: 0 hr 14 min 32 sec) 
Heartbeat CPU 0 instructions: 21000000 cycles: 35421620 heartbeat IPC: 0.380846 cumulative IPC: 0.376341 (Simulation time: 0 hr 15 min 12 sec) 
Heartbeat CPU 0 instructions: 22000002 cycles: 38049342 heartbeat IPC: 0.380559 cumulative IPC: 0.376689 (Simulation time: 0 hr 15 min 59 sec) 
Heartbeat CPU 0 instructions: 23000003 cycles: 40707352 heartbeat IPC: 0.376222 cumulative IPC: 0.376653 (Simulation time: 0 hr 16 min 51 sec) 
Heartbeat CPU 0 instructions: 24000000 cycles: 42803865 heartbeat IPC: 0.476981 cumulative IPC: 0.382398 (Simulation time: 0 hr 17 min 33 sec) 
Heartbeat CPU 0 instructions: 25000000 cycles: 45410196 heartbeat IPC: 0.383681 cumulative IPC: 0.382483 (Simulation time: 0 hr 18 min 23 sec) 
Heartbeat CPU 0 instructions: 26000001 cycles: 47964229 heartbeat IPC: 0.391538 cumulative IPC: 0.383037 (Simulation time: 0 hr 19 min 13 sec) 
Heartbeat CPU 0 instructions: 27000000 cycles: 50628913 heartbeat IPC: 0.375279 cumulative IPC: 0.382572 (Simulation time: 0 hr 20 min 4 sec) 
Heartbeat CPU 0 instructions: 28000000 cycles: 53269389 heartbeat IPC: 0.37872 cumulative IPC: 0.382355 (Simulation time: 0 hr 20 min 51 sec) 
Heartbeat CPU 0 instructions: 29000000 cycles: 55895783 heartbeat IPC: 0.38075 cumulative IPC: 0.382271 (Simulation time: 0 hr 21 min 44 sec) 
Heartbeat CPU 0 instructions: 30000000 cycles: 58610750 heartbeat IPC: 0.368329 cumulative IPC: 0.381549 (Simulation time: 0 hr 22 min 37 sec) 
Heartbeat CPU 0 instructions: 31000001 cycles: 61247709 heartbeat IPC: 0.379225 cumulative IPC: 0.381437 (Simulation time: 0 hr 23 min 27 sec) 
Heartbeat CPU 0 instructions: 32000000 cycles: 63898790 heartbeat IPC: 0.377204 cumulative IPC: 0.381243 (Simulation time: 0 hr 24 min 16 sec) 
Heartbeat CPU 0 instructions: 33000000 cycles: 66526033 heartbeat IPC: 0.380627 cumulative IPC: 0.381216 (Simulation time: 0 hr 25 min 6 sec) 
Heartbeat CPU 0 instructions: 34000001 cycles: 69135785 heartbeat IPC: 0.383179 cumulative IPC: 0.381297 (Simulation time: 0 hr 25 min 52 sec) 
Heartbeat CPU 0 instructions: 35000003 cycles: 71786984 heartbeat IPC: 0.377189 cumulative IPC: 0.381131 (Simulation time: 0 hr 26 min 35 sec) 
Heartbeat CPU 0 instructions: 36000000 cycles: 74088872 heartbeat IPC: 0.434425 cumulative IPC: 0.382938 (Simulation time: 0 hr 27 min 25 sec) 
Heartbeat CPU 0 instructions: 37000000 cycles: 76377314 heartbeat IPC: 0.436979 cumulative IPC: 0.3847 (Simulation time: 0 hr 28 min 16 sec) 
Heartbeat CPU 0 instructions: 38000000 cycles: 78465016 heartbeat IPC: 0.478996 cumulative IPC: 0.387424 (Simulation time: 0 hr 28 min 56 sec) 
Heartbeat CPU 0 instructions: 39000000 cycles: 80759889 heartbeat IPC: 0.435754 cumulative IPC: 0.388911 (Simulation time: 0 hr 29 min 38 sec) 
Heartbeat CPU 0 instructions: 40000000 cycles: 82713272 heartbeat IPC: 0.511932 cumulative IPC: 0.392052 (Simulation time: 0 hr 30 min 21 sec) 
Heartbeat CPU 0 instructions: 41000001 cycles: 84793141 heartbeat IPC: 0.4808 cumulative IPC: 0.3944 (Simulation time: 0 hr 31 min 7 sec) 
Heartbeat CPU 0 instructions: 42000003 cycles: 87412274 heartbeat IPC: 0.381806 cumulative IPC: 0.393994 (Simulation time: 0 hr 31 min 58 sec) 
Heartbeat CPU 0 instructions: 43000001 cycles: 89975192 heartbeat IPC: 0.390179 cumulative IPC: 0.393877 (Simulation time: 0 hr 32 min 57 sec) 
Heartbeat CPU 0 instructions: 44000000 cycles: 92269683 heartbeat IPC: 0.435826 cumulative IPC: 0.394996 (Simulation time: 0 hr 33 min 51 sec) 
Heartbeat CPU 0 instructions: 45000003 cycles: 94901814 heartbeat IPC: 0.379921 cumulative IPC: 0.394548 (Simulation time: 0 hr 34 min 41 sec) 
Heartbeat CPU 0 instructions: 46000003 cycles: 97573154 heartbeat IPC: 0.374344 cumulative IPC: 0.393958 (Simulation time: 0 hr 35 min 28 sec) 
Heartbeat CPU 0 instructions: 47000000 cycles: 100200284 heartbeat IPC: 0.380642 cumulative IPC: 0.393586 (Simulation time: 0 hr 36 min 12 sec) 
Heartbeat CPU 0 instructions: 48000000 cycles: 102813771 heartbeat IPC: 0.382631 cumulative IPC: 0.393289 (Simulation time: 0 hr 37 min 1 sec) 
Heartbeat CPU 0 instructions: 49000000 cycles: 105480437 heartbeat IPC: 0.375 cumulative IPC: 0.392798 (Simulation time: 0 hr 37 min 48 sec) 
Heartbeat CPU 0 instructions: 50000001 cycles: 108105761 heartbeat IPC: 0.380906 cumulative IPC: 0.392492 (Simulation time: 0 hr 38 min 30 sec) 
Heartbeat CPU 0 instructions: 51000000 cycles: 110724142 heartbeat IPC: 0.381915 cumulative IPC: 0.392227 (Simulation time: 0 hr 39 min 10 sec) 
Heartbeat CPU 0 instructions: 52000000 cycles: 113334787 heartbeat IPC: 0.383047 cumulative IPC: 0.392003 (Simulation time: 0 hr 39 min 56 sec) 
Heartbeat CPU 0 instructions: 53000000 cycles: 115918853 heartbeat IPC: 0.386987 cumulative IPC: 0.391885 (Simulation time: 0 hr 40 min 42 sec) 
Heartbeat CPU 0 instructions: 54000001 cycles: 118557862 heartbeat IPC: 0.378931 cumulative IPC: 0.391581 (Simulation time: 0 hr 41 min 28 sec) 
Heartbeat CPU 0 instructions: 55000001 cycles: 121005364 heartbeat IPC: 0.40858 cumulative IPC: 0.391943 (Simulation time: 0 hr 42 min 18 sec) 
Heartbeat CPU 0 instructions: 56000000 cycles: 123129189 heartbeat IPC: 0.470848 cumulative IPC: 0.393376 (Simulation time: 0 hr 43 min 2 sec) 
Heartbeat CPU 0 instructions: 57000000 cycles: 125330456 heartbeat IPC: 0.454284 cumulative IPC: 0.394502 (Simulation time: 0 hr 43 min 53 sec) 
Heartbeat CPU 0 instructions: 58000002 cycles: 127278245 heartbeat IPC: 0.513404 cumulative IPC: 0.396414 (Simulation time: 0 hr 44 min 35 sec) 
Heartbeat CPU 0 instructions: 59000003 cycles: 129397415 heartbeat IPC: 0.471883 cumulative IPC: 0.397712 (Simulation time: 0 hr 45 min 22 sec) 
Heartbeat CPU 0 instructions: 60000000 cycles: 132364783 heartbeat IPC: 0.336998 cumulative IPC: 0.396284 (Simulation time: 0 hr 46 min 9 sec) 
Heartbeat CPU 0 instructions: 61000000 cycles: 134777803 heartbeat IPC: 0.414418 cumulative IPC: 0.396625 (Simulation time: 0 hr 46 min 53 sec) 
Heartbeat CPU 0 instructions: 62000001 cycles: 137566263 heartbeat IPC: 0.358621 cumulative IPC: 0.395818 (Simulation time: 0 hr 47 min 37 sec) 
Heartbeat CPU 0 instructions: 63000000 cycles: 140508834 heartbeat IPC: 0.339839 cumulative IPC: 0.394592 (Simulation time: 0 hr 48 min 19 sec) 
Heartbeat CPU 0 instructions: 64000000 cycles: 143424431 heartbeat IPC: 0.342983 cumulative IPC: 0.393495 (Simulation time: 0 hr 48 min 58 sec) 
Heartbeat CPU 0 instructions: 65000001 cycles: 146314651 heartbeat IPC: 0.345995 cumulative IPC: 0.392515 (Simulation time: 0 hr 49 min 49 sec) 
Heartbeat CPU 0 instructions: 66000001 cycles: 149174310 heartbeat IPC: 0.349692 cumulative IPC: 0.391659 (Simulation time: 0 hr 50 min 32 sec) 
Heartbeat CPU 0 instructions: 67000001 cycles: 151896137 heartbeat IPC: 0.3674 cumulative IPC: 0.391206 (Simulation time: 0 hr 51 min 14 sec) 
Heartbeat CPU 0 instructions: 68000000 cycles: 154627005 heartbeat IPC: 0.366184 cumulative IPC: 0.390745 (Simulation time: 0 hr 51 min 58 sec) 
Heartbeat CPU 0 instructions: 69000002 cycles: 157575597 heartbeat IPC: 0.339146 cumulative IPC: 0.38974 (Simulation time: 0 hr 52 min 52 sec) 
Heartbeat CPU 0 instructions: 70000003 cycles: 159381476 heartbeat IPC: 0.553748 cumulative IPC: 0.391674 (Simulation time: 0 hr 53 min 28 sec) 
Heartbeat CPU 0 instructions: 71000000 cycles: 161301221 heartbeat IPC: 0.520901 cumulative IPC: 0.393273 (Simulation time: 0 hr 54 min 10 sec) 
Heartbeat CPU 0 instructions: 72000000 cycles: 163288076 heartbeat IPC: 0.503308 cumulative IPC: 0.394665 (Simulation time: 0 hr 54 min 45 sec) 
Heartbeat CPU 0 instructions: 73000000 cycles: 165556509 heartbeat IPC: 0.440833 cumulative IPC: 0.395322 (Simulation time: 0 hr 55 min 28 sec) 
Heartbeat CPU 0 instructions: 74000000 cycles: 167475055 heartbeat IPC: 0.521228 cumulative IPC: 0.39682 (Simulation time: 0 hr 56 min 6 sec) 
Heartbeat CPU 0 instructions: 75000003 cycles: 169709083 heartbeat IPC: 0.447623 cumulative IPC: 0.397514 (Simulation time: 0 hr 56 min 44 sec) 
Heartbeat CPU 0 instructions: 76000000 cycles: 172446295 heartbeat IPC: 0.365334 cumulative IPC: 0.396984 (Simulation time: 0 hr 57 min 27 sec) 
Heartbeat CPU 0 instructions: 77000000 cycles: 175137037 heartbeat IPC: 0.371645 cumulative IPC: 0.396581 (Simulation time: 0 hr 58 min 2 sec) 
Heartbeat CPU 0 instructions: 78000000 cycles: 178085548 heartbeat IPC: 0.339154 cumulative IPC: 0.395595 (Simulation time: 0 hr 58 min 46 sec) 
Heartbeat CPU 0 instructions: 79000000 cycles: 179942241 heartbeat IPC: 0.538592 cumulative IPC: 0.397124 (Simulation time: 0 hr 59 min 22 sec) 
Heartbeat CPU 0 instructions: 80000000 cycles: 181726866 heartbeat IPC: 0.560342 cumulative IPC: 0.398783 (Simulation time: 0 hr 59 min 53 sec) 
Heartbeat CPU 0 instructions: 81000000 cycles: 183648262 heartbeat IPC: 0.520455 cumulative IPC: 0.4001 (Simulation time: 1 hr 0 min 21 sec) 
Heartbeat CPU 0 instructions: 82000000 cycles: 185565801 heartbeat IPC: 0.521502 cumulative IPC: 0.401398 (Simulation time: 1 hr 0 min 50 sec) 
Heartbeat CPU 0 instructions: 83000000 cycles: 187891549 heartbeat IPC: 0.429969 cumulative IPC: 0.401764 (Simulation time: 1 hr 1 min 18 sec) 
Heartbeat CPU 0 instructions: 84000000 cycles: 189844423 heartbeat IPC: 0.512066 cumulative IPC: 0.402937 (Simulation time: 1 hr 1 min 43 sec) 
Heartbeat CPU 0 instructions: 85000000 cycles: 191765438 heartbeat IPC: 0.520558 cumulative IPC: 0.404154 (Simulation time: 1 hr 2 min 6 sec) 
Heartbeat CPU 0 instructions: 86000002 cycles: 193683967 heartbeat IPC: 0.521234 cumulative IPC: 0.405352 (Simulation time: 1 hr 2 min 28 sec) 
Heartbeat CPU 0 instructions: 87000003 cycles: 195848189 heartbeat IPC: 0.46206 cumulative IPC: 0.406 (Simulation time: 1 hr 2 min 51 sec) 
Heartbeat CPU 0 instructions: 88000000 cycles: 198618452 heartbeat IPC: 0.360975 cumulative IPC: 0.405351 (Simulation time: 1 hr 3 min 15 sec) 
Heartbeat CPU 0 instructions: 89000003 cycles: 201182451 heartbeat IPC: 0.390017 cumulative IPC: 0.40515 (Simulation time: 1 hr 3 min 42 sec) 
Heartbeat CPU 0 instructions: 90000001 cycles: 204057909 heartbeat IPC: 0.34777 cumulative IPC: 0.404316 (Simulation time: 1 hr 4 min 8 sec) 
Heartbeat CPU 0 instructions: 91000000 cycles: 206536623 heartbeat IPC: 0.403435 cumulative IPC: 0.404305 (Simulation time: 1 hr 4 min 31 sec) 
Heartbeat CPU 0 instructions: 92000000 cycles: 208991339 heartbeat IPC: 0.407379 cumulative IPC: 0.404342 (Simulation time: 1 hr 4 min 54 sec) 
Heartbeat CPU 0 instructions: 93000000 cycles: 211684135 heartbeat IPC: 0.371361 cumulative IPC: 0.40391 (Simulation time: 1 hr 5 min 16 sec) 
Heartbeat CPU 0 instructions: 94000001 cycles: 214343699 heartbeat IPC: 0.376002 cumulative IPC: 0.403553 (Simulation time: 1 hr 5 min 40 sec) 
Heartbeat CPU 0 instructions: 95000000 cycles: 217189480 heartbeat IPC: 0.351397 cumulative IPC: 0.40285 (Simulation time: 1 hr 6 min 3 sec) 
Heartbeat CPU 0 instructions: 96000000 cycles: 220231550 heartbeat IPC: 0.328724 cumulative IPC: 0.401796 (Simulation time: 1 hr 6 min 27 sec) 
Heartbeat CPU 0 instructions: 97000001 cycles: 223168093 heartbeat IPC: 0.340537 cumulative IPC: 0.400967 (Simulation time: 1 hr 6 min 52 sec) 
Heartbeat CPU 0 instructions: 98000000 cycles: 225825507 heartbeat IPC: 0.376305 cumulative IPC: 0.400669 (Simulation time: 1 hr 7 min 12 sec) 
Heartbeat CPU 0 instructions: 99000000 cycles: 228424004 heartbeat IPC: 0.384838 cumulative IPC: 0.400484 (Simulation time: 1 hr 7 min 32 sec) 
Heartbeat CPU 0 instructions: 100000000 cycles: 231046752 heartbeat IPC: 0.381279 cumulative IPC: 0.40026 (Simulation time: 1 hr 7 min 52 sec) 
Heartbeat CPU 0 instructions: 101000001 cycles: 233647560 heartbeat IPC: 0.384496 cumulative IPC: 0.40008 (Simulation time: 1 hr 8 min 11 sec) 
Heartbeat CPU 0 instructions: 102000000 cycles: 236275555 heartbeat IPC: 0.380518 cumulative IPC: 0.399856 (Simulation time: 1 hr 8 min 29 sec) 
Heartbeat CPU 0 instructions: 103000000 cycles: 238922441 heartbeat IPC: 0.377802 cumulative IPC: 0.399605 (Simulation time: 1 hr 8 min 48 sec) 
Heartbeat CPU 0 instructions: 104000000 cycles: 241651893 heartbeat IPC: 0.366374 cumulative IPC: 0.39922 (Simulation time: 1 hr 9 min 4 sec) 
Heartbeat CPU 0 instructions: 105000001 cycles: 244255934 heartbeat IPC: 0.384019 cumulative IPC: 0.399054 (Simulation time: 1 hr 9 min 19 sec) 
Heartbeat CPU 0 instructions: 106000001 cycles: 246873828 heartbeat IPC: 0.381986 cumulative IPC: 0.398868 (Simulation time: 1 hr 9 min 34 sec) 
Heartbeat CPU 0 instructions: 107000000 cycles: 249488356 heartbeat IPC: 0.382478 cumulative IPC: 0.398692 (Simulation time: 1 hr 9 min 50 sec) 
Heartbeat CPU 0 instructions: 108000000 cycles: 252099276 heartbeat IPC: 0.383007 cumulative IPC: 0.398525 (Simulation time: 1 hr 10 min 3 sec) 
Heartbeat CPU 0 instructions: 109000001 cycles: 254673546 heartbeat IPC: 0.38846 cumulative IPC: 0.398421 (Simulation time: 1 hr 10 min 16 sec) 
Heartbeat CPU 0 instructions: 110000003 cycles: 256828068 heartbeat IPC: 0.464141 cumulative IPC: 0.398986 (Simulation time: 1 hr 10 min 25 sec) 
Finished CPU 0 instructions: 100000003 cycles: 250635279 cummulative IPC: 0.398986 (Simulation time: 1 hr 10 min 25 sec) 

ChampSim completed all CPUs

Region of Interest Statistics

CPU 0 cummulative IPC: 0.398986 instructions: 100000003 cycles: 250635279
LLC TOTAL     ACCESS:     635544  HIT:     576623  MISS:      58921
LLC LOAD      ACCESS:     295083  HIT:     284965  MISS:      10118
LLC RFO       ACCESS:      30363  HIT:      25994  MISS:       4369
LLC PREFETCH  ACCESS:     206817  HIT:     163675  MISS:      43142
LLC WRITEBACK ACCESS:     103281  HIT:     101989  MISS:       1292
Insertion Distribution: 
	LOAD 4769 0 18680 838 
	RFO 226 0 5367 540 
	PREF 0 577 28449 26994 
	WRITEBACK 0 0 0 1600 
Total Prefetch Downgrades: 3420
