
*** ChampSim Multicore Out-of-Order Simulator ***

Warmup Instructions: 10000000
Simulation Instructions: 100000000
Configuration: 2
Number of CPUs: 1
LLC sets: 2048
LLC ways: 16
Off-chip DRAM Channels: 1 Width: 64-bit Data Rate: 1600 MT/s

CPU 0 runs /datasets/cs240c-wi22-a00-public/data/Assignment2-gz/leslie3d_94B.trace.gz
CPU 0 L1D next line prefetcher
CPU 0 L2C IP-based stride prefetcher
Initialize SRRIP state
Heartbeat CPU 0 instructions: 1000003 cycles: 597056 heartbeat IPC: 1.67489 cumulative IPC: 1.67489 (Simulation time: 0 hr 0 min 44 sec) 
Heartbeat CPU 0 instructions: 2000002 cycles: 1215907 heartbeat IPC: 1.6159 cumulative IPC: 1.64486 (Simulation time: 0 hr 1 min 23 sec) 
Heartbeat CPU 0 instructions: 3000003 cycles: 1867671 heartbeat IPC: 1.5343 cumulative IPC: 1.60628 (Simulation time: 0 hr 2 min 6 sec) 
Heartbeat CPU 0 instructions: 4000000 cycles: 2518897 heartbeat IPC: 1.53556 cumulative IPC: 1.588 (Simulation time: 0 hr 2 min 45 sec) 
Heartbeat CPU 0 instructions: 5000002 cycles: 3083890 heartbeat IPC: 1.76994 cumulative IPC: 1.62133 (Simulation time: 0 hr 3 min 22 sec) 
Heartbeat CPU 0 instructions: 6000002 cycles: 3734519 heartbeat IPC: 1.53697 cumulative IPC: 1.60663 (Simulation time: 0 hr 4 min 0 sec) 
Heartbeat CPU 0 instructions: 7000000 cycles: 4385212 heartbeat IPC: 1.53682 cumulative IPC: 1.59627 (Simulation time: 0 hr 4 min 41 sec) 
Heartbeat CPU 0 instructions: 8000000 cycles: 4950201 heartbeat IPC: 1.76995 cumulative IPC: 1.6161 (Simulation time: 0 hr 5 min 17 sec) 
Heartbeat CPU 0 instructions: 9000000 cycles: 5601051 heartbeat IPC: 1.53645 cumulative IPC: 1.60684 (Simulation time: 0 hr 5 min 58 sec) 
Heartbeat CPU 0 instructions: 10000001 cycles: 6252262 heartbeat IPC: 1.5356 cumulative IPC: 1.59942 (Simulation time: 0 hr 6 min 37 sec) 

Warmup complete CPU 0 instructions: 10000001 cycles: 6252262 (Simulation time: 0 hr 6 min 37 sec) 

Heartbeat CPU 0 instructions: 11000000 cycles: 7479059 heartbeat IPC: 0.81513 cumulative IPC: 0.81513 (Simulation time: 0 hr 7 min 18 sec) 
Heartbeat CPU 0 instructions: 12000000 cycles: 9295808 heartbeat IPC: 0.550434 cumulative IPC: 0.657128 (Simulation time: 0 hr 8 min 0 sec) 
Heartbeat CPU 0 instructions: 13000000 cycles: 11041010 heartbeat IPC: 0.573 cumulative IPC: 0.626468 (Simulation time: 0 hr 8 min 38 sec) 
Heartbeat CPU 0 instructions: 14000001 cycles: 12895840 heartbeat IPC: 0.539133 cumulative IPC: 0.602085 (Simulation time: 0 hr 9 min 22 sec) 
Heartbeat CPU 0 instructions: 15000001 cycles: 14584163 heartbeat IPC: 0.592304 cumulative IPC: 0.600103 (Simulation time: 0 hr 10 min 2 sec) 
Heartbeat CPU 0 instructions: 16000000 cycles: 16429603 heartbeat IPC: 0.541876 cumulative IPC: 0.589545 (Simulation time: 0 hr 10 min 51 sec) 
Heartbeat CPU 0 instructions: 17000000 cycles: 18190244 heartbeat IPC: 0.567975 cumulative IPC: 0.586364 (Simulation time: 0 hr 11 min 35 sec) 
Heartbeat CPU 0 instructions: 18000002 cycles: 20002100 heartbeat IPC: 0.551921 cumulative IPC: 0.581825 (Simulation time: 0 hr 12 min 19 sec) 
Heartbeat CPU 0 instructions: 19000001 cycles: 21809416 heartbeat IPC: 0.553306 cumulative IPC: 0.578512 (Simulation time: 0 hr 13 min 1 sec) 
Heartbeat CPU 0 instructions: 20000000 cycles: 23703960 heartbeat IPC: 0.527831 cumulative IPC: 0.57301 (Simulation time: 0 hr 13 min 45 sec) 
Heartbeat CPU 0 instructions: 21000002 cycles: 25330496 heartbeat IPC: 0.614805 cumulative IPC: 0.576573 (Simulation time: 0 hr 14 min 35 sec) 
Heartbeat CPU 0 instructions: 22000002 cycles: 27634038 heartbeat IPC: 0.434114 cumulative IPC: 0.561226 (Simulation time: 0 hr 15 min 26 sec) 
Heartbeat CPU 0 instructions: 23000000 cycles: 29958280 heartbeat IPC: 0.430247 cumulative IPC: 0.548384 (Simulation time: 0 hr 16 min 16 sec) 
Heartbeat CPU 0 instructions: 24000000 cycles: 32213620 heartbeat IPC: 0.443392 cumulative IPC: 0.539263 (Simulation time: 0 hr 17 min 6 sec) 
Heartbeat CPU 0 instructions: 25000000 cycles: 34568259 heartbeat IPC: 0.424694 cumulative IPC: 0.529736 (Simulation time: 0 hr 17 min 52 sec) 
Heartbeat CPU 0 instructions: 26000002 cycles: 36830653 heartbeat IPC: 0.442011 cumulative IPC: 0.523245 (Simulation time: 0 hr 18 min 50 sec) 
Heartbeat CPU 0 instructions: 27000001 cycles: 39180290 heartbeat IPC: 0.425597 cumulative IPC: 0.516277 (Simulation time: 0 hr 19 min 44 sec) 
Heartbeat CPU 0 instructions: 28000000 cycles: 41541742 heartbeat IPC: 0.423468 cumulative IPC: 0.510067 (Simulation time: 0 hr 20 min 38 sec) 
Heartbeat CPU 0 instructions: 29000000 cycles: 43865620 heartbeat IPC: 0.430315 cumulative IPC: 0.50514 (Simulation time: 0 hr 21 min 30 sec) 
Heartbeat CPU 0 instructions: 30000000 cycles: 45213767 heartbeat IPC: 0.741759 cumulative IPC: 0.513327 (Simulation time: 0 hr 22 min 14 sec) 
Heartbeat CPU 0 instructions: 31000002 cycles: 46446971 heartbeat IPC: 0.810897 cumulative IPC: 0.522457 (Simulation time: 0 hr 23 min 3 sec) 
Heartbeat CPU 0 instructions: 32000000 cycles: 47711961 heartbeat IPC: 0.790519 cumulative IPC: 0.530636 (Simulation time: 0 hr 23 min 47 sec) 
Heartbeat CPU 0 instructions: 33000001 cycles: 48958855 heartbeat IPC: 0.801994 cumulative IPC: 0.538559 (Simulation time: 0 hr 24 min 30 sec) 
Heartbeat CPU 0 instructions: 34000003 cycles: 50246590 heartbeat IPC: 0.776559 cumulative IPC: 0.545525 (Simulation time: 0 hr 25 min 15 sec) 
Heartbeat CPU 0 instructions: 35000001 cycles: 51501579 heartbeat IPC: 0.796818 cumulative IPC: 0.552495 (Simulation time: 0 hr 26 min 3 sec) 
Heartbeat CPU 0 instructions: 36000000 cycles: 52807153 heartbeat IPC: 0.765946 cumulative IPC: 0.558481 (Simulation time: 0 hr 26 min 47 sec) 
Heartbeat CPU 0 instructions: 37000003 cycles: 54068938 heartbeat IPC: 0.79253 cumulative IPC: 0.564657 (Simulation time: 0 hr 27 min 36 sec) 
Heartbeat CPU 0 instructions: 38000000 cycles: 55336392 heartbeat IPC: 0.788981 cumulative IPC: 0.570449 (Simulation time: 0 hr 28 min 26 sec) 
Heartbeat CPU 0 instructions: 39000002 cycles: 56616838 heartbeat IPC: 0.780979 cumulative IPC: 0.575802 (Simulation time: 0 hr 29 min 14 sec) 
Heartbeat CPU 0 instructions: 40000000 cycles: 57862468 heartbeat IPC: 0.802805 cumulative IPC: 0.58128 (Simulation time: 0 hr 30 min 1 sec) 
Heartbeat CPU 0 instructions: 41000002 cycles: 59174906 heartbeat IPC: 0.761942 cumulative IPC: 0.585761 (Simulation time: 0 hr 30 min 40 sec) 
Heartbeat CPU 0 instructions: 42000002 cycles: 60427261 heartbeat IPC: 0.798496 cumulative IPC: 0.590678 (Simulation time: 0 hr 31 min 22 sec) 
Heartbeat CPU 0 instructions: 43000002 cycles: 61733830 heartbeat IPC: 0.765363 cumulative IPC: 0.594792 (Simulation time: 0 hr 32 min 11 sec) 
Heartbeat CPU 0 instructions: 44000000 cycles: 62990043 heartbeat IPC: 0.796042 cumulative IPC: 0.599248 (Simulation time: 0 hr 32 min 55 sec) 
Heartbeat CPU 0 instructions: 45000003 cycles: 64259120 heartbeat IPC: 0.787977 cumulative IPC: 0.603377 (Simulation time: 0 hr 33 min 39 sec) 
Heartbeat CPU 0 instructions: 46000001 cycles: 65570110 heartbeat IPC: 0.762781 cumulative IPC: 0.6069 (Simulation time: 0 hr 34 min 26 sec) 
Heartbeat CPU 0 instructions: 47000000 cycles: 66830085 heartbeat IPC: 0.793666 cumulative IPC: 0.610785 (Simulation time: 0 hr 35 min 10 sec) 
Heartbeat CPU 0 instructions: 48000000 cycles: 68152908 heartbeat IPC: 0.755959 cumulative IPC: 0.613887 (Simulation time: 0 hr 35 min 51 sec) 
Heartbeat CPU 0 instructions: 49000001 cycles: 69418702 heartbeat IPC: 0.790019 cumulative IPC: 0.617416 (Simulation time: 0 hr 36 min 36 sec) 
Heartbeat CPU 0 instructions: 50000001 cycles: 70728155 heartbeat IPC: 0.763678 cumulative IPC: 0.620387 (Simulation time: 0 hr 37 min 22 sec) 
Heartbeat CPU 0 instructions: 51000003 cycles: 72009961 heartbeat IPC: 0.780151 cumulative IPC: 0.623501 (Simulation time: 0 hr 38 min 7 sec) 
Heartbeat CPU 0 instructions: 52000000 cycles: 73278621 heartbeat IPC: 0.788231 cumulative IPC: 0.626619 (Simulation time: 0 hr 38 min 48 sec) 
Heartbeat CPU 0 instructions: 53000002 cycles: 74596880 heartbeat IPC: 0.758578 cumulative IPC: 0.629164 (Simulation time: 0 hr 39 min 29 sec) 
Heartbeat CPU 0 instructions: 54000001 cycles: 75862740 heartbeat IPC: 0.789976 cumulative IPC: 0.632089 (Simulation time: 0 hr 40 min 10 sec) 
Heartbeat CPU 0 instructions: 55000000 cycles: 77171201 heartbeat IPC: 0.764256 cumulative IPC: 0.634527 (Simulation time: 0 hr 40 min 57 sec) 
Heartbeat CPU 0 instructions: 56000000 cycles: 78469254 heartbeat IPC: 0.770385 cumulative IPC: 0.636969 (Simulation time: 0 hr 41 min 46 sec) 
Heartbeat CPU 0 instructions: 57000000 cycles: 79775034 heartbeat IPC: 0.765826 cumulative IPC: 0.639258 (Simulation time: 0 hr 42 min 31 sec) 
Heartbeat CPU 0 instructions: 58000001 cycles: 81053879 heartbeat IPC: 0.781956 cumulative IPC: 0.641697 (Simulation time: 0 hr 43 min 12 sec) 
Heartbeat CPU 0 instructions: 59000000 cycles: 82314817 heartbeat IPC: 0.79306 cumulative IPC: 0.644207 (Simulation time: 0 hr 43 min 58 sec) 
Heartbeat CPU 0 instructions: 60000000 cycles: 83613936 heartbeat IPC: 0.769752 cumulative IPC: 0.646315 (Simulation time: 0 hr 44 min 44 sec) 
Heartbeat CPU 0 instructions: 61000001 cycles: 84890875 heartbeat IPC: 0.783124 cumulative IPC: 0.648536 (Simulation time: 0 hr 45 min 26 sec) 
Heartbeat CPU 0 instructions: 62000002 cycles: 86174495 heartbeat IPC: 0.779048 cumulative IPC: 0.650633 (Simulation time: 0 hr 46 min 6 sec) 
Heartbeat CPU 0 instructions: 63000001 cycles: 87432802 heartbeat IPC: 0.794718 cumulative IPC: 0.652866 (Simulation time: 0 hr 46 min 53 sec) 
Heartbeat CPU 0 instructions: 64000000 cycles: 88722109 heartbeat IPC: 0.77561 cumulative IPC: 0.654785 (Simulation time: 0 hr 47 min 44 sec) 
Heartbeat CPU 0 instructions: 65000000 cycles: 90007046 heartbeat IPC: 0.778248 cumulative IPC: 0.656679 (Simulation time: 0 hr 48 min 37 sec) 
Heartbeat CPU 0 instructions: 66000000 cycles: 91297125 heartbeat IPC: 0.775146 cumulative IPC: 0.658476 (Simulation time: 0 hr 49 min 15 sec) 
Heartbeat CPU 0 instructions: 67000003 cycles: 92579781 heartbeat IPC: 0.779635 cumulative IPC: 0.660276 (Simulation time: 0 hr 49 min 59 sec) 
Heartbeat CPU 0 instructions: 68000000 cycles: 93857602 heartbeat IPC: 0.78258 cumulative IPC: 0.66206 (Simulation time: 0 hr 50 min 42 sec) 
Heartbeat CPU 0 instructions: 69000000 cycles: 95145753 heartbeat IPC: 0.776307 cumulative IPC: 0.663716 (Simulation time: 0 hr 51 min 20 sec) 
Heartbeat CPU 0 instructions: 70000001 cycles: 96416647 heartbeat IPC: 0.786848 cumulative IPC: 0.665451 (Simulation time: 0 hr 52 min 6 sec) 
Heartbeat CPU 0 instructions: 71000002 cycles: 97723129 heartbeat IPC: 0.765415 cumulative IPC: 0.666879 (Simulation time: 0 hr 52 min 49 sec) 
Heartbeat CPU 0 instructions: 72000000 cycles: 98978426 heartbeat IPC: 0.796623 cumulative IPC: 0.668635 (Simulation time: 0 hr 53 min 30 sec) 
Heartbeat CPU 0 instructions: 73000000 cycles: 100266840 heartbeat IPC: 0.776148 cumulative IPC: 0.670109 (Simulation time: 0 hr 54 min 12 sec) 
Heartbeat CPU 0 instructions: 74000000 cycles: 101540806 heartbeat IPC: 0.78495 cumulative IPC: 0.671644 (Simulation time: 0 hr 54 min 52 sec) 
Heartbeat CPU 0 instructions: 75000002 cycles: 102805682 heartbeat IPC: 0.790593 cumulative IPC: 0.673202 (Simulation time: 0 hr 55 min 37 sec) 
Heartbeat CPU 0 instructions: 76000000 cycles: 104103857 heartbeat IPC: 0.770311 cumulative IPC: 0.674491 (Simulation time: 0 hr 56 min 27 sec) 
Heartbeat CPU 0 instructions: 77000000 cycles: 105361665 heartbeat IPC: 0.795034 cumulative IPC: 0.676021 (Simulation time: 0 hr 57 min 8 sec) 
Heartbeat CPU 0 instructions: 78000003 cycles: 106681705 heartbeat IPC: 0.757555 cumulative IPC: 0.677092 (Simulation time: 0 hr 57 min 50 sec) 
Heartbeat CPU 0 instructions: 79000000 cycles: 108117509 heartbeat IPC: 0.696472 cumulative IPC: 0.677365 (Simulation time: 0 hr 58 min 24 sec) 
Heartbeat CPU 0 instructions: 80000000 cycles: 109748006 heartbeat IPC: 0.61331 cumulative IPC: 0.676356 (Simulation time: 0 hr 59 min 4 sec) 
Heartbeat CPU 0 instructions: 81000002 cycles: 111361807 heartbeat IPC: 0.619656 cumulative IPC: 0.675486 (Simulation time: 0 hr 59 min 37 sec) 
Heartbeat CPU 0 instructions: 82000003 cycles: 113030621 heartbeat IPC: 0.599229 cumulative IPC: 0.674294 (Simulation time: 1 hr 0 min 15 sec) 
Heartbeat CPU 0 instructions: 83000000 cycles: 114711735 heartbeat IPC: 0.594842 cumulative IPC: 0.673062 (Simulation time: 1 hr 0 min 46 sec) 
Heartbeat CPU 0 instructions: 84000000 cycles: 116342498 heartbeat IPC: 0.61321 cumulative IPC: 0.672176 (Simulation time: 1 hr 1 min 14 sec) 
Heartbeat CPU 0 instructions: 85000003 cycles: 118000829 heartbeat IPC: 0.603018 cumulative IPC: 0.67115 (Simulation time: 1 hr 1 min 42 sec) 
Heartbeat CPU 0 instructions: 86000002 cycles: 119639733 heartbeat IPC: 0.610163 cumulative IPC: 0.670268 (Simulation time: 1 hr 2 min 14 sec) 
Heartbeat CPU 0 instructions: 87000000 cycles: 121291113 heartbeat IPC: 0.605553 cumulative IPC: 0.669339 (Simulation time: 1 hr 2 min 45 sec) 
Heartbeat CPU 0 instructions: 88000000 cycles: 122964548 heartbeat IPC: 0.597573 cumulative IPC: 0.66831 (Simulation time: 1 hr 3 min 7 sec) 
Heartbeat CPU 0 instructions: 89000002 cycles: 124604057 heartbeat IPC: 0.60994 cumulative IPC: 0.667502 (Simulation time: 1 hr 3 min 28 sec) 
Heartbeat CPU 0 instructions: 90000001 cycles: 126253647 heartbeat IPC: 0.606211 cumulative IPC: 0.666659 (Simulation time: 1 hr 3 min 50 sec) 
Heartbeat CPU 0 instructions: 91000003 cycles: 127902607 heartbeat IPC: 0.606444 cumulative IPC: 0.665843 (Simulation time: 1 hr 4 min 11 sec) 
Heartbeat CPU 0 instructions: 92000000 cycles: 129558563 heartbeat IPC: 0.603879 cumulative IPC: 0.665011 (Simulation time: 1 hr 4 min 32 sec) 
Heartbeat CPU 0 instructions: 93000001 cycles: 131242303 heartbeat IPC: 0.593917 cumulative IPC: 0.664053 (Simulation time: 1 hr 4 min 53 sec) 
Heartbeat CPU 0 instructions: 94000003 cycles: 132902024 heartbeat IPC: 0.602512 cumulative IPC: 0.663246 (Simulation time: 1 hr 5 min 15 sec) 
Heartbeat CPU 0 instructions: 95000002 cycles: 134615692 heartbeat IPC: 0.583543 cumulative IPC: 0.662182 (Simulation time: 1 hr 5 min 37 sec) 
Heartbeat CPU 0 instructions: 96000000 cycles: 136270318 heartbeat IPC: 0.604365 cumulative IPC: 0.661447 (Simulation time: 1 hr 5 min 58 sec) 
Heartbeat CPU 0 instructions: 97000003 cycles: 138216957 heartbeat IPC: 0.513707 cumulative IPC: 0.659267 (Simulation time: 1 hr 6 min 21 sec) 
Heartbeat CPU 0 instructions: 98000002 cycles: 143339416 heartbeat IPC: 0.195219 cumulative IPC: 0.641927 (Simulation time: 1 hr 7 min 3 sec) 
Heartbeat CPU 0 instructions: 99000000 cycles: 146331120 heartbeat IPC: 0.334257 cumulative IPC: 0.635356 (Simulation time: 1 hr 7 min 34 sec) 
Heartbeat CPU 0 instructions: 100000000 cycles: 147994709 heartbeat IPC: 0.60111 cumulative IPC: 0.634954 (Simulation time: 1 hr 7 min 50 sec) 
Heartbeat CPU 0 instructions: 101000002 cycles: 149242278 heartbeat IPC: 0.80156 cumulative IPC: 0.636408 (Simulation time: 1 hr 8 min 5 sec) 
Heartbeat CPU 0 instructions: 102000003 cycles: 150582109 heartbeat IPC: 0.746364 cumulative IPC: 0.637429 (Simulation time: 1 hr 8 min 19 sec) 
Heartbeat CPU 0 instructions: 103000002 cycles: 152009752 heartbeat IPC: 0.700455 cumulative IPC: 0.638046 (Simulation time: 1 hr 8 min 33 sec) 
Heartbeat CPU 0 instructions: 104000000 cycles: 153498425 heartbeat IPC: 0.671738 cumulative IPC: 0.638387 (Simulation time: 1 hr 8 min 47 sec) 
Heartbeat CPU 0 instructions: 105000001 cycles: 155019891 heartbeat IPC: 0.657261 cumulative IPC: 0.63858 (Simulation time: 1 hr 9 min 0 sec) 
Heartbeat CPU 0 instructions: 106000001 cycles: 156549353 heartbeat IPC: 0.653825 cumulative IPC: 0.638735 (Simulation time: 1 hr 9 min 14 sec) 
Heartbeat CPU 0 instructions: 107000001 cycles: 158087110 heartbeat IPC: 0.650298 cumulative IPC: 0.638852 (Simulation time: 1 hr 9 min 27 sec) 
Heartbeat CPU 0 instructions: 108000000 cycles: 159620431 heartbeat IPC: 0.652179 cumulative IPC: 0.638985 (Simulation time: 1 hr 9 min 41 sec) 
Heartbeat CPU 0 instructions: 109000001 cycles: 161138427 heartbeat IPC: 0.658764 cumulative IPC: 0.639179 (Simulation time: 1 hr 9 min 54 sec) 
Heartbeat CPU 0 instructions: 110000001 cycles: 162678662 heartbeat IPC: 0.649252 cumulative IPC: 0.639278 (Simulation time: 1 hr 10 min 5 sec) 
Finished CPU 0 instructions: 100000000 cycles: 156426400 cummulative IPC: 0.639278 (Simulation time: 1 hr 10 min 5 sec) 

ChampSim completed all CPUs

Region of Interest Statistics

CPU 0 cummulative IPC: 0.639278 instructions: 100000000 cycles: 156426400
LLC TOTAL     ACCESS:    4600821  HIT:    1107824  MISS:    3492997
LLC LOAD      ACCESS:     465983  HIT:     132404  MISS:     333579
LLC RFO       ACCESS:     742964  HIT:      96421  MISS:     646543
LLC PREFETCH  ACCESS:    2291543  HIT:     530325  MISS:    1761218
LLC WRITEBACK ACCESS:    1100331  HIT:     348674  MISS:     751657
Insertion Distribution: 
	LOAD 32477 0 75281 229380 
	RFO 179 0 70328 578512 
	PREF 0 121447 326456 1488972 
	WRITEBACK 0 0 0 772436 
Total Prefetch Downgrades: 91668
