
*** ChampSim Multicore Out-of-Order Simulator ***

Warmup Instructions: 10000000
Simulation Instructions: 100000000
Configuration: 2
Number of CPUs: 1
LLC sets: 2048
LLC ways: 16
Off-chip DRAM Channels: 1 Width: 64-bit Data Rate: 1600 MT/s

CPU 0 runs /datasets/cs240c-wi22-a00-public/data/Assignment2-gz/mcf_46B.trace.gz
CPU 0 L1D next line prefetcher
CPU 0 L2C IP-based stride prefetcher
Initialize SRRIP state
Heartbeat CPU 0 instructions: 1000002 cycles: 492137 heartbeat IPC: 2.03196 cumulative IPC: 2.03196 (Simulation time: 0 hr 0 min 45 sec) 
Heartbeat CPU 0 instructions: 2000002 cycles: 987079 heartbeat IPC: 2.02044 cumulative IPC: 2.02618 (Simulation time: 0 hr 1 min 31 sec) 
Heartbeat CPU 0 instructions: 3000003 cycles: 1512599 heartbeat IPC: 1.90288 cumulative IPC: 1.98334 (Simulation time: 0 hr 2 min 9 sec) 
Heartbeat CPU 0 instructions: 4000000 cycles: 2030180 heartbeat IPC: 1.93206 cumulative IPC: 1.97027 (Simulation time: 0 hr 2 min 51 sec) 
Heartbeat CPU 0 instructions: 5000000 cycles: 2523148 heartbeat IPC: 2.02853 cumulative IPC: 1.98165 (Simulation time: 0 hr 3 min 28 sec) 
Heartbeat CPU 0 instructions: 6000002 cycles: 3025829 heartbeat IPC: 1.98934 cumulative IPC: 1.98293 (Simulation time: 0 hr 4 min 5 sec) 
Heartbeat CPU 0 instructions: 7000001 cycles: 3571102 heartbeat IPC: 1.83394 cumulative IPC: 1.96018 (Simulation time: 0 hr 4 min 46 sec) 
Heartbeat CPU 0 instructions: 8000000 cycles: 4061395 heartbeat IPC: 2.03959 cumulative IPC: 1.96977 (Simulation time: 0 hr 5 min 33 sec) 
Heartbeat CPU 0 instructions: 9000001 cycles: 4544270 heartbeat IPC: 2.07093 cumulative IPC: 1.98052 (Simulation time: 0 hr 6 min 8 sec) 
Heartbeat CPU 0 instructions: 10000001 cycles: 5082850 heartbeat IPC: 1.85673 cumulative IPC: 1.9674 (Simulation time: 0 hr 6 min 51 sec) 

Warmup complete CPU 0 instructions: 10000001 cycles: 5082850 (Simulation time: 0 hr 6 min 51 sec) 

Heartbeat CPU 0 instructions: 11000002 cycles: 15610902 heartbeat IPC: 0.0949844 cumulative IPC: 0.0949844 (Simulation time: 0 hr 7 min 57 sec) 
Heartbeat CPU 0 instructions: 12000000 cycles: 19734954 heartbeat IPC: 0.242479 cumulative IPC: 0.136499 (Simulation time: 0 hr 8 min 46 sec) 
Heartbeat CPU 0 instructions: 13000000 cycles: 27013786 heartbeat IPC: 0.137385 cumulative IPC: 0.136793 (Simulation time: 0 hr 9 min 50 sec) 
Heartbeat CPU 0 instructions: 14000003 cycles: 41364146 heartbeat IPC: 0.0696849 cumulative IPC: 0.11025 (Simulation time: 0 hr 11 min 19 sec) 
Heartbeat CPU 0 instructions: 15000000 cycles: 45584997 heartbeat IPC: 0.236918 cumulative IPC: 0.12345 (Simulation time: 0 hr 12 min 20 sec) 
Heartbeat CPU 0 instructions: 16000000 cycles: 49387479 heartbeat IPC: 0.262986 cumulative IPC: 0.135426 (Simulation time: 0 hr 13 min 15 sec) 
Heartbeat CPU 0 instructions: 17000002 cycles: 64962927 heartbeat IPC: 0.0642037 cumulative IPC: 0.1169 (Simulation time: 0 hr 14 min 43 sec) 
Heartbeat CPU 0 instructions: 18000001 cycles: 70268468 heartbeat IPC: 0.188482 cumulative IPC: 0.122726 (Simulation time: 0 hr 15 min 41 sec) 
Heartbeat CPU 0 instructions: 19000002 cycles: 74873427 heartbeat IPC: 0.217157 cumulative IPC: 0.128957 (Simulation time: 0 hr 16 min 39 sec) 
Heartbeat CPU 0 instructions: 20000000 cycles: 87078844 heartbeat IPC: 0.0819307 cumulative IPC: 0.121957 (Simulation time: 0 hr 17 min 52 sec) 
Heartbeat CPU 0 instructions: 21000002 cycles: 103342441 heartbeat IPC: 0.0614871 cumulative IPC: 0.111948 (Simulation time: 0 hr 19 min 25 sec) 
Heartbeat CPU 0 instructions: 22000002 cycles: 107529286 heartbeat IPC: 0.238843 cumulative IPC: 0.117134 (Simulation time: 0 hr 20 min 24 sec) 
Heartbeat CPU 0 instructions: 23000001 cycles: 111367630 heartbeat IPC: 0.260529 cumulative IPC: 0.122313 (Simulation time: 0 hr 21 min 22 sec) 
Heartbeat CPU 0 instructions: 24000000 cycles: 124347484 heartbeat IPC: 0.0770424 cumulative IPC: 0.117386 (Simulation time: 0 hr 22 min 47 sec) 
Heartbeat CPU 0 instructions: 25000002 cycles: 132065132 heartbeat IPC: 0.129573 cumulative IPC: 0.118127 (Simulation time: 0 hr 24 min 3 sec) 
Heartbeat CPU 0 instructions: 26000001 cycles: 135895944 heartbeat IPC: 0.261041 cumulative IPC: 0.122312 (Simulation time: 0 hr 25 min 2 sec) 
Heartbeat CPU 0 instructions: 27000000 cycles: 145541339 heartbeat IPC: 0.103676 cumulative IPC: 0.121032 (Simulation time: 0 hr 26 min 15 sec) 
Heartbeat CPU 0 instructions: 28000000 cycles: 156999800 heartbeat IPC: 0.0872718 cumulative IPC: 0.118486 (Simulation time: 0 hr 27 min 31 sec) 
Heartbeat CPU 0 instructions: 29000001 cycles: 161315662 heartbeat IPC: 0.231704 cumulative IPC: 0.121613 (Simulation time: 0 hr 28 min 22 sec) 
Heartbeat CPU 0 instructions: 30000000 cycles: 168424311 heartbeat IPC: 0.140674 cumulative IPC: 0.122443 (Simulation time: 0 hr 29 min 37 sec) 
Heartbeat CPU 0 instructions: 31000001 cycles: 182089980 heartbeat IPC: 0.0731761 cumulative IPC: 0.118639 (Simulation time: 0 hr 31 min 9 sec) 
Heartbeat CPU 0 instructions: 32000000 cycles: 186392365 heartbeat IPC: 0.232429 cumulative IPC: 0.121339 (Simulation time: 0 hr 32 min 10 sec) 
Heartbeat CPU 0 instructions: 33000000 cycles: 192678372 heartbeat IPC: 0.159084 cumulative IPC: 0.122604 (Simulation time: 0 hr 33 min 16 sec) 
Heartbeat CPU 0 instructions: 34000000 cycles: 207869856 heartbeat IPC: 0.0658264 cumulative IPC: 0.118351 (Simulation time: 0 hr 34 min 50 sec) 
Heartbeat CPU 0 instructions: 35000000 cycles: 213893028 heartbeat IPC: 0.166025 cumulative IPC: 0.119726 (Simulation time: 0 hr 35 min 53 sec) 
Heartbeat CPU 0 instructions: 36000000 cycles: 219882131 heartbeat IPC: 0.16697 cumulative IPC: 0.121043 (Simulation time: 0 hr 36 min 54 sec) 
Heartbeat CPU 0 instructions: 37000002 cycles: 229848510 heartbeat IPC: 0.100338 cumulative IPC: 0.120125 (Simulation time: 0 hr 37 min 57 sec) 
Heartbeat CPU 0 instructions: 38000001 cycles: 240671637 heartbeat IPC: 0.0923946 cumulative IPC: 0.118851 (Simulation time: 0 hr 39 min 3 sec) 
Heartbeat CPU 0 instructions: 39000000 cycles: 244755350 heartbeat IPC: 0.244875 cumulative IPC: 0.120998 (Simulation time: 0 hr 39 min 56 sec) 
Heartbeat CPU 0 instructions: 40000000 cycles: 250526840 heartbeat IPC: 0.173265 cumulative IPC: 0.122227 (Simulation time: 0 hr 40 min 51 sec) 
Heartbeat CPU 0 instructions: 41000000 cycles: 265342596 heartbeat IPC: 0.0674957 cumulative IPC: 0.119112 (Simulation time: 0 hr 42 min 9 sec) 
Heartbeat CPU 0 instructions: 42000001 cycles: 269965274 heartbeat IPC: 0.216325 cumulative IPC: 0.120808 (Simulation time: 0 hr 43 min 3 sec) 
Heartbeat CPU 0 instructions: 43000000 cycles: 273921084 heartbeat IPC: 0.252792 cumulative IPC: 0.12275 (Simulation time: 0 hr 43 min 59 sec) 
Heartbeat CPU 0 instructions: 44000000 cycles: 287362861 heartbeat IPC: 0.0743949 cumulative IPC: 0.120448 (Simulation time: 0 hr 45 min 11 sec) 
Heartbeat CPU 0 instructions: 45000001 cycles: 294768128 heartbeat IPC: 0.135039 cumulative IPC: 0.120821 (Simulation time: 0 hr 46 min 12 sec) 
Heartbeat CPU 0 instructions: 46000001 cycles: 298850056 heartbeat IPC: 0.244982 cumulative IPC: 0.122546 (Simulation time: 0 hr 47 min 3 sec) 
Heartbeat CPU 0 instructions: 47000002 cycles: 308203135 heartbeat IPC: 0.106917 cumulative IPC: 0.122064 (Simulation time: 0 hr 48 min 1 sec) 
Heartbeat CPU 0 instructions: 48000000 cycles: 320008097 heartbeat IPC: 0.08471 cumulative IPC: 0.120664 (Simulation time: 0 hr 49 min 6 sec) 
Heartbeat CPU 0 instructions: 49000000 cycles: 324458656 heartbeat IPC: 0.224691 cumulative IPC: 0.122113 (Simulation time: 0 hr 50 min 2 sec) 
Heartbeat CPU 0 instructions: 50000001 cycles: 330601666 heartbeat IPC: 0.162787 cumulative IPC: 0.122881 (Simulation time: 0 hr 51 min 0 sec) 
Heartbeat CPU 0 instructions: 51000001 cycles: 345105743 heartbeat IPC: 0.0689461 cumulative IPC: 0.12058 (Simulation time: 0 hr 52 min 20 sec) 
Heartbeat CPU 0 instructions: 52000000 cycles: 349587657 heartbeat IPC: 0.223119 cumulative IPC: 0.121914 (Simulation time: 0 hr 53 min 11 sec) 
Heartbeat CPU 0 instructions: 53000000 cycles: 353663312 heartbeat IPC: 0.245359 cumulative IPC: 0.123357 (Simulation time: 0 hr 53 min 59 sec) 
Heartbeat CPU 0 instructions: 54000002 cycles: 369538427 heartbeat IPC: 0.0629918 cumulative IPC: 0.120728 (Simulation time: 0 hr 55 min 27 sec) 
Heartbeat CPU 0 instructions: 55000002 cycles: 374679879 heartbeat IPC: 0.194498 cumulative IPC: 0.121754 (Simulation time: 0 hr 56 min 27 sec) 
Heartbeat CPU 0 instructions: 56000000 cycles: 378876035 heartbeat IPC: 0.238313 cumulative IPC: 0.123063 (Simulation time: 0 hr 57 min 13 sec) 
Heartbeat CPU 0 instructions: 57000000 cycles: 392479556 heartbeat IPC: 0.0735104 cumulative IPC: 0.121323 (Simulation time: 0 hr 58 min 22 sec) 
Heartbeat CPU 0 instructions: 58000000 cycles: 400056274 heartbeat IPC: 0.131983 cumulative IPC: 0.121527 (Simulation time: 0 hr 59 min 13 sec) 
Heartbeat CPU 0 instructions: 59000002 cycles: 404197951 heartbeat IPC: 0.241449 cumulative IPC: 0.122772 (Simulation time: 0 hr 59 min 53 sec) 
Heartbeat CPU 0 instructions: 60000000 cycles: 415910842 heartbeat IPC: 0.0853758 cumulative IPC: 0.121705 (Simulation time: 1 hr 0 min 48 sec) 
Heartbeat CPU 0 instructions: 61000002 cycles: 425497710 heartbeat IPC: 0.10431 cumulative IPC: 0.121309 (Simulation time: 1 hr 1 min 32 sec) 
Heartbeat CPU 0 instructions: 62000001 cycles: 429632601 heartbeat IPC: 0.241844 cumulative IPC: 0.122483 (Simulation time: 1 hr 2 min 3 sec) 
Heartbeat CPU 0 instructions: 63000001 cycles: 439698290 heartbeat IPC: 0.0993474 cumulative IPC: 0.121947 (Simulation time: 1 hr 2 min 40 sec) 
Heartbeat CPU 0 instructions: 64000000 cycles: 451362779 heartbeat IPC: 0.0857302 cumulative IPC: 0.121 (Simulation time: 1 hr 3 min 19 sec) 
Heartbeat CPU 0 instructions: 65000002 cycles: 456774930 heartbeat IPC: 0.18477 cumulative IPC: 0.121764 (Simulation time: 1 hr 3 min 48 sec) 
Heartbeat CPU 0 instructions: 66000000 cycles: 463049289 heartbeat IPC: 0.159379 cumulative IPC: 0.12228 (Simulation time: 1 hr 4 min 17 sec) 
Heartbeat CPU 0 instructions: 67000002 cycles: 479113143 heartbeat IPC: 0.0622517 cumulative IPC: 0.120245 (Simulation time: 1 hr 5 min 1 sec) 
Heartbeat CPU 0 instructions: 68000000 cycles: 483510037 heartbeat IPC: 0.227433 cumulative IPC: 0.121231 (Simulation time: 1 hr 5 min 28 sec) 
Heartbeat CPU 0 instructions: 69000000 cycles: 487505743 heartbeat IPC: 0.250269 cumulative IPC: 0.122299 (Simulation time: 1 hr 5 min 53 sec) 
Heartbeat CPU 0 instructions: 70000001 cycles: 501979363 heartbeat IPC: 0.0690913 cumulative IPC: 0.120749 (Simulation time: 1 hr 6 min 33 sec) 
Heartbeat CPU 0 instructions: 71000002 cycles: 510342567 heartbeat IPC: 0.119572 cumulative IPC: 0.12073 (Simulation time: 1 hr 7 min 4 sec) 
Heartbeat CPU 0 instructions: 72000000 cycles: 515076501 heartbeat IPC: 0.21124 cumulative IPC: 0.12157 (Simulation time: 1 hr 7 min 27 sec) 
Heartbeat CPU 0 instructions: 73000002 cycles: 524052636 heartbeat IPC: 0.111407 cumulative IPC: 0.121394 (Simulation time: 1 hr 7 min 53 sec) 
Heartbeat CPU 0 instructions: 74000001 cycles: 536256370 heartbeat IPC: 0.0819421 cumulative IPC: 0.120488 (Simulation time: 1 hr 8 min 23 sec) 
Heartbeat CPU 0 instructions: 75000002 cycles: 540703960 heartbeat IPC: 0.224841 cumulative IPC: 0.121354 (Simulation time: 1 hr 8 min 42 sec) 
Heartbeat CPU 0 instructions: 76000000 cycles: 546618096 heartbeat IPC: 0.169086 cumulative IPC: 0.121876 (Simulation time: 1 hr 9 min 2 sec) 
Heartbeat CPU 0 instructions: 77000001 cycles: 562618389 heartbeat IPC: 0.0624989 cumulative IPC: 0.120172 (Simulation time: 1 hr 9 min 31 sec) 
Heartbeat CPU 0 instructions: 78000002 cycles: 567357775 heartbeat IPC: 0.210998 cumulative IPC: 0.120937 (Simulation time: 1 hr 9 min 49 sec) 
Heartbeat CPU 0 instructions: 79000001 cycles: 571604228 heartbeat IPC: 0.23549 cumulative IPC: 0.121796 (Simulation time: 1 hr 10 min 2 sec) 
Heartbeat CPU 0 instructions: 80000000 cycles: 585116239 heartbeat IPC: 0.0740082 cumulative IPC: 0.120683 (Simulation time: 1 hr 10 min 21 sec) 
Heartbeat CPU 0 instructions: 81000000 cycles: 592629564 heartbeat IPC: 0.133097 cumulative IPC: 0.120841 (Simulation time: 1 hr 10 min 34 sec) 
Heartbeat CPU 0 instructions: 82000000 cycles: 597412659 heartbeat IPC: 0.20907 cumulative IPC: 0.121554 (Simulation time: 1 hr 10 min 44 sec) 
Heartbeat CPU 0 instructions: 83000001 cycles: 607015008 heartbeat IPC: 0.104141 cumulative IPC: 0.121276 (Simulation time: 1 hr 10 min 57 sec) 
Heartbeat CPU 0 instructions: 84000000 cycles: 618714030 heartbeat IPC: 0.0854771 cumulative IPC: 0.120594 (Simulation time: 1 hr 11 min 10 sec) 
Heartbeat CPU 0 instructions: 85000001 cycles: 622912405 heartbeat IPC: 0.238188 cumulative IPC: 0.121393 (Simulation time: 1 hr 11 min 18 sec) 
Heartbeat CPU 0 instructions: 86000000 cycles: 630818549 heartbeat IPC: 0.126484 cumulative IPC: 0.121457 (Simulation time: 1 hr 11 min 27 sec) 
Heartbeat CPU 0 instructions: 87000000 cycles: 645792784 heartbeat IPC: 0.0667814 cumulative IPC: 0.120179 (Simulation time: 1 hr 11 min 39 sec) 
Heartbeat CPU 0 instructions: 88000000 cycles: 652037701 heartbeat IPC: 0.16013 cumulative IPC: 0.120565 (Simulation time: 1 hr 11 min 48 sec) 
Heartbeat CPU 0 instructions: 89000000 cycles: 656127059 heartbeat IPC: 0.244537 cumulative IPC: 0.121344 (Simulation time: 1 hr 11 min 54 sec) 
Heartbeat CPU 0 instructions: 90000003 cycles: 668190287 heartbeat IPC: 0.0828968 cumulative IPC: 0.120644 (Simulation time: 1 hr 12 min 3 sec) 
Heartbeat CPU 0 instructions: 91000000 cycles: 677351905 heartbeat IPC: 0.109151 cumulative IPC: 0.120487 (Simulation time: 1 hr 12 min 12 sec) 
Heartbeat CPU 0 instructions: 92000000 cycles: 681515395 heartbeat IPC: 0.240183 cumulative IPC: 0.121224 (Simulation time: 1 hr 12 min 19 sec) 
Heartbeat CPU 0 instructions: 93000002 cycles: 690451653 heartbeat IPC: 0.111904 cumulative IPC: 0.121103 (Simulation time: 1 hr 12 min 26 sec) 
Heartbeat CPU 0 instructions: 94000002 cycles: 702517245 heartbeat IPC: 0.0828803 cumulative IPC: 0.120441 (Simulation time: 1 hr 12 min 36 sec) 
Heartbeat CPU 0 instructions: 95000000 cycles: 708217299 heartbeat IPC: 0.175437 cumulative IPC: 0.120887 (Simulation time: 1 hr 12 min 43 sec) 
Heartbeat CPU 0 instructions: 96000000 cycles: 713704169 heartbeat IPC: 0.182253 cumulative IPC: 0.121362 (Simulation time: 1 hr 12 min 51 sec) 
Heartbeat CPU 0 instructions: 97000000 cycles: 729002476 heartbeat IPC: 0.0653667 cumulative IPC: 0.120179 (Simulation time: 1 hr 13 min 1 sec) 
Heartbeat CPU 0 instructions: 98000002 cycles: 733650512 heartbeat IPC: 0.215145 cumulative IPC: 0.120785 (Simulation time: 1 hr 13 min 8 sec) 
Heartbeat CPU 0 instructions: 99000002 cycles: 738207469 heartbeat IPC: 0.219445 cumulative IPC: 0.121398 (Simulation time: 1 hr 13 min 14 sec) 
Heartbeat CPU 0 instructions: 100000000 cycles: 752637282 heartbeat IPC: 0.0693008 cumulative IPC: 0.120393 (Simulation time: 1 hr 13 min 24 sec) 
Heartbeat CPU 0 instructions: 101000000 cycles: 759487573 heartbeat IPC: 0.145979 cumulative IPC: 0.120625 (Simulation time: 1 hr 13 min 31 sec) 
Heartbeat CPU 0 instructions: 102000003 cycles: 763617096 heartbeat IPC: 0.242159 cumulative IPC: 0.121287 (Simulation time: 1 hr 13 min 37 sec) 
Heartbeat CPU 0 instructions: 103000003 cycles: 775782997 heartbeat IPC: 0.082197 cumulative IPC: 0.120669 (Simulation time: 1 hr 13 min 44 sec) 
Heartbeat CPU 0 instructions: 104000000 cycles: 787032946 heartbeat IPC: 0.088889 cumulative IPC: 0.120212 (Simulation time: 1 hr 13 min 52 sec) 
Heartbeat CPU 0 instructions: 105000000 cycles: 791717737 heartbeat IPC: 0.213457 cumulative IPC: 0.120768 (Simulation time: 1 hr 13 min 58 sec) 
Heartbeat CPU 0 instructions: 106000000 cycles: 795789247 heartbeat IPC: 0.245609 cumulative IPC: 0.12141 (Simulation time: 1 hr 14 min 3 sec) 
Heartbeat CPU 0 instructions: 107000002 cycles: 811512053 heartbeat IPC: 0.063602 cumulative IPC: 0.120283 (Simulation time: 1 hr 14 min 12 sec) 
Heartbeat CPU 0 instructions: 108000000 cycles: 816733439 heartbeat IPC: 0.19152 cumulative IPC: 0.120742 (Simulation time: 1 hr 14 min 19 sec) 
Heartbeat CPU 0 instructions: 109000001 cycles: 820963795 heartbeat IPC: 0.236387 cumulative IPC: 0.121341 (Simulation time: 1 hr 14 min 24 sec) 
Heartbeat CPU 0 instructions: 110000002 cycles: 830749759 heartbeat IPC: 0.102187 cumulative IPC: 0.121114 (Simulation time: 1 hr 14 min 31 sec) 
Finished CPU 0 instructions: 100000001 cycles: 825666909 cummulative IPC: 0.121114 (Simulation time: 1 hr 14 min 31 sec) 

ChampSim completed all CPUs

Region of Interest Statistics

CPU 0 cummulative IPC: 0.121114 instructions: 100000001 cycles: 825666909
LLC TOTAL     ACCESS:   18753873  HIT:    8245361  MISS:   10508512
LLC LOAD      ACCESS:    8469215  HIT:    4418327  MISS:    4050888
LLC RFO       ACCESS:     206411  HIT:      69636  MISS:     136775
LLC PREFETCH  ACCESS:    7970737  HIT:    2096962  MISS:    5873775
LLC WRITEBACK ACCESS:    2107510  HIT:    1660436  MISS:     447074
Insertion Distribution: 
	LOAD 834188 0 576897 2959232 
	RFO 85840 0 48461 15249 
	PREF 0 1440283 895138 4161141 
	WRITEBACK 0 0 0 495943 
Total Prefetch Downgrades: 1175638
