
*** ChampSim Multicore Out-of-Order Simulator ***

Warmup Instructions: 10000000
Simulation Instructions: 100000000
Configuration: 2
Number of CPUs: 1
LLC sets: 2048
LLC ways: 16
Off-chip DRAM Channels: 1 Width: 64-bit Data Rate: 1600 MT/s

CPU 0 runs /datasets/cs240c-wi22-a00-public/data/Assignment2-gz/gcc_13B.trace.gz
CPU 0 L1D next line prefetcher
CPU 0 L2C IP-based stride prefetcher
Initialize SRRIP state
Heartbeat CPU 0 instructions: 1000000 cycles: 633320 heartbeat IPC: 1.57898 cumulative IPC: 1.57898 (Simulation time: 0 hr 0 min 46 sec) 
Heartbeat CPU 0 instructions: 2000001 cycles: 1243585 heartbeat IPC: 1.63863 cumulative IPC: 1.60825 (Simulation time: 0 hr 1 min 29 sec) 
Heartbeat CPU 0 instructions: 3000001 cycles: 1717445 heartbeat IPC: 2.11033 cumulative IPC: 1.74678 (Simulation time: 0 hr 2 min 10 sec) 
Heartbeat CPU 0 instructions: 4000000 cycles: 2190983 heartbeat IPC: 2.11176 cumulative IPC: 1.82566 (Simulation time: 0 hr 2 min 49 sec) 
Heartbeat CPU 0 instructions: 5000002 cycles: 2665030 heartbeat IPC: 2.1095 cumulative IPC: 1.87615 (Simulation time: 0 hr 3 min 23 sec) 
Heartbeat CPU 0 instructions: 6000002 cycles: 3138855 heartbeat IPC: 2.11048 cumulative IPC: 1.91153 (Simulation time: 0 hr 3 min 55 sec) 
Heartbeat CPU 0 instructions: 7000001 cycles: 3614186 heartbeat IPC: 2.1038 cumulative IPC: 1.93681 (Simulation time: 0 hr 4 min 30 sec) 
Heartbeat CPU 0 instructions: 8000000 cycles: 4090601 heartbeat IPC: 2.09901 cumulative IPC: 1.9557 (Simulation time: 0 hr 5 min 3 sec) 
Heartbeat CPU 0 instructions: 9000001 cycles: 4831611 heartbeat IPC: 1.34951 cumulative IPC: 1.86273 (Simulation time: 0 hr 5 min 41 sec) 
Heartbeat CPU 0 instructions: 10000001 cycles: 5535999 heartbeat IPC: 1.41967 cumulative IPC: 1.80636 (Simulation time: 0 hr 6 min 20 sec) 

Warmup complete CPU 0 instructions: 10000001 cycles: 5535999 (Simulation time: 0 hr 6 min 20 sec) 

Heartbeat CPU 0 instructions: 11000000 cycles: 12483933 heartbeat IPC: 0.143928 cumulative IPC: 0.143928 (Simulation time: 0 hr 7 min 18 sec) 
Heartbeat CPU 0 instructions: 12000000 cycles: 18769562 heartbeat IPC: 0.159093 cumulative IPC: 0.151131 (Simulation time: 0 hr 8 min 14 sec) 
Heartbeat CPU 0 instructions: 13000000 cycles: 24759314 heartbeat IPC: 0.166952 cumulative IPC: 0.15606 (Simulation time: 0 hr 9 min 14 sec) 
Heartbeat CPU 0 instructions: 14000000 cycles: 30328452 heartbeat IPC: 0.179561 cumulative IPC: 0.161339 (Simulation time: 0 hr 10 min 14 sec) 
Heartbeat CPU 0 instructions: 15000000 cycles: 33012221 heartbeat IPC: 0.37261 cumulative IPC: 0.181975 (Simulation time: 0 hr 11 min 10 sec) 
Heartbeat CPU 0 instructions: 16000000 cycles: 35157138 heartbeat IPC: 0.466219 cumulative IPC: 0.202558 (Simulation time: 0 hr 11 min 50 sec) 
Heartbeat CPU 0 instructions: 17000000 cycles: 37327563 heartbeat IPC: 0.460739 cumulative IPC: 0.220184 (Simulation time: 0 hr 12 min 35 sec) 
Heartbeat CPU 0 instructions: 18000000 cycles: 39496997 heartbeat IPC: 0.46095 cumulative IPC: 0.235564 (Simulation time: 0 hr 13 min 16 sec) 
Heartbeat CPU 0 instructions: 19000002 cycles: 41707613 heartbeat IPC: 0.452363 cumulative IPC: 0.248814 (Simulation time: 0 hr 13 min 58 sec) 
Heartbeat CPU 0 instructions: 20000000 cycles: 43933516 heartbeat IPC: 0.449255 cumulative IPC: 0.260433 (Simulation time: 0 hr 14 min 44 sec) 
Heartbeat CPU 0 instructions: 21000000 cycles: 46345870 heartbeat IPC: 0.414533 cumulative IPC: 0.269543 (Simulation time: 0 hr 15 min 28 sec) 
Heartbeat CPU 0 instructions: 22000001 cycles: 50461231 heartbeat IPC: 0.242992 cumulative IPC: 0.26711 (Simulation time: 0 hr 16 min 24 sec) 
Heartbeat CPU 0 instructions: 23000002 cycles: 57593096 heartbeat IPC: 0.140216 cumulative IPC: 0.249726 (Simulation time: 0 hr 17 min 29 sec) 
Heartbeat CPU 0 instructions: 24000000 cycles: 64500923 heartbeat IPC: 0.144763 cumulative IPC: 0.237429 (Simulation time: 0 hr 18 min 31 sec) 
Heartbeat CPU 0 instructions: 25000000 cycles: 70830041 heartbeat IPC: 0.158 cumulative IPC: 0.22973 (Simulation time: 0 hr 19 min 33 sec) 
Heartbeat CPU 0 instructions: 26000001 cycles: 76674219 heartbeat IPC: 0.171111 cumulative IPC: 0.224914 (Simulation time: 0 hr 20 min 31 sec) 
Heartbeat CPU 0 instructions: 27000001 cycles: 82081486 heartbeat IPC: 0.184936 cumulative IPC: 0.22209 (Simulation time: 0 hr 21 min 28 sec) 
Heartbeat CPU 0 instructions: 28000000 cycles: 84748001 heartbeat IPC: 0.375021 cumulative IPC: 0.227238 (Simulation time: 0 hr 22 min 23 sec) 
Heartbeat CPU 0 instructions: 29000000 cycles: 86907062 heartbeat IPC: 0.463164 cumulative IPC: 0.233498 (Simulation time: 0 hr 23 min 14 sec) 
Heartbeat CPU 0 instructions: 30000001 cycles: 89080764 heartbeat IPC: 0.460045 cumulative IPC: 0.239393 (Simulation time: 0 hr 24 min 3 sec) 
Heartbeat CPU 0 instructions: 31000000 cycles: 91270128 heartbeat IPC: 0.456753 cumulative IPC: 0.244943 (Simulation time: 0 hr 24 min 46 sec) 
Heartbeat CPU 0 instructions: 32000000 cycles: 93456195 heartbeat IPC: 0.457443 cumulative IPC: 0.250227 (Simulation time: 0 hr 25 min 32 sec) 
Heartbeat CPU 0 instructions: 33000000 cycles: 95657180 heartbeat IPC: 0.454342 cumulative IPC: 0.255212 (Simulation time: 0 hr 26 min 13 sec) 
Heartbeat CPU 0 instructions: 34000000 cycles: 98468844 heartbeat IPC: 0.355661 cumulative IPC: 0.258251 (Simulation time: 0 hr 26 min 55 sec) 
Heartbeat CPU 0 instructions: 35000000 cycles: 112697658 heartbeat IPC: 0.0702799 cumulative IPC: 0.233292 (Simulation time: 0 hr 28 min 52 sec) 
Heartbeat CPU 0 instructions: 36000000 cycles: 116475201 heartbeat IPC: 0.264722 cumulative IPC: 0.234363 (Simulation time: 0 hr 29 min 36 sec) 
Heartbeat CPU 0 instructions: 37000003 cycles: 120259000 heartbeat IPC: 0.264285 cumulative IPC: 0.23535 (Simulation time: 0 hr 30 min 21 sec) 
Heartbeat CPU 0 instructions: 38000000 cycles: 124067894 heartbeat IPC: 0.262543 cumulative IPC: 0.236223 (Simulation time: 0 hr 31 min 9 sec) 
Heartbeat CPU 0 instructions: 39000000 cycles: 127800694 heartbeat IPC: 0.267895 cumulative IPC: 0.23719 (Simulation time: 0 hr 31 min 52 sec) 
Heartbeat CPU 0 instructions: 40000000 cycles: 131450141 heartbeat IPC: 0.274014 cumulative IPC: 0.238258 (Simulation time: 0 hr 32 min 37 sec) 
Heartbeat CPU 0 instructions: 41000000 cycles: 135079287 heartbeat IPC: 0.275547 cumulative IPC: 0.239302 (Simulation time: 0 hr 33 min 20 sec) 
Heartbeat CPU 0 instructions: 42000000 cycles: 138735006 heartbeat IPC: 0.273544 cumulative IPC: 0.240242 (Simulation time: 0 hr 34 min 5 sec) 
Heartbeat CPU 0 instructions: 43000002 cycles: 142396129 heartbeat IPC: 0.273141 cumulative IPC: 0.241122 (Simulation time: 0 hr 34 min 51 sec) 
Heartbeat CPU 0 instructions: 44000000 cycles: 146055092 heartbeat IPC: 0.273301 cumulative IPC: 0.24196 (Simulation time: 0 hr 35 min 36 sec) 
Heartbeat CPU 0 instructions: 45000001 cycles: 149678613 heartbeat IPC: 0.275975 cumulative IPC: 0.242815 (Simulation time: 0 hr 36 min 21 sec) 
Heartbeat CPU 0 instructions: 46000001 cycles: 153280484 heartbeat IPC: 0.277633 cumulative IPC: 0.243664 (Simulation time: 0 hr 37 min 6 sec) 
Heartbeat CPU 0 instructions: 47000001 cycles: 156870111 heartbeat IPC: 0.27858 cumulative IPC: 0.244492 (Simulation time: 0 hr 37 min 48 sec) 
Heartbeat CPU 0 instructions: 48000000 cycles: 160434056 heartbeat IPC: 0.280588 cumulative IPC: 0.245323 (Simulation time: 0 hr 38 min 28 sec) 
Heartbeat CPU 0 instructions: 49000000 cycles: 164014977 heartbeat IPC: 0.279258 cumulative IPC: 0.246089 (Simulation time: 0 hr 39 min 7 sec) 
Heartbeat CPU 0 instructions: 50000003 cycles: 167594269 heartbeat IPC: 0.279386 cumulative IPC: 0.246825 (Simulation time: 0 hr 39 min 52 sec) 
Heartbeat CPU 0 instructions: 51000001 cycles: 171173659 heartbeat IPC: 0.279377 cumulative IPC: 0.247528 (Simulation time: 0 hr 40 min 36 sec) 
Heartbeat CPU 0 instructions: 52000000 cycles: 174738626 heartbeat IPC: 0.280507 cumulative IPC: 0.248223 (Simulation time: 0 hr 41 min 15 sec) 
Heartbeat CPU 0 instructions: 53000001 cycles: 178319074 heartbeat IPC: 0.279295 cumulative IPC: 0.248867 (Simulation time: 0 hr 41 min 56 sec) 
Heartbeat CPU 0 instructions: 54000000 cycles: 181893260 heartbeat IPC: 0.279784 cumulative IPC: 0.249494 (Simulation time: 0 hr 42 min 40 sec) 
Heartbeat CPU 0 instructions: 55000000 cycles: 185477160 heartbeat IPC: 0.279026 cumulative IPC: 0.250082 (Simulation time: 0 hr 43 min 22 sec) 
Heartbeat CPU 0 instructions: 56000000 cycles: 189050462 heartbeat IPC: 0.279853 cumulative IPC: 0.250661 (Simulation time: 0 hr 44 min 5 sec) 
Heartbeat CPU 0 instructions: 57000002 cycles: 192590630 heartbeat IPC: 0.282473 cumulative IPC: 0.251263 (Simulation time: 0 hr 44 min 50 sec) 
Heartbeat CPU 0 instructions: 58000001 cycles: 196136640 heartbeat IPC: 0.282007 cumulative IPC: 0.251835 (Simulation time: 0 hr 45 min 32 sec) 
Heartbeat CPU 0 instructions: 59000003 cycles: 199655038 heartbeat IPC: 0.284221 cumulative IPC: 0.252422 (Simulation time: 0 hr 46 min 14 sec) 
Heartbeat CPU 0 instructions: 60000000 cycles: 203170415 heartbeat IPC: 0.284464 cumulative IPC: 0.252992 (Simulation time: 0 hr 46 min 59 sec) 
Heartbeat CPU 0 instructions: 61000000 cycles: 206681725 heartbeat IPC: 0.284794 cumulative IPC: 0.253548 (Simulation time: 0 hr 47 min 45 sec) 
Heartbeat CPU 0 instructions: 62000003 cycles: 210189562 heartbeat IPC: 0.285077 cumulative IPC: 0.254088 (Simulation time: 0 hr 48 min 25 sec) 
Heartbeat CPU 0 instructions: 63000001 cycles: 213699782 heartbeat IPC: 0.284882 cumulative IPC: 0.254607 (Simulation time: 0 hr 49 min 5 sec) 
Heartbeat CPU 0 instructions: 64000000 cycles: 217229597 heartbeat IPC: 0.283301 cumulative IPC: 0.255086 (Simulation time: 0 hr 49 min 46 sec) 
Heartbeat CPU 0 instructions: 65000000 cycles: 220797420 heartbeat IPC: 0.280283 cumulative IPC: 0.255503 (Simulation time: 0 hr 50 min 33 sec) 
Heartbeat CPU 0 instructions: 66000000 cycles: 224351653 heartbeat IPC: 0.281355 cumulative IPC: 0.255923 (Simulation time: 0 hr 51 min 19 sec) 
Heartbeat CPU 0 instructions: 67000001 cycles: 228053925 heartbeat IPC: 0.270105 cumulative IPC: 0.256159 (Simulation time: 0 hr 52 min 7 sec) 
Heartbeat CPU 0 instructions: 68000000 cycles: 231837609 heartbeat IPC: 0.264292 cumulative IPC: 0.256295 (Simulation time: 0 hr 52 min 55 sec) 
Heartbeat CPU 0 instructions: 69000003 cycles: 235622707 heartbeat IPC: 0.264195 cumulative IPC: 0.256425 (Simulation time: 0 hr 53 min 43 sec) 
Heartbeat CPU 0 instructions: 70000000 cycles: 239450607 heartbeat IPC: 0.261239 cumulative IPC: 0.256504 (Simulation time: 0 hr 54 min 28 sec) 
Heartbeat CPU 0 instructions: 71000002 cycles: 243072304 heartbeat IPC: 0.276114 cumulative IPC: 0.256803 (Simulation time: 0 hr 55 min 14 sec) 
Heartbeat CPU 0 instructions: 72000000 cycles: 246672716 heartbeat IPC: 0.277745 cumulative IPC: 0.257116 (Simulation time: 0 hr 56 min 0 sec) 
Heartbeat CPU 0 instructions: 73000003 cycles: 250270679 heartbeat IPC: 0.277936 cumulative IPC: 0.257422 (Simulation time: 0 hr 56 min 42 sec) 
Heartbeat CPU 0 instructions: 74000000 cycles: 253884945 heartbeat IPC: 0.276681 cumulative IPC: 0.257702 (Simulation time: 0 hr 57 min 27 sec) 
Heartbeat CPU 0 instructions: 75000000 cycles: 257503679 heartbeat IPC: 0.27634 cumulative IPC: 0.25797 (Simulation time: 0 hr 58 min 6 sec) 
Heartbeat CPU 0 instructions: 76000000 cycles: 261137869 heartbeat IPC: 0.275164 cumulative IPC: 0.258214 (Simulation time: 0 hr 58 min 45 sec) 
Heartbeat CPU 0 instructions: 77000000 cycles: 264741105 heartbeat IPC: 0.277528 cumulative IPC: 0.258483 (Simulation time: 0 hr 59 min 23 sec) 
Heartbeat CPU 0 instructions: 78000003 cycles: 268292845 heartbeat IPC: 0.281553 cumulative IPC: 0.258794 (Simulation time: 1 hr 0 min 5 sec) 
Heartbeat CPU 0 instructions: 79000000 cycles: 271872793 heartbeat IPC: 0.279333 cumulative IPC: 0.25907 (Simulation time: 1 hr 0 min 39 sec) 
Heartbeat CPU 0 instructions: 80000000 cycles: 275419931 heartbeat IPC: 0.281917 cumulative IPC: 0.259371 (Simulation time: 1 hr 1 min 12 sec) 
Heartbeat CPU 0 instructions: 81000001 cycles: 278954542 heartbeat IPC: 0.282917 cumulative IPC: 0.259675 (Simulation time: 1 hr 1 min 45 sec) 
Heartbeat CPU 0 instructions: 82000000 cycles: 282491604 heartbeat IPC: 0.28272 cumulative IPC: 0.259969 (Simulation time: 1 hr 2 min 13 sec) 
Heartbeat CPU 0 instructions: 83000003 cycles: 286048656 heartbeat IPC: 0.281133 cumulative IPC: 0.260238 (Simulation time: 1 hr 2 min 41 sec) 
Heartbeat CPU 0 instructions: 84000000 cycles: 289588486 heartbeat IPC: 0.282499 cumulative IPC: 0.260515 (Simulation time: 1 hr 3 min 6 sec) 
Heartbeat CPU 0 instructions: 85000000 cycles: 293122541 heartbeat IPC: 0.282961 cumulative IPC: 0.260791 (Simulation time: 1 hr 3 min 35 sec) 
Heartbeat CPU 0 instructions: 86000001 cycles: 296668006 heartbeat IPC: 0.282051 cumulative IPC: 0.26105 (Simulation time: 1 hr 4 min 0 sec) 
Heartbeat CPU 0 instructions: 87000001 cycles: 300219410 heartbeat IPC: 0.281579 cumulative IPC: 0.261297 (Simulation time: 1 hr 4 min 26 sec) 
Heartbeat CPU 0 instructions: 88000000 cycles: 303759882 heartbeat IPC: 0.282448 cumulative IPC: 0.261548 (Simulation time: 1 hr 4 min 50 sec) 
Heartbeat CPU 0 instructions: 89000003 cycles: 307299758 heartbeat IPC: 0.282497 cumulative IPC: 0.261794 (Simulation time: 1 hr 5 min 16 sec) 
Heartbeat CPU 0 instructions: 90000000 cycles: 310839656 heartbeat IPC: 0.282493 cumulative IPC: 0.262034 (Simulation time: 1 hr 5 min 37 sec) 
Heartbeat CPU 0 instructions: 91000000 cycles: 314367817 heartbeat IPC: 0.283434 cumulative IPC: 0.262279 (Simulation time: 1 hr 5 min 59 sec) 
Heartbeat CPU 0 instructions: 92000000 cycles: 317880490 heartbeat IPC: 0.284683 cumulative IPC: 0.262531 (Simulation time: 1 hr 6 min 22 sec) 
Heartbeat CPU 0 instructions: 93000001 cycles: 321397644 heartbeat IPC: 0.284321 cumulative IPC: 0.262773 (Simulation time: 1 hr 6 min 44 sec) 
Heartbeat CPU 0 instructions: 94000003 cycles: 324903300 heartbeat IPC: 0.285254 cumulative IPC: 0.26302 (Simulation time: 1 hr 7 min 5 sec) 
Heartbeat CPU 0 instructions: 95000002 cycles: 328416598 heartbeat IPC: 0.284633 cumulative IPC: 0.263255 (Simulation time: 1 hr 7 min 25 sec) 
Heartbeat CPU 0 instructions: 96000000 cycles: 331912316 heartbeat IPC: 0.286064 cumulative IPC: 0.263499 (Simulation time: 1 hr 7 min 44 sec) 
Heartbeat CPU 0 instructions: 97000000 cycles: 335403951 heartbeat IPC: 0.286399 cumulative IPC: 0.263742 (Simulation time: 1 hr 8 min 2 sec) 
Heartbeat CPU 0 instructions: 98000000 cycles: 338890121 heartbeat IPC: 0.286848 cumulative IPC: 0.263984 (Simulation time: 1 hr 8 min 22 sec) 
Heartbeat CPU 0 instructions: 99000000 cycles: 342395192 heartbeat IPC: 0.285301 cumulative IPC: 0.264205 (Simulation time: 1 hr 8 min 40 sec) 
Heartbeat CPU 0 instructions: 100000000 cycles: 345931875 heartbeat IPC: 0.282751 cumulative IPC: 0.264398 (Simulation time: 1 hr 8 min 56 sec) 
Heartbeat CPU 0 instructions: 101000003 cycles: 349442227 heartbeat IPC: 0.284873 cumulative IPC: 0.264607 (Simulation time: 1 hr 9 min 12 sec) 
Heartbeat CPU 0 instructions: 102000000 cycles: 353314948 heartbeat IPC: 0.258216 cumulative IPC: 0.264536 (Simulation time: 1 hr 9 min 25 sec) 
Heartbeat CPU 0 instructions: 103000002 cycles: 357657986 heartbeat IPC: 0.230254 cumulative IPC: 0.264113 (Simulation time: 1 hr 9 min 40 sec) 
Heartbeat CPU 0 instructions: 104000000 cycles: 361760536 heartbeat IPC: 0.24375 cumulative IPC: 0.263878 (Simulation time: 1 hr 9 min 55 sec) 
Heartbeat CPU 0 instructions: 105000000 cycles: 365651292 heartbeat IPC: 0.257019 cumulative IPC: 0.263804 (Simulation time: 1 hr 10 min 6 sec) 
Heartbeat CPU 0 instructions: 106000002 cycles: 369503207 heartbeat IPC: 0.259612 cumulative IPC: 0.26376 (Simulation time: 1 hr 10 min 17 sec) 
Heartbeat CPU 0 instructions: 107000001 cycles: 373410609 heartbeat IPC: 0.255924 cumulative IPC: 0.263677 (Simulation time: 1 hr 10 min 27 sec) 
Heartbeat CPU 0 instructions: 108000000 cycles: 377222077 heartbeat IPC: 0.262366 cumulative IPC: 0.263663 (Simulation time: 1 hr 10 min 36 sec) 
Heartbeat CPU 0 instructions: 109000000 cycles: 380948257 heartbeat IPC: 0.268371 cumulative IPC: 0.26371 (Simulation time: 1 hr 10 min 44 sec) 
Heartbeat CPU 0 instructions: 110000002 cycles: 384650993 heartbeat IPC: 0.270071 cumulative IPC: 0.263772 (Simulation time: 1 hr 10 min 51 sec) 
Finished CPU 0 instructions: 100000001 cycles: 379114994 cummulative IPC: 0.263772 (Simulation time: 1 hr 10 min 51 sec) 

ChampSim completed all CPUs

Region of Interest Statistics

CPU 0 cummulative IPC: 0.263772 instructions: 100000001 cycles: 379114994
LLC TOTAL     ACCESS:    2541172  HIT:     352766  MISS:    2188406
LLC LOAD      ACCESS:     647337  HIT:      67956  MISS:     579381
LLC RFO       ACCESS:     278071  HIT:      37327  MISS:     240744
LLC PREFETCH  ACCESS:    1132136  HIT:      90939  MISS:    1041197
LLC WRITEBACK ACCESS:     483628  HIT:     156544  MISS:     327084
Insertion Distribution: 
	LOAD 30242 0 69048 580178 
	RFO 9845 0 53539 300677 
	PREF 0 17444 97877 1189590 
	WRITEBACK 0 0 0 484815 
Total Prefetch Downgrades: 9987
