
*** ChampSim Multicore Out-of-Order Simulator ***

Warmup Instructions: 10000000
Simulation Instructions: 100000000
Configuration: 2
Number of CPUs: 1
LLC sets: 2048
LLC ways: 16
Off-chip DRAM Channels: 1 Width: 64-bit Data Rate: 1600 MT/s

CPU 0 runs /datasets/cs240c-wi22-a00-public/data/Assignment2-gz/soplex_205B.trace.gz
CPU 0 L1D next line prefetcher
CPU 0 L2C IP-based stride prefetcher
Initialize SRRIP state
Heartbeat CPU 0 instructions: 1000000 cycles: 395620 heartbeat IPC: 2.52768 cumulative IPC: 2.52768 (Simulation time: 0 hr 0 min 41 sec) 
Heartbeat CPU 0 instructions: 2000002 cycles: 925599 heartbeat IPC: 1.88687 cumulative IPC: 2.16077 (Simulation time: 0 hr 1 min 34 sec) 
Heartbeat CPU 0 instructions: 3000000 cycles: 1397348 heartbeat IPC: 2.11977 cumulative IPC: 2.14692 (Simulation time: 0 hr 2 min 37 sec) 
Heartbeat CPU 0 instructions: 4000000 cycles: 1758580 heartbeat IPC: 2.7683 cumulative IPC: 2.27456 (Simulation time: 0 hr 3 min 30 sec) 
Heartbeat CPU 0 instructions: 5000003 cycles: 2201948 heartbeat IPC: 2.25547 cumulative IPC: 2.27072 (Simulation time: 0 hr 4 min 27 sec) 
Heartbeat CPU 0 instructions: 6000003 cycles: 2621661 heartbeat IPC: 2.38258 cumulative IPC: 2.28863 (Simulation time: 0 hr 5 min 22 sec) 
Heartbeat CPU 0 instructions: 7000000 cycles: 3006095 heartbeat IPC: 2.60122 cumulative IPC: 2.3286 (Simulation time: 0 hr 6 min 7 sec) 
Heartbeat CPU 0 instructions: 8000000 cycles: 3400151 heartbeat IPC: 2.53771 cumulative IPC: 2.35284 (Simulation time: 0 hr 6 min 54 sec) 
Heartbeat CPU 0 instructions: 9000003 cycles: 3925856 heartbeat IPC: 1.90221 cumulative IPC: 2.29249 (Simulation time: 0 hr 7 min 43 sec) 
Heartbeat CPU 0 instructions: 10000000 cycles: 4411061 heartbeat IPC: 2.06098 cumulative IPC: 2.26703 (Simulation time: 0 hr 8 min 38 sec) 

Warmup complete CPU 0 instructions: 10000004 cycles: 4411063 (Simulation time: 0 hr 8 min 38 sec) 

Heartbeat CPU 0 instructions: 11000001 cycles: 6946471 heartbeat IPC: 0.394414 cumulative IPC: 0.394413 (Simulation time: 0 hr 9 min 40 sec) 
Heartbeat CPU 0 instructions: 12000000 cycles: 9121392 heartbeat IPC: 0.459786 cumulative IPC: 0.424598 (Simulation time: 0 hr 10 min 47 sec) 
Heartbeat CPU 0 instructions: 13000000 cycles: 12533034 heartbeat IPC: 0.293114 cumulative IPC: 0.369368 (Simulation time: 0 hr 11 min 56 sec) 
Heartbeat CPU 0 instructions: 14000003 cycles: 13785918 heartbeat IPC: 0.798161 cumulative IPC: 0.426673 (Simulation time: 0 hr 12 min 36 sec) 
Heartbeat CPU 0 instructions: 15000000 cycles: 15469843 heartbeat IPC: 0.593849 cumulative IPC: 0.452129 (Simulation time: 0 hr 13 min 23 sec) 
Heartbeat CPU 0 instructions: 16000000 cycles: 18609257 heartbeat IPC: 0.318531 cumulative IPC: 0.422589 (Simulation time: 0 hr 14 min 39 sec) 
Heartbeat CPU 0 instructions: 17000001 cycles: 22196362 heartbeat IPC: 0.278777 cumulative IPC: 0.393583 (Simulation time: 0 hr 16 min 9 sec) 
Heartbeat CPU 0 instructions: 18000000 cycles: 28535139 heartbeat IPC: 0.157759 cumulative IPC: 0.331619 (Simulation time: 0 hr 17 min 28 sec) 
Heartbeat CPU 0 instructions: 19000003 cycles: 32898069 heartbeat IPC: 0.229204 cumulative IPC: 0.315933 (Simulation time: 0 hr 18 min 44 sec) 
Heartbeat CPU 0 instructions: 20000000 cycles: 35072269 heartbeat IPC: 0.459938 cumulative IPC: 0.326145 (Simulation time: 0 hr 20 min 5 sec) 
Heartbeat CPU 0 instructions: 21000001 cycles: 39526328 heartbeat IPC: 0.224515 cumulative IPC: 0.313254 (Simulation time: 0 hr 21 min 23 sec) 
Heartbeat CPU 0 instructions: 22000001 cycles: 43553825 heartbeat IPC: 0.248293 cumulative IPC: 0.30657 (Simulation time: 0 hr 22 min 42 sec) 
Heartbeat CPU 0 instructions: 23000002 cycles: 46707896 heartbeat IPC: 0.317051 cumulative IPC: 0.307352 (Simulation time: 0 hr 23 min 59 sec) 
Heartbeat CPU 0 instructions: 24000000 cycles: 50407502 heartbeat IPC: 0.270299 cumulative IPC: 0.304371 (Simulation time: 0 hr 25 min 14 sec) 
Heartbeat CPU 0 instructions: 25000000 cycles: 54032959 heartbeat IPC: 0.275827 cumulative IPC: 0.302286 (Simulation time: 0 hr 26 min 20 sec) 
Heartbeat CPU 0 instructions: 26000002 cycles: 57543998 heartbeat IPC: 0.284817 cumulative IPC: 0.301131 (Simulation time: 0 hr 27 min 37 sec) 
Heartbeat CPU 0 instructions: 27000000 cycles: 60047631 heartbeat IPC: 0.399419 cumulative IPC: 0.305554 (Simulation time: 0 hr 28 min 42 sec) 
Heartbeat CPU 0 instructions: 28000000 cycles: 63504553 heartbeat IPC: 0.289275 cumulative IPC: 0.304602 (Simulation time: 0 hr 30 min 6 sec) 
Heartbeat CPU 0 instructions: 29000000 cycles: 65510560 heartbeat IPC: 0.498503 cumulative IPC: 0.310968 (Simulation time: 0 hr 31 min 11 sec) 
Heartbeat CPU 0 instructions: 30000003 cycles: 66489354 heartbeat IPC: 1.02167 cumulative IPC: 0.322174 (Simulation time: 0 hr 32 min 3 sec) 
Heartbeat CPU 0 instructions: 31000003 cycles: 67888180 heartbeat IPC: 0.714885 cumulative IPC: 0.330828 (Simulation time: 0 hr 33 min 1 sec) 
Heartbeat CPU 0 instructions: 32000000 cycles: 71144668 heartbeat IPC: 0.307078 cumulative IPC: 0.329669 (Simulation time: 0 hr 34 min 15 sec) 
Heartbeat CPU 0 instructions: 33000000 cycles: 73940629 heartbeat IPC: 0.357659 cumulative IPC: 0.330794 (Simulation time: 0 hr 35 min 29 sec) 
Heartbeat CPU 0 instructions: 34000002 cycles: 75551437 heartbeat IPC: 0.620808 cumulative IPC: 0.337361 (Simulation time: 0 hr 36 min 28 sec) 
Heartbeat CPU 0 instructions: 35000003 cycles: 78211601 heartbeat IPC: 0.375917 cumulative IPC: 0.338751 (Simulation time: 0 hr 37 min 31 sec) 
Heartbeat CPU 0 instructions: 36000000 cycles: 80556454 heartbeat IPC: 0.426465 cumulative IPC: 0.341452 (Simulation time: 0 hr 38 min 38 sec) 
Heartbeat CPU 0 instructions: 37000000 cycles: 83845637 heartbeat IPC: 0.304027 cumulative IPC: 0.339902 (Simulation time: 0 hr 39 min 58 sec) 
Heartbeat CPU 0 instructions: 38000002 cycles: 85091838 heartbeat IPC: 0.80244 cumulative IPC: 0.347047 (Simulation time: 0 hr 40 min 38 sec) 
Heartbeat CPU 0 instructions: 39000003 cycles: 86988712 heartbeat IPC: 0.527184 cumulative IPC: 0.351185 (Simulation time: 0 hr 41 min 28 sec) 
Heartbeat CPU 0 instructions: 40000000 cycles: 90194343 heartbeat IPC: 0.31195 cumulative IPC: 0.349718 (Simulation time: 0 hr 42 min 35 sec) 
Heartbeat CPU 0 instructions: 41000000 cycles: 93399436 heartbeat IPC: 0.312003 cumulative IPC: 0.34836 (Simulation time: 0 hr 43 min 45 sec) 
Heartbeat CPU 0 instructions: 42000001 cycles: 95186746 heartbeat IPC: 0.559501 cumulative IPC: 0.352517 (Simulation time: 0 hr 44 min 46 sec) 
Heartbeat CPU 0 instructions: 43000001 cycles: 98598037 heartbeat IPC: 0.293144 cumulative IPC: 0.350367 (Simulation time: 0 hr 46 min 5 sec) 
Heartbeat CPU 0 instructions: 44000000 cycles: 100821031 heartbeat IPC: 0.449843 cumulative IPC: 0.352661 (Simulation time: 0 hr 46 min 58 sec) 
Heartbeat CPU 0 instructions: 45000001 cycles: 102055601 heartbeat IPC: 0.809999 cumulative IPC: 0.358443 (Simulation time: 0 hr 47 min 37 sec) 
Heartbeat CPU 0 instructions: 46000002 cycles: 104885750 heartbeat IPC: 0.353339 cumulative IPC: 0.358299 (Simulation time: 0 hr 48 min 48 sec) 
Heartbeat CPU 0 instructions: 47000000 cycles: 108041760 heartbeat IPC: 0.316855 cumulative IPC: 0.357037 (Simulation time: 0 hr 50 min 2 sec) 
Heartbeat CPU 0 instructions: 48000000 cycles: 111040423 heartbeat IPC: 0.333482 cumulative IPC: 0.356375 (Simulation time: 0 hr 51 min 17 sec) 
Heartbeat CPU 0 instructions: 49000001 cycles: 112986853 heartbeat IPC: 0.513762 cumulative IPC: 0.359196 (Simulation time: 0 hr 52 min 16 sec) 
Heartbeat CPU 0 instructions: 50000000 cycles: 116248233 heartbeat IPC: 0.306618 cumulative IPC: 0.357663 (Simulation time: 0 hr 53 min 26 sec) 
Heartbeat CPU 0 instructions: 51000003 cycles: 118597320 heartbeat IPC: 0.425699 cumulative IPC: 0.359062 (Simulation time: 0 hr 54 min 19 sec) 
Heartbeat CPU 0 instructions: 52000000 cycles: 119837353 heartbeat IPC: 0.806428 cumulative IPC: 0.363869 (Simulation time: 0 hr 54 min 57 sec) 
Heartbeat CPU 0 instructions: 53000003 cycles: 122655194 heartbeat IPC: 0.354883 cumulative IPC: 0.363654 (Simulation time: 0 hr 55 min 55 sec) 
Heartbeat CPU 0 instructions: 54000001 cycles: 125823744 heartbeat IPC: 0.315601 cumulative IPC: 0.3624 (Simulation time: 0 hr 57 min 0 sec) 
Heartbeat CPU 0 instructions: 55000001 cycles: 129042299 heartbeat IPC: 0.310698 cumulative IPC: 0.361065 (Simulation time: 0 hr 58 min 9 sec) 
Heartbeat CPU 0 instructions: 56000000 cycles: 130822190 heartbeat IPC: 0.561832 cumulative IPC: 0.363892 (Simulation time: 0 hr 58 min 59 sec) 
Heartbeat CPU 0 instructions: 57000000 cycles: 134140263 heartbeat IPC: 0.30138 cumulative IPC: 0.362293 (Simulation time: 0 hr 59 min 55 sec) 
Heartbeat CPU 0 instructions: 58000000 cycles: 136350776 heartbeat IPC: 0.452384 cumulative IPC: 0.363802 (Simulation time: 1 hr 0 min 29 sec) 
Heartbeat CPU 0 instructions: 59000001 cycles: 137590891 heartbeat IPC: 0.806378 cumulative IPC: 0.367924 (Simulation time: 1 hr 0 min 59 sec) 
Heartbeat CPU 0 instructions: 60000000 cycles: 140436139 heartbeat IPC: 0.351463 cumulative IPC: 0.367579 (Simulation time: 1 hr 1 min 35 sec) 
Heartbeat CPU 0 instructions: 61000003 cycles: 143588390 heartbeat IPC: 0.317235 cumulative IPC: 0.366439 (Simulation time: 1 hr 2 min 14 sec) 
Heartbeat CPU 0 instructions: 62000002 cycles: 146957998 heartbeat IPC: 0.29677 cumulative IPC: 0.364792 (Simulation time: 1 hr 2 min 51 sec) 
Heartbeat CPU 0 instructions: 63000001 cycles: 148550841 heartbeat IPC: 0.627808 cumulative IPC: 0.367699 (Simulation time: 1 hr 3 min 19 sec) 
Heartbeat CPU 0 instructions: 64000000 cycles: 152297268 heartbeat IPC: 0.266921 cumulative IPC: 0.365146 (Simulation time: 1 hr 3 min 54 sec) 
Heartbeat CPU 0 instructions: 65000001 cycles: 154182425 heartbeat IPC: 0.53046 cumulative IPC: 0.367226 (Simulation time: 1 hr 4 min 13 sec) 
Heartbeat CPU 0 instructions: 66000000 cycles: 155406599 heartbeat IPC: 0.816877 cumulative IPC: 0.370872 (Simulation time: 1 hr 4 min 34 sec) 
Heartbeat CPU 0 instructions: 67000003 cycles: 158315253 heartbeat IPC: 0.343803 cumulative IPC: 0.37036 (Simulation time: 1 hr 5 min 1 sec) 
Heartbeat CPU 0 instructions: 68000000 cycles: 161523258 heartbeat IPC: 0.311719 cumulative IPC: 0.369163 (Simulation time: 1 hr 5 min 32 sec) 
Heartbeat CPU 0 instructions: 69000001 cycles: 164422088 heartbeat IPC: 0.344967 cumulative IPC: 0.368725 (Simulation time: 1 hr 6 min 3 sec) 
Heartbeat CPU 0 instructions: 70000000 cycles: 166226984 heartbeat IPC: 0.554048 cumulative IPC: 0.370792 (Simulation time: 1 hr 6 min 27 sec) 
Heartbeat CPU 0 instructions: 71000001 cycles: 169557205 heartbeat IPC: 0.300281 cumulative IPC: 0.36937 (Simulation time: 1 hr 6 min 57 sec) 
Heartbeat CPU 0 instructions: 72000000 cycles: 171738434 heartbeat IPC: 0.458457 cumulative IPC: 0.370531 (Simulation time: 1 hr 7 min 17 sec) 
Heartbeat CPU 0 instructions: 73000000 cycles: 172974771 heartbeat IPC: 0.808841 cumulative IPC: 0.373746 (Simulation time: 1 hr 7 min 32 sec) 
Heartbeat CPU 0 instructions: 74000001 cycles: 175798724 heartbeat IPC: 0.354114 cumulative IPC: 0.373422 (Simulation time: 1 hr 7 min 52 sec) 
Heartbeat CPU 0 instructions: 75000003 cycles: 178944749 heartbeat IPC: 0.317862 cumulative IPC: 0.372421 (Simulation time: 1 hr 8 min 14 sec) 
Heartbeat CPU 0 instructions: 76000000 cycles: 182274412 heartbeat IPC: 0.30033 cumulative IPC: 0.371071 (Simulation time: 1 hr 8 min 38 sec) 
Heartbeat CPU 0 instructions: 77000000 cycles: 183821150 heartbeat IPC: 0.646522 cumulative IPC: 0.373446 (Simulation time: 1 hr 8 min 55 sec) 
Heartbeat CPU 0 instructions: 78000000 cycles: 187651719 heartbeat IPC: 0.261058 cumulative IPC: 0.371097 (Simulation time: 1 hr 9 min 17 sec) 
Heartbeat CPU 0 instructions: 79000002 cycles: 189444069 heartbeat IPC: 0.557928 cumulative IPC: 0.372906 (Simulation time: 1 hr 9 min 31 sec) 
Heartbeat CPU 0 instructions: 80000000 cycles: 190668416 heartbeat IPC: 0.81676 cumulative IPC: 0.375824 (Simulation time: 1 hr 9 min 43 sec) 
Heartbeat CPU 0 instructions: 81000000 cycles: 193562564 heartbeat IPC: 0.345525 cumulative IPC: 0.37536 (Simulation time: 1 hr 10 min 0 sec) 
Heartbeat CPU 0 instructions: 82000000 cycles: 196742888 heartbeat IPC: 0.314433 cumulative IPC: 0.374353 (Simulation time: 1 hr 10 min 14 sec) 
Heartbeat CPU 0 instructions: 83000000 cycles: 200141521 heartbeat IPC: 0.294236 cumulative IPC: 0.372962 (Simulation time: 1 hr 10 min 27 sec) 
Heartbeat CPU 0 instructions: 84000000 cycles: 201782147 heartbeat IPC: 0.609523 cumulative IPC: 0.374928 (Simulation time: 1 hr 10 min 36 sec) 
Heartbeat CPU 0 instructions: 85000000 cycles: 205716879 heartbeat IPC: 0.254147 cumulative IPC: 0.372567 (Simulation time: 1 hr 10 min 46 sec) 
Heartbeat CPU 0 instructions: 86000002 cycles: 207127350 heartbeat IPC: 0.708984 cumulative IPC: 0.374908 (Simulation time: 1 hr 10 min 52 sec) 
Heartbeat CPU 0 instructions: 87000002 cycles: 208379390 heartbeat IPC: 0.798697 cumulative IPC: 0.37751 (Simulation time: 1 hr 10 min 57 sec) 
Heartbeat CPU 0 instructions: 88000000 cycles: 211292752 heartbeat IPC: 0.343245 cumulative IPC: 0.377027 (Simulation time: 1 hr 11 min 6 sec) 
Heartbeat CPU 0 instructions: 89000001 cycles: 214795379 heartbeat IPC: 0.2855 cumulative IPC: 0.375503 (Simulation time: 1 hr 11 min 15 sec) 
Heartbeat CPU 0 instructions: 90000001 cycles: 217968989 heartbeat IPC: 0.315099 cumulative IPC: 0.374606 (Simulation time: 1 hr 11 min 22 sec) 
Heartbeat CPU 0 instructions: 91000003 cycles: 219818482 heartbeat IPC: 0.54069 cumulative IPC: 0.376032 (Simulation time: 1 hr 11 min 29 sec) 
Heartbeat CPU 0 instructions: 92000000 cycles: 223527297 heartbeat IPC: 0.269627 cumulative IPC: 0.374231 (Simulation time: 1 hr 11 min 37 sec) 
Heartbeat CPU 0 instructions: 93000000 cycles: 224789264 heartbeat IPC: 0.792414 cumulative IPC: 0.376625 (Simulation time: 1 hr 11 min 40 sec) 
Heartbeat CPU 0 instructions: 94000000 cycles: 226167604 heartbeat IPC: 0.72551 cumulative IPC: 0.378794 (Simulation time: 1 hr 11 min 45 sec) 
Heartbeat CPU 0 instructions: 95000002 cycles: 229186896 heartbeat IPC: 0.331204 cumulative IPC: 0.378155 (Simulation time: 1 hr 11 min 51 sec) 
Heartbeat CPU 0 instructions: 96000000 cycles: 232078735 heartbeat IPC: 0.3458 cumulative IPC: 0.377744 (Simulation time: 1 hr 11 min 57 sec) 
Heartbeat CPU 0 instructions: 97000003 cycles: 234795026 heartbeat IPC: 0.36815 cumulative IPC: 0.37763 (Simulation time: 1 hr 12 min 2 sec) 
Heartbeat CPU 0 instructions: 98000003 cycles: 237052353 heartbeat IPC: 0.443002 cumulative IPC: 0.378265 (Simulation time: 1 hr 12 min 8 sec) 
Heartbeat CPU 0 instructions: 99000000 cycles: 240270013 heartbeat IPC: 0.310784 cumulative IPC: 0.377344 (Simulation time: 1 hr 12 min 13 sec) 
Heartbeat CPU 0 instructions: 100000000 cycles: 241526984 heartbeat IPC: 0.795563 cumulative IPC: 0.379561 (Simulation time: 1 hr 12 min 17 sec) 
Heartbeat CPU 0 instructions: 101000003 cycles: 243410786 heartbeat IPC: 0.530843 cumulative IPC: 0.380754 (Simulation time: 1 hr 12 min 21 sec) 
Heartbeat CPU 0 instructions: 102000002 cycles: 246525481 heartbeat IPC: 0.321058 cumulative IPC: 0.379986 (Simulation time: 1 hr 12 min 27 sec) 
Heartbeat CPU 0 instructions: 103000000 cycles: 248686068 heartbeat IPC: 0.462836 cumulative IPC: 0.380718 (Simulation time: 1 hr 12 min 34 sec) 
Heartbeat CPU 0 instructions: 104000000 cycles: 257569450 heartbeat IPC: 0.11257 cumulative IPC: 0.371309 (Simulation time: 1 hr 12 min 41 sec) 
Heartbeat CPU 0 instructions: 105000000 cycles: 259653216 heartbeat IPC: 0.4799 cumulative IPC: 0.372196 (Simulation time: 1 hr 12 min 47 sec) 
Heartbeat CPU 0 instructions: 106000002 cycles: 263473865 heartbeat IPC: 0.261736 cumulative IPC: 0.370567 (Simulation time: 1 hr 12 min 54 sec) 
Heartbeat CPU 0 instructions: 107000003 cycles: 267820755 heartbeat IPC: 0.23005 cumulative IPC: 0.368248 (Simulation time: 1 hr 13 min 1 sec) 
Heartbeat CPU 0 instructions: 108000000 cycles: 271220689 heartbeat IPC: 0.294122 cumulative IPC: 0.367303 (Simulation time: 1 hr 13 min 7 sec) 
Heartbeat CPU 0 instructions: 109000000 cycles: 274555445 heartbeat IPC: 0.299872 cumulative IPC: 0.366471 (Simulation time: 1 hr 13 min 13 sec) 
Heartbeat CPU 0 instructions: 110000003 cycles: 278088273 heartbeat IPC: 0.28306 cumulative IPC: 0.365394 (Simulation time: 1 hr 13 min 17 sec) 
Finished CPU 0 instructions: 100000003 cycles: 273677211 cummulative IPC: 0.365394 (Simulation time: 1 hr 13 min 17 sec) 

ChampSim completed all CPUs

Region of Interest Statistics

CPU 0 cummulative IPC: 0.365394 instructions: 100000003 cycles: 273677211
LLC TOTAL     ACCESS:    8729486  HIT:    4602315  MISS:    4127171
LLC LOAD      ACCESS:    2230042  HIT:    1053896  MISS:    1176146
LLC RFO       ACCESS:     871502  HIT:     302650  MISS:     568852
LLC PREFETCH  ACCESS:    3453013  HIT:    1514067  MISS:    1938946
LLC WRITEBACK ACCESS:    2174929  HIT:    1731702  MISS:     443227
Insertion Distribution: 
	LOAD 349819 0 153933 792561 
	RFO 207732 0 151888 254619 
	PREF 0 225901 406487 1590653 
	WRITEBACK 0 0 0 510024 
Total Prefetch Downgrades: 191190
