
*** ChampSim Multicore Out-of-Order Simulator ***

Warmup Instructions: 10000000
Simulation Instructions: 100000000
Configuration: 2
Number of CPUs: 1
LLC sets: 2048
LLC ways: 16
Off-chip DRAM Channels: 1 Width: 64-bit Data Rate: 1600 MT/s

CPU 0 runs /datasets/cs240c-wi22-a00-public/data/Assignment2-gz/wrf_1228B.trace.gz
CPU 0 L1D next line prefetcher
CPU 0 L2C IP-based stride prefetcher
Initialize SRRIP state
Heartbeat CPU 0 instructions: 1000003 cycles: 591063 heartbeat IPC: 1.69187 cumulative IPC: 1.69187 (Simulation time: 0 hr 0 min 38 sec) 
Heartbeat CPU 0 instructions: 2000003 cycles: 1111219 heartbeat IPC: 1.9225 cumulative IPC: 1.79983 (Simulation time: 0 hr 1 min 14 sec) 
Heartbeat CPU 0 instructions: 3000000 cycles: 1729185 heartbeat IPC: 1.61821 cumulative IPC: 1.73492 (Simulation time: 0 hr 1 min 58 sec) 
Heartbeat CPU 0 instructions: 4000000 cycles: 2349837 heartbeat IPC: 1.61121 cumulative IPC: 1.70225 (Simulation time: 0 hr 2 min 33 sec) 
Heartbeat CPU 0 instructions: 5000000 cycles: 3052201 heartbeat IPC: 1.42376 cumulative IPC: 1.63816 (Simulation time: 0 hr 3 min 8 sec) 
Heartbeat CPU 0 instructions: 6000000 cycles: 3612288 heartbeat IPC: 1.78544 cumulative IPC: 1.661 (Simulation time: 0 hr 3 min 39 sec) 
Heartbeat CPU 0 instructions: 7000001 cycles: 4165046 heartbeat IPC: 1.80911 cumulative IPC: 1.68065 (Simulation time: 0 hr 4 min 16 sec) 
Heartbeat CPU 0 instructions: 8000000 cycles: 4716412 heartbeat IPC: 1.81368 cumulative IPC: 1.6962 (Simulation time: 0 hr 4 min 51 sec) 
Heartbeat CPU 0 instructions: 9000002 cycles: 5266596 heartbeat IPC: 1.81758 cumulative IPC: 1.70888 (Simulation time: 0 hr 5 min 24 sec) 
Heartbeat CPU 0 instructions: 10000001 cycles: 5819494 heartbeat IPC: 1.80865 cumulative IPC: 1.71836 (Simulation time: 0 hr 5 min 58 sec) 

Warmup complete CPU 0 instructions: 10000001 cycles: 5819494 (Simulation time: 0 hr 5 min 58 sec) 

Heartbeat CPU 0 instructions: 11000003 cycles: 6775514 heartbeat IPC: 1.04601 cumulative IPC: 1.04601 (Simulation time: 0 hr 6 min 35 sec) 
Heartbeat CPU 0 instructions: 12000000 cycles: 7766580 heartbeat IPC: 1.00901 cumulative IPC: 1.02718 (Simulation time: 0 hr 7 min 14 sec) 
Heartbeat CPU 0 instructions: 13000003 cycles: 8750414 heartbeat IPC: 1.01643 cumulative IPC: 1.02357 (Simulation time: 0 hr 7 min 55 sec) 
Heartbeat CPU 0 instructions: 14000002 cycles: 9702826 heartbeat IPC: 1.04996 cumulative IPC: 1.03004 (Simulation time: 0 hr 8 min 26 sec) 
Heartbeat CPU 0 instructions: 15000001 cycles: 10560576 heartbeat IPC: 1.16584 cumulative IPC: 1.05461 (Simulation time: 0 hr 9 min 5 sec) 
Heartbeat CPU 0 instructions: 16000000 cycles: 11416227 heartbeat IPC: 1.1687 cumulative IPC: 1.07205 (Simulation time: 0 hr 9 min 38 sec) 
Heartbeat CPU 0 instructions: 17000002 cycles: 12321548 heartbeat IPC: 1.10458 cumulative IPC: 1.07658 (Simulation time: 0 hr 10 min 10 sec) 
Heartbeat CPU 0 instructions: 18000003 cycles: 13225830 heartbeat IPC: 1.10585 cumulative IPC: 1.08016 (Simulation time: 0 hr 10 min 43 sec) 
Heartbeat CPU 0 instructions: 19000000 cycles: 14115914 heartbeat IPC: 1.12349 cumulative IPC: 1.08481 (Simulation time: 0 hr 11 min 18 sec) 
Heartbeat CPU 0 instructions: 20000000 cycles: 15020710 heartbeat IPC: 1.10522 cumulative IPC: 1.08681 (Simulation time: 0 hr 11 min 49 sec) 
Heartbeat CPU 0 instructions: 21000000 cycles: 15933007 heartbeat IPC: 1.09613 cumulative IPC: 1.08765 (Simulation time: 0 hr 12 min 21 sec) 
Heartbeat CPU 0 instructions: 22000000 cycles: 16861158 heartbeat IPC: 1.07741 cumulative IPC: 1.08679 (Simulation time: 0 hr 12 min 57 sec) 
Heartbeat CPU 0 instructions: 23000003 cycles: 17781648 heartbeat IPC: 1.08638 cumulative IPC: 1.08676 (Simulation time: 0 hr 13 min 37 sec) 
Heartbeat CPU 0 instructions: 24000000 cycles: 18734120 heartbeat IPC: 1.0499 cumulative IPC: 1.08404 (Simulation time: 0 hr 14 min 8 sec) 
Heartbeat CPU 0 instructions: 25000000 cycles: 19739796 heartbeat IPC: 0.994356 cumulative IPC: 1.07756 (Simulation time: 0 hr 14 min 43 sec) 
Heartbeat CPU 0 instructions: 26000003 cycles: 20760823 heartbeat IPC: 0.979409 cumulative IPC: 1.07086 (Simulation time: 0 hr 15 min 17 sec) 
Heartbeat CPU 0 instructions: 27000003 cycles: 21805466 heartbeat IPC: 0.957265 cumulative IPC: 1.06343 (Simulation time: 0 hr 15 min 56 sec) 
Heartbeat CPU 0 instructions: 28000000 cycles: 22876840 heartbeat IPC: 0.933378 cumulative IPC: 1.05526 (Simulation time: 0 hr 16 min 31 sec) 
Heartbeat CPU 0 instructions: 29000003 cycles: 24357573 heartbeat IPC: 0.675343 cumulative IPC: 1.02492 (Simulation time: 0 hr 17 min 12 sec) 
Heartbeat CPU 0 instructions: 30000000 cycles: 25904649 heartbeat IPC: 0.646379 cumulative IPC: 0.99576 (Simulation time: 0 hr 17 min 50 sec) 
Heartbeat CPU 0 instructions: 31000003 cycles: 27633239 heartbeat IPC: 0.578508 cumulative IPC: 0.962696 (Simulation time: 0 hr 18 min 31 sec) 
Heartbeat CPU 0 instructions: 32000000 cycles: 29427599 heartbeat IPC: 0.5573 cumulative IPC: 0.931883 (Simulation time: 0 hr 19 min 16 sec) 
Heartbeat CPU 0 instructions: 33000001 cycles: 30796981 heartbeat IPC: 0.730257 cumulative IPC: 0.920829 (Simulation time: 0 hr 19 min 59 sec) 
Heartbeat CPU 0 instructions: 34000002 cycles: 32245520 heartbeat IPC: 0.690351 cumulative IPC: 0.908196 (Simulation time: 0 hr 20 min 42 sec) 
Heartbeat CPU 0 instructions: 35000001 cycles: 34060551 heartbeat IPC: 0.550954 cumulative IPC: 0.885236 (Simulation time: 0 hr 21 min 28 sec) 
Heartbeat CPU 0 instructions: 36000000 cycles: 34986381 heartbeat IPC: 1.08011 cumulative IPC: 0.891422 (Simulation time: 0 hr 22 min 6 sec) 
Heartbeat CPU 0 instructions: 37000001 cycles: 35909713 heartbeat IPC: 1.08304 cumulative IPC: 0.897302 (Simulation time: 0 hr 22 min 43 sec) 
Heartbeat CPU 0 instructions: 38000003 cycles: 36828923 heartbeat IPC: 1.08789 cumulative IPC: 0.902951 (Simulation time: 0 hr 23 min 17 sec) 
Heartbeat CPU 0 instructions: 39000002 cycles: 37772731 heartbeat IPC: 1.05954 cumulative IPC: 0.907576 (Simulation time: 0 hr 23 min 54 sec) 
Heartbeat CPU 0 instructions: 40000000 cycles: 38700844 heartbeat IPC: 1.07745 cumulative IPC: 0.912371 (Simulation time: 0 hr 24 min 32 sec) 
Heartbeat CPU 0 instructions: 41000000 cycles: 39648430 heartbeat IPC: 1.05531 cumulative IPC: 0.916375 (Simulation time: 0 hr 25 min 8 sec) 
Heartbeat CPU 0 instructions: 42000002 cycles: 40599953 heartbeat IPC: 1.05095 cumulative IPC: 0.920057 (Simulation time: 0 hr 25 min 46 sec) 
Heartbeat CPU 0 instructions: 43000000 cycles: 41560246 heartbeat IPC: 1.04135 cumulative IPC: 0.923316 (Simulation time: 0 hr 26 min 23 sec) 
Heartbeat CPU 0 instructions: 44000000 cycles: 42425178 heartbeat IPC: 1.15616 cumulative IPC: 0.928817 (Simulation time: 0 hr 26 min 53 sec) 
Heartbeat CPU 0 instructions: 45000000 cycles: 43259083 heartbeat IPC: 1.19918 cumulative IPC: 0.934839 (Simulation time: 0 hr 27 min 29 sec) 
Heartbeat CPU 0 instructions: 46000001 cycles: 44109405 heartbeat IPC: 1.17603 cumulative IPC: 0.940195 (Simulation time: 0 hr 28 min 2 sec) 
Heartbeat CPU 0 instructions: 47000001 cycles: 44986130 heartbeat IPC: 1.14061 cumulative IPC: 0.944682 (Simulation time: 0 hr 28 min 34 sec) 
Heartbeat CPU 0 instructions: 48000000 cycles: 45845529 heartbeat IPC: 1.1636 cumulative IPC: 0.949382 (Simulation time: 0 hr 29 min 3 sec) 
Heartbeat CPU 0 instructions: 49000001 cycles: 46722049 heartbeat IPC: 1.14088 cumulative IPC: 0.953486 (Simulation time: 0 hr 29 min 35 sec) 
Heartbeat CPU 0 instructions: 50000002 cycles: 47616179 heartbeat IPC: 1.11841 cumulative IPC: 0.957014 (Simulation time: 0 hr 30 min 7 sec) 
Heartbeat CPU 0 instructions: 51000001 cycles: 48507842 heartbeat IPC: 1.1215 cumulative IPC: 0.960449 (Simulation time: 0 hr 30 min 39 sec) 
Heartbeat CPU 0 instructions: 52000000 cycles: 49453386 heartbeat IPC: 1.05759 cumulative IPC: 0.962555 (Simulation time: 0 hr 31 min 17 sec) 
Heartbeat CPU 0 instructions: 53000002 cycles: 50409997 heartbeat IPC: 1.04536 cumulative IPC: 0.964331 (Simulation time: 0 hr 31 min 53 sec) 
Heartbeat CPU 0 instructions: 54000001 cycles: 51394877 heartbeat IPC: 1.01535 cumulative IPC: 0.965433 (Simulation time: 0 hr 32 min 32 sec) 
Heartbeat CPU 0 instructions: 55000001 cycles: 52372621 heartbeat IPC: 1.02276 cumulative IPC: 0.966638 (Simulation time: 0 hr 33 min 8 sec) 
Heartbeat CPU 0 instructions: 56000000 cycles: 53362377 heartbeat IPC: 1.01035 cumulative IPC: 0.967548 (Simulation time: 0 hr 33 min 46 sec) 
Heartbeat CPU 0 instructions: 57000001 cycles: 54361237 heartbeat IPC: 1.00114 cumulative IPC: 0.968239 (Simulation time: 0 hr 34 min 23 sec) 
Heartbeat CPU 0 instructions: 58000000 cycles: 55377365 heartbeat IPC: 0.984127 cumulative IPC: 0.968565 (Simulation time: 0 hr 35 min 2 sec) 
Heartbeat CPU 0 instructions: 59000002 cycles: 57266674 heartbeat IPC: 0.529295 cumulative IPC: 0.952433 (Simulation time: 0 hr 35 min 44 sec) 
Heartbeat CPU 0 instructions: 60000000 cycles: 58932607 heartbeat IPC: 0.600263 cumulative IPC: 0.941387 (Simulation time: 0 hr 36 min 28 sec) 
Heartbeat CPU 0 instructions: 61000000 cycles: 60661899 heartbeat IPC: 0.578271 cumulative IPC: 0.929937 (Simulation time: 0 hr 37 min 7 sec) 
Heartbeat CPU 0 instructions: 62000000 cycles: 62288618 heartbeat IPC: 0.614734 cumulative IPC: 0.920857 (Simulation time: 0 hr 37 min 46 sec) 
Heartbeat CPU 0 instructions: 63000001 cycles: 63689730 heartbeat IPC: 0.71372 cumulative IPC: 0.915842 (Simulation time: 0 hr 38 min 25 sec) 
Heartbeat CPU 0 instructions: 64000000 cycles: 65209645 heartbeat IPC: 0.657931 cumulative IPC: 0.909242 (Simulation time: 0 hr 39 min 7 sec) 
Heartbeat CPU 0 instructions: 65000003 cycles: 66704469 heartbeat IPC: 0.668977 cumulative IPC: 0.903343 (Simulation time: 0 hr 39 min 54 sec) 
Heartbeat CPU 0 instructions: 66000000 cycles: 68200032 heartbeat IPC: 0.668643 cumulative IPC: 0.897716 (Simulation time: 0 hr 40 min 45 sec) 
Heartbeat CPU 0 instructions: 67000000 cycles: 69694552 heartbeat IPC: 0.669111 cumulative IPC: 0.892367 (Simulation time: 0 hr 41 min 25 sec) 
Heartbeat CPU 0 instructions: 68000000 cycles: 71189003 heartbeat IPC: 0.669142 cumulative IPC: 0.887264 (Simulation time: 0 hr 42 min 7 sec) 
Heartbeat CPU 0 instructions: 69000000 cycles: 72696248 heartbeat IPC: 0.663462 cumulative IPC: 0.88222 (Simulation time: 0 hr 42 min 48 sec) 
Heartbeat CPU 0 instructions: 70000001 cycles: 74193038 heartbeat IPC: 0.668097 cumulative IPC: 0.877532 (Simulation time: 0 hr 43 min 34 sec) 
Heartbeat CPU 0 instructions: 71000001 cycles: 75687399 heartbeat IPC: 0.669182 cumulative IPC: 0.873076 (Simulation time: 0 hr 44 min 18 sec) 
Heartbeat CPU 0 instructions: 72000000 cycles: 77170352 heartbeat IPC: 0.67433 cumulative IPC: 0.868945 (Simulation time: 0 hr 44 min 58 sec) 
Heartbeat CPU 0 instructions: 73000003 cycles: 78658060 heartbeat IPC: 0.672177 cumulative IPC: 0.864926 (Simulation time: 0 hr 45 min 37 sec) 
Heartbeat CPU 0 instructions: 74000000 cycles: 80155587 heartbeat IPC: 0.667766 cumulative IPC: 0.860955 (Simulation time: 0 hr 46 min 21 sec) 
Heartbeat CPU 0 instructions: 75000001 cycles: 81649559 heartbeat IPC: 0.669357 cumulative IPC: 0.85718 (Simulation time: 0 hr 47 min 4 sec) 
Heartbeat CPU 0 instructions: 76000000 cycles: 83145994 heartbeat IPC: 0.668254 cumulative IPC: 0.853524 (Simulation time: 0 hr 47 min 47 sec) 
Heartbeat CPU 0 instructions: 77000003 cycles: 84639790 heartbeat IPC: 0.669437 cumulative IPC: 0.850035 (Simulation time: 0 hr 48 min 29 sec) 
Heartbeat CPU 0 instructions: 78000001 cycles: 86134481 heartbeat IPC: 0.669033 cumulative IPC: 0.846666 (Simulation time: 0 hr 49 min 9 sec) 
Heartbeat CPU 0 instructions: 79000000 cycles: 87630913 heartbeat IPC: 0.668256 cumulative IPC: 0.843403 (Simulation time: 0 hr 49 min 50 sec) 
Heartbeat CPU 0 instructions: 80000000 cycles: 89121298 heartbeat IPC: 0.670968 cumulative IPC: 0.840318 (Simulation time: 0 hr 50 min 34 sec) 
Heartbeat CPU 0 instructions: 81000001 cycles: 90605231 heartbeat IPC: 0.673886 cumulative IPC: 0.837405 (Simulation time: 0 hr 51 min 18 sec) 
Heartbeat CPU 0 instructions: 82000000 cycles: 92088193 heartbeat IPC: 0.674325 cumulative IPC: 0.834602 (Simulation time: 0 hr 52 min 2 sec) 
Heartbeat CPU 0 instructions: 83000000 cycles: 93571546 heartbeat IPC: 0.674148 cumulative IPC: 0.831889 (Simulation time: 0 hr 52 min 44 sec) 
Heartbeat CPU 0 instructions: 84000000 cycles: 95066447 heartbeat IPC: 0.668941 cumulative IPC: 0.82916 (Simulation time: 0 hr 53 min 25 sec) 
Heartbeat CPU 0 instructions: 85000000 cycles: 96561329 heartbeat IPC: 0.668949 cumulative IPC: 0.826521 (Simulation time: 0 hr 54 min 9 sec) 
Heartbeat CPU 0 instructions: 86000000 cycles: 98055124 heartbeat IPC: 0.669436 cumulative IPC: 0.823977 (Simulation time: 0 hr 54 min 54 sec) 
Heartbeat CPU 0 instructions: 87000000 cycles: 99549980 heartbeat IPC: 0.668961 cumulative IPC: 0.821504 (Simulation time: 0 hr 55 min 37 sec) 
Heartbeat CPU 0 instructions: 88000000 cycles: 101045196 heartbeat IPC: 0.6688 cumulative IPC: 0.819107 (Simulation time: 0 hr 56 min 18 sec) 
Heartbeat CPU 0 instructions: 89000002 cycles: 102540825 heartbeat IPC: 0.668616 cumulative IPC: 0.816779 (Simulation time: 0 hr 57 min 0 sec) 
Heartbeat CPU 0 instructions: 90000000 cycles: 104025160 heartbeat IPC: 0.673701 cumulative IPC: 0.814617 (Simulation time: 0 hr 57 min 39 sec) 
Heartbeat CPU 0 instructions: 91000000 cycles: 105508780 heartbeat IPC: 0.674027 cumulative IPC: 0.812525 (Simulation time: 0 hr 58 min 15 sec) 
Heartbeat CPU 0 instructions: 92000000 cycles: 106992617 heartbeat IPC: 0.673928 cumulative IPC: 0.810492 (Simulation time: 0 hr 58 min 54 sec) 
Heartbeat CPU 0 instructions: 93000000 cycles: 108482360 heartbeat IPC: 0.671257 cumulative IPC: 0.808472 (Simulation time: 0 hr 59 min 27 sec) 
Heartbeat CPU 0 instructions: 94000003 cycles: 109976214 heartbeat IPC: 0.669411 cumulative IPC: 0.806477 (Simulation time: 1 hr 0 min 2 sec) 
Heartbeat CPU 0 instructions: 95000000 cycles: 111472014 heartbeat IPC: 0.668537 cumulative IPC: 0.804524 (Simulation time: 1 hr 0 min 34 sec) 
Heartbeat CPU 0 instructions: 96000000 cycles: 112965964 heartbeat IPC: 0.669366 cumulative IPC: 0.80264 (Simulation time: 1 hr 1 min 3 sec) 
Heartbeat CPU 0 instructions: 97000001 cycles: 114461509 heartbeat IPC: 0.668653 cumulative IPC: 0.800795 (Simulation time: 1 hr 1 min 29 sec) 
Heartbeat CPU 0 instructions: 98000003 cycles: 115956867 heartbeat IPC: 0.668738 cumulative IPC: 0.799002 (Simulation time: 1 hr 1 min 55 sec) 
Heartbeat CPU 0 instructions: 99000000 cycles: 117445971 heartbeat IPC: 0.671543 cumulative IPC: 0.797302 (Simulation time: 1 hr 2 min 20 sec) 
Heartbeat CPU 0 instructions: 100000000 cycles: 118929363 heartbeat IPC: 0.674131 cumulative IPC: 0.795687 (Simulation time: 1 hr 2 min 46 sec) 
Heartbeat CPU 0 instructions: 101000000 cycles: 120412572 heartbeat IPC: 0.674214 cumulative IPC: 0.794114 (Simulation time: 1 hr 3 min 10 sec) 
Heartbeat CPU 0 instructions: 102000003 cycles: 121896156 heartbeat IPC: 0.674045 cumulative IPC: 0.79258 (Simulation time: 1 hr 3 min 34 sec) 
Heartbeat CPU 0 instructions: 103000003 cycles: 123392415 heartbeat IPC: 0.668333 cumulative IPC: 0.790998 (Simulation time: 1 hr 3 min 58 sec) 
Heartbeat CPU 0 instructions: 104000000 cycles: 124886946 heartbeat IPC: 0.669104 cumulative IPC: 0.789468 (Simulation time: 1 hr 4 min 22 sec) 
Heartbeat CPU 0 instructions: 105000000 cycles: 126381754 heartbeat IPC: 0.668982 cumulative IPC: 0.787975 (Simulation time: 1 hr 4 min 47 sec) 
Heartbeat CPU 0 instructions: 106000000 cycles: 127876812 heartbeat IPC: 0.66887 cumulative IPC: 0.786516 (Simulation time: 1 hr 5 min 10 sec) 
Heartbeat CPU 0 instructions: 107000000 cycles: 129372656 heartbeat IPC: 0.668519 cumulative IPC: 0.785087 (Simulation time: 1 hr 5 min 34 sec) 
Heartbeat CPU 0 instructions: 108000000 cycles: 130868237 heartbeat IPC: 0.668636 cumulative IPC: 0.783694 (Simulation time: 1 hr 5 min 58 sec) 
Heartbeat CPU 0 instructions: 109000003 cycles: 132351112 heartbeat IPC: 0.674368 cumulative IPC: 0.782413 (Simulation time: 1 hr 6 min 21 sec) 
Heartbeat CPU 0 instructions: 110000001 cycles: 133834308 heartbeat IPC: 0.674218 cumulative IPC: 0.78116 (Simulation time: 1 hr 6 min 43 sec) 
Finished CPU 0 instructions: 100000000 cycles: 128014814 cummulative IPC: 0.78116 (Simulation time: 1 hr 6 min 43 sec) 

ChampSim completed all CPUs

Region of Interest Statistics

CPU 0 cummulative IPC: 0.78116 instructions: 100000000 cycles: 128014814
LLC TOTAL     ACCESS:    1495361  HIT:     463268  MISS:    1032093
LLC LOAD      ACCESS:      89231  HIT:      24624  MISS:      64607
LLC RFO       ACCESS:     219210  HIT:      36282  MISS:     182928
LLC PREFETCH  ACCESS:     750775  HIT:     155992  MISS:     594783
LLC WRITEBACK ACCESS:     436145  HIT:     246370  MISS:     189775
Insertion Distribution: 
	LOAD 3351 0 12911 53134 
	RFO 32094 0 74227 151710 
	PREF 0 3693 122780 632794 
	WRITEBACK 0 0 0 244050 
Total Prefetch Downgrades: 3198
