Initialize SIGNATURE TABLE
ST_SET: 1
ST_WAY: 256
ST_TAG_BIT: 16
ST_TAG_MASK: ffff

Initialize PATTERN TABLE
PT_SET: 512
PT_WAY: 4
SIG_DELTA_BIT: 7
C_SIG_BIT: 4
C_DELTA_BIT: 4

Initialize PREFETCH FILTER
FILTER_SET: 1024

*** ChampSim Multicore Out-of-Order Simulator ***

Warmup Instructions: 50000000
Simulation Instructions: 50000000
Number of CPUs: 1
LLC sets: 2048
LLC ways: 16
Off-chip DRAM Size: 4096 MB Channels: 1 Width: 64-bit Data Rate: 3200 MT/s

CPU 0 runs /Users/gandhardeshpande/Desktop/CSE240C/HW1/ChampSim/ipc1_public/client_001.champsimtrace.xz
CPU 0 L1I next line prefetcher
CPU 0 L1D next line prefetcher
Heartbeat CPU 0 instructions: 10000003 cycles: 3410042 heartbeat IPC: 2.93252 cumulative IPC: 2.93252 (Simulation time: 0 hr 0 min 13 sec) 
Heartbeat CPU 0 instructions: 20000001 cycles: 7118343 heartbeat IPC: 2.69665 cumulative IPC: 2.80964 (Simulation time: 0 hr 0 min 27 sec) 
Heartbeat CPU 0 instructions: 30000001 cycles: 10481087 heartbeat IPC: 2.97376 cumulative IPC: 2.8623 (Simulation time: 0 hr 0 min 40 sec) 
Heartbeat CPU 0 instructions: 40000003 cycles: 14350930 heartbeat IPC: 2.58408 cumulative IPC: 2.78728 (Simulation time: 0 hr 0 min 54 sec) 
Heartbeat CPU 0 instructions: 50000003 cycles: 17647977 heartbeat IPC: 3.03302 cumulative IPC: 2.83319 (Simulation time: 0 hr 1 min 7 sec) 

Warmup complete CPU 0 instructions: 50000003 cycles: 17647977 (Simulation time: 0 hr 1 min 7 sec) 

Heartbeat CPU 0 instructions: 60000000 cycles: 26652611 heartbeat IPC: 1.11054 cumulative IPC: 1.11054 (Simulation time: 0 hr 1 min 20 sec) 
Heartbeat CPU 0 instructions: 70000000 cycles: 32980842 heartbeat IPC: 1.58022 cumulative IPC: 1.30439 (Simulation time: 0 hr 1 min 31 sec) 
Heartbeat CPU 0 instructions: 80000002 cycles: 42307231 heartbeat IPC: 1.07223 cumulative IPC: 1.21658 (Simulation time: 0 hr 1 min 45 sec) 
Heartbeat CPU 0 instructions: 90000000 cycles: 48492874 heartbeat IPC: 1.61665 cumulative IPC: 1.29681 (Simulation time: 0 hr 1 min 55 sec) 
Heartbeat CPU 0 instructions: 100000002 cycles: 57328339 heartbeat IPC: 1.1318 cumulative IPC: 1.26007 (Simulation time: 0 hr 2 min 6 sec) 
Finished CPU 0 instructions: 50000003 cycles: 39680363 cumulative IPC: 1.26007 (Simulation time: 0 hr 2 min 6 sec) 

ChampSim completed all CPUs

Region of Interest Statistics

CPU 0 cumulative IPC: 1.26007 instructions: 50000003 cycles: 39680363
L1D TOTAL     ACCESS:   21212661  HIT:   20376294  MISS:     836367
L1D LOAD      ACCESS:    8808739  HIT:    8413589  MISS:     395150
L1D RFO       ACCESS:    4039923  HIT:    3980910  MISS:      59013
L1D PREFETCH  ACCESS:    8363999  HIT:    7981795  MISS:     382204
L1D WRITEBACK ACCESS:          0  HIT:          0  MISS:          0
L1D PREFETCH  REQUESTED:    8854049  ISSUED:    8544099  USEFUL:     129209  USELESS:     252969
L1D AVERAGE MISS LATENCY: 47.7688 cycles
L1I TOTAL     ACCESS:   10296392  HIT:    9821985  MISS:     474407
L1I LOAD      ACCESS:    8927843  HIT:    8915426  MISS:      12417
L1I RFO       ACCESS:          0  HIT:          0  MISS:          0
L1I PREFETCH  ACCESS:    1368549  HIT:     906559  MISS:     461990
L1I WRITEBACK ACCESS:          0  HIT:          0  MISS:          0
L1I PREFETCH  REQUESTED:    1398135  ISSUED:    1398068  USEFUL:     322837  USELESS:     139076
L1I AVERAGE MISS LATENCY: 20.2868 cycles
L2C TOTAL     ACCESS:    1981783  HIT:    1676271  MISS:     305512
L2C LOAD      ACCESS:     382523  HIT:     268925  MISS:     113598
L2C RFO       ACCESS:      58280  HIT:      21195  MISS:      37085
L2C PREFETCH  ACCESS:    1351412  HIT:    1196793  MISS:     154619
L2C WRITEBACK ACCESS:     189568  HIT:     189358  MISS:        210
L2C PREFETCH  REQUESTED:    1668644  ISSUED:    1666440  USEFUL:      13545  USELESS:     140013
L2C AVERAGE MISS LATENCY: 105.732 cycles
LLC TOTAL     ACCESS:     797562  HIT:     602180  MISS:     195382
LLC LOAD      ACCESS:     113267  HIT:      70890  MISS:      42377
LLC RFO       ACCESS:      37085  HIT:       9000  MISS:      28085
LLC PREFETCH  ACCESS:     540750  HIT:     416438  MISS:     124312
LLC WRITEBACK ACCESS:     106460  HIT:     105852  MISS:        608
LLC PREFETCH  REQUESTED:          0  ISSUED:          0  USEFUL:      27771  USELESS:      98504
LLC AVERAGE MISS LATENCY: 188.366 cycles
Major fault: 0 Minor fault: 3434
I-Shadow cache 408 bytes
Touched + WorthPF tables 24576 bytes 
MMA filter 174 bytes 
FNL filter 272 bytes 
TOTAL PREFETCHER STORAGE SIZE: 98134 bytes
CPU 0 L1I next line prefetcher final stats
CPU 0 L1D next line prefetcher final stats

DRAM Statistics
 CHANNEL 0
 RQ ROW_BUFFER_HIT:      48345  ROW_BUFFER_MISS:     146425
 DBUS_CONGESTED:     117102
 WQ ROW_BUFFER_HIT:      15985  ROW_BUFFER_MISS:      64740  FULL:          0

 AVG_CONGESTED_CYCLE: 5

CPU 0 Branch Prediction Accuracy: 97.9037% MPKI: 3.63418 Average ROB Occupancy at Mispredict: 87.0907

Branch types
NOT_BRANCH: 41331383 82.6628%
BRANCH_DIRECT_JUMP: 455615 0.91123%
BRANCH_INDIRECT: 20390 0.04078%
BRANCH_CONDITIONAL: 6745374 13.4907%
BRANCH_DIRECT_CALL: 494532 0.989064%
BRANCH_INDIRECT_CALL: 228815 0.45763%
BRANCH_RETURN: 723560 1.44712%
BRANCH_OTHER: 0 0%

