Initialize SIGNATURE TABLE
ST_SET: 1
ST_WAY: 256
ST_TAG_BIT: 16
ST_TAG_MASK: ffff

Initialize PATTERN TABLE
PT_SET: 512
PT_WAY: 4
SIG_DELTA_BIT: 7
C_SIG_BIT: 4
C_DELTA_BIT: 4

Initialize PREFETCH FILTER
FILTER_SET: 1024

*** ChampSim Multicore Out-of-Order Simulator ***

Warmup Instructions: 50000000
Simulation Instructions: 50000000
Number of CPUs: 1
LLC sets: 2048
LLC ways: 16
Off-chip DRAM Size: 4096 MB Channels: 1 Width: 64-bit Data Rate: 3200 MT/s

CPU 0 runs /Users/gandhardeshpande/Desktop/CSE240C/HW1/ChampSim/ipc1_public/server_026.champsimtrace.xz
CPU 0 L1I next line prefetcher
CPU 0 L1D next line prefetcher
Heartbeat CPU 0 instructions: 10000000 cycles: 3525387 heartbeat IPC: 2.83657 cumulative IPC: 2.83657 (Simulation time: 0 hr 0 min 15 sec) 
Heartbeat CPU 0 instructions: 20000002 cycles: 7056504 heartbeat IPC: 2.83197 cumulative IPC: 2.83426 (Simulation time: 0 hr 0 min 30 sec) 
Heartbeat CPU 0 instructions: 30000000 cycles: 10577230 heartbeat IPC: 2.84032 cumulative IPC: 2.83628 (Simulation time: 0 hr 0 min 45 sec) 
Heartbeat CPU 0 instructions: 40000003 cycles: 14106863 heartbeat IPC: 2.83316 cumulative IPC: 2.8355 (Simulation time: 0 hr 1 min 0 sec) 
Heartbeat CPU 0 instructions: 50000000 cycles: 17629551 heartbeat IPC: 2.83874 cumulative IPC: 2.83615 (Simulation time: 0 hr 1 min 15 sec) 

Warmup complete CPU 0 instructions: 50000004 cycles: 17629552 (Simulation time: 0 hr 1 min 15 sec) 

*** Reached end of trace for Core: 0 Repeating trace: /Users/gandhardeshpande/Desktop/CSE240C/HW1/ChampSim/ipc1_public/server_026.champsimtrace.xz
Heartbeat CPU 0 instructions: 60000000 cycles: 24554269 heartbeat IPC: 1.4441 cumulative IPC: 1.4441 (Simulation time: 0 hr 1 min 30 sec) 
Heartbeat CPU 0 instructions: 70000003 cycles: 31364326 heartbeat IPC: 1.46842 cumulative IPC: 1.45616 (Simulation time: 0 hr 1 min 46 sec) 
Heartbeat CPU 0 instructions: 80000002 cycles: 38287545 heartbeat IPC: 1.44441 cumulative IPC: 1.45222 (Simulation time: 0 hr 2 min 2 sec) 
Heartbeat CPU 0 instructions: 90000002 cycles: 45106413 heartbeat IPC: 1.46652 cumulative IPC: 1.45577 (Simulation time: 0 hr 2 min 17 sec) 
Heartbeat CPU 0 instructions: 100000000 cycles: 52005424 heartbeat IPC: 1.44948 cumulative IPC: 1.45451 (Simulation time: 0 hr 2 min 33 sec) 
Finished CPU 0 instructions: 50000000 cycles: 34375873 cumulative IPC: 1.45451 (Simulation time: 0 hr 2 min 33 sec) 

ChampSim completed all CPUs

Region of Interest Statistics

CPU 0 cumulative IPC: 1.45451 instructions: 50000000 cycles: 34375873
L1D TOTAL     ACCESS:   19770864  HIT:   18126008  MISS:    1644856
L1D LOAD      ACCESS:    6933167  HIT:    6202914  MISS:     730253
L1D RFO       ACCESS:    6241564  HIT:    5954770  MISS:     286794
L1D PREFETCH  ACCESS:    6596133  HIT:    5968324  MISS:     627809
L1D WRITEBACK ACCESS:          0  HIT:          0  MISS:          0
L1D PREFETCH  REQUESTED:    6981880  ISSUED:    6838319  USEFUL:     150365  USELESS:     477455
L1D AVERAGE MISS LATENCY: 24.6225 cycles
L1I TOTAL     ACCESS:   14853905  HIT:   10923763  MISS:    3930142
L1I LOAD      ACCESS:    9490152  HIT:    9394624  MISS:      95528
L1I RFO       ACCESS:          0  HIT:          0  MISS:          0
L1I PREFETCH  ACCESS:    5363753  HIT:    1529139  MISS:    3834614
L1I WRITEBACK ACCESS:          0  HIT:          0  MISS:          0
L1I PREFETCH  REQUESTED:    5603653  ISSUED:    5601786  USEFUL:    2765772  USELESS:    1068866
L1I AVERAGE MISS LATENCY: 18.7255 cycles
L2C TOTAL     ACCESS:    7472779  HIT:    6559407  MISS:     913372
L2C LOAD      ACCESS:     714093  HIT:     556573  MISS:     157520
L2C RFO       ACCESS:     284793  HIT:     178187  MISS:     106606
L2C PREFETCH  ACCESS:    5912721  HIT:    5268720  MISS:     644001
L2C WRITEBACK ACCESS:     561172  HIT:     555927  MISS:       5245
L2C PREFETCH  REQUESTED:    7469933  ISSUED:    7452416  USEFUL:      15700  USELESS:     627940
L2C AVERAGE MISS LATENCY: 38.9152 cycles
LLC TOTAL     ACCESS:    2888103  HIT:    2849966  MISS:      38137
LLC LOAD      ACCESS:     157198  HIT:     153528  MISS:       3670
LLC RFO       ACCESS:     106557  HIT:      91938  MISS:      14619
LLC PREFETCH  ACCESS:    2447534  HIT:    2427942  MISS:      19592
LLC WRITEBACK ACCESS:     176814  HIT:     176558  MISS:        256
LLC PREFETCH  REQUESTED:          0  ISSUED:          0  USEFUL:       1196  USELESS:      17760
LLC AVERAGE MISS LATENCY: 189.116 cycles
Major fault: 0 Minor fault: 2166
I-Shadow cache 408 bytes
Touched + WorthPF tables 24576 bytes 
MMA filter 174 bytes 
FNL filter 272 bytes 
TOTAL PREFETCHER STORAGE SIZE: 98134 bytes
CPU 0 L1I next line prefetcher final stats
CPU 0 L1D next line prefetcher final stats

DRAM Statistics
 CHANNEL 0
 RQ ROW_BUFFER_HIT:      13271  ROW_BUFFER_MISS:      24594
 DBUS_CONGESTED:      25529
 WQ ROW_BUFFER_HIT:       1647  ROW_BUFFER_MISS:      14908  FULL:          0

 AVG_CONGESTED_CYCLE: 6

CPU 0 Branch Prediction Accuracy: 99.822% MPKI: 0.32584 Average ROB Occupancy at Mispredict: 203.369

Branch types
NOT_BRANCH: 40848558 81.6971%
BRANCH_DIRECT_JUMP: 522045 1.04409%
BRANCH_INDIRECT: 204034 0.408068%
BRANCH_CONDITIONAL: 6212961 12.4259%
BRANCH_DIRECT_CALL: 932391 1.86478%
BRANCH_INDIRECT_CALL: 173764 0.347528%
BRANCH_RETURN: 1106152 2.2123%
BRANCH_OTHER: 0 0%

