Initialize SIGNATURE TABLE
ST_SET: 1
ST_WAY: 256
ST_TAG_BIT: 16
ST_TAG_MASK: ffff

Initialize PATTERN TABLE
PT_SET: 512
PT_WAY: 4
SIG_DELTA_BIT: 7
C_SIG_BIT: 4
C_DELTA_BIT: 4

Initialize PREFETCH FILTER
FILTER_SET: 1024

*** ChampSim Multicore Out-of-Order Simulator ***

Warmup Instructions: 50000000
Simulation Instructions: 50000000
Number of CPUs: 1
LLC sets: 2048
LLC ways: 16
Off-chip DRAM Size: 4096 MB Channels: 1 Width: 64-bit Data Rate: 3200 MT/s

CPU 0 runs /Users/gandhardeshpande/Desktop/CSE240C/HW1/ChampSim/ipc1_public/server_010.champsimtrace.xz
CPU 0 L1I next line prefetcher
CPU 0 L1D next line prefetcher
Heartbeat CPU 0 instructions: 10000000 cycles: 3194306 heartbeat IPC: 3.13057 cumulative IPC: 3.13057 (Simulation time: 0 hr 0 min 14 sec) 
Heartbeat CPU 0 instructions: 20000002 cycles: 6384568 heartbeat IPC: 3.13454 cumulative IPC: 3.13255 (Simulation time: 0 hr 0 min 28 sec) 
Heartbeat CPU 0 instructions: 30000001 cycles: 9578214 heartbeat IPC: 3.13122 cumulative IPC: 3.13211 (Simulation time: 0 hr 0 min 42 sec) 
Heartbeat CPU 0 instructions: 40000000 cycles: 12768316 heartbeat IPC: 3.1347 cumulative IPC: 3.13275 (Simulation time: 0 hr 0 min 56 sec) 
Heartbeat CPU 0 instructions: 50000003 cycles: 15963767 heartbeat IPC: 3.12945 cumulative IPC: 3.13209 (Simulation time: 0 hr 1 min 10 sec) 

Warmup complete CPU 0 instructions: 50000003 cycles: 15963767 (Simulation time: 0 hr 1 min 10 sec) 

Heartbeat CPU 0 instructions: 60000001 cycles: 23121336 heartbeat IPC: 1.39712 cumulative IPC: 1.39712 (Simulation time: 0 hr 1 min 22 sec) 
Heartbeat CPU 0 instructions: 70000000 cycles: 30331216 heartbeat IPC: 1.38699 cumulative IPC: 1.39204 (Simulation time: 0 hr 1 min 35 sec) 
Heartbeat CPU 0 instructions: 80000003 cycles: 37617767 heartbeat IPC: 1.37239 cumulative IPC: 1.38543 (Simulation time: 0 hr 1 min 47 sec) 
Heartbeat CPU 0 instructions: 90000002 cycles: 44678747 heartbeat IPC: 1.41623 cumulative IPC: 1.393 (Simulation time: 0 hr 2 min 0 sec) 
Heartbeat CPU 0 instructions: 100000003 cycles: 65298544 heartbeat IPC: 0.484971 cumulative IPC: 1.01348 (Simulation time: 0 hr 2 min 21 sec) 
Finished CPU 0 instructions: 50000000 cycles: 49334777 cumulative IPC: 1.01348 (Simulation time: 0 hr 2 min 21 sec) 

ChampSim completed all CPUs

Region of Interest Statistics

CPU 0 cumulative IPC: 1.01348 instructions: 50000000 cycles: 49334777
L1D TOTAL     ACCESS:   19880220  HIT:   16655097  MISS:    3225123
L1D LOAD      ACCESS:    7696868  HIT:    6103125  MISS:    1593743
L1D RFO       ACCESS:    4710075  HIT:    4615710  MISS:      94365
L1D PREFETCH  ACCESS:    7473277  HIT:    5936262  MISS:    1537015
L1D WRITEBACK ACCESS:          0  HIT:          0  MISS:          0
L1D PREFETCH  REQUESTED:    7730151  ISSUED:    7633327  USEFUL:     116519  USELESS:    1420468
L1D AVERAGE MISS LATENCY: 22.8225 cycles
L1I TOTAL     ACCESS:   12676421  HIT:   10915483  MISS:    1760938
L1I LOAD      ACCESS:    9952243  HIT:    9832393  MISS:     119850
L1I RFO       ACCESS:          0  HIT:          0  MISS:          0
L1I PREFETCH  ACCESS:    2724178  HIT:    1083090  MISS:    1641088
L1I WRITEBACK ACCESS:          0  HIT:          0  MISS:          0
L1I PREFETCH  REQUESTED:    2897042  ISSUED:    2896350  USEFUL:    1134341  USELESS:     506761
L1I AVERAGE MISS LATENCY: 29.2126 cycles
L2C TOTAL     ACCESS:    6332095  HIT:    5161519  MISS:    1170576
L2C LOAD      ACCESS:    1598406  HIT:    1370648  MISS:     227758
L2C RFO       ACCESS:      93300  HIT:      48141  MISS:      45159
L2C PREFETCH  ACCESS:    4375027  HIT:    3479028  MISS:     895999
L2C WRITEBACK ACCESS:     265362  HIT:     263702  MISS:       1660
L2C PREFETCH  REQUESTED:    5785538  ISSUED:    5783541  USEFUL:      22581  USELESS:     874672
L2C AVERAGE MISS LATENCY: 46.6328 cycles
LLC TOTAL     ACCESS:    2401305  HIT:    2276652  MISS:     124653
LLC LOAD      ACCESS:     227657  HIT:     211081  MISS:      16576
LLC RFO       ACCESS:      45156  HIT:      35686  MISS:       9470
LLC PREFETCH  ACCESS:    1977162  HIT:    1878709  MISS:      98453
LLC WRITEBACK ACCESS:     151330  HIT:     151176  MISS:        154
LLC PREFETCH  REQUESTED:          0  ISSUED:          0  USEFUL:       8785  USELESS:      90053
LLC AVERAGE MISS LATENCY: 175.452 cycles
Major fault: 0 Minor fault: 5597
I-Shadow cache 408 bytes
Touched + WorthPF tables 24576 bytes 
MMA filter 174 bytes 
FNL filter 272 bytes 
TOTAL PREFETCHER STORAGE SIZE: 98134 bytes
CPU 0 L1I next line prefetcher final stats
CPU 0 L1D next line prefetcher final stats

DRAM Statistics
 CHANNEL 0
 RQ ROW_BUFFER_HIT:      18702  ROW_BUFFER_MISS:     105778
 DBUS_CONGESTED:      56986
 WQ ROW_BUFFER_HIT:      10152  ROW_BUFFER_MISS:      44162  FULL:          0

 AVG_CONGESTED_CYCLE: 5

CPU 0 Branch Prediction Accuracy: 99.5528% MPKI: 0.89798 Average ROB Occupancy at Mispredict: 129.107

Branch types
NOT_BRANCH: 39958794 79.9176%
BRANCH_DIRECT_JUMP: 449946 0.899892%
BRANCH_INDIRECT: 140210 0.28042%
BRANCH_CONDITIONAL: 7679677 15.3594%
BRANCH_DIRECT_CALL: 701578 1.40316%
BRANCH_INDIRECT_CALL: 168971 0.337942%
BRANCH_RETURN: 900560 1.80112%
BRANCH_OTHER: 0 0%

