Initialize SIGNATURE TABLE
ST_SET: 1
ST_WAY: 256
ST_TAG_BIT: 16
ST_TAG_MASK: ffff

Initialize PATTERN TABLE
PT_SET: 512
PT_WAY: 4
SIG_DELTA_BIT: 7
C_SIG_BIT: 4
C_DELTA_BIT: 4

Initialize PREFETCH FILTER
FILTER_SET: 1024

*** ChampSim Multicore Out-of-Order Simulator ***

Warmup Instructions: 50000000
Simulation Instructions: 50000000
Number of CPUs: 1
LLC sets: 2048
LLC ways: 16
Off-chip DRAM Size: 4096 MB Channels: 1 Width: 64-bit Data Rate: 3200 MT/s

CPU 0 runs /Users/gandhardeshpande/Desktop/CSE240C/HW1/ChampSim/ipc1_public/spec_perlbench_001.champsimtrace.xz
CPU 0 L1I next line prefetcher
CPU 0 L1D next line prefetcher
Heartbeat CPU 0 instructions: 10000000 cycles: 3275833 heartbeat IPC: 3.05266 cumulative IPC: 3.05266 (Simulation time: 0 hr 0 min 14 sec) 
Heartbeat CPU 0 instructions: 20000000 cycles: 6540304 heartbeat IPC: 3.06328 cumulative IPC: 3.05796 (Simulation time: 0 hr 0 min 27 sec) 
Heartbeat CPU 0 instructions: 30000002 cycles: 9856858 heartbeat IPC: 3.01518 cumulative IPC: 3.04357 (Simulation time: 0 hr 0 min 41 sec) 
Heartbeat CPU 0 instructions: 40000002 cycles: 13112264 heartbeat IPC: 3.07181 cumulative IPC: 3.05058 (Simulation time: 0 hr 0 min 55 sec) 
Heartbeat CPU 0 instructions: 50000001 cycles: 16386162 heartbeat IPC: 3.05446 cumulative IPC: 3.05136 (Simulation time: 0 hr 1 min 7 sec) 

Warmup complete CPU 0 instructions: 50000001 cycles: 16386162 (Simulation time: 0 hr 1 min 7 sec) 

Heartbeat CPU 0 instructions: 60000001 cycles: 24664198 heartbeat IPC: 1.20802 cumulative IPC: 1.20802 (Simulation time: 0 hr 1 min 20 sec) 
Heartbeat CPU 0 instructions: 70000000 cycles: 32782485 heartbeat IPC: 1.23179 cumulative IPC: 1.21979 (Simulation time: 0 hr 1 min 32 sec) 
Heartbeat CPU 0 instructions: 80000000 cycles: 41186918 heartbeat IPC: 1.18985 cumulative IPC: 1.20964 (Simulation time: 0 hr 1 min 45 sec) 
Heartbeat CPU 0 instructions: 90000000 cycles: 46908795 heartbeat IPC: 1.74768 cumulative IPC: 1.3105 (Simulation time: 0 hr 1 min 54 sec) 
Heartbeat CPU 0 instructions: 100000002 cycles: 52787239 heartbeat IPC: 1.70113 cumulative IPC: 1.37359 (Simulation time: 0 hr 2 min 3 sec) 
Finished CPU 0 instructions: 50000001 cycles: 36401077 cumulative IPC: 1.37359 (Simulation time: 0 hr 2 min 3 sec) 

ChampSim completed all CPUs

Region of Interest Statistics

CPU 0 cumulative IPC: 1.37359 instructions: 50000001 cycles: 36401077
L1D TOTAL     ACCESS:   20694939  HIT:   20279831  MISS:     415108
L1D LOAD      ACCESS:    7176916  HIT:    6963267  MISS:     213649
L1D RFO       ACCESS:    6542449  HIT:    6523944  MISS:      18505
L1D PREFETCH  ACCESS:    6975574  HIT:    6792620  MISS:     182954
L1D WRITEBACK ACCESS:          0  HIT:          0  MISS:          0
L1D PREFETCH  REQUESTED:    7192536  ISSUED:    7076011  USEFUL:      55261  USELESS:     127688
L1D AVERAGE MISS LATENCY: 57.725 cycles
L1I TOTAL     ACCESS:   10967843  HIT:   10248399  MISS:     719444
L1I LOAD      ACCESS:    9151238  HIT:    9071800  MISS:      79438
L1I RFO       ACCESS:          0  HIT:          0  MISS:          0
L1I PREFETCH  ACCESS:    1816605  HIT:    1176599  MISS:     640006
L1I WRITEBACK ACCESS:          0  HIT:          0  MISS:          0
L1I PREFETCH  REQUESTED:    1875068  ISSUED:    1875059  USEFUL:     387950  USELESS:     252065
L1I AVERAGE MISS LATENCY: 17.1739 cycles
L2C TOTAL     ACCESS:    1571217  HIT:    1402142  MISS:     169075
L2C LOAD      ACCESS:     275367  HIT:     194100  MISS:      81267
L2C RFO       ACCESS:      18266  HIT:      12827  MISS:       5439
L2C PREFETCH  ACCESS:    1198638  HIT:    1116632  MISS:      82006
L2C WRITEBACK ACCESS:      78946  HIT:      78583  MISS:        363
L2C PREFETCH  REQUESTED:    1251211  ISSUED:    1251171  USEFUL:       6363  USELESS:      75710
L2C AVERAGE MISS LATENCY: 117.821 cycles
LLC TOTAL     ACCESS:     457111  HIT:     311442  MISS:     145669
LLC LOAD      ACCESS:      81264  HIT:      33004  MISS:      48260
LLC RFO       ACCESS:       5439  HIT:       2460  MISS:       2979
LLC PREFETCH  ACCESS:     344945  HIT:     251073  MISS:      93872
LLC WRITEBACK ACCESS:      25463  HIT:      24905  MISS:        558
LLC PREFETCH  REQUESTED:          0  ISSUED:          0  USEFUL:      15489  USELESS:      78556
LLC AVERAGE MISS LATENCY: 160.085 cycles
Major fault: 0 Minor fault: 6365
I-Shadow cache 408 bytes
Touched + WorthPF tables 24576 bytes 
MMA filter 174 bytes 
FNL filter 272 bytes 
TOTAL PREFETCHER STORAGE SIZE: 98134 bytes
CPU 0 L1I next line prefetcher final stats
CPU 0 L1D next line prefetcher final stats

DRAM Statistics
 CHANNEL 0
 RQ ROW_BUFFER_HIT:      32562  ROW_BUFFER_MISS:     112546
 DBUS_CONGESTED:      61654
 WQ ROW_BUFFER_HIT:       4121  ROW_BUFFER_MISS:      13390  FULL:          0

 AVG_CONGESTED_CYCLE: 4

CPU 0 Branch Prediction Accuracy: 98.7418% MPKI: 2.47758 Average ROB Occupancy at Mispredict: 78.4253

Branch types
NOT_BRANCH: 40154100 80.3082%
BRANCH_DIRECT_JUMP: 817094 1.63419%
BRANCH_INDIRECT: 303787 0.607574%
BRANCH_CONDITIONAL: 7492103 14.9842%
BRANCH_DIRECT_CALL: 471777 0.943554%
BRANCH_INDIRECT_CALL: 144546 0.289092%
BRANCH_RETURN: 616324 1.23265%
BRANCH_OTHER: 0 0%

