Initialize SIGNATURE TABLE
ST_SET: 1
ST_WAY: 256
ST_TAG_BIT: 16
ST_TAG_MASK: ffff

Initialize PATTERN TABLE
PT_SET: 512
PT_WAY: 4
SIG_DELTA_BIT: 7
C_SIG_BIT: 4
C_DELTA_BIT: 4

Initialize PREFETCH FILTER
FILTER_SET: 1024

*** ChampSim Multicore Out-of-Order Simulator ***

Warmup Instructions: 50000000
Simulation Instructions: 50000000
Number of CPUs: 1
LLC sets: 2048
LLC ways: 16
Off-chip DRAM Size: 4096 MB Channels: 1 Width: 64-bit Data Rate: 3200 MT/s

CPU 0 runs /Users/gandhardeshpande/Desktop/CSE240C/HW1/ChampSim/ipc1_public/client_005.champsimtrace.xz
CPU 0 L1I next line prefetcher
Running FNL-MMA for L1I
CPU 0 L1D next line prefetcher
Heartbeat CPU 0 instructions: 10000001 cycles: 3291547 heartbeat IPC: 3.03809 cumulative IPC: 3.03809 (Simulation time: 0 hr 0 min 13 sec) 
Heartbeat CPU 0 instructions: 20000002 cycles: 6698199 heartbeat IPC: 2.93543 cumulative IPC: 2.98588 (Simulation time: 0 hr 0 min 27 sec) 
Heartbeat CPU 0 instructions: 30000001 cycles: 10391499 heartbeat IPC: 2.70761 cumulative IPC: 2.88698 (Simulation time: 0 hr 0 min 42 sec) 
Heartbeat CPU 0 instructions: 40000000 cycles: 14069354 heartbeat IPC: 2.71898 cumulative IPC: 2.84306 (Simulation time: 0 hr 0 min 57 sec) 
Heartbeat CPU 0 instructions: 50000001 cycles: 17342762 heartbeat IPC: 3.05492 cumulative IPC: 2.88305 (Simulation time: 0 hr 1 min 11 sec) 

Warmup complete CPU 0 instructions: 50000001 cycles: 17342762 (Simulation time: 0 hr 1 min 11 sec) 

Heartbeat CPU 0 instructions: 60000002 cycles: 25006474 heartbeat IPC: 1.30485 cumulative IPC: 1.30485 (Simulation time: 0 hr 1 min 22 sec) 
Heartbeat CPU 0 instructions: 70000003 cycles: 32325376 heartbeat IPC: 1.36633 cumulative IPC: 1.33488 (Simulation time: 0 hr 1 min 35 sec) 
Heartbeat CPU 0 instructions: 80000001 cycles: 39213312 heartbeat IPC: 1.45181 cumulative IPC: 1.37171 (Simulation time: 0 hr 1 min 48 sec) 
Heartbeat CPU 0 instructions: 90000002 cycles: 48724799 heartbeat IPC: 1.05136 cumulative IPC: 1.27461 (Simulation time: 0 hr 2 min 2 sec) 
Heartbeat CPU 0 instructions: 100000002 cycles: 56275950 heartbeat IPC: 1.3243 cumulative IPC: 1.28425 (Simulation time: 0 hr 2 min 13 sec) 
Finished CPU 0 instructions: 50000001 cycles: 38933188 cumulative IPC: 1.28425 (Simulation time: 0 hr 2 min 13 sec) 

ChampSim completed all CPUs

Region of Interest Statistics

CPU 0 cumulative IPC: 1.28425 instructions: 50000001 cycles: 38933188
L1D TOTAL     ACCESS:   19677261  HIT:   19141379  MISS:     535882
L1D LOAD      ACCESS:    6665820  HIT:    6494179  MISS:     171641
L1D RFO       ACCESS:    6797346  HIT:    6612960  MISS:     184386
L1D PREFETCH  ACCESS:    6214095  HIT:    6034240  MISS:     179855
L1D WRITEBACK ACCESS:          0  HIT:          0  MISS:          0
L1D PREFETCH  REQUESTED:    6689258  ISSUED:    6318523  USEFUL:      59589  USELESS:     120153
L1D AVERAGE MISS LATENCY: 92.4002 cycles
L1I TOTAL     ACCESS:   12041259  HIT:   10958778  MISS:    1082481
L1I LOAD      ACCESS:    9311543  HIT:    9102061  MISS:     209482
L1I RFO       ACCESS:          0  HIT:          0  MISS:          0
L1I PREFETCH  ACCESS:    2729716  HIT:    1856717  MISS:     872999
L1I WRITEBACK ACCESS:          0  HIT:          0  MISS:          0
L1I PREFETCH  REQUESTED:    2849404  ISSUED:    2849361  USEFUL:     572440  USELESS:     300494
L1I AVERAGE MISS LATENCY: 20.3851 cycles
L2C TOTAL     ACCESS:    2368075  HIT:    1982850  MISS:     385225
L2C LOAD      ACCESS:     341684  HIT:     253291  MISS:      88393
L2C RFO       ACCESS:     180818  HIT:      31418  MISS:     149400
L2C PREFETCH  ACCESS:    1592520  HIT:    1446079  MISS:     146441
L2C WRITEBACK ACCESS:     253053  HIT:     252062  MISS:        991
L2C PREFETCH  REQUESTED:    1764043  ISSUED:    1763415  USEFUL:      15476  USELESS:     129279
L2C AVERAGE MISS LATENCY: 128.425 cycles
LLC TOTAL     ACCESS:     967430  HIT:     666214  MISS:     301216
LLC LOAD      ACCESS:      88360  HIT:      45962  MISS:      42398
LLC RFO       ACCESS:     149395  HIT:      19596  MISS:     129799
LLC PREFETCH  ACCESS:     530287  HIT:     402137  MISS:     128150
LLC WRITEBACK ACCESS:     199388  HIT:     198519  MISS:        869
LLC PREFETCH  REQUESTED:          0  ISSUED:          0  USEFUL:      27737  USELESS:      96051
LLC AVERAGE MISS LATENCY: 169.491 cycles
Major fault: 0 Minor fault: 6084
I-Shadow cache 408 bytes
Touched + WorthPF tables 24576 bytes 
MMA filter 174 bytes 
FNL filter 272 bytes 
TOTAL PREFETCHER STORAGE SIZE: 98134 bytes
CPU 0 L1I next line prefetcher final stats
CPU 0 L1D next line prefetcher final stats

DRAM Statistics
 CHANNEL 0
 RQ ROW_BUFFER_HIT:      97085  ROW_BUFFER_MISS:     203256
 DBUS_CONGESTED:     245505
 WQ ROW_BUFFER_HIT:      51387  ROW_BUFFER_MISS:     131732  FULL:          0

 AVG_CONGESTED_CYCLE: 6

CPU 0 Branch Prediction Accuracy: 97.8666% MPKI: 3.9013 Average ROB Occupancy at Mispredict: 86.5708

Branch types
NOT_BRANCH: 40856330 81.7127%
BRANCH_DIRECT_JUMP: 484667 0.969334%
BRANCH_INDIRECT: 85086 0.170172%
BRANCH_CONDITIONAL: 6230887 12.4618%
BRANCH_DIRECT_CALL: 1028917 2.05783%
BRANCH_INDIRECT_CALL: 141825 0.28365%
BRANCH_RETURN: 1171986 2.34397%
BRANCH_OTHER: 0 0%

