Initialize SIGNATURE TABLE
ST_SET: 1
ST_WAY: 256
ST_TAG_BIT: 16
ST_TAG_MASK: ffff

Initialize PATTERN TABLE
PT_SET: 512
PT_WAY: 4
SIG_DELTA_BIT: 7
C_SIG_BIT: 4
C_DELTA_BIT: 4

Initialize PREFETCH FILTER
FILTER_SET: 1024

*** ChampSim Multicore Out-of-Order Simulator ***

Warmup Instructions: 50000000
Simulation Instructions: 50000000
Number of CPUs: 1
LLC sets: 2048
LLC ways: 16
Off-chip DRAM Size: 4096 MB Channels: 1 Width: 64-bit Data Rate: 3200 MT/s

CPU 0 runs /Users/gandhardeshpande/Desktop/CSE240C/HW1/ChampSim/ipc1_public/client_003.champsimtrace.xz
CPU 0 L1I next line prefetcher
Running FNL-MMA for L1I
CPU 0 L1D next line prefetcher
Heartbeat CPU 0 instructions: 10000000 cycles: 3478168 heartbeat IPC: 2.87508 cumulative IPC: 2.87508 (Simulation time: 0 hr 0 min 14 sec) 
Heartbeat CPU 0 instructions: 20000002 cycles: 6932309 heartbeat IPC: 2.89508 cumulative IPC: 2.88504 (Simulation time: 0 hr 0 min 28 sec) 
Heartbeat CPU 0 instructions: 30000003 cycles: 10493073 heartbeat IPC: 2.80839 cumulative IPC: 2.85903 (Simulation time: 0 hr 0 min 42 sec) 
Heartbeat CPU 0 instructions: 40000001 cycles: 14109451 heartbeat IPC: 2.7652 cumulative IPC: 2.83498 (Simulation time: 0 hr 0 min 57 sec) 
Heartbeat CPU 0 instructions: 50000003 cycles: 17654492 heartbeat IPC: 2.82084 cumulative IPC: 2.83214 (Simulation time: 0 hr 1 min 11 sec) 

Warmup complete CPU 0 instructions: 50000003 cycles: 17654492 (Simulation time: 0 hr 1 min 11 sec) 

Heartbeat CPU 0 instructions: 60000002 cycles: 23954344 heartbeat IPC: 1.58734 cumulative IPC: 1.58734 (Simulation time: 0 hr 1 min 23 sec) 
Heartbeat CPU 0 instructions: 70000001 cycles: 30034465 heartbeat IPC: 1.6447 cumulative IPC: 1.61551 (Simulation time: 0 hr 1 min 36 sec) 
Heartbeat CPU 0 instructions: 80000001 cycles: 36910063 heartbeat IPC: 1.45442 cumulative IPC: 1.55799 (Simulation time: 0 hr 1 min 48 sec) 
Heartbeat CPU 0 instructions: 90000000 cycles: 45942043 heartbeat IPC: 1.10718 cumulative IPC: 1.41405 (Simulation time: 0 hr 1 min 57 sec) 
Heartbeat CPU 0 instructions: 100000003 cycles: 56761557 heartbeat IPC: 0.924256 cumulative IPC: 1.27854 (Simulation time: 0 hr 2 min 9 sec) 
Finished CPU 0 instructions: 50000000 cycles: 39107065 cumulative IPC: 1.27854 (Simulation time: 0 hr 2 min 9 sec) 

ChampSim completed all CPUs

Region of Interest Statistics

CPU 0 cumulative IPC: 1.27854 instructions: 50000000 cycles: 39107065
L1D TOTAL     ACCESS:   17663888  HIT:   17167879  MISS:     496009
L1D LOAD      ACCESS:    6052026  HIT:    5925562  MISS:     126464
L1D RFO       ACCESS:    5950061  HIT:    5715689  MISS:     234372
L1D PREFETCH  ACCESS:    5661801  HIT:    5526628  MISS:     135173
L1D WRITEBACK ACCESS:          0  HIT:          0  MISS:          0
L1D PREFETCH  REQUESTED:    6093416  ISSUED:    5952283  USEFUL:      67240  USELESS:      67981
L1D AVERAGE MISS LATENCY: 120.791 cycles
L1I TOTAL     ACCESS:   11375869  HIT:   10626591  MISS:     749278
L1I LOAD      ACCESS:    9445976  HIT:    9318580  MISS:     127396
L1I RFO       ACCESS:          0  HIT:          0  MISS:          0
L1I PREFETCH  ACCESS:    1929893  HIT:    1308011  MISS:     621882
L1I WRITEBACK ACCESS:          0  HIT:          0  MISS:          0
L1I PREFETCH  REQUESTED:    2004798  ISSUED:    2004768  USEFUL:     406221  USELESS:     215666
L1I AVERAGE MISS LATENCY: 20.7367 cycles
L2C TOTAL     ACCESS:    1848855  HIT:    1453328  MISS:     395527
L2C LOAD      ACCESS:     202826  HIT:     157451  MISS:      45375
L2C RFO       ACCESS:     232309  HIT:      25943  MISS:     206366
L2C PREFETCH  ACCESS:    1144407  HIT:    1001819  MISS:     142588
L2C WRITEBACK ACCESS:     269313  HIT:     268115  MISS:       1198
L2C PREFETCH  REQUESTED:    1361886  ISSUED:    1361149  USEFUL:      12707  USELESS:     130395
L2C AVERAGE MISS LATENCY: 165.919 cycles
LLC TOTAL     ACCESS:    1001607  HIT:     713894  MISS:     287713
LLC LOAD      ACCESS:      45280  HIT:      31686  MISS:      13594
LLC RFO       ACCESS:     206355  HIT:      34665  MISS:     171690
LLC PREFETCH  ACCESS:     525896  HIT:     423899  MISS:     101997
LLC WRITEBACK ACCESS:     224076  HIT:     223644  MISS:        432
LLC PREFETCH  REQUESTED:          0  ISSUED:          0  USEFUL:      10730  USELESS:      91990
LLC AVERAGE MISS LATENCY: 227.033 cycles
Major fault: 0 Minor fault: 5042
I-Shadow cache 408 bytes
Touched + WorthPF tables 24576 bytes 
MMA filter 174 bytes 
FNL filter 272 bytes 
TOTAL PREFETCHER STORAGE SIZE: 98134 bytes
CPU 0 L1I next line prefetcher final stats
CPU 0 L1D next line prefetcher final stats

DRAM Statistics
 CHANNEL 0
 RQ ROW_BUFFER_HIT:     101257  ROW_BUFFER_MISS:     186020
 DBUS_CONGESTED:     259155
 WQ ROW_BUFFER_HIT:      60114  ROW_BUFFER_MISS:     119001  FULL:          0

 AVG_CONGESTED_CYCLE: 6

CPU 0 Branch Prediction Accuracy: 98.6631% MPKI: 2.66884 Average ROB Occupancy at Mispredict: 75.7773

Branch types
NOT_BRANCH: 40018780 80.0376%
BRANCH_DIRECT_JUMP: 370861 0.741722%
BRANCH_INDIRECT: 83253 0.166506%
BRANCH_CONDITIONAL: 7877436 15.7549%
BRANCH_DIRECT_CALL: 722316 1.44463%
BRANCH_INDIRECT_CALL: 101901 0.203802%
BRANCH_RETURN: 825355 1.65071%
BRANCH_OTHER: 0 0%

