Initialize SIGNATURE TABLE
ST_SET: 1
ST_WAY: 256
ST_TAG_BIT: 16
ST_TAG_MASK: ffff

Initialize PATTERN TABLE
PT_SET: 512
PT_WAY: 4
SIG_DELTA_BIT: 7
C_SIG_BIT: 4
C_DELTA_BIT: 4

Initialize PREFETCH FILTER
FILTER_SET: 1024

*** ChampSim Multicore Out-of-Order Simulator ***

Warmup Instructions: 50000000
Simulation Instructions: 50000000
Number of CPUs: 1
LLC sets: 2048
LLC ways: 16
Off-chip DRAM Size: 4096 MB Channels: 1 Width: 64-bit Data Rate: 3200 MT/s

CPU 0 runs /Users/gandhardeshpande/Desktop/CSE240C/HW1/ChampSim/ipc1_public/server_010.champsimtrace.xz
CPU 0 L1I next line prefetcher
Running FNL-MMA for L1I
CPU 0 L1D next line prefetcher
Heartbeat CPU 0 instructions: 10000000 cycles: 3194083 heartbeat IPC: 3.13079 cumulative IPC: 3.13079 (Simulation time: 0 hr 0 min 13 sec) 
Heartbeat CPU 0 instructions: 20000002 cycles: 6383999 heartbeat IPC: 3.13488 cumulative IPC: 3.13283 (Simulation time: 0 hr 0 min 26 sec) 
Heartbeat CPU 0 instructions: 30000001 cycles: 9577592 heartbeat IPC: 3.13127 cumulative IPC: 3.13231 (Simulation time: 0 hr 0 min 40 sec) 
Heartbeat CPU 0 instructions: 40000000 cycles: 12767499 heartbeat IPC: 3.13489 cumulative IPC: 3.13296 (Simulation time: 0 hr 0 min 53 sec) 
Heartbeat CPU 0 instructions: 50000003 cycles: 15962980 heartbeat IPC: 3.12942 cumulative IPC: 3.13225 (Simulation time: 0 hr 1 min 7 sec) 

Warmup complete CPU 0 instructions: 50000003 cycles: 15962980 (Simulation time: 0 hr 1 min 7 sec) 

Heartbeat CPU 0 instructions: 60000001 cycles: 23102066 heartbeat IPC: 1.40074 cumulative IPC: 1.40074 (Simulation time: 0 hr 1 min 19 sec) 
Heartbeat CPU 0 instructions: 70000000 cycles: 30300048 heartbeat IPC: 1.38928 cumulative IPC: 1.39499 (Simulation time: 0 hr 1 min 31 sec) 
Heartbeat CPU 0 instructions: 80000003 cycles: 37566306 heartbeat IPC: 1.37622 cumulative IPC: 1.38868 (Simulation time: 0 hr 1 min 43 sec) 
Heartbeat CPU 0 instructions: 90000002 cycles: 44612433 heartbeat IPC: 1.41922 cumulative IPC: 1.39619 (Simulation time: 0 hr 1 min 56 sec) 
Heartbeat CPU 0 instructions: 100000003 cycles: 65213378 heartbeat IPC: 0.485415 cumulative IPC: 1.01522 (Simulation time: 0 hr 2 min 16 sec) 
Finished CPU 0 instructions: 50000000 cycles: 49250398 cumulative IPC: 1.01522 (Simulation time: 0 hr 2 min 16 sec) 

ChampSim completed all CPUs

Region of Interest Statistics

CPU 0 cumulative IPC: 1.01522 instructions: 50000000 cycles: 49250398
L1D TOTAL     ACCESS:   19876538  HIT:   16651418  MISS:    3225120
L1D LOAD      ACCESS:    7695313  HIT:    6101312  MISS:    1594001
L1D RFO       ACCESS:    4709862  HIT:    4615505  MISS:      94357
L1D PREFETCH  ACCESS:    7471363  HIT:    5934601  MISS:    1536762
L1D WRITEBACK ACCESS:          0  HIT:          0  MISS:          0
L1D PREFETCH  REQUESTED:    7728533  ISSUED:    7631592  USEFUL:     116251  USELESS:    1420482
L1D AVERAGE MISS LATENCY: 22.7944 cycles
L1I TOTAL     ACCESS:   12670355  HIT:   10953887  MISS:    1716468
L1I LOAD      ACCESS:    9954238  HIT:    9849938  MISS:     104300
L1I RFO       ACCESS:          0  HIT:          0  MISS:          0
L1I PREFETCH  ACCESS:    2716117  HIT:    1103949  MISS:    1612168
L1I WRITEBACK ACCESS:          0  HIT:          0  MISS:          0
L1I PREFETCH  REQUESTED:    2861776  ISSUED:    2861222  USEFUL:    1142479  USELESS:     469714
L1I AVERAGE MISS LATENCY: 29.7839 cycles
L2C TOTAL     ACCESS:    6255077  HIT:    5093906  MISS:    1161171
L2C LOAD      ACCESS:    1597635  HIT:    1369919  MISS:     227716
L2C RFO       ACCESS:      93292  HIT:      48107  MISS:      45185
L2C PREFETCH  ACCESS:    4298788  HIT:    3412149  MISS:     886639
L2C WRITEBACK ACCESS:     265362  HIT:     263731  MISS:       1631
L2C PREFETCH  REQUESTED:    5729072  ISSUED:    5726998  USEFUL:      22506  USELESS:     865364
L2C AVERAGE MISS LATENCY: 46.4649 cycles
LLC TOTAL     ACCESS:    2366126  HIT:    2240761  MISS:     125365
LLC LOAD      ACCESS:     227636  HIT:     211202  MISS:      16434
LLC RFO       ACCESS:      45179  HIT:      35699  MISS:       9480
LLC PREFETCH  ACCESS:    1942198  HIT:    1842910  MISS:      99288
LLC WRITEBACK ACCESS:     151113  HIT:     150950  MISS:        163
LLC PREFETCH  REQUESTED:          0  ISSUED:          0  USEFUL:       8740  USELESS:      91001
LLC AVERAGE MISS LATENCY: 175.453 cycles
Major fault: 0 Minor fault: 5597
I-Shadow cache 408 bytes
Touched + WorthPF tables 24576 bytes 
MMA filter 174 bytes 
FNL filter 272 bytes 
TOTAL PREFETCHER STORAGE SIZE: 98134 bytes
CPU 0 L1I next line prefetcher final stats
CPU 0 L1D next line prefetcher final stats

DRAM Statistics
 CHANNEL 0
 RQ ROW_BUFFER_HIT:      19281  ROW_BUFFER_MISS:     105905
 DBUS_CONGESTED:      56713
 WQ ROW_BUFFER_HIT:      10051  ROW_BUFFER_MISS:      43931  FULL:          0

 AVG_CONGESTED_CYCLE: 5

CPU 0 Branch Prediction Accuracy: 99.5528% MPKI: 0.89798 Average ROB Occupancy at Mispredict: 129.727

Branch types
NOT_BRANCH: 39958786 79.9176%
BRANCH_DIRECT_JUMP: 449946 0.899892%
BRANCH_INDIRECT: 140210 0.28042%
BRANCH_CONDITIONAL: 7679676 15.3594%
BRANCH_DIRECT_CALL: 701578 1.40316%
BRANCH_INDIRECT_CALL: 168971 0.337942%
BRANCH_RETURN: 900560 1.80112%
BRANCH_OTHER: 0 0%

