Initialize SIGNATURE TABLE
ST_SET: 1
ST_WAY: 256
ST_TAG_BIT: 16
ST_TAG_MASK: ffff

Initialize PATTERN TABLE
PT_SET: 512
PT_WAY: 4
SIG_DELTA_BIT: 7
C_SIG_BIT: 4
C_DELTA_BIT: 4

Initialize PREFETCH FILTER
FILTER_SET: 1024

*** ChampSim Multicore Out-of-Order Simulator ***

Warmup Instructions: 50000000
Simulation Instructions: 50000000
Number of CPUs: 1
LLC sets: 2048
LLC ways: 16
Off-chip DRAM Size: 4096 MB Channels: 1 Width: 64-bit Data Rate: 3200 MT/s

CPU 0 runs /Users/gandhardeshpande/Desktop/CSE240C/HW1/ChampSim/ipc1_public/server_034.champsimtrace.xz
CPU 0 L1I next line prefetcher
Running FNL-MMA for L1I
CPU 0 L1D next line prefetcher
Heartbeat CPU 0 instructions: 10000000 cycles: 3328879 heartbeat IPC: 3.00401 cumulative IPC: 3.00401 (Simulation time: 0 hr 0 min 14 sec) 
Heartbeat CPU 0 instructions: 20000002 cycles: 6650583 heartbeat IPC: 3.0105 cumulative IPC: 3.00726 (Simulation time: 0 hr 0 min 29 sec) 
Heartbeat CPU 0 instructions: 30000003 cycles: 9980454 heartbeat IPC: 3.00312 cumulative IPC: 3.00588 (Simulation time: 0 hr 0 min 43 sec) 
Heartbeat CPU 0 instructions: 40000001 cycles: 13308383 heartbeat IPC: 3.00487 cumulative IPC: 3.00562 (Simulation time: 0 hr 0 min 58 sec) 
Heartbeat CPU 0 instructions: 50000000 cycles: 16635594 heartbeat IPC: 3.00552 cumulative IPC: 3.0056 (Simulation time: 0 hr 1 min 12 sec) 

Warmup complete CPU 0 instructions: 50000002 cycles: 16635595 (Simulation time: 0 hr 1 min 12 sec) 

Heartbeat CPU 0 instructions: 60000000 cycles: 22578831 heartbeat IPC: 1.68258 cumulative IPC: 1.68258 (Simulation time: 0 hr 1 min 27 sec) 
Heartbeat CPU 0 instructions: 70000003 cycles: 28958785 heartbeat IPC: 1.56741 cumulative IPC: 1.62296 (Simulation time: 0 hr 1 min 42 sec) 
Heartbeat CPU 0 instructions: 80000002 cycles: 34983729 heartbeat IPC: 1.65977 cumulative IPC: 1.63504 (Simulation time: 0 hr 1 min 57 sec) 
Heartbeat CPU 0 instructions: 90000002 cycles: 41008803 heartbeat IPC: 1.65973 cumulative IPC: 1.64115 (Simulation time: 0 hr 2 min 13 sec) 
Heartbeat CPU 0 instructions: 100000002 cycles: 47012988 heartbeat IPC: 1.6655 cumulative IPC: 1.64596 (Simulation time: 0 hr 2 min 28 sec) 
Finished CPU 0 instructions: 50000000 cycles: 30377393 cumulative IPC: 1.64596 (Simulation time: 0 hr 2 min 28 sec) 

ChampSim completed all CPUs

Region of Interest Statistics

CPU 0 cumulative IPC: 1.64596 instructions: 50000000 cycles: 30377393
L1D TOTAL     ACCESS:   18227669  HIT:   16803623  MISS:    1424046
L1D LOAD      ACCESS:    6124279  HIT:    5467804  MISS:     656475
L1D RFO       ACCESS:    6161407  HIT:    6018881  MISS:     142526
L1D PREFETCH  ACCESS:    5941983  HIT:    5316938  MISS:     625045
L1D WRITEBACK ACCESS:          0  HIT:          0  MISS:          0
L1D PREFETCH  REQUESTED:    6158471  ISSUED:    6068889  USEFUL:     140631  USELESS:     484383
L1D AVERAGE MISS LATENCY: 17.7642 cycles
L1I TOTAL     ACCESS:   15349385  HIT:   11201322  MISS:    4148063
L1I LOAD      ACCESS:    9676817  HIT:    9646639  MISS:      30178
L1I RFO       ACCESS:          0  HIT:          0  MISS:          0
L1I PREFETCH  ACCESS:    5672568  HIT:    1554683  MISS:    4117885
L1I WRITEBACK ACCESS:          0  HIT:          0  MISS:          0
L1I PREFETCH  REQUESTED:    5847713  ISSUED:    5843148  USEFUL:    3362389  USELESS:     755482
L1I AVERAGE MISS LATENCY: 15.1717 cycles
L2C TOTAL     ACCESS:    7405605  HIT:    7278286  MISS:     127319
L2C LOAD      ACCESS:     659101  HIT:     619480  MISS:      39621
L2C RFO       ACCESS:     140693  HIT:     131611  MISS:       9082
L2C PREFETCH  ACCESS:    6255087  HIT:    6177716  MISS:      77371
L2C WRITEBACK ACCESS:     350724  HIT:     349479  MISS:       1245
L2C PREFETCH  REQUESTED:    7190410  ISSUED:    7175049  USEFUL:       3243  USELESS:      73411
L2C AVERAGE MISS LATENCY: 41.9448 cycles
LLC TOTAL     ACCESS:    2111204  HIT:    2094607  MISS:      16597
LLC LOAD      ACCESS:      39387  HIT:      36299  MISS:       3088
LLC RFO       ACCESS:       9078  HIT:       8836  MISS:        242
LLC PREFETCH  ACCESS:    2021983  HIT:    2008836  MISS:      13147
LLC WRITEBACK ACCESS:      40756  HIT:      40636  MISS:        120
LLC PREFETCH  REQUESTED:          0  ISSUED:          0  USEFUL:       3474  USELESS:       7325
LLC AVERAGE MISS LATENCY: 165.481 cycles
Major fault: 0 Minor fault: 1170
I-Shadow cache 408 bytes
Touched + WorthPF tables 24576 bytes 
MMA filter 174 bytes 
FNL filter 272 bytes 
TOTAL PREFETCHER STORAGE SIZE: 98134 bytes
CPU 0 L1I next line prefetcher final stats
CPU 0 L1D next line prefetcher final stats

DRAM Statistics
 CHANNEL 0
 RQ ROW_BUFFER_HIT:       3901  ROW_BUFFER_MISS:      12567
 DBUS_CONGESTED:       7305
 WQ ROW_BUFFER_HIT:       1314  ROW_BUFFER_MISS:       3702  FULL:          0

 AVG_CONGESTED_CYCLE: 5

CPU 0 Branch Prediction Accuracy: 99.926% MPKI: 0.14472 Average ROB Occupancy at Mispredict: 264.039

Branch types
NOT_BRANCH: 40221098 80.4422%
BRANCH_DIRECT_JUMP: 771319 1.54264%
BRANCH_INDIRECT: 108663 0.217326%
BRANCH_CONDITIONAL: 6375047 12.7501%
BRANCH_DIRECT_CALL: 1049638 2.09928%
BRANCH_INDIRECT_CALL: 212283 0.424566%
BRANCH_RETURN: 1261926 2.52385%
BRANCH_OTHER: 0 0%

