Initialize SIGNATURE TABLE
ST_SET: 1
ST_WAY: 256
ST_TAG_BIT: 16
ST_TAG_MASK: ffff

Initialize PATTERN TABLE
PT_SET: 512
PT_WAY: 4
SIG_DELTA_BIT: 7
C_SIG_BIT: 4
C_DELTA_BIT: 4

Initialize PREFETCH FILTER
FILTER_SET: 1024

*** ChampSim Multicore Out-of-Order Simulator ***

Warmup Instructions: 50000000
Simulation Instructions: 50000000
Number of CPUs: 1
LLC sets: 2048
LLC ways: 16
Off-chip DRAM Size: 4096 MB Channels: 1 Width: 64-bit Data Rate: 3200 MT/s

CPU 0 runs /Users/gandhardeshpande/Desktop/CSE240C/HW1/ChampSim/ipc1_public/spec_x264_001.champsimtrace.xz
CPU 0 L1I next line prefetcher
Running FNL-MMA for L1I
CPU 0 L1D next line prefetcher
Heartbeat CPU 0 instructions: 10000002 cycles: 3060492 heartbeat IPC: 3.26745 cumulative IPC: 3.26745 (Simulation time: 0 hr 0 min 9 sec) 
Heartbeat CPU 0 instructions: 20000002 cycles: 6111319 heartbeat IPC: 3.2778 cumulative IPC: 3.27262 (Simulation time: 0 hr 0 min 19 sec) 
Heartbeat CPU 0 instructions: 30000002 cycles: 9147586 heartbeat IPC: 3.29352 cumulative IPC: 3.27955 (Simulation time: 0 hr 0 min 29 sec) 
Heartbeat CPU 0 instructions: 40000000 cycles: 12192753 heartbeat IPC: 3.28389 cumulative IPC: 3.28064 (Simulation time: 0 hr 0 min 39 sec) 
Heartbeat CPU 0 instructions: 50000000 cycles: 15236083 heartbeat IPC: 3.28587 cumulative IPC: 3.28168 (Simulation time: 0 hr 0 min 48 sec) 

Warmup complete CPU 0 instructions: 50000004 cycles: 15236084 (Simulation time: 0 hr 0 min 48 sec) 

Heartbeat CPU 0 instructions: 60000002 cycles: 21161700 heartbeat IPC: 1.68759 cumulative IPC: 1.68759 (Simulation time: 0 hr 0 min 54 sec) 
Heartbeat CPU 0 instructions: 70000000 cycles: 27069393 heartbeat IPC: 1.69271 cumulative IPC: 1.69014 (Simulation time: 0 hr 0 min 59 sec) 
Heartbeat CPU 0 instructions: 80000003 cycles: 33118798 heartbeat IPC: 1.65306 cumulative IPC: 1.6776 (Simulation time: 0 hr 1 min 4 sec) 
Heartbeat CPU 0 instructions: 90000000 cycles: 39149533 heartbeat IPC: 1.65817 cumulative IPC: 1.6727 (Simulation time: 0 hr 1 min 9 sec) 
Heartbeat CPU 0 instructions: 100000002 cycles: 45042136 heartbeat IPC: 1.69704 cumulative IPC: 1.67751 (Simulation time: 0 hr 1 min 14 sec) 
Finished CPU 0 instructions: 50000002 cycles: 29806053 cumulative IPC: 1.67751 (Simulation time: 0 hr 1 min 14 sec) 

ChampSim completed all CPUs

Region of Interest Statistics

CPU 0 cumulative IPC: 1.67751 instructions: 50000002 cycles: 29806053
L1D TOTAL     ACCESS:   12960977  HIT:   12799912  MISS:     161065
L1D LOAD      ACCESS:    5091430  HIT:    5036379  MISS:      55051
L1D RFO       ACCESS:    2882869  HIT:    2848478  MISS:      34391
L1D PREFETCH  ACCESS:    4986678  HIT:    4915055  MISS:      71623
L1D WRITEBACK ACCESS:          0  HIT:          0  MISS:          0
L1D PREFETCH  REQUESTED:    5108193  ISSUED:    5041178  USEFUL:      25751  USELESS:      45681
L1D AVERAGE MISS LATENCY: 39.4102 cycles
L1I TOTAL     ACCESS:    8566969  HIT:    8196326  MISS:     370643
L1I LOAD      ACCESS:    8035994  HIT:    8032529  MISS:       3465
L1I RFO       ACCESS:          0  HIT:          0  MISS:          0
L1I PREFETCH  ACCESS:     530975  HIT:     163797  MISS:     367178
L1I WRITEBACK ACCESS:          0  HIT:          0  MISS:          0
L1I PREFETCH  REQUESTED:     540519  ISSUED:     540519  USEFUL:     296110  USELESS:      71099
L1I AVERAGE MISS LATENCY: 14.816 cycles
L2C TOTAL     ACCESS:     749834  HIT:     710497  MISS:      39337
L2C LOAD      ACCESS:      57126  HIT:      51592  MISS:       5534
L2C RFO       ACCESS:      34211  HIT:      22144  MISS:      12067
L2C PREFETCH  ACCESS:     615345  HIT:     593685  MISS:      21660
L2C WRITEBACK ACCESS:      43152  HIT:      43076  MISS:         76
L2C PREFETCH  REQUESTED:     590851  ISSUED:     589851  USEFUL:       8991  USELESS:      12885
L2C AVERAGE MISS LATENCY: 100.96 cycles
LLC TOTAL     ACCESS:     137537  HIT:     108433  MISS:      29104
LLC LOAD      ACCESS:       5531  HIT:       3429  MISS:       2102
LLC RFO       ACCESS:      12067  HIT:        453  MISS:      11614
LLC PREFETCH  ACCESS:     106389  HIT:      91098  MISS:      15291
LLC WRITEBACK ACCESS:      13550  HIT:      13453  MISS:         97
LLC PREFETCH  REQUESTED:          0  ISSUED:          0  USEFUL:       1769  USELESS:      14111
LLC AVERAGE MISS LATENCY: 162.078 cycles
Major fault: 0 Minor fault: 1284
I-Shadow cache 408 bytes
Touched + WorthPF tables 24576 bytes 
MMA filter 174 bytes 
FNL filter 272 bytes 
TOTAL PREFETCHER STORAGE SIZE: 98134 bytes
CPU 0 L1I next line prefetcher final stats
CPU 0 L1D next line prefetcher final stats

DRAM Statistics
 CHANNEL 0
 RQ ROW_BUFFER_HIT:      10034  ROW_BUFFER_MISS:      18973
 DBUS_CONGESTED:      12535
 WQ ROW_BUFFER_HIT:       2993  ROW_BUFFER_MISS:       9653  FULL:          0

 AVG_CONGESTED_CYCLE: 6

CPU 0 Branch Prediction Accuracy: 97.1633% MPKI: 1.73704 Average ROB Occupancy at Mispredict: 42.9627

Branch types
NOT_BRANCH: 46937921 93.8758%
BRANCH_DIRECT_JUMP: 170816 0.341632%
BRANCH_INDIRECT: 0 0%
BRANCH_CONDITIONAL: 2532774 5.06555%
BRANCH_DIRECT_CALL: 114227 0.228454%
BRANCH_INDIRECT_CALL: 64863 0.129726%
BRANCH_RETURN: 179089 0.358178%
BRANCH_OTHER: 0 0%

