Initialize SIGNATURE TABLE
ST_SET: 1
ST_WAY: 256
ST_TAG_BIT: 16
ST_TAG_MASK: ffff

Initialize PATTERN TABLE
PT_SET: 512
PT_WAY: 4
SIG_DELTA_BIT: 7
C_SIG_BIT: 4
C_DELTA_BIT: 4

Initialize PREFETCH FILTER
FILTER_SET: 1024

*** ChampSim Multicore Out-of-Order Simulator ***

Warmup Instructions: 50000000
Simulation Instructions: 50000000
Number of CPUs: 1
LLC sets: 2048
LLC ways: 16
Off-chip DRAM Size: 4096 MB Channels: 1 Width: 64-bit Data Rate: 3200 MT/s

CPU 0 runs /Users/gandhardeshpande/Desktop/CSE240C/HW1/ChampSim/ipc1_public/client_005.champsimtrace.xz
L1I Barca has been initializedCPU 0 L1D next line prefetcher
Heartbeat CPU 0 instructions: 10000001 cycles: 3292168 heartbeat IPC: 3.03751 cumulative IPC: 3.03751 (Simulation time: 0 hr 0 min 20 sec) 
Heartbeat CPU 0 instructions: 20000002 cycles: 6699295 heartbeat IPC: 2.93502 cumulative IPC: 2.98539 (Simulation time: 0 hr 0 min 41 sec) 
Heartbeat CPU 0 instructions: 30000001 cycles: 10392609 heartbeat IPC: 2.7076 cumulative IPC: 2.88667 (Simulation time: 0 hr 1 min 5 sec) 
Heartbeat CPU 0 instructions: 40000000 cycles: 14070510 heartbeat IPC: 2.71894 cumulative IPC: 2.84283 (Simulation time: 0 hr 1 min 29 sec) 
Heartbeat CPU 0 instructions: 50000001 cycles: 17344221 heartbeat IPC: 3.05464 cumulative IPC: 2.8828 (Simulation time: 0 hr 1 min 50 sec) 

Warmup complete CPU 0 instructions: 50000001 cycles: 17344221 (Simulation time: 0 hr 1 min 50 sec) 

Heartbeat CPU 0 instructions: 60000002 cycles: 24932703 heartbeat IPC: 1.31779 cumulative IPC: 1.31779 (Simulation time: 0 hr 2 min 10 sec) 
Heartbeat CPU 0 instructions: 70000003 cycles: 32203074 heartbeat IPC: 1.37545 cumulative IPC: 1.346 (Simulation time: 0 hr 2 min 31 sec) 
Heartbeat CPU 0 instructions: 80000001 cycles: 39062106 heartbeat IPC: 1.45793 cumulative IPC: 1.38135 (Simulation time: 0 hr 2 min 56 sec) 
Heartbeat CPU 0 instructions: 90000002 cycles: 48558409 heartbeat IPC: 1.05304 cumulative IPC: 1.28147 (Simulation time: 0 hr 3 min 21 sec) 
Heartbeat CPU 0 instructions: 100000002 cycles: 56097323 heartbeat IPC: 1.32645 cumulative IPC: 1.29022 (Simulation time: 0 hr 3 min 41 sec) 
Finished CPU 0 instructions: 50000001 cycles: 38753102 cumulative IPC: 1.29022 (Simulation time: 0 hr 3 min 41 sec) 

ChampSim completed all CPUs

Region of Interest Statistics

CPU 0 cumulative IPC: 1.29022 instructions: 50000001 cycles: 38753102
L1D TOTAL     ACCESS:   19597071  HIT:   19061378  MISS:     535693
L1D LOAD      ACCESS:    6629469  HIT:    6457593  MISS:     171876
L1D RFO       ACCESS:    6788868  HIT:    6604184  MISS:     184684
L1D PREFETCH  ACCESS:    6178734  HIT:    5999601  MISS:     179133
L1D WRITEBACK ACCESS:          0  HIT:          0  MISS:          0
L1D PREFETCH  REQUESTED:    6653248  ISSUED:    6284959  USEFUL:      59100  USELESS:     119922
L1D AVERAGE MISS LATENCY: 94.8687 cycles
L1I TOTAL     ACCESS:   11126829  HIT:    9650080  MISS:    1476749
L1I LOAD      ACCESS:    9312282  HIT:    9186703  MISS:     125579
L1I RFO       ACCESS:          0  HIT:          0  MISS:          0
L1I PREFETCH  ACCESS:    1814547  HIT:     463377  MISS:    1351170
L1I WRITEBACK ACCESS:          0  HIT:          0  MISS:          0
L1I PREFETCH  REQUESTED:    2043452  ISSUED:    2043452  USEFUL:     765966  USELESS:     585172
L1I AVERAGE MISS LATENCY: 17.9593 cycles
L2C TOTAL     ACCESS:    2802663  HIT:    2420835  MISS:     381828
L2C LOAD      ACCESS:     219804  HIT:     134472  MISS:      85332
L2C RFO       ACCESS:     180972  HIT:      31317  MISS:     149655
L2C PREFETCH  ACCESS:    2148839  HIT:    2003059  MISS:     145780
L2C WRITEBACK ACCESS:     253048  HIT:     251987  MISS:       1061
L2C PREFETCH  REQUESTED:    1252893  ISSUED:    1252678  USEFUL:      10642  USELESS:     132925
L2C AVERAGE MISS LATENCY: 131.158 cycles
LLC TOTAL     ACCESS:     863579  HIT:     570504  MISS:     293075
LLC LOAD      ACCESS:      85312  HIT:      42198  MISS:      43114
LLC RFO       ACCESS:     149651  HIT:      15333  MISS:     134318
LLC PREFETCH  ACCESS:     429145  HIT:     314310  MISS:     114835
LLC WRITEBACK ACCESS:     199471  HIT:     198663  MISS:        808
LLC PREFETCH  REQUESTED:          0  ISSUED:          0  USEFUL:      21982  USELESS:      89172
LLC AVERAGE MISS LATENCY: 169.663 cycles
Major fault: 0 Minor fault: 6084
CPU 0 L1D next line prefetcher final stats

DRAM Statistics
 CHANNEL 0
 RQ ROW_BUFFER_HIT:      95526  ROW_BUFFER_MISS:     196740
 DBUS_CONGESTED:     231044
 WQ ROW_BUFFER_HIT:      52959  ROW_BUFFER_MISS:     128919  FULL:          0

 AVG_CONGESTED_CYCLE: 6

CPU 0 Branch Prediction Accuracy: 97.8666% MPKI: 3.9013 Average ROB Occupancy at Mispredict: 91.1394

Branch types
NOT_BRANCH: 40856330 81.7127%
BRANCH_DIRECT_JUMP: 484667 0.969334%
BRANCH_INDIRECT: 85086 0.170172%
BRANCH_CONDITIONAL: 6230887 12.4618%
BRANCH_DIRECT_CALL: 1028917 2.05783%
BRANCH_INDIRECT_CALL: 141825 0.28365%
BRANCH_RETURN: 1171986 2.34397%
BRANCH_OTHER: 0 0%

