Initialize SIGNATURE TABLE
ST_SET: 1
ST_WAY: 256
ST_TAG_BIT: 16
ST_TAG_MASK: ffff

Initialize PATTERN TABLE
PT_SET: 512
PT_WAY: 4
SIG_DELTA_BIT: 7
C_SIG_BIT: 4
C_DELTA_BIT: 4

Initialize PREFETCH FILTER
FILTER_SET: 1024

*** ChampSim Multicore Out-of-Order Simulator ***

Warmup Instructions: 50000000
Simulation Instructions: 50000000
Number of CPUs: 1
LLC sets: 2048
LLC ways: 16
Off-chip DRAM Size: 4096 MB Channels: 1 Width: 64-bit Data Rate: 3200 MT/s

CPU 0 runs /Users/gandhardeshpande/Desktop/CSE240C/HW1/ChampSim/ipc1_public/client_001.champsimtrace.xz
L1I Barca has been initializedCPU 0 L1D next line prefetcher
Heartbeat CPU 0 instructions: 10000003 cycles: 3410284 heartbeat IPC: 2.93231 cumulative IPC: 2.93231 (Simulation time: 0 hr 0 min 18 sec) 
Heartbeat CPU 0 instructions: 20000001 cycles: 7118429 heartbeat IPC: 2.69677 cumulative IPC: 2.80961 (Simulation time: 0 hr 0 min 37 sec) 
Heartbeat CPU 0 instructions: 30000001 cycles: 10480880 heartbeat IPC: 2.97402 cumulative IPC: 2.86236 (Simulation time: 0 hr 0 min 54 sec) 
Heartbeat CPU 0 instructions: 40000003 cycles: 14350494 heartbeat IPC: 2.58424 cumulative IPC: 2.78736 (Simulation time: 0 hr 1 min 12 sec) 
Heartbeat CPU 0 instructions: 50000003 cycles: 17647225 heartbeat IPC: 3.03331 cumulative IPC: 2.83331 (Simulation time: 0 hr 1 min 29 sec) 

Warmup complete CPU 0 instructions: 50000003 cycles: 17647225 (Simulation time: 0 hr 1 min 29 sec) 

Heartbeat CPU 0 instructions: 60000000 cycles: 26664865 heartbeat IPC: 1.10894 cumulative IPC: 1.10894 (Simulation time: 0 hr 1 min 49 sec) 
Heartbeat CPU 0 instructions: 70000000 cycles: 32986878 heartbeat IPC: 1.58177 cumulative IPC: 1.30381 (Simulation time: 0 hr 2 min 4 sec) 
Heartbeat CPU 0 instructions: 80000002 cycles: 42298588 heartbeat IPC: 1.07392 cumulative IPC: 1.21697 (Simulation time: 0 hr 2 min 29 sec) 
Heartbeat CPU 0 instructions: 90000000 cycles: 48468914 heartbeat IPC: 1.62066 cumulative IPC: 1.29779 (Simulation time: 0 hr 2 min 42 sec) 
Heartbeat CPU 0 instructions: 100000002 cycles: 57331291 heartbeat IPC: 1.12837 cumulative IPC: 1.25995 (Simulation time: 0 hr 3 min 2 sec) 
Finished CPU 0 instructions: 50000003 cycles: 39684067 cumulative IPC: 1.25995 (Simulation time: 0 hr 3 min 2 sec) 

ChampSim completed all CPUs

Region of Interest Statistics

CPU 0 cumulative IPC: 1.25995 instructions: 50000003 cycles: 39684067
L1D TOTAL     ACCESS:   21236766  HIT:   20400338  MISS:     836428
L1D LOAD      ACCESS:    8820092  HIT:    8425342  MISS:     394750
L1D RFO       ACCESS:    4039650  HIT:    3980571  MISS:      59079
L1D PREFETCH  ACCESS:    8377024  HIT:    7994425  MISS:     382599
L1D WRITEBACK ACCESS:          0  HIT:          0  MISS:          0
L1D PREFETCH  REQUESTED:    8865526  ISSUED:    8555919  USEFUL:     129607  USELESS:     252966
L1D AVERAGE MISS LATENCY: 47.5936 cycles
L1I TOTAL     ACCESS:    9360990  HIT:    8985742  MISS:     375248
L1I LOAD      ACCESS:    8917818  HIT:    8897070  MISS:      20748
L1I RFO       ACCESS:          0  HIT:          0  MISS:          0
L1I PREFETCH  ACCESS:     443172  HIT:      88672  MISS:     354500
L1I WRITEBACK ACCESS:          0  HIT:          0  MISS:          0
L1I PREFETCH  REQUESTED:     490070  ISSUED:     490070  USEFUL:     281932  USELESS:      72589
L1I AVERAGE MISS LATENCY: 21.3499 cycles
L2C TOTAL     ACCESS:    1858261  HIT:    1552320  MISS:     305941
L2C LOAD      ACCESS:     382243  HIT:     269244  MISS:     112999
L2C RFO       ACCESS:      58315  HIT:      21116  MISS:      37199
L2C PREFETCH  ACCESS:    1228121  HIT:    1072586  MISS:     155535
L2C WRITEBACK ACCESS:     189582  HIT:     189374  MISS:        208
L2C PREFETCH  REQUESTED:    1491705  ISSUED:    1484752  USEFUL:      13596  USELESS:     140931
L2C AVERAGE MISS LATENCY: 104.96 cycles
LLC TOTAL     ACCESS:     834126  HIT:     633512  MISS:     200614
LLC LOAD      ACCESS:     112678  HIT:      71099  MISS:      41579
LLC RFO       ACCESS:      37198  HIT:       8958  MISS:      28240
LLC PREFETCH  ACCESS:     577763  HIT:     447668  MISS:     130095
LLC WRITEBACK ACCESS:     106487  HIT:     105787  MISS:        700
LLC PREFETCH  REQUESTED:          0  ISSUED:          0  USEFUL:      28637  USELESS:     103419
LLC AVERAGE MISS LATENCY: 189.157 cycles
Major fault: 0 Minor fault: 3433
CPU 0 L1D next line prefetcher final stats

DRAM Statistics
 CHANNEL 0
 RQ ROW_BUFFER_HIT:      48464  ROW_BUFFER_MISS:     151444
 DBUS_CONGESTED:     118677
 WQ ROW_BUFFER_HIT:      16178  ROW_BUFFER_MISS:      64990  FULL:          0

 AVG_CONGESTED_CYCLE: 5

CPU 0 Branch Prediction Accuracy: 97.9037% MPKI: 3.63418 Average ROB Occupancy at Mispredict: 86.8452

Branch types
NOT_BRANCH: 41331383 82.6628%
BRANCH_DIRECT_JUMP: 455615 0.91123%
BRANCH_INDIRECT: 20390 0.04078%
BRANCH_CONDITIONAL: 6745374 13.4907%
BRANCH_DIRECT_CALL: 494532 0.989064%
BRANCH_INDIRECT_CALL: 228815 0.45763%
BRANCH_RETURN: 723560 1.44712%
BRANCH_OTHER: 0 0%

