Initialize SIGNATURE TABLE
ST_SET: 1
ST_WAY: 256
ST_TAG_BIT: 16
ST_TAG_MASK: ffff

Initialize PATTERN TABLE
PT_SET: 512
PT_WAY: 4
SIG_DELTA_BIT: 7
C_SIG_BIT: 4
C_DELTA_BIT: 4

Initialize PREFETCH FILTER
FILTER_SET: 1024

*** ChampSim Multicore Out-of-Order Simulator ***

Warmup Instructions: 50000000
Simulation Instructions: 50000000
Number of CPUs: 1
LLC sets: 2048
LLC ways: 16
Off-chip DRAM Size: 4096 MB Channels: 1 Width: 64-bit Data Rate: 3200 MT/s

CPU 0 runs /Users/gandhardeshpande/Desktop/CSE240C/HW1/ChampSim/ipc1_public/server_034.champsimtrace.xz
L1I Barca has been initializedCPU 0 L1D next line prefetcher
Heartbeat CPU 0 instructions: 10000000 cycles: 3329654 heartbeat IPC: 3.00331 cumulative IPC: 3.00331 (Simulation time: 0 hr 0 min 22 sec) 
Heartbeat CPU 0 instructions: 20000002 cycles: 6651969 heartbeat IPC: 3.00995 cumulative IPC: 3.00663 (Simulation time: 0 hr 0 min 43 sec) 
Heartbeat CPU 0 instructions: 30000003 cycles: 9982812 heartbeat IPC: 3.00224 cumulative IPC: 3.00517 (Simulation time: 0 hr 1 min 4 sec) 
Heartbeat CPU 0 instructions: 40000001 cycles: 13311481 heartbeat IPC: 3.0042 cumulative IPC: 3.00493 (Simulation time: 0 hr 1 min 25 sec) 
Heartbeat CPU 0 instructions: 50000000 cycles: 16639235 heartbeat IPC: 3.00503 cumulative IPC: 3.00495 (Simulation time: 0 hr 1 min 47 sec) 

Warmup complete CPU 0 instructions: 50000002 cycles: 16639236 (Simulation time: 0 hr 1 min 47 sec) 

Heartbeat CPU 0 instructions: 60000002 cycles: 22581764 heartbeat IPC: 1.68279 cumulative IPC: 1.68279 (Simulation time: 0 hr 2 min 8 sec) 
Heartbeat CPU 0 instructions: 70000003 cycles: 28938331 heartbeat IPC: 1.57318 cumulative IPC: 1.62614 (Simulation time: 0 hr 2 min 30 sec) 
Heartbeat CPU 0 instructions: 80000002 cycles: 34948574 heartbeat IPC: 1.66383 cumulative IPC: 1.63851 (Simulation time: 0 hr 2 min 52 sec) 
Heartbeat CPU 0 instructions: 90000002 cycles: 40957909 heartbeat IPC: 1.66408 cumulative IPC: 1.64483 (Simulation time: 0 hr 3 min 14 sec) 
Heartbeat CPU 0 instructions: 100000002 cycles: 46956274 heartbeat IPC: 1.66712 cumulative IPC: 1.64924 (Simulation time: 0 hr 3 min 36 sec) 
Finished CPU 0 instructions: 50000000 cycles: 30317038 cumulative IPC: 1.64924 (Simulation time: 0 hr 3 min 36 sec) 

ChampSim completed all CPUs

Region of Interest Statistics

CPU 0 cumulative IPC: 1.64924 instructions: 50000000 cycles: 30317038
L1D TOTAL     ACCESS:   18303456  HIT:   16879277  MISS:    1424179
L1D LOAD      ACCESS:    6160975  HIT:    5504844  MISS:     656131
L1D RFO       ACCESS:    6162625  HIT:    6019767  MISS:     142858
L1D PREFETCH  ACCESS:    5979856  HIT:    5354666  MISS:     625190
L1D WRITEBACK ACCESS:          0  HIT:          0  MISS:          0
L1D PREFETCH  REQUESTED:    6195813  ISSUED:    6108255  USEFUL:     140728  USELESS:     484431
L1D AVERAGE MISS LATENCY: 17.5553 cycles
L1I TOTAL     ACCESS:   14402654  HIT:   10190872  MISS:    4211782
L1I LOAD      ACCESS:    9605467  HIT:    9283655  MISS:     321812
L1I RFO       ACCESS:          0  HIT:          0  MISS:          0
L1I PREFETCH  ACCESS:    4797187  HIT:     907217  MISS:    3889970
L1I WRITEBACK ACCESS:          0  HIT:          0  MISS:          0
L1I PREFETCH  REQUESTED:    5490389  ISSUED:    5490389  USEFUL:    3066967  USELESS:     823012
L1I AVERAGE MISS LATENCY: 14.1083 cycles
L2C TOTAL     ACCESS:    7484635  HIT:    7381868  MISS:     102767
L2C LOAD      ACCESS:     758104  HIT:     725663  MISS:      32441
L2C RFO       ACCESS:     141051  HIT:     133490  MISS:       7561
L2C PREFETCH  ACCESS:    6234755  HIT:    6172612  MISS:      62143
L2C WRITEBACK ACCESS:     350725  HIT:     350103  MISS:        622
L2C PREFETCH  REQUESTED:    4263736  ISSUED:    4260657  USEFUL:       2455  USELESS:      58901
L2C AVERAGE MISS LATENCY: 42.7711 cycles
LLC TOTAL     ACCESS:    1279096  HIT:    1263487  MISS:      15609
LLC LOAD      ACCESS:      32320  HIT:      29227  MISS:       3093
LLC RFO       ACCESS:       7554  HIT:       7173  MISS:        381
LLC PREFETCH  ACCESS:    1204627  HIT:    1192564  MISS:      12063
LLC WRITEBACK ACCESS:      34595  HIT:      34523  MISS:         72
LLC PREFETCH  REQUESTED:          0  ISSUED:          0  USEFUL:       2941  USELESS:       6385
LLC AVERAGE MISS LATENCY: 158.47 cycles
Major fault: 0 Minor fault: 1170
CPU 0 L1D next line prefetcher final stats

DRAM Statistics
 CHANNEL 0
 RQ ROW_BUFFER_HIT:       3791  ROW_BUFFER_MISS:      11740
 DBUS_CONGESTED:       6183
 WQ ROW_BUFFER_HIT:       1239  ROW_BUFFER_MISS:       3449  FULL:          0

 AVG_CONGESTED_CYCLE: 5

CPU 0 Branch Prediction Accuracy: 99.926% MPKI: 0.14472 Average ROB Occupancy at Mispredict: 237.362

Branch types
NOT_BRANCH: 40220997 80.442%
BRANCH_DIRECT_JUMP: 771319 1.54264%
BRANCH_INDIRECT: 108663 0.217326%
BRANCH_CONDITIONAL: 6375033 12.7501%
BRANCH_DIRECT_CALL: 1049636 2.09927%
BRANCH_INDIRECT_CALL: 212281 0.424562%
BRANCH_RETURN: 1261924 2.52385%
BRANCH_OTHER: 0 0%

