Initialize SIGNATURE TABLE
ST_SET: 1
ST_WAY: 256
ST_TAG_BIT: 16
ST_TAG_MASK: ffff

Initialize PATTERN TABLE
PT_SET: 512
PT_WAY: 4
SIG_DELTA_BIT: 7
C_SIG_BIT: 4
C_DELTA_BIT: 4

Initialize PREFETCH FILTER
FILTER_SET: 1024

*** ChampSim Multicore Out-of-Order Simulator ***

Warmup Instructions: 50000000
Simulation Instructions: 50000000
Number of CPUs: 1
LLC sets: 2048
LLC ways: 16
Off-chip DRAM Size: 4096 MB Channels: 1 Width: 64-bit Data Rate: 3200 MT/s

CPU 0 runs /Users/gandhardeshpande/Desktop/CSE240C/HW1/ChampSim/ipc1_public/server_032.champsimtrace.xz
L1I Barca has been initializedCPU 0 L1D next line prefetcher
Heartbeat CPU 0 instructions: 10000002 cycles: 3529840 heartbeat IPC: 2.83299 cumulative IPC: 2.83299 (Simulation time: 0 hr 0 min 21 sec) 
Heartbeat CPU 0 instructions: 20000003 cycles: 7060541 heartbeat IPC: 2.8323 cumulative IPC: 2.83264 (Simulation time: 0 hr 0 min 42 sec) 
Heartbeat CPU 0 instructions: 30000000 cycles: 10590070 heartbeat IPC: 2.83324 cumulative IPC: 2.83284 (Simulation time: 0 hr 1 min 3 sec) 
Heartbeat CPU 0 instructions: 40000003 cycles: 14121322 heartbeat IPC: 2.83186 cumulative IPC: 2.8326 (Simulation time: 0 hr 1 min 25 sec) 
Heartbeat CPU 0 instructions: 50000000 cycles: 17651696 heartbeat IPC: 2.83256 cumulative IPC: 2.83259 (Simulation time: 0 hr 1 min 46 sec) 

Warmup complete CPU 0 instructions: 50000004 cycles: 17651697 (Simulation time: 0 hr 1 min 46 sec) 

Heartbeat CPU 0 instructions: 60000002 cycles: 24485969 heartbeat IPC: 1.46321 cumulative IPC: 1.46321 (Simulation time: 0 hr 2 min 8 sec) 
Heartbeat CPU 0 instructions: 70000000 cycles: 31314707 heartbeat IPC: 1.4644 cumulative IPC: 1.46381 (Simulation time: 0 hr 2 min 30 sec) 
*** Reached end of trace for Core: 0 Repeating trace: /Users/gandhardeshpande/Desktop/CSE240C/HW1/ChampSim/ipc1_public/server_032.champsimtrace.xz
Heartbeat CPU 0 instructions: 80000003 cycles: 38142177 heartbeat IPC: 1.46467 cumulative IPC: 1.46409 (Simulation time: 0 hr 2 min 52 sec) 
Heartbeat CPU 0 instructions: 90000002 cycles: 44946760 heartbeat IPC: 1.4696 cumulative IPC: 1.46547 (Simulation time: 0 hr 3 min 14 sec) 
Heartbeat CPU 0 instructions: 100000001 cycles: 51754340 heartbeat IPC: 1.46895 cumulative IPC: 1.46616 (Simulation time: 0 hr 3 min 37 sec) 
Finished CPU 0 instructions: 50000002 cycles: 34102645 cumulative IPC: 1.46616 (Simulation time: 0 hr 3 min 37 sec) 

ChampSim completed all CPUs

Region of Interest Statistics

CPU 0 cumulative IPC: 1.46616 instructions: 50000002 cycles: 34102645
L1D TOTAL     ACCESS:   19840377  HIT:   18012278  MISS:    1828099
L1D LOAD      ACCESS:    6785873  HIT:    5991083  MISS:     794790
L1D RFO       ACCESS:    6547576  HIT:    6252889  MISS:     294687
L1D PREFETCH  ACCESS:    6506928  HIT:    5768306  MISS:     738622
L1D WRITEBACK ACCESS:          0  HIT:          0  MISS:          0
L1D PREFETCH  REQUESTED:    6836530  ISSUED:    6700743  USEFUL:     169034  USELESS:     569587
L1D AVERAGE MISS LATENCY: 19.4706 cycles
L1I TOTAL     ACCESS:   14222287  HIT:   10149347  MISS:    4072940
L1I LOAD      ACCESS:    9612511  HIT:    9254099  MISS:     358412
L1I RFO       ACCESS:          0  HIT:          0  MISS:          0
L1I PREFETCH  ACCESS:    4609776  HIT:     895248  MISS:    3714528
L1I WRITEBACK ACCESS:          0  HIT:          0  MISS:          0
L1I PREFETCH  REQUESTED:    5300418  ISSUED:    5300418  USEFUL:    2899003  USELESS:     815521
L1I AVERAGE MISS LATENCY: 15.8386 cycles
L2C TOTAL     ACCESS:    8038859  HIT:    7430721  MISS:     608138
L2C LOAD      ACCESS:     889454  HIT:     774328  MISS:     115126
L2C RFO       ACCESS:     292639  HIT:     244504  MISS:      48135
L2C PREFETCH  ACCESS:    6220578  HIT:    5780022  MISS:     440556
L2C WRITEBACK ACCESS:     636188  HIT:     631867  MISS:       4321
L2C PREFETCH  REQUESTED:    4421992  ISSUED:    4416601  USEFUL:      10424  USELESS:     430051
L2C AVERAGE MISS LATENCY: 32.044 cycles
LLC TOTAL     ACCESS:    1988051  HIT:    1980518  MISS:       7533
LLC LOAD      ACCESS:     115120  HIT:     114606  MISS:        514
LLC RFO       ACCESS:      48130  HIT:      48130  MISS:          0
LLC PREFETCH  ACCESS:    1726036  HIT:    1719040  MISS:       6996
LLC WRITEBACK ACCESS:      98765  HIT:      98742  MISS:         23
LLC PREFETCH  REQUESTED:          0  ISSUED:          0  USEFUL:        390  USELESS:       2855
LLC AVERAGE MISS LATENCY: 151.383 cycles
Major fault: 0 Minor fault: 1178
CPU 0 L1D next line prefetcher final stats

DRAM Statistics
 CHANNEL 0
 RQ ROW_BUFFER_HIT:       1729  ROW_BUFFER_MISS:       5781
 DBUS_CONGESTED:        642
 WQ ROW_BUFFER_HIT:          1  ROW_BUFFER_MISS:         21  FULL:          0

 AVG_CONGESTED_CYCLE: 4

CPU 0 Branch Prediction Accuracy: 99.8762% MPKI: 0.2296 Average ROB Occupancy at Mispredict: 188.071

Branch types
NOT_BRANCH: 40726188 81.4524%
BRANCH_DIRECT_JUMP: 508374 1.01675%
BRANCH_INDIRECT: 180051 0.360102%
BRANCH_CONDITIONAL: 5999666 11.9993%
BRANCH_DIRECT_CALL: 1086739 2.17348%
BRANCH_INDIRECT_CALL: 206109 0.412218%
BRANCH_RETURN: 1292837 2.58567%
BRANCH_OTHER: 0 0%

