Initialize SIGNATURE TABLE
ST_SET: 1
ST_WAY: 256
ST_TAG_BIT: 16
ST_TAG_MASK: ffff

Initialize PATTERN TABLE
PT_SET: 512
PT_WAY: 4
SIG_DELTA_BIT: 7
C_SIG_BIT: 4
C_DELTA_BIT: 4

Initialize PREFETCH FILTER
FILTER_SET: 1024

*** ChampSim Multicore Out-of-Order Simulator ***

Warmup Instructions: 50000000
Simulation Instructions: 50000000
Number of CPUs: 1
LLC sets: 2048
LLC ways: 16
Off-chip DRAM Size: 4096 MB Channels: 1 Width: 64-bit Data Rate: 3200 MT/s

CPU 0 runs /Users/gandhardeshpande/Desktop/CSE240C/HW1/ChampSim/ipc1_public/server_039.champsimtrace.xz
L1I Barca has been initializedCPU 0 L1D next line prefetcher
Heartbeat CPU 0 instructions: 10000003 cycles: 3451817 heartbeat IPC: 2.89703 cumulative IPC: 2.89703 (Simulation time: 0 hr 0 min 21 sec) 
Heartbeat CPU 0 instructions: 20000002 cycles: 6896712 heartbeat IPC: 2.90285 cumulative IPC: 2.89993 (Simulation time: 0 hr 0 min 43 sec) 
Heartbeat CPU 0 instructions: 30000001 cycles: 10343441 heartbeat IPC: 2.9013 cumulative IPC: 2.90039 (Simulation time: 0 hr 1 min 5 sec) 
Heartbeat CPU 0 instructions: 40000002 cycles: 13785580 heartbeat IPC: 2.90517 cumulative IPC: 2.90158 (Simulation time: 0 hr 1 min 27 sec) 
Heartbeat CPU 0 instructions: 50000001 cycles: 17227087 heartbeat IPC: 2.9057 cumulative IPC: 2.90241 (Simulation time: 0 hr 1 min 48 sec) 

Warmup complete CPU 0 instructions: 50000001 cycles: 17227087 (Simulation time: 0 hr 1 min 48 sec) 

Heartbeat CPU 0 instructions: 60000000 cycles: 23062806 heartbeat IPC: 1.71358 cumulative IPC: 1.71358 (Simulation time: 0 hr 2 min 9 sec) 
Heartbeat CPU 0 instructions: 70000000 cycles: 28886653 heartbeat IPC: 1.71708 cumulative IPC: 1.71533 (Simulation time: 0 hr 2 min 30 sec) 
Heartbeat CPU 0 instructions: 80000000 cycles: 34728409 heartbeat IPC: 1.71181 cumulative IPC: 1.71416 (Simulation time: 0 hr 2 min 51 sec) 
Heartbeat CPU 0 instructions: 90000001 cycles: 40565249 heartbeat IPC: 1.71326 cumulative IPC: 1.71393 (Simulation time: 0 hr 3 min 13 sec) 
Heartbeat CPU 0 instructions: 100000002 cycles: 46414946 heartbeat IPC: 1.70949 cumulative IPC: 1.71304 (Simulation time: 0 hr 3 min 35 sec) 
Finished CPU 0 instructions: 50000001 cycles: 29187859 cumulative IPC: 1.71304 (Simulation time: 0 hr 3 min 35 sec) 

ChampSim completed all CPUs

Region of Interest Statistics

CPU 0 cumulative IPC: 1.71304 instructions: 50000001 cycles: 29187859
L1D TOTAL     ACCESS:   19973776  HIT:   19479006  MISS:     494770
L1D LOAD      ACCESS:    6533107  HIT:    6311395  MISS:     221712
L1D RFO       ACCESS:    7090548  HIT:    7023662  MISS:      66886
L1D PREFETCH  ACCESS:    6350121  HIT:    6143949  MISS:     206172
L1D WRITEBACK ACCESS:          0  HIT:          0  MISS:          0
L1D PREFETCH  REQUESTED:    6549030  ISSUED:    6420426  USEFUL:      50033  USELESS:     156143
L1D AVERAGE MISS LATENCY: 15.0798 cycles
L1I TOTAL     ACCESS:   15317393  HIT:   10204609  MISS:    5112784
L1I LOAD      ACCESS:    9266727  HIT:    8868109  MISS:     398618
L1I RFO       ACCESS:          0  HIT:          0  MISS:          0
L1I PREFETCH  ACCESS:    6050666  HIT:    1336500  MISS:    4714166
L1I WRITEBACK ACCESS:          0  HIT:          0  MISS:          0
L1I PREFETCH  REQUESTED:    7033029  ISSUED:    7033029  USEFUL:    3840777  USELESS:     873404
L1I AVERAGE MISS LATENCY: 13.7935 cycles
L2C TOTAL     ACCESS:    7554992  HIT:    7554817  MISS:        175
L2C LOAD      ACCESS:     327210  HIT:     327207  MISS:          3
L2C RFO       ACCESS:      66753  HIT:      66753  MISS:          0
L2C PREFETCH  ACCESS:    6980983  HIT:    6980811  MISS:        172
L2C WRITEBACK ACCESS:     180046  HIT:     180046  MISS:          0
L2C PREFETCH  REQUESTED:    4211112  ISSUED:    4210297  USEFUL:          1  USELESS:          0
L2C AVERAGE MISS LATENCY: 37.0571 cycles
LLC TOTAL     ACCESS:     882586  HIT:     881941  MISS:        645
LLC LOAD      ACCESS:          3  HIT:          2  MISS:          1
LLC RFO       ACCESS:          0  HIT:          0  MISS:          0
LLC PREFETCH  ACCESS:     882583  HIT:     881939  MISS:        644
LLC WRITEBACK ACCESS:          0  HIT:          0  MISS:          0
LLC PREFETCH  REQUESTED:          0  ISSUED:          0  USEFUL:          2  USELESS:          0
LLC AVERAGE MISS LATENCY: 170.766 cycles
Major fault: 0 Minor fault: 356
CPU 0 L1D next line prefetcher final stats

DRAM Statistics
 CHANNEL 0
 RQ ROW_BUFFER_HIT:         75  ROW_BUFFER_MISS:        570
 DBUS_CONGESTED:         62
 WQ ROW_BUFFER_HIT:          0  ROW_BUFFER_MISS:          0  FULL:          0

 AVG_CONGESTED_CYCLE: 5

CPU 0 Branch Prediction Accuracy: 99.9091% MPKI: 0.1547 Average ROB Occupancy at Mispredict: 245.919

Branch types
NOT_BRANCH: 41495007 82.99%
BRANCH_DIRECT_JUMP: 491308 0.982616%
BRANCH_INDIRECT: 0 0%
BRANCH_CONDITIONAL: 5595259 11.1905%
BRANCH_DIRECT_CALL: 1028408 2.05682%
BRANCH_INDIRECT_CALL: 180756 0.361512%
BRANCH_RETURN: 1209170 2.41834%
BRANCH_OTHER: 0 0%

