Initialize SIGNATURE TABLE
ST_SET: 1
ST_WAY: 256
ST_TAG_BIT: 16
ST_TAG_MASK: ffff

Initialize PATTERN TABLE
PT_SET: 512
PT_WAY: 4
SIG_DELTA_BIT: 7
C_SIG_BIT: 4
C_DELTA_BIT: 4

Initialize PREFETCH FILTER
FILTER_SET: 1024

*** ChampSim Multicore Out-of-Order Simulator ***

Warmup Instructions: 50000000
Simulation Instructions: 50000000
Number of CPUs: 1
LLC sets: 2048
LLC ways: 16
Off-chip DRAM Size: 4096 MB Channels: 1 Width: 64-bit Data Rate: 3200 MT/s

CPU 0 runs /Users/gandhardeshpande/Desktop/CSE240C/HW1/ChampSim/ipc1_public/spec_gcc_001.champsimtrace.xz
L1I Barca has been initializedCPU 0 L1D next line prefetcher
Heartbeat CPU 0 instructions: 10000003 cycles: 3219421 heartbeat IPC: 3.10615 cumulative IPC: 3.10615 (Simulation time: 0 hr 0 min 19 sec) 
Heartbeat CPU 0 instructions: 20000002 cycles: 6463909 heartbeat IPC: 3.08215 cumulative IPC: 3.0941 (Simulation time: 0 hr 0 min 39 sec) 
Heartbeat CPU 0 instructions: 30000000 cycles: 9665859 heartbeat IPC: 3.1231 cumulative IPC: 3.10371 (Simulation time: 0 hr 0 min 58 sec) 
Heartbeat CPU 0 instructions: 40000001 cycles: 12908054 heartbeat IPC: 3.08433 cumulative IPC: 3.09884 (Simulation time: 0 hr 1 min 17 sec) 
Heartbeat CPU 0 instructions: 50000001 cycles: 16148797 heartbeat IPC: 3.08571 cumulative IPC: 3.09621 (Simulation time: 0 hr 1 min 36 sec) 

Warmup complete CPU 0 instructions: 50000001 cycles: 16148797 (Simulation time: 0 hr 1 min 36 sec) 

Heartbeat CPU 0 instructions: 60000000 cycles: 23901171 heartbeat IPC: 1.28993 cumulative IPC: 1.28993 (Simulation time: 0 hr 1 min 55 sec) 
Heartbeat CPU 0 instructions: 70000002 cycles: 31768056 heartbeat IPC: 1.27115 cumulative IPC: 1.28047 (Simulation time: 0 hr 2 min 14 sec) 
Heartbeat CPU 0 instructions: 80000000 cycles: 39290985 heartbeat IPC: 1.32927 cumulative IPC: 1.29633 (Simulation time: 0 hr 2 min 32 sec) 
Heartbeat CPU 0 instructions: 90000001 cycles: 47140848 heartbeat IPC: 1.27391 cumulative IPC: 1.29065 (Simulation time: 0 hr 2 min 51 sec) 
Heartbeat CPU 0 instructions: 100000000 cycles: 55318118 heartbeat IPC: 1.2229 cumulative IPC: 1.27651 (Simulation time: 0 hr 3 min 10 sec) 
Finished CPU 0 instructions: 50000000 cycles: 39169325 cumulative IPC: 1.27651 (Simulation time: 0 hr 3 min 10 sec) 

ChampSim completed all CPUs

Region of Interest Statistics

CPU 0 cumulative IPC: 1.27651 instructions: 50000000 cycles: 39169325
L1D TOTAL     ACCESS:   19322774  HIT:   18217626  MISS:    1105148
L1D LOAD      ACCESS:    7232873  HIT:    6753277  MISS:     479596
L1D RFO       ACCESS:    5116618  HIT:    5036985  MISS:      79633
L1D PREFETCH  ACCESS:    6973283  HIT:    6427364  MISS:     545919
L1D WRITEBACK ACCESS:          0  HIT:          0  MISS:          0
L1D PREFETCH  REQUESTED:    7276599  ISSUED:    7178763  USEFUL:     275679  USELESS:     270252
L1D AVERAGE MISS LATENCY: 25.6539 cycles
L1I TOTAL     ACCESS:   10473359  HIT:    9539441  MISS:     933918
L1I LOAD      ACCESS:    9295405  HIT:    9224116  MISS:      71289
L1I RFO       ACCESS:          0  HIT:          0  MISS:          0
L1I PREFETCH  ACCESS:    1177954  HIT:     315325  MISS:     862629
L1I WRITEBACK ACCESS:          0  HIT:          0  MISS:          0
L1I PREFETCH  REQUESTED:    1301338  ISSUED:    1301338  USEFUL:     418180  USELESS:     444466
L1I AVERAGE MISS LATENCY: 17.2608 cycles
L2C TOTAL     ACCESS:    3260918  HIT:    3011306  MISS:     249612
L2C LOAD      ACCESS:     493949  HIT:     411014  MISS:      82935
L2C RFO       ACCESS:      74999  HIT:      36914  MISS:      38085
L2C PREFETCH  ACCESS:    2438203  HIT:    2309943  MISS:     128260
L2C WRITEBACK ACCESS:     253767  HIT:     253435  MISS:        332
L2C PREFETCH  REQUESTED:    1910186  ISSUED:    1909935  USEFUL:      30530  USELESS:      97785
L2C AVERAGE MISS LATENCY: 63.4438 cycles
LLC TOTAL     ACCESS:     674647  HIT:     603229  MISS:      71418
LLC LOAD      ACCESS:      82731  HIT:      71954  MISS:      10777
LLC RFO       ACCESS:      38084  HIT:      17227  MISS:      20857
LLC PREFETCH  ACCESS:     462912  HIT:     424061  MISS:      38851
LLC WRITEBACK ACCESS:      90920  HIT:      89987  MISS:        933
LLC PREFETCH  REQUESTED:          0  ISSUED:          0  USEFUL:      12115  USELESS:      27890
LLC AVERAGE MISS LATENCY: 184.301 cycles
Major fault: 0 Minor fault: 6865
CPU 0 L1D next line prefetcher final stats

DRAM Statistics
 CHANNEL 0
 RQ ROW_BUFFER_HIT:      19520  ROW_BUFFER_MISS:      50961
 DBUS_CONGESTED:      35980
 WQ ROW_BUFFER_HIT:       4733  ROW_BUFFER_MISS:      22743  FULL:          0

 AVG_CONGESTED_CYCLE: 6

CPU 0 Branch Prediction Accuracy: 95.8872% MPKI: 9.67286 Average ROB Occupancy at Mispredict: 67.1149

Branch types
NOT_BRANCH: 38240102 76.4802%
BRANCH_DIRECT_JUMP: 653296 1.30659%
BRANCH_INDIRECT: 37098 0.074196%
BRANCH_CONDITIONAL: 8897819 17.7956%
BRANCH_DIRECT_CALL: 992620 1.98524%
BRANCH_INDIRECT_CALL: 93046 0.186092%
BRANCH_RETURN: 1085674 2.17135%
BRANCH_OTHER: 0 0%

