Initialize SIGNATURE TABLE
ST_SET: 1
ST_WAY: 256
ST_TAG_BIT: 16
ST_TAG_MASK: ffff

Initialize PATTERN TABLE
PT_SET: 512
PT_WAY: 4
SIG_DELTA_BIT: 7
C_SIG_BIT: 4
C_DELTA_BIT: 4

Initialize PREFETCH FILTER
FILTER_SET: 1024

*** ChampSim Multicore Out-of-Order Simulator ***

Warmup Instructions: 50000000
Simulation Instructions: 50000000
Number of CPUs: 1
LLC sets: 2048
LLC ways: 16
Off-chip DRAM Size: 4096 MB Channels: 1 Width: 64-bit Data Rate: 3200 MT/s

CPU 0 runs /Users/gandhardeshpande/Desktop/CSE240C/HW1/ChampSim/ipc1_public/spec_gobmk_001.champsimtrace.xz
L1I Barca has been initializedCPU 0 L1D next line prefetcher
Heartbeat CPU 0 instructions: 10000003 cycles: 3507329 heartbeat IPC: 2.85117 cumulative IPC: 2.85117 (Simulation time: 0 hr 0 min 17 sec) 
Heartbeat CPU 0 instructions: 20000002 cycles: 6987835 heartbeat IPC: 2.87315 cumulative IPC: 2.86212 (Simulation time: 0 hr 0 min 34 sec) 
Heartbeat CPU 0 instructions: 30000002 cycles: 10506858 heartbeat IPC: 2.8417 cumulative IPC: 2.85528 (Simulation time: 0 hr 0 min 52 sec) 
Heartbeat CPU 0 instructions: 40000001 cycles: 14026089 heartbeat IPC: 2.84153 cumulative IPC: 2.85183 (Simulation time: 0 hr 1 min 8 sec) 
Heartbeat CPU 0 instructions: 50000001 cycles: 17566431 heartbeat IPC: 2.82459 cumulative IPC: 2.84634 (Simulation time: 0 hr 1 min 26 sec) 

Warmup complete CPU 0 instructions: 50000001 cycles: 17566431 (Simulation time: 0 hr 1 min 26 sec) 

Heartbeat CPU 0 instructions: 60000000 cycles: 26278789 heartbeat IPC: 1.14779 cumulative IPC: 1.14779 (Simulation time: 0 hr 1 min 41 sec) 
Heartbeat CPU 0 instructions: 70000002 cycles: 34629247 heartbeat IPC: 1.19754 cumulative IPC: 1.17214 (Simulation time: 0 hr 1 min 57 sec) 
Heartbeat CPU 0 instructions: 80000003 cycles: 43413783 heartbeat IPC: 1.13836 cumulative IPC: 1.16066 (Simulation time: 0 hr 2 min 11 sec) 
Heartbeat CPU 0 instructions: 90000001 cycles: 51873769 heartbeat IPC: 1.18203 cumulative IPC: 1.16593 (Simulation time: 0 hr 2 min 25 sec) 
Heartbeat CPU 0 instructions: 100000003 cycles: 60646258 heartbeat IPC: 1.13993 cumulative IPC: 1.16064 (Simulation time: 0 hr 2 min 40 sec) 
Finished CPU 0 instructions: 50000002 cycles: 43079827 cumulative IPC: 1.16064 (Simulation time: 0 hr 2 min 40 sec) 

ChampSim completed all CPUs

Region of Interest Statistics

CPU 0 cumulative IPC: 1.16064 instructions: 50000002 cycles: 43079827
L1D TOTAL     ACCESS:   17961724  HIT:   17582206  MISS:     379518
L1D LOAD      ACCESS:    7200150  HIT:    7064414  MISS:     135736
L1D RFO       ACCESS:    3701580  HIT:    3597001  MISS:     104579
L1D PREFETCH  ACCESS:    7059994  HIT:    6920791  MISS:     139203
L1D WRITEBACK ACCESS:          0  HIT:          0  MISS:          0
L1D PREFETCH  REQUESTED:    7205523  ISSUED:    7122700  USEFUL:      44505  USELESS:      94703
L1D AVERAGE MISS LATENCY: 32.8473 cycles
L1I TOTAL     ACCESS:   10354194  HIT:    9282480  MISS:    1071714
L1I LOAD      ACCESS:    8932827  HIT:    8880437  MISS:      52390
L1I RFO       ACCESS:          0  HIT:          0  MISS:          0
L1I PREFETCH  ACCESS:    1421367  HIT:     402043  MISS:    1019324
L1I WRITEBACK ACCESS:          0  HIT:          0  MISS:          0
L1I PREFETCH  REQUESTED:    1534289  ISSUED:    1534289  USEFUL:     605293  USELESS:     414014
L1I AVERAGE MISS LATENCY: 14.8923 cycles
L2C TOTAL     ACCESS:    2018221  HIT:    1891714  MISS:     126507
L2C LOAD      ACCESS:     137096  HIT:     102272  MISS:      34824
L2C RFO       ACCESS:     104228  HIT:      70707  MISS:      33521
L2C PREFETCH  ACCESS:    1637604  HIT:    1579456  MISS:      58148
L2C WRITEBACK ACCESS:     139293  HIT:     139279  MISS:         14
L2C PREFETCH  REQUESTED:     777517  ISSUED:     777465  USEFUL:       4263  USELESS:      54395
L2C AVERAGE MISS LATENCY: 62.276 cycles
LLC TOTAL     ACCESS:     261585  HIT:     230344  MISS:      31241
LLC LOAD      ACCESS:      34821  HIT:      26736  MISS:       8085
LLC RFO       ACCESS:      33521  HIT:      28906  MISS:       4615
LLC PREFETCH  ACCESS:     149084  HIT:     130786  MISS:      18298
LLC WRITEBACK ACCESS:      44159  HIT:      43916  MISS:        243
LLC PREFETCH  REQUESTED:          0  ISSUED:          0  USEFUL:       1310  USELESS:      15783
LLC AVERAGE MISS LATENCY: 180.732 cycles
Major fault: 0 Minor fault: 4156
CPU 0 L1D next line prefetcher final stats

DRAM Statistics
 CHANNEL 0
 RQ ROW_BUFFER_HIT:       3223  ROW_BUFFER_MISS:      27775
 DBUS_CONGESTED:      16758
 WQ ROW_BUFFER_HIT:       1038  ROW_BUFFER_MISS:      13033  FULL:          0

 AVG_CONGESTED_CYCLE: 4

CPU 0 Branch Prediction Accuracy: 94.7729% MPKI: 9.72684 Average ROB Occupancy at Mispredict: 54.6921

Branch types
NOT_BRANCH: 40695383 81.3908%
BRANCH_DIRECT_JUMP: 422107 0.844214%
BRANCH_INDIRECT: 65 0.00013%
BRANCH_CONDITIONAL: 8105005 16.21%
BRANCH_DIRECT_CALL: 374913 0.749826%
BRANCH_INDIRECT_CALL: 13657 0.027314%
BRANCH_RETURN: 388556 0.777112%
BRANCH_OTHER: 0 0%

