
*** ChampSim Multicore Out-of-Order Simulator ***

Warmup Instructions: 10000000
Simulation Instructions: 100000000
Configuration: 2
Number of CPUs: 1
LLC sets: 2048
LLC ways: 16
Off-chip DRAM Channels: 1 Width: 64-bit Data Rate: 1600 MT/s

CPU 0 runs /datasets/cs240c-wi22-a00-public/data/Assignment2-gz/soplex_66B.trace.gz
CPU 0 L1D next line prefetcher
CPU 0 L2C IP-based stride prefetcher
Heartbeat CPU 0 instructions: 1000003 cycles: 415045 heartbeat IPC: 2.40938 cumulative IPC: 2.40938 (Simulation time: 0 hr 0 min 45 sec) 
Heartbeat CPU 0 instructions: 2000003 cycles: 837178 heartbeat IPC: 2.36892 cumulative IPC: 2.38898 (Simulation time: 0 hr 1 min 36 sec) 
Heartbeat CPU 0 instructions: 3000003 cycles: 1242143 heartbeat IPC: 2.46935 cumulative IPC: 2.41518 (Simulation time: 0 hr 2 min 24 sec) 
Heartbeat CPU 0 instructions: 4000000 cycles: 1626256 heartbeat IPC: 2.60339 cumulative IPC: 2.45964 (Simulation time: 0 hr 3 min 7 sec) 
Heartbeat CPU 0 instructions: 5000000 cycles: 2040643 heartbeat IPC: 2.4132 cumulative IPC: 2.45021 (Simulation time: 0 hr 3 min 50 sec) 
Heartbeat CPU 0 instructions: 6000000 cycles: 2514265 heartbeat IPC: 2.11139 cumulative IPC: 2.38638 (Simulation time: 0 hr 4 min 35 sec) 
Heartbeat CPU 0 instructions: 7000002 cycles: 2886808 heartbeat IPC: 2.68426 cumulative IPC: 2.42482 (Simulation time: 0 hr 5 min 22 sec) 
Heartbeat CPU 0 instructions: 8000000 cycles: 3312550 heartbeat IPC: 2.34884 cumulative IPC: 2.41506 (Simulation time: 0 hr 6 min 15 sec) 
Heartbeat CPU 0 instructions: 9000001 cycles: 3751135 heartbeat IPC: 2.28006 cumulative IPC: 2.39927 (Simulation time: 0 hr 7 min 4 sec) 
Heartbeat CPU 0 instructions: 10000002 cycles: 4163322 heartbeat IPC: 2.42609 cumulative IPC: 2.40193 (Simulation time: 0 hr 7 min 55 sec) 

Warmup complete CPU 0 instructions: 10000002 cycles: 4163322 (Simulation time: 0 hr 7 min 55 sec) 

Heartbeat CPU 0 instructions: 11000001 cycles: 7273756 heartbeat IPC: 0.321498 cumulative IPC: 0.321498 (Simulation time: 0 hr 9 min 1 sec) 
Heartbeat CPU 0 instructions: 12000000 cycles: 8621765 heartbeat IPC: 0.741834 cumulative IPC: 0.448587 (Simulation time: 0 hr 9 min 44 sec) 
Heartbeat CPU 0 instructions: 13000001 cycles: 11240975 heartbeat IPC: 0.381795 cumulative IPC: 0.423869 (Simulation time: 0 hr 10 min 43 sec) 
Heartbeat CPU 0 instructions: 14000002 cycles: 13671868 heartbeat IPC: 0.411372 cumulative IPC: 0.420674 (Simulation time: 0 hr 11 min 42 sec) 
Heartbeat CPU 0 instructions: 15000002 cycles: 16175557 heartbeat IPC: 0.399411 cumulative IPC: 0.416242 (Simulation time: 0 hr 12 min 33 sec) 
Heartbeat CPU 0 instructions: 16000000 cycles: 18955533 heartbeat IPC: 0.359715 cumulative IPC: 0.405619 (Simulation time: 0 hr 13 min 37 sec) 
Heartbeat CPU 0 instructions: 17000001 cycles: 21112383 heartbeat IPC: 0.46364 cumulative IPC: 0.413002 (Simulation time: 0 hr 14 min 42 sec) 
Heartbeat CPU 0 instructions: 18000000 cycles: 23090567 heartbeat IPC: 0.505514 cumulative IPC: 0.422671 (Simulation time: 0 hr 15 min 45 sec) 
Heartbeat CPU 0 instructions: 19000002 cycles: 26444130 heartbeat IPC: 0.298191 cumulative IPC: 0.403935 (Simulation time: 0 hr 16 min 55 sec) 
Heartbeat CPU 0 instructions: 20000000 cycles: 27783846 heartbeat IPC: 0.746425 cumulative IPC: 0.423361 (Simulation time: 0 hr 17 min 39 sec) 
Heartbeat CPU 0 instructions: 21000000 cycles: 29930759 heartbeat IPC: 0.465785 cumulative IPC: 0.426895 (Simulation time: 0 hr 18 min 32 sec) 
Heartbeat CPU 0 instructions: 22000000 cycles: 32506320 heartbeat IPC: 0.388265 cumulative IPC: 0.423385 (Simulation time: 0 hr 19 min 31 sec) 
Heartbeat CPU 0 instructions: 23000000 cycles: 34967243 heartbeat IPC: 0.406352 cumulative IPC: 0.422024 (Simulation time: 0 hr 20 min 25 sec) 
Heartbeat CPU 0 instructions: 24000000 cycles: 37486280 heartbeat IPC: 0.396977 cumulative IPC: 0.420131 (Simulation time: 0 hr 21 min 17 sec) 
Heartbeat CPU 0 instructions: 25000003 cycles: 39672332 heartbeat IPC: 0.457447 cumulative IPC: 0.422428 (Simulation time: 0 hr 22 min 17 sec) 
Heartbeat CPU 0 instructions: 26000001 cycles: 41808829 heartbeat IPC: 0.468055 cumulative IPC: 0.425018 (Simulation time: 0 hr 23 min 15 sec) 
Heartbeat CPU 0 instructions: 27000002 cycles: 45151591 heartbeat IPC: 0.299154 cumulative IPC: 0.414753 (Simulation time: 0 hr 24 min 32 sec) 
Heartbeat CPU 0 instructions: 28000000 cycles: 46490527 heartbeat IPC: 0.74686 cumulative IPC: 0.425258 (Simulation time: 0 hr 25 min 15 sec) 
Heartbeat CPU 0 instructions: 29000002 cycles: 48296923 heartbeat IPC: 0.55359 cumulative IPC: 0.430511 (Simulation time: 0 hr 26 min 7 sec) 
Heartbeat CPU 0 instructions: 30000000 cycles: 51043422 heartbeat IPC: 0.364099 cumulative IPC: 0.42662 (Simulation time: 0 hr 27 min 3 sec) 
Heartbeat CPU 0 instructions: 31000001 cycles: 53534627 heartbeat IPC: 0.401413 cumulative IPC: 0.425348 (Simulation time: 0 hr 27 min 50 sec) 
Heartbeat CPU 0 instructions: 32000000 cycles: 55986158 heartbeat IPC: 0.407908 cumulative IPC: 0.424523 (Simulation time: 0 hr 28 min 39 sec) 
Heartbeat CPU 0 instructions: 33000001 cycles: 59114719 heartbeat IPC: 0.319636 cumulative IPC: 0.418552 (Simulation time: 0 hr 29 min 40 sec) 
Heartbeat CPU 0 instructions: 34000003 cycles: 61109360 heartbeat IPC: 0.501344 cumulative IPC: 0.421452 (Simulation time: 0 hr 30 min 35 sec) 
Heartbeat CPU 0 instructions: 35000003 cycles: 64047436 heartbeat IPC: 0.340359 cumulative IPC: 0.417473 (Simulation time: 0 hr 31 min 26 sec) 
Heartbeat CPU 0 instructions: 36000000 cycles: 65382413 heartbeat IPC: 0.749074 cumulative IPC: 0.424704 (Simulation time: 0 hr 32 min 4 sec) 
Heartbeat CPU 0 instructions: 37000000 cycles: 67928598 heartbeat IPC: 0.392744 cumulative IPC: 0.423428 (Simulation time: 0 hr 32 min 49 sec) 
Heartbeat CPU 0 instructions: 38000001 cycles: 70228225 heartbeat IPC: 0.434854 cumulative IPC: 0.423826 (Simulation time: 0 hr 33 min 44 sec) 
Heartbeat CPU 0 instructions: 39000003 cycles: 72712159 heartbeat IPC: 0.402588 cumulative IPC: 0.423056 (Simulation time: 0 hr 34 min 32 sec) 
Heartbeat CPU 0 instructions: 40000000 cycles: 75418398 heartbeat IPC: 0.369515 cumulative IPC: 0.421023 (Simulation time: 0 hr 35 min 35 sec) 
Heartbeat CPU 0 instructions: 41000001 cycles: 77520011 heartbeat IPC: 0.475825 cumulative IPC: 0.422593 (Simulation time: 0 hr 36 min 36 sec) 
Heartbeat CPU 0 instructions: 42000003 cycles: 79459758 heartbeat IPC: 0.515532 cumulative IPC: 0.424987 (Simulation time: 0 hr 37 min 42 sec) 
Heartbeat CPU 0 instructions: 43000000 cycles: 82822265 heartbeat IPC: 0.297396 cumulative IPC: 0.419533 (Simulation time: 0 hr 38 min 49 sec) 
Heartbeat CPU 0 instructions: 44000000 cycles: 84163473 heartbeat IPC: 0.745597 cumulative IPC: 0.424999 (Simulation time: 0 hr 39 min 29 sec) 
Heartbeat CPU 0 instructions: 45000003 cycles: 86355087 heartbeat IPC: 0.456286 cumulative IPC: 0.425833 (Simulation time: 0 hr 40 min 16 sec) 
Heartbeat CPU 0 instructions: 46000003 cycles: 88952272 heartbeat IPC: 0.385032 cumulative IPC: 0.424584 (Simulation time: 0 hr 41 min 10 sec) 
Heartbeat CPU 0 instructions: 47000001 cycles: 91407797 heartbeat IPC: 0.407244 cumulative IPC: 0.424096 (Simulation time: 0 hr 41 min 48 sec) 
Heartbeat CPU 0 instructions: 48000000 cycles: 93893497 heartbeat IPC: 0.402301 cumulative IPC: 0.423492 (Simulation time: 0 hr 42 min 29 sec) 
Heartbeat CPU 0 instructions: 49000000 cycles: 97278061 heartbeat IPC: 0.295459 cumulative IPC: 0.418838 (Simulation time: 0 hr 43 min 40 sec) 
Heartbeat CPU 0 instructions: 50000003 cycles: 103125948 heartbeat IPC: 0.171002 cumulative IPC: 0.404193 (Simulation time: 0 hr 44 min 48 sec) 
Heartbeat CPU 0 instructions: 51000002 cycles: 105579381 heartbeat IPC: 0.407592 cumulative IPC: 0.404275 (Simulation time: 0 hr 45 min 49 sec) 
Heartbeat CPU 0 instructions: 52000000 cycles: 109579295 heartbeat IPC: 0.250005 cumulative IPC: 0.398422 (Simulation time: 0 hr 46 min 44 sec) 
Heartbeat CPU 0 instructions: 53000003 cycles: 112281646 heartbeat IPC: 0.370049 cumulative IPC: 0.397712 (Simulation time: 0 hr 47 min 35 sec) 
Heartbeat CPU 0 instructions: 54000000 cycles: 114806614 heartbeat IPC: 0.396043 cumulative IPC: 0.397674 (Simulation time: 0 hr 48 min 29 sec) 
Heartbeat CPU 0 instructions: 55000002 cycles: 118477075 heartbeat IPC: 0.272446 cumulative IPC: 0.393653 (Simulation time: 0 hr 49 min 20 sec) 
Heartbeat CPU 0 instructions: 56000000 cycles: 122074455 heartbeat IPC: 0.27798 cumulative IPC: 0.390124 (Simulation time: 0 hr 50 min 14 sec) 
Heartbeat CPU 0 instructions: 57000003 cycles: 124693778 heartbeat IPC: 0.381779 cumulative IPC: 0.389943 (Simulation time: 0 hr 51 min 1 sec) 
Heartbeat CPU 0 instructions: 58000002 cycles: 126911172 heartbeat IPC: 0.450979 cumulative IPC: 0.391046 (Simulation time: 0 hr 51 min 49 sec) 
Heartbeat CPU 0 instructions: 59000002 cycles: 128451240 heartbeat IPC: 0.649322 cumulative IPC: 0.394246 (Simulation time: 0 hr 52 min 33 sec) 
Heartbeat CPU 0 instructions: 60000000 cycles: 129646624 heartbeat IPC: 0.83655 cumulative IPC: 0.398459 (Simulation time: 0 hr 53 min 11 sec) 
Heartbeat CPU 0 instructions: 61000002 cycles: 132411243 heartbeat IPC: 0.361714 cumulative IPC: 0.397667 (Simulation time: 0 hr 54 min 7 sec) 
Heartbeat CPU 0 instructions: 62000002 cycles: 135106775 heartbeat IPC: 0.370984 cumulative IPC: 0.397118 (Simulation time: 0 hr 55 min 2 sec) 
Heartbeat CPU 0 instructions: 63000002 cycles: 137204516 heartbeat IPC: 0.476703 cumulative IPC: 0.398373 (Simulation time: 0 hr 55 min 51 sec) 
Heartbeat CPU 0 instructions: 64000000 cycles: 139615815 heartbeat IPC: 0.414713 cumulative IPC: 0.398664 (Simulation time: 0 hr 56 min 39 sec) 
Heartbeat CPU 0 instructions: 65000000 cycles: 143560040 heartbeat IPC: 0.253535 cumulative IPC: 0.394557 (Simulation time: 0 hr 57 min 47 sec) 
Heartbeat CPU 0 instructions: 66000001 cycles: 144920179 heartbeat IPC: 0.73522 cumulative IPC: 0.397849 (Simulation time: 0 hr 58 min 21 sec) 
Heartbeat CPU 0 instructions: 67000000 cycles: 146269170 heartbeat IPC: 0.741294 cumulative IPC: 0.401109 (Simulation time: 0 hr 58 min 55 sec) 
Heartbeat CPU 0 instructions: 68000000 cycles: 149542879 heartbeat IPC: 0.305464 cumulative IPC: 0.398956 (Simulation time: 0 hr 59 min 46 sec) 
Heartbeat CPU 0 instructions: 69000000 cycles: 152214923 heartbeat IPC: 0.374245 cumulative IPC: 0.39851 (Simulation time: 1 hr 0 min 26 sec) 
Heartbeat CPU 0 instructions: 70000003 cycles: 154723794 heartbeat IPC: 0.398587 cumulative IPC: 0.398511 (Simulation time: 1 hr 1 min 6 sec) 
Heartbeat CPU 0 instructions: 71000000 cycles: 157332021 heartbeat IPC: 0.383401 cumulative IPC: 0.398254 (Simulation time: 1 hr 2 min 0 sec) 
Heartbeat CPU 0 instructions: 72000000 cycles: 159943513 heartbeat IPC: 0.382923 cumulative IPC: 0.397997 (Simulation time: 1 hr 2 min 46 sec) 
Heartbeat CPU 0 instructions: 73000002 cycles: 162742945 heartbeat IPC: 0.357216 cumulative IPC: 0.397277 (Simulation time: 1 hr 3 min 37 sec) 
Heartbeat CPU 0 instructions: 74000000 cycles: 164727125 heartbeat IPC: 0.503986 cumulative IPC: 0.398595 (Simulation time: 1 hr 4 min 13 sec) 
Heartbeat CPU 0 instructions: 75000002 cycles: 166060656 heartbeat IPC: 0.74989 cumulative IPC: 0.401489 (Simulation time: 1 hr 4 min 43 sec) 
Heartbeat CPU 0 instructions: 76000000 cycles: 169161593 heartbeat IPC: 0.322483 cumulative IPC: 0.400004 (Simulation time: 1 hr 5 min 27 sec) 
Heartbeat CPU 0 instructions: 77000000 cycles: 171492264 heartbeat IPC: 0.429061 cumulative IPC: 0.400409 (Simulation time: 1 hr 6 min 3 sec) 
Heartbeat CPU 0 instructions: 78000003 cycles: 173952879 heartbeat IPC: 0.406404 cumulative IPC: 0.400496 (Simulation time: 1 hr 6 min 39 sec) 
Heartbeat CPU 0 instructions: 79000001 cycles: 177045613 heartbeat IPC: 0.323338 cumulative IPC: 0.399115 (Simulation time: 1 hr 7 min 36 sec) 
Heartbeat CPU 0 instructions: 80000000 cycles: 179590400 heartbeat IPC: 0.39296 cumulative IPC: 0.399026 (Simulation time: 1 hr 8 min 24 sec) 
Heartbeat CPU 0 instructions: 81000003 cycles: 182602368 heartbeat IPC: 0.33201 cumulative IPC: 0.397895 (Simulation time: 1 hr 9 min 26 sec) 
Heartbeat CPU 0 instructions: 82000000 cycles: 184346078 heartbeat IPC: 0.573488 cumulative IPC: 0.399594 (Simulation time: 1 hr 10 min 1 sec) 
Heartbeat CPU 0 instructions: 83000001 cycles: 185670287 heartbeat IPC: 0.755169 cumulative IPC: 0.402188 (Simulation time: 1 hr 10 min 35 sec) 
Heartbeat CPU 0 instructions: 84000000 cycles: 188751468 heartbeat IPC: 0.324551 cumulative IPC: 0.400892 (Simulation time: 1 hr 11 min 28 sec) 
Heartbeat CPU 0 instructions: 85000002 cycles: 191073641 heartbeat IPC: 0.430632 cumulative IPC: 0.401262 (Simulation time: 1 hr 12 min 4 sec) 
Heartbeat CPU 0 instructions: 86000000 cycles: 193569995 heartbeat IPC: 0.400583 cumulative IPC: 0.401253 (Simulation time: 1 hr 12 min 42 sec) 
Heartbeat CPU 0 instructions: 87000000 cycles: 196413723 heartbeat IPC: 0.351651 cumulative IPC: 0.400519 (Simulation time: 1 hr 13 min 29 sec) 
Heartbeat CPU 0 instructions: 88000000 cycles: 198615096 heartbeat IPC: 0.454262 cumulative IPC: 0.401128 (Simulation time: 1 hr 14 min 6 sec) 
Heartbeat CPU 0 instructions: 89000001 cycles: 201936761 heartbeat IPC: 0.301054 cumulative IPC: 0.399447 (Simulation time: 1 hr 14 min 53 sec) 
Heartbeat CPU 0 instructions: 90000002 cycles: 203281007 heartbeat IPC: 0.743912 cumulative IPC: 0.401772 (Simulation time: 1 hr 15 min 18 sec) 
Heartbeat CPU 0 instructions: 91000000 cycles: 204691414 heartbeat IPC: 0.709014 cumulative IPC: 0.403933 (Simulation time: 1 hr 15 min 42 sec) 
Heartbeat CPU 0 instructions: 92000000 cycles: 207691493 heartbeat IPC: 0.333325 cumulative IPC: 0.402893 (Simulation time: 1 hr 16 min 19 sec) 
Heartbeat CPU 0 instructions: 93000000 cycles: 210187684 heartbeat IPC: 0.40061 cumulative IPC: 0.402865 (Simulation time: 1 hr 16 min 43 sec) 
Heartbeat CPU 0 instructions: 94000001 cycles: 212569698 heartbeat IPC: 0.419813 cumulative IPC: 0.403059 (Simulation time: 1 hr 17 min 4 sec) 
Heartbeat CPU 0 instructions: 95000003 cycles: 215638613 heartbeat IPC: 0.325849 cumulative IPC: 0.401938 (Simulation time: 1 hr 17 min 36 sec) 
Heartbeat CPU 0 instructions: 96000000 cycles: 217575938 heartbeat IPC: 0.516174 cumulative IPC: 0.402975 (Simulation time: 1 hr 18 min 1 sec) 
Heartbeat CPU 0 instructions: 97000003 cycles: 220734856 heartbeat IPC: 0.316565 cumulative IPC: 0.401715 (Simulation time: 1 hr 18 min 27 sec) 
Heartbeat CPU 0 instructions: 98000003 cycles: 222071553 heartbeat IPC: 0.748113 cumulative IPC: 0.40384 (Simulation time: 1 hr 18 min 43 sec) 
Heartbeat CPU 0 instructions: 99000000 cycles: 224409839 heartbeat IPC: 0.427662 cumulative IPC: 0.404093 (Simulation time: 1 hr 19 min 3 sec) 
Heartbeat CPU 0 instructions: 100000000 cycles: 226918752 heartbeat IPC: 0.398579 cumulative IPC: 0.404031 (Simulation time: 1 hr 19 min 25 sec) 
Heartbeat CPU 0 instructions: 101000001 cycles: 229361845 heartbeat IPC: 0.409318 cumulative IPC: 0.404088 (Simulation time: 1 hr 19 min 42 sec) 
Heartbeat CPU 0 instructions: 102000002 cycles: 231934176 heartbeat IPC: 0.388753 cumulative IPC: 0.403915 (Simulation time: 1 hr 20 min 0 sec) 
Heartbeat CPU 0 instructions: 103000002 cycles: 234939300 heartbeat IPC: 0.332765 cumulative IPC: 0.402988 (Simulation time: 1 hr 20 min 25 sec) 
Heartbeat CPU 0 instructions: 104000000 cycles: 237198480 heartbeat IPC: 0.442638 cumulative IPC: 0.403373 (Simulation time: 1 hr 20 min 48 sec) 
Heartbeat CPU 0 instructions: 105000000 cycles: 239645374 heartbeat IPC: 0.408681 cumulative IPC: 0.403428 (Simulation time: 1 hr 21 min 4 sec) 
Heartbeat CPU 0 instructions: 106000001 cycles: 240975068 heartbeat IPC: 0.752053 cumulative IPC: 0.405385 (Simulation time: 1 hr 21 min 15 sec) 
Heartbeat CPU 0 instructions: 107000001 cycles: 243873625 heartbeat IPC: 0.344999 cumulative IPC: 0.404655 (Simulation time: 1 hr 21 min 31 sec) 
Heartbeat CPU 0 instructions: 108000000 cycles: 246027929 heartbeat IPC: 0.464187 cumulative IPC: 0.405185 (Simulation time: 1 hr 21 min 43 sec) 
Heartbeat CPU 0 instructions: 109000003 cycles: 248487666 heartbeat IPC: 0.406549 cumulative IPC: 0.405199 (Simulation time: 1 hr 21 min 52 sec) 
Heartbeat CPU 0 instructions: 110000001 cycles: 251389785 heartbeat IPC: 0.344575 cumulative IPC: 0.404487 (Simulation time: 1 hr 22 min 5 sec) 
Finished CPU 0 instructions: 100000003 cycles: 247226464 cummulative IPC: 0.404487 (Simulation time: 1 hr 22 min 5 sec) 

ChampSim completed all CPUs

Region of Interest Statistics

CPU 0 cummulative IPC: 0.404487 instructions: 100000003 cycles: 247226464
LLC TOTAL     ACCESS:    6600756  HIT:    3078800  MISS:    3521956
LLC LOAD      ACCESS:    1697449  HIT:     782639  MISS:     914810
LLC RFO       ACCESS:     658489  HIT:     305494  MISS:     352995
LLC PREFETCH  ACCESS:    2684178  HIT:     926547  MISS:    1757631
LLC WRITEBACK ACCESS:    1560640  HIT:    1064120  MISS:     496520
