
*** ChampSim Multicore Out-of-Order Simulator ***

Warmup Instructions: 10000000
Simulation Instructions: 100000000
Configuration: 2
Number of CPUs: 1
LLC sets: 2048
LLC ways: 16
Off-chip DRAM Channels: 1 Width: 64-bit Data Rate: 1600 MT/s

CPU 0 runs /datasets/cs240c-wi22-a00-public/data/Assignment2-gz/cactusADM_734B.trace.gz
CPU 0 L1D next line prefetcher
CPU 0 L2C IP-based stride prefetcher
Initialize SRRIP state
Heartbeat CPU 0 instructions: 1000003 cycles: 592726 heartbeat IPC: 1.68713 cumulative IPC: 1.68713 (Simulation time: 0 hr 0 min 44 sec) 
Heartbeat CPU 0 instructions: 2000001 cycles: 1185927 heartbeat IPC: 1.68577 cumulative IPC: 1.68645 (Simulation time: 0 hr 1 min 30 sec) 
Heartbeat CPU 0 instructions: 3000003 cycles: 1778979 heartbeat IPC: 1.6862 cumulative IPC: 1.68636 (Simulation time: 0 hr 2 min 16 sec) 
Heartbeat CPU 0 instructions: 4000000 cycles: 2371929 heartbeat IPC: 1.68648 cumulative IPC: 1.68639 (Simulation time: 0 hr 3 min 5 sec) 
Heartbeat CPU 0 instructions: 5000000 cycles: 2965279 heartbeat IPC: 1.68535 cumulative IPC: 1.68618 (Simulation time: 0 hr 3 min 52 sec) 
Heartbeat CPU 0 instructions: 6000002 cycles: 3558551 heartbeat IPC: 1.68557 cumulative IPC: 1.68608 (Simulation time: 0 hr 4 min 38 sec) 
Heartbeat CPU 0 instructions: 7000000 cycles: 4151394 heartbeat IPC: 1.68678 cumulative IPC: 1.68618 (Simulation time: 0 hr 5 min 24 sec) 
Heartbeat CPU 0 instructions: 8000000 cycles: 4744343 heartbeat IPC: 1.68649 cumulative IPC: 1.68622 (Simulation time: 0 hr 6 min 9 sec) 
Heartbeat CPU 0 instructions: 9000001 cycles: 5337493 heartbeat IPC: 1.68592 cumulative IPC: 1.68619 (Simulation time: 0 hr 6 min 53 sec) 
Heartbeat CPU 0 instructions: 10000003 cycles: 5958967 heartbeat IPC: 1.60908 cumulative IPC: 1.67814 (Simulation time: 0 hr 7 min 38 sec) 

Warmup complete CPU 0 instructions: 10000003 cycles: 5958967 (Simulation time: 0 hr 7 min 38 sec) 

Heartbeat CPU 0 instructions: 11000002 cycles: 12568836 heartbeat IPC: 0.151289 cumulative IPC: 0.151289 (Simulation time: 0 hr 8 min 34 sec) 
Heartbeat CPU 0 instructions: 12000000 cycles: 14311156 heartbeat IPC: 0.573946 cumulative IPC: 0.239458 (Simulation time: 0 hr 9 min 25 sec) 
Heartbeat CPU 0 instructions: 13000002 cycles: 15998885 heartbeat IPC: 0.592513 cumulative IPC: 0.298807 (Simulation time: 0 hr 10 min 11 sec) 
Heartbeat CPU 0 instructions: 14000000 cycles: 17684386 heartbeat IPC: 0.593294 cumulative IPC: 0.341139 (Simulation time: 0 hr 10 min 57 sec) 
Heartbeat CPU 0 instructions: 15000003 cycles: 19423734 heartbeat IPC: 0.57493 cumulative IPC: 0.371339 (Simulation time: 0 hr 11 min 49 sec) 
Heartbeat CPU 0 instructions: 16000000 cycles: 21167143 heartbeat IPC: 0.573587 cumulative IPC: 0.394524 (Simulation time: 0 hr 12 min 45 sec) 
Heartbeat CPU 0 instructions: 17000002 cycles: 22900876 heartbeat IPC: 0.576791 cumulative IPC: 0.413177 (Simulation time: 0 hr 13 min 25 sec) 
Heartbeat CPU 0 instructions: 18000001 cycles: 24559509 heartbeat IPC: 0.602906 cumulative IPC: 0.430095 (Simulation time: 0 hr 14 min 5 sec) 
Heartbeat CPU 0 instructions: 19000000 cycles: 26278072 heartbeat IPC: 0.581881 cumulative IPC: 0.442933 (Simulation time: 0 hr 14 min 46 sec) 
Heartbeat CPU 0 instructions: 20000000 cycles: 28021079 heartbeat IPC: 0.573721 cumulative IPC: 0.453266 (Simulation time: 0 hr 15 min 30 sec) 
Heartbeat CPU 0 instructions: 21000002 cycles: 29765306 heartbeat IPC: 0.573321 cumulative IPC: 0.462062 (Simulation time: 0 hr 16 min 20 sec) 
Heartbeat CPU 0 instructions: 22000000 cycles: 31474637 heartbeat IPC: 0.585023 cumulative IPC: 0.470299 (Simulation time: 0 hr 17 min 7 sec) 
Heartbeat CPU 0 instructions: 23000001 cycles: 33138408 heartbeat IPC: 0.601045 cumulative IPC: 0.478303 (Simulation time: 0 hr 17 min 56 sec) 
Heartbeat CPU 0 instructions: 24000000 cycles: 40708764 heartbeat IPC: 0.132094 cumulative IPC: 0.40288 (Simulation time: 0 hr 18 min 56 sec) 
Heartbeat CPU 0 instructions: 25000000 cycles: 42447411 heartbeat IPC: 0.57516 cumulative IPC: 0.411089 (Simulation time: 0 hr 19 min 45 sec) 
Heartbeat CPU 0 instructions: 26000002 cycles: 44179716 heartbeat IPC: 0.577267 cumulative IPC: 0.418621 (Simulation time: 0 hr 20 min 33 sec) 
Heartbeat CPU 0 instructions: 27000002 cycles: 45839602 heartbeat IPC: 0.602451 cumulative IPC: 0.426272 (Simulation time: 0 hr 21 min 23 sec) 
Heartbeat CPU 0 instructions: 28000000 cycles: 47562212 heartbeat IPC: 0.580513 cumulative IPC: 0.432658 (Simulation time: 0 hr 22 min 17 sec) 
Heartbeat CPU 0 instructions: 29000001 cycles: 49318676 heartbeat IPC: 0.569326 cumulative IPC: 0.438195 (Simulation time: 0 hr 23 min 4 sec) 
Heartbeat CPU 0 instructions: 30000001 cycles: 51058205 heartbeat IPC: 0.574868 cumulative IPC: 0.443466 (Simulation time: 0 hr 23 min 53 sec) 
Heartbeat CPU 0 instructions: 31000003 cycles: 52768444 heartbeat IPC: 0.584715 cumulative IPC: 0.448627 (Simulation time: 0 hr 24 min 42 sec) 
Heartbeat CPU 0 instructions: 32000000 cycles: 54424833 heartbeat IPC: 0.603721 cumulative IPC: 0.453928 (Simulation time: 0 hr 25 min 30 sec) 
Heartbeat CPU 0 instructions: 33000000 cycles: 56158003 heartbeat IPC: 0.576977 cumulative IPC: 0.458176 (Simulation time: 0 hr 26 min 18 sec) 
Heartbeat CPU 0 instructions: 34000001 cycles: 57899662 heartbeat IPC: 0.574166 cumulative IPC: 0.462065 (Simulation time: 0 hr 27 min 8 sec) 
Heartbeat CPU 0 instructions: 35000000 cycles: 59636387 heartbeat IPC: 0.575796 cumulative IPC: 0.465745 (Simulation time: 0 hr 27 min 59 sec) 
Heartbeat CPU 0 instructions: 36000000 cycles: 61318058 heartbeat IPC: 0.594647 cumulative IPC: 0.469661 (Simulation time: 0 hr 28 min 46 sec) 
Heartbeat CPU 0 instructions: 37000003 cycles: 68842120 heartbeat IPC: 0.132907 cumulative IPC: 0.429368 (Simulation time: 0 hr 29 min 41 sec) 
Heartbeat CPU 0 instructions: 38000001 cycles: 70579051 heartbeat IPC: 0.575727 cumulative IPC: 0.433302 (Simulation time: 0 hr 30 min 29 sec) 
Heartbeat CPU 0 instructions: 39000001 cycles: 72316694 heartbeat IPC: 0.575492 cumulative IPC: 0.437025 (Simulation time: 0 hr 31 min 16 sec) 
Heartbeat CPU 0 instructions: 40000000 cycles: 74031587 heartbeat IPC: 0.583126 cumulative IPC: 0.440706 (Simulation time: 0 hr 32 min 3 sec) 
Heartbeat CPU 0 instructions: 41000001 cycles: 75683462 heartbeat IPC: 0.605373 cumulative IPC: 0.444607 (Simulation time: 0 hr 32 min 50 sec) 
Heartbeat CPU 0 instructions: 42000002 cycles: 77415630 heartbeat IPC: 0.577312 cumulative IPC: 0.447824 (Simulation time: 0 hr 33 min 38 sec) 
Heartbeat CPU 0 instructions: 43000000 cycles: 79154268 heartbeat IPC: 0.575162 cumulative IPC: 0.450849 (Simulation time: 0 hr 34 min 26 sec) 
Heartbeat CPU 0 instructions: 44000000 cycles: 80892758 heartbeat IPC: 0.575212 cumulative IPC: 0.453734 (Simulation time: 0 hr 35 min 12 sec) 
Heartbeat CPU 0 instructions: 45000000 cycles: 82575500 heartbeat IPC: 0.594268 cumulative IPC: 0.45682 (Simulation time: 0 hr 36 min 0 sec) 
Heartbeat CPU 0 instructions: 46000003 cycles: 84256521 heartbeat IPC: 0.594878 cumulative IPC: 0.459784 (Simulation time: 0 hr 36 min 47 sec) 
Heartbeat CPU 0 instructions: 47000001 cycles: 85992590 heartbeat IPC: 0.576013 cumulative IPC: 0.462306 (Simulation time: 0 hr 37 min 33 sec) 
Heartbeat CPU 0 instructions: 48000000 cycles: 87731635 heartbeat IPC: 0.575028 cumulative IPC: 0.464703 (Simulation time: 0 hr 38 min 22 sec) 
Heartbeat CPU 0 instructions: 49000000 cycles: 89466321 heartbeat IPC: 0.576473 cumulative IPC: 0.467025 (Simulation time: 0 hr 39 min 8 sec) 
Heartbeat CPU 0 instructions: 50000001 cycles: 96910586 heartbeat IPC: 0.134332 cumulative IPC: 0.439794 (Simulation time: 0 hr 40 min 5 sec) 
Heartbeat CPU 0 instructions: 51000000 cycles: 98639125 heartbeat IPC: 0.578523 cumulative IPC: 0.442382 (Simulation time: 0 hr 40 min 53 sec) 
Heartbeat CPU 0 instructions: 52000000 cycles: 100377105 heartbeat IPC: 0.575381 cumulative IPC: 0.44483 (Simulation time: 0 hr 41 min 41 sec) 
Heartbeat CPU 0 instructions: 53000003 cycles: 102114820 heartbeat IPC: 0.57547 cumulative IPC: 0.447191 (Simulation time: 0 hr 42 min 30 sec) 
Heartbeat CPU 0 instructions: 54000000 cycles: 103800879 heartbeat IPC: 0.593097 cumulative IPC: 0.449705 (Simulation time: 0 hr 43 min 19 sec) 
Heartbeat CPU 0 instructions: 55000001 cycles: 105475982 heartbeat IPC: 0.596979 cumulative IPC: 0.452184 (Simulation time: 0 hr 44 min 5 sec) 
Heartbeat CPU 0 instructions: 56000000 cycles: 107226608 heartbeat IPC: 0.571224 cumulative IPC: 0.454242 (Simulation time: 0 hr 44 min 52 sec) 
Heartbeat CPU 0 instructions: 57000000 cycles: 108974902 heartbeat IPC: 0.571986 cumulative IPC: 0.45624 (Simulation time: 0 hr 45 min 40 sec) 
Heartbeat CPU 0 instructions: 58000001 cycles: 110707733 heartbeat IPC: 0.577091 cumulative IPC: 0.458239 (Simulation time: 0 hr 46 min 28 sec) 
Heartbeat CPU 0 instructions: 59000000 cycles: 112365830 heartbeat IPC: 0.6031 cumulative IPC: 0.460497 (Simulation time: 0 hr 47 min 16 sec) 
Heartbeat CPU 0 instructions: 60000000 cycles: 114072708 heartbeat IPC: 0.585865 cumulative IPC: 0.462476 (Simulation time: 0 hr 47 min 57 sec) 
Heartbeat CPU 0 instructions: 61000002 cycles: 115811787 heartbeat IPC: 0.575018 cumulative IPC: 0.464258 (Simulation time: 0 hr 48 min 34 sec) 
Heartbeat CPU 0 instructions: 62000002 cycles: 117551369 heartbeat IPC: 0.574851 cumulative IPC: 0.465982 (Simulation time: 0 hr 49 min 11 sec) 
Heartbeat CPU 0 instructions: 63000002 cycles: 124914583 heartbeat IPC: 0.13581 cumulative IPC: 0.445544 (Simulation time: 0 hr 49 min 54 sec) 
Heartbeat CPU 0 instructions: 64000000 cycles: 126865557 heartbeat IPC: 0.512563 cumulative IPC: 0.446626 (Simulation time: 0 hr 50 min 33 sec) 
Heartbeat CPU 0 instructions: 65000003 cycles: 128601754 heartbeat IPC: 0.575973 cumulative IPC: 0.448457 (Simulation time: 0 hr 51 min 9 sec) 
Heartbeat CPU 0 instructions: 66000001 cycles: 130341085 heartbeat IPC: 0.574933 cumulative IPC: 0.450225 (Simulation time: 0 hr 51 min 48 sec) 
Heartbeat CPU 0 instructions: 67000000 cycles: 132077021 heartbeat IPC: 0.576058 cumulative IPC: 0.451957 (Simulation time: 0 hr 52 min 25 sec) 
Heartbeat CPU 0 instructions: 68000000 cycles: 133738342 heartbeat IPC: 0.601931 cumulative IPC: 0.453907 (Simulation time: 0 hr 53 min 0 sec) 
Heartbeat CPU 0 instructions: 69000000 cycles: 135439360 heartbeat IPC: 0.587883 cumulative IPC: 0.455667 (Simulation time: 0 hr 53 min 35 sec) 
Heartbeat CPU 0 instructions: 70000001 cycles: 137179469 heartbeat IPC: 0.574677 cumulative IPC: 0.457246 (Simulation time: 0 hr 54 min 13 sec) 
Heartbeat CPU 0 instructions: 71000001 cycles: 138920828 heartbeat IPC: 0.574264 cumulative IPC: 0.458778 (Simulation time: 0 hr 54 min 54 sec) 
Heartbeat CPU 0 instructions: 72000000 cycles: 140642536 heartbeat IPC: 0.580818 cumulative IPC: 0.460338 (Simulation time: 0 hr 55 min 34 sec) 
Heartbeat CPU 0 instructions: 73000003 cycles: 142292624 heartbeat IPC: 0.60603 cumulative IPC: 0.462102 (Simulation time: 0 hr 56 min 13 sec) 
Heartbeat CPU 0 instructions: 74000002 cycles: 144024327 heartbeat IPC: 0.577466 cumulative IPC: 0.463549 (Simulation time: 0 hr 56 min 51 sec) 
Heartbeat CPU 0 instructions: 75000002 cycles: 145764505 heartbeat IPC: 0.574654 cumulative IPC: 0.464932 (Simulation time: 0 hr 57 min 27 sec) 
Heartbeat CPU 0 instructions: 76000000 cycles: 151935404 heartbeat IPC: 0.162051 cumulative IPC: 0.452128 (Simulation time: 0 hr 58 min 7 sec) 
Heartbeat CPU 0 instructions: 77000000 cycles: 155116809 heartbeat IPC: 0.314327 cumulative IPC: 0.449189 (Simulation time: 0 hr 58 min 45 sec) 
Heartbeat CPU 0 instructions: 78000002 cycles: 156812790 heartbeat IPC: 0.58963 cumulative IPC: 0.450767 (Simulation time: 0 hr 59 min 21 sec) 
Heartbeat CPU 0 instructions: 79000002 cycles: 158552943 heartbeat IPC: 0.574662 cumulative IPC: 0.45218 (Simulation time: 0 hr 59 min 55 sec) 
Heartbeat CPU 0 instructions: 80000000 cycles: 160290709 heartbeat IPC: 0.57545 cumulative IPC: 0.453568 (Simulation time: 1 hr 0 min 31 sec) 
Heartbeat CPU 0 instructions: 81000000 cycles: 162017237 heartbeat IPC: 0.579197 cumulative IPC: 0.454958 (Simulation time: 1 hr 1 min 3 sec) 
Heartbeat CPU 0 instructions: 82000003 cycles: 163663103 heartbeat IPC: 0.607585 cumulative IPC: 0.456551 (Simulation time: 1 hr 1 min 33 sec) 
Heartbeat CPU 0 instructions: 83000003 cycles: 165392567 heartbeat IPC: 0.578214 cumulative IPC: 0.457871 (Simulation time: 1 hr 2 min 2 sec) 
Heartbeat CPU 0 instructions: 84000000 cycles: 167131396 heartbeat IPC: 0.575098 cumulative IPC: 0.459136 (Simulation time: 1 hr 2 min 32 sec) 
Heartbeat CPU 0 instructions: 85000003 cycles: 168871636 heartbeat IPC: 0.574635 cumulative IPC: 0.460369 (Simulation time: 1 hr 3 min 2 sec) 
Heartbeat CPU 0 instructions: 86000000 cycles: 170566442 heartbeat IPC: 0.590036 cumulative IPC: 0.461704 (Simulation time: 1 hr 3 min 30 sec) 
Heartbeat CPU 0 instructions: 87000000 cycles: 172240697 heartbeat IPC: 0.597281 cumulative IPC: 0.463069 (Simulation time: 1 hr 3 min 57 sec) 
Heartbeat CPU 0 instructions: 88000000 cycles: 174007898 heartbeat IPC: 0.565867 cumulative IPC: 0.464151 (Simulation time: 1 hr 4 min 24 sec) 
Heartbeat CPU 0 instructions: 89000002 cycles: 179111552 heartbeat IPC: 0.195938 cumulative IPC: 0.456245 (Simulation time: 1 hr 4 min 52 sec) 
Heartbeat CPU 0 instructions: 90000002 cycles: 183366170 heartbeat IPC: 0.235039 cumulative IPC: 0.45094 (Simulation time: 1 hr 5 min 18 sec) 
Heartbeat CPU 0 instructions: 91000003 cycles: 185014449 heartbeat IPC: 0.606694 cumulative IPC: 0.452374 (Simulation time: 1 hr 5 min 42 sec) 
Heartbeat CPU 0 instructions: 92000000 cycles: 186741775 heartbeat IPC: 0.578928 cumulative IPC: 0.453583 (Simulation time: 1 hr 6 min 5 sec) 
Heartbeat CPU 0 instructions: 93000000 cycles: 188481096 heartbeat IPC: 0.574937 cumulative IPC: 0.454739 (Simulation time: 1 hr 6 min 29 sec) 
Heartbeat CPU 0 instructions: 94000003 cycles: 190221590 heartbeat IPC: 0.574551 cumulative IPC: 0.455871 (Simulation time: 1 hr 6 min 53 sec) 
Heartbeat CPU 0 instructions: 95000000 cycles: 191921169 heartbeat IPC: 0.588379 cumulative IPC: 0.457082 (Simulation time: 1 hr 7 min 17 sec) 
Heartbeat CPU 0 instructions: 96000000 cycles: 193591830 heartbeat IPC: 0.598565 cumulative IPC: 0.458342 (Simulation time: 1 hr 7 min 41 sec) 
Heartbeat CPU 0 instructions: 97000001 cycles: 195328127 heartbeat IPC: 0.575939 cumulative IPC: 0.45942 (Simulation time: 1 hr 8 min 5 sec) 
Heartbeat CPU 0 instructions: 98000000 cycles: 197069646 heartbeat IPC: 0.574211 cumulative IPC: 0.460466 (Simulation time: 1 hr 8 min 29 sec) 
Heartbeat CPU 0 instructions: 99000001 cycles: 198808257 heartbeat IPC: 0.575172 cumulative IPC: 0.4615 (Simulation time: 1 hr 8 min 51 sec) 
Heartbeat CPU 0 instructions: 100000000 cycles: 200479531 heartbeat IPC: 0.598345 cumulative IPC: 0.462676 (Simulation time: 1 hr 9 min 10 sec) 
Heartbeat CPU 0 instructions: 101000000 cycles: 202181712 heartbeat IPC: 0.587482 cumulative IPC: 0.463759 (Simulation time: 1 hr 9 min 29 sec) 
Heartbeat CPU 0 instructions: 102000002 cycles: 206199469 heartbeat IPC: 0.248896 cumulative IPC: 0.459448 (Simulation time: 1 hr 9 min 47 sec) 
Heartbeat CPU 0 instructions: 103000000 cycles: 211546127 heartbeat IPC: 0.187032 cumulative IPC: 0.452363 (Simulation time: 1 hr 10 min 4 sec) 
Heartbeat CPU 0 instructions: 104000000 cycles: 213250032 heartbeat IPC: 0.586887 cumulative IPC: 0.453469 (Simulation time: 1 hr 10 min 19 sec) 
Heartbeat CPU 0 instructions: 105000000 cycles: 214913140 heartbeat IPC: 0.601284 cumulative IPC: 0.454645 (Simulation time: 1 hr 10 min 33 sec) 
Heartbeat CPU 0 instructions: 106000002 cycles: 216646945 heartbeat IPC: 0.576767 cumulative IPC: 0.45565 (Simulation time: 1 hr 10 min 47 sec) 
Heartbeat CPU 0 instructions: 107000001 cycles: 218387463 heartbeat IPC: 0.574541 cumulative IPC: 0.456624 (Simulation time: 1 hr 11 min 1 sec) 
Heartbeat CPU 0 instructions: 108000000 cycles: 220123171 heartbeat IPC: 0.576133 cumulative IPC: 0.457593 (Simulation time: 1 hr 11 min 15 sec) 
Heartbeat CPU 0 instructions: 109000001 cycles: 221796967 heartbeat IPC: 0.597445 cumulative IPC: 0.458677 (Simulation time: 1 hr 11 min 29 sec) 
Heartbeat CPU 0 instructions: 110000003 cycles: 223491202 heartbeat IPC: 0.590238 cumulative IPC: 0.459702 (Simulation time: 1 hr 11 min 42 sec) 
Finished CPU 0 instructions: 100000000 cycles: 217532235 cummulative IPC: 0.459702 (Simulation time: 1 hr 11 min 42 sec) 

ChampSim completed all CPUs

Region of Interest Statistics

CPU 0 cummulative IPC: 0.459702 instructions: 100000000 cycles: 217532235
LLC TOTAL     ACCESS:    1164212  HIT:     331962  MISS:     832250
LLC LOAD      ACCESS:      21903  HIT:       2260  MISS:      19643
LLC RFO       ACCESS:     264086  HIT:      75547  MISS:     188539
LLC PREFETCH  ACCESS:     612116  HIT:     138469  MISS:     473647
LLC WRITEBACK ACCESS:     266107  HIT:     115686  MISS:     150421
Insertion Distribution: 
	LOAD 0 0 10504 10330 
	RFO 14329 0 19966 166728 
	PREF 0 42633 66368 414693 
	WRITEBACK 0 0 0 152813 
Total Prefetch Downgrades: 48552
