
*** ChampSim Multicore Out-of-Order Simulator ***

Warmup Instructions: 10000000
Simulation Instructions: 100000000
Configuration: 2
Number of CPUs: 1
LLC sets: 2048
LLC ways: 16
Off-chip DRAM Channels: 1 Width: 64-bit Data Rate: 1600 MT/s

CPU 0 runs /datasets/cs240c-wi22-a00-public/data/Assignment2-gz/astar_313B.trace.gz
CPU 0 L1D next line prefetcher
CPU 0 L2C IP-based stride prefetcher
Initialize SRRIP state
Heartbeat CPU 0 instructions: 1000001 cycles: 675694 heartbeat IPC: 1.47996 cumulative IPC: 1.47996 (Simulation time: 0 hr 1 min 6 sec) 
Heartbeat CPU 0 instructions: 2000003 cycles: 1263029 heartbeat IPC: 1.70261 cumulative IPC: 1.5835 (Simulation time: 0 hr 2 min 5 sec) 
Heartbeat CPU 0 instructions: 3000003 cycles: 1937131 heartbeat IPC: 1.48346 cumulative IPC: 1.54868 (Simulation time: 0 hr 2 min 58 sec) 
Heartbeat CPU 0 instructions: 4000000 cycles: 2610626 heartbeat IPC: 1.48479 cumulative IPC: 1.5322 (Simulation time: 0 hr 3 min 54 sec) 
Heartbeat CPU 0 instructions: 5000002 cycles: 3285170 heartbeat IPC: 1.48249 cumulative IPC: 1.52199 (Simulation time: 0 hr 4 min 48 sec) 
Heartbeat CPU 0 instructions: 6000001 cycles: 3871293 heartbeat IPC: 1.70612 cumulative IPC: 1.54987 (Simulation time: 0 hr 5 min 40 sec) 
Heartbeat CPU 0 instructions: 7000001 cycles: 4440016 heartbeat IPC: 1.75833 cumulative IPC: 1.57657 (Simulation time: 0 hr 6 min 28 sec) 
Heartbeat CPU 0 instructions: 8000000 cycles: 4991774 heartbeat IPC: 1.81239 cumulative IPC: 1.60264 (Simulation time: 0 hr 7 min 15 sec) 
Heartbeat CPU 0 instructions: 9000001 cycles: 5553342 heartbeat IPC: 1.78073 cumulative IPC: 1.62065 (Simulation time: 0 hr 7 min 59 sec) 
Heartbeat CPU 0 instructions: 10000002 cycles: 6228336 heartbeat IPC: 1.4815 cumulative IPC: 1.60557 (Simulation time: 0 hr 8 min 43 sec) 

Warmup complete CPU 0 instructions: 10000002 cycles: 6228336 (Simulation time: 0 hr 8 min 43 sec) 

Heartbeat CPU 0 instructions: 11000000 cycles: 12644023 heartbeat IPC: 0.155868 cumulative IPC: 0.155868 (Simulation time: 0 hr 9 min 30 sec) 
Heartbeat CPU 0 instructions: 12000000 cycles: 19340024 heartbeat IPC: 0.149343 cumulative IPC: 0.152536 (Simulation time: 0 hr 10 min 19 sec) 
Heartbeat CPU 0 instructions: 13000003 cycles: 27785803 heartbeat IPC: 0.118403 cumulative IPC: 0.139163 (Simulation time: 0 hr 11 min 13 sec) 
Heartbeat CPU 0 instructions: 14000002 cycles: 34216534 heartbeat IPC: 0.155503 cumulative IPC: 0.142917 (Simulation time: 0 hr 12 min 1 sec) 
Heartbeat CPU 0 instructions: 15000000 cycles: 41044825 heartbeat IPC: 0.146449 cumulative IPC: 0.14361 (Simulation time: 0 hr 12 min 41 sec) 
Heartbeat CPU 0 instructions: 16000000 cycles: 47765417 heartbeat IPC: 0.148796 cumulative IPC: 0.144449 (Simulation time: 0 hr 13 min 24 sec) 
Heartbeat CPU 0 instructions: 17000001 cycles: 54296177 heartbeat IPC: 0.153122 cumulative IPC: 0.145627 (Simulation time: 0 hr 14 min 9 sec) 
Heartbeat CPU 0 instructions: 18000000 cycles: 63451766 heartbeat IPC: 0.109223 cumulative IPC: 0.139803 (Simulation time: 0 hr 15 min 9 sec) 
Heartbeat CPU 0 instructions: 19000000 cycles: 69855165 heartbeat IPC: 0.156167 cumulative IPC: 0.14145 (Simulation time: 0 hr 15 min 58 sec) 
Heartbeat CPU 0 instructions: 20000000 cycles: 76869129 heartbeat IPC: 0.142573 cumulative IPC: 0.141561 (Simulation time: 0 hr 16 min 49 sec) 
Heartbeat CPU 0 instructions: 21000003 cycles: 85914881 heartbeat IPC: 0.110549 cumulative IPC: 0.138041 (Simulation time: 0 hr 17 min 43 sec) 
Heartbeat CPU 0 instructions: 22000002 cycles: 93360033 heartbeat IPC: 0.134315 cumulative IPC: 0.137723 (Simulation time: 0 hr 18 min 41 sec) 
Heartbeat CPU 0 instructions: 23000002 cycles: 99644702 heartbeat IPC: 0.159117 cumulative IPC: 0.139162 (Simulation time: 0 hr 19 min 32 sec) 
Heartbeat CPU 0 instructions: 24000000 cycles: 106484311 heartbeat IPC: 0.146207 cumulative IPC: 0.139643 (Simulation time: 0 hr 20 min 25 sec) 
Heartbeat CPU 0 instructions: 25000001 cycles: 114906955 heartbeat IPC: 0.118728 cumulative IPC: 0.138022 (Simulation time: 0 hr 21 min 25 sec) 
Heartbeat CPU 0 instructions: 26000002 cycles: 121725801 heartbeat IPC: 0.146653 cumulative IPC: 0.138531 (Simulation time: 0 hr 22 min 16 sec) 
Heartbeat CPU 0 instructions: 27000003 cycles: 131007765 heartbeat IPC: 0.107736 cumulative IPC: 0.13624 (Simulation time: 0 hr 23 min 13 sec) 
Heartbeat CPU 0 instructions: 28000000 cycles: 136755525 heartbeat IPC: 0.17398 cumulative IPC: 0.137902 (Simulation time: 0 hr 24 min 1 sec) 
Heartbeat CPU 0 instructions: 29000001 cycles: 145298765 heartbeat IPC: 0.117052 cumulative IPC: 0.136621 (Simulation time: 0 hr 25 min 0 sec) 
Heartbeat CPU 0 instructions: 30000001 cycles: 151255253 heartbeat IPC: 0.167884 cumulative IPC: 0.137905 (Simulation time: 0 hr 25 min 50 sec) 
Heartbeat CPU 0 instructions: 31000002 cycles: 157441032 heartbeat IPC: 0.161661 cumulative IPC: 0.138877 (Simulation time: 0 hr 26 min 40 sec) 
Heartbeat CPU 0 instructions: 32000000 cycles: 163557217 heartbeat IPC: 0.1635 cumulative IPC: 0.139834 (Simulation time: 0 hr 27 min 29 sec) 
Heartbeat CPU 0 instructions: 33000000 cycles: 169635274 heartbeat IPC: 0.164526 cumulative IPC: 0.140753 (Simulation time: 0 hr 28 min 18 sec) 
Heartbeat CPU 0 instructions: 34000000 cycles: 178530871 heartbeat IPC: 0.112415 cumulative IPC: 0.13929 (Simulation time: 0 hr 29 min 20 sec) 
Heartbeat CPU 0 instructions: 35000000 cycles: 184641835 heartbeat IPC: 0.16364 cumulative IPC: 0.140124 (Simulation time: 0 hr 30 min 10 sec) 
Heartbeat CPU 0 instructions: 36000000 cycles: 191185292 heartbeat IPC: 0.152824 cumulative IPC: 0.140573 (Simulation time: 0 hr 31 min 2 sec) 
Heartbeat CPU 0 instructions: 37000002 cycles: 200002435 heartbeat IPC: 0.113416 cumulative IPC: 0.139338 (Simulation time: 0 hr 32 min 0 sec) 
Heartbeat CPU 0 instructions: 38000000 cycles: 205813412 heartbeat IPC: 0.172088 cumulative IPC: 0.140291 (Simulation time: 0 hr 32 min 50 sec) 
Heartbeat CPU 0 instructions: 39000001 cycles: 214609676 heartbeat IPC: 0.113685 cumulative IPC: 0.139168 (Simulation time: 0 hr 33 min 49 sec) 
Heartbeat CPU 0 instructions: 40000000 cycles: 223473502 heartbeat IPC: 0.112818 cumulative IPC: 0.138093 (Simulation time: 0 hr 34 min 49 sec) 
Heartbeat CPU 0 instructions: 41000001 cycles: 229620695 heartbeat IPC: 0.162676 cumulative IPC: 0.138769 (Simulation time: 0 hr 35 min 38 sec) 
Heartbeat CPU 0 instructions: 42000003 cycles: 236379487 heartbeat IPC: 0.147956 cumulative IPC: 0.139039 (Simulation time: 0 hr 36 min 29 sec) 
Heartbeat CPU 0 instructions: 43000000 cycles: 245558586 heartbeat IPC: 0.108943 cumulative IPC: 0.137885 (Simulation time: 0 hr 37 min 26 sec) 
Heartbeat CPU 0 instructions: 44000000 cycles: 251524948 heartbeat IPC: 0.167606 cumulative IPC: 0.138608 (Simulation time: 0 hr 38 min 17 sec) 
Heartbeat CPU 0 instructions: 45000000 cycles: 257754372 heartbeat IPC: 0.160528 cumulative IPC: 0.139151 (Simulation time: 0 hr 39 min 5 sec) 
Heartbeat CPU 0 instructions: 46000002 cycles: 264160879 heartbeat IPC: 0.156092 cumulative IPC: 0.139571 (Simulation time: 0 hr 39 min 54 sec) 
Heartbeat CPU 0 instructions: 47000000 cycles: 270438238 heartbeat IPC: 0.159302 cumulative IPC: 0.14004 (Simulation time: 0 hr 40 min 43 sec) 
Heartbeat CPU 0 instructions: 48000000 cycles: 278863756 heartbeat IPC: 0.118687 cumulative IPC: 0.13938 (Simulation time: 0 hr 41 min 40 sec) 
Heartbeat CPU 0 instructions: 49000000 cycles: 284683088 heartbeat IPC: 0.171841 cumulative IPC: 0.140059 (Simulation time: 0 hr 42 min 31 sec) 
Heartbeat CPU 0 instructions: 50000000 cycles: 290879232 heartbeat IPC: 0.161391 cumulative IPC: 0.140523 (Simulation time: 0 hr 43 min 21 sec) 
Heartbeat CPU 0 instructions: 51000000 cycles: 297744183 heartbeat IPC: 0.145667 cumulative IPC: 0.140644 (Simulation time: 0 hr 44 min 16 sec) 
Heartbeat CPU 0 instructions: 52000000 cycles: 306065253 heartbeat IPC: 0.120177 cumulative IPC: 0.140076 (Simulation time: 0 hr 45 min 16 sec) 
Heartbeat CPU 0 instructions: 53000000 cycles: 312875738 heartbeat IPC: 0.146832 cumulative IPC: 0.140226 (Simulation time: 0 hr 46 min 7 sec) 
Heartbeat CPU 0 instructions: 54000000 cycles: 320628865 heartbeat IPC: 0.12898 cumulative IPC: 0.139949 (Simulation time: 0 hr 47 min 0 sec) 
Heartbeat CPU 0 instructions: 55000001 cycles: 328855423 heartbeat IPC: 0.121558 cumulative IPC: 0.13948 (Simulation time: 0 hr 47 min 49 sec) 
Heartbeat CPU 0 instructions: 56000000 cycles: 338756453 heartbeat IPC: 0.100999 cumulative IPC: 0.138334 (Simulation time: 0 hr 48 min 40 sec) 
Heartbeat CPU 0 instructions: 57000000 cycles: 344980096 heartbeat IPC: 0.160678 cumulative IPC: 0.138745 (Simulation time: 0 hr 49 min 23 sec) 
Heartbeat CPU 0 instructions: 58000001 cycles: 351556322 heartbeat IPC: 0.152063 cumulative IPC: 0.138998 (Simulation time: 0 hr 50 min 7 sec) 
Heartbeat CPU 0 instructions: 59000002 cycles: 360020844 heartbeat IPC: 0.11814 cumulative IPC: 0.138499 (Simulation time: 0 hr 50 min 51 sec) 
Heartbeat CPU 0 instructions: 60000000 cycles: 367410435 heartbeat IPC: 0.135325 cumulative IPC: 0.138434 (Simulation time: 0 hr 51 min 39 sec) 
Heartbeat CPU 0 instructions: 61000001 cycles: 373763294 heartbeat IPC: 0.15741 cumulative IPC: 0.138762 (Simulation time: 0 hr 52 min 20 sec) 
Heartbeat CPU 0 instructions: 62000001 cycles: 380550948 heartbeat IPC: 0.147326 cumulative IPC: 0.138918 (Simulation time: 0 hr 53 min 2 sec) 
Heartbeat CPU 0 instructions: 63000000 cycles: 387597491 heartbeat IPC: 0.141913 cumulative IPC: 0.138973 (Simulation time: 0 hr 53 min 44 sec) 
Heartbeat CPU 0 instructions: 64000000 cycles: 396595807 heartbeat IPC: 0.111132 cumulative IPC: 0.138331 (Simulation time: 0 hr 54 min 28 sec) 
Heartbeat CPU 0 instructions: 65000000 cycles: 403360866 heartbeat IPC: 0.147818 cumulative IPC: 0.138493 (Simulation time: 0 hr 55 min 14 sec) 
Heartbeat CPU 0 instructions: 66000001 cycles: 410167348 heartbeat IPC: 0.146919 cumulative IPC: 0.138635 (Simulation time: 0 hr 55 min 57 sec) 
Heartbeat CPU 0 instructions: 67000000 cycles: 417547088 heartbeat IPC: 0.135506 cumulative IPC: 0.138579 (Simulation time: 0 hr 56 min 38 sec) 
Heartbeat CPU 0 instructions: 68000000 cycles: 425116985 heartbeat IPC: 0.132102 cumulative IPC: 0.138462 (Simulation time: 0 hr 57 min 22 sec) 
Heartbeat CPU 0 instructions: 69000000 cycles: 437100093 heartbeat IPC: 0.0834508 cumulative IPC: 0.136932 (Simulation time: 0 hr 58 min 13 sec) 
Heartbeat CPU 0 instructions: 70000000 cycles: 443722154 heartbeat IPC: 0.15101 cumulative IPC: 0.137145 (Simulation time: 0 hr 58 min 49 sec) 
Heartbeat CPU 0 instructions: 71000002 cycles: 450587387 heartbeat IPC: 0.145662 cumulative IPC: 0.137276 (Simulation time: 0 hr 59 min 28 sec) 
Heartbeat CPU 0 instructions: 72000000 cycles: 457863529 heartbeat IPC: 0.137435 cumulative IPC: 0.137279 (Simulation time: 1 hr 0 min 4 sec) 
Heartbeat CPU 0 instructions: 73000003 cycles: 465179631 heartbeat IPC: 0.136685 cumulative IPC: 0.137269 (Simulation time: 1 hr 0 min 40 sec) 
Heartbeat CPU 0 instructions: 74000003 cycles: 474187007 heartbeat IPC: 0.11102 cumulative IPC: 0.136764 (Simulation time: 1 hr 1 min 20 sec) 
Heartbeat CPU 0 instructions: 75000000 cycles: 480701296 heartbeat IPC: 0.153508 cumulative IPC: 0.136994 (Simulation time: 1 hr 1 min 56 sec) 
Heartbeat CPU 0 instructions: 76000000 cycles: 486777084 heartbeat IPC: 0.164588 cumulative IPC: 0.137343 (Simulation time: 1 hr 2 min 31 sec) 
Heartbeat CPU 0 instructions: 77000000 cycles: 492955813 heartbeat IPC: 0.161846 cumulative IPC: 0.137654 (Simulation time: 1 hr 3 min 5 sec) 
Heartbeat CPU 0 instructions: 78000001 cycles: 499030141 heartbeat IPC: 0.164627 cumulative IPC: 0.137987 (Simulation time: 1 hr 3 min 35 sec) 
Heartbeat CPU 0 instructions: 79000000 cycles: 507960063 heartbeat IPC: 0.111983 cumulative IPC: 0.137524 (Simulation time: 1 hr 4 min 8 sec) 
Heartbeat CPU 0 instructions: 80000000 cycles: 514134717 heartbeat IPC: 0.161952 cumulative IPC: 0.137821 (Simulation time: 1 hr 4 min 36 sec) 
Heartbeat CPU 0 instructions: 81000001 cycles: 521524781 heartbeat IPC: 0.135317 cumulative IPC: 0.137785 (Simulation time: 1 hr 5 min 7 sec) 
Heartbeat CPU 0 instructions: 82000001 cycles: 528401356 heartbeat IPC: 0.145421 cumulative IPC: 0.137885 (Simulation time: 1 hr 5 min 35 sec) 
Heartbeat CPU 0 instructions: 83000002 cycles: 534006594 heartbeat IPC: 0.178405 cumulative IPC: 0.138316 (Simulation time: 1 hr 6 min 0 sec) 
Heartbeat CPU 0 instructions: 84000000 cycles: 540214316 heartbeat IPC: 0.161089 cumulative IPC: 0.13858 (Simulation time: 1 hr 6 min 25 sec) 
Heartbeat CPU 0 instructions: 85000000 cycles: 547036355 heartbeat IPC: 0.146584 cumulative IPC: 0.138681 (Simulation time: 1 hr 6 min 49 sec) 
Heartbeat CPU 0 instructions: 86000001 cycles: 555027168 heartbeat IPC: 0.125144 cumulative IPC: 0.138484 (Simulation time: 1 hr 7 min 16 sec) 
Heartbeat CPU 0 instructions: 87000000 cycles: 560827022 heartbeat IPC: 0.172418 cumulative IPC: 0.138839 (Simulation time: 1 hr 7 min 38 sec) 
Heartbeat CPU 0 instructions: 88000000 cycles: 567054944 heartbeat IPC: 0.160567 cumulative IPC: 0.13908 (Simulation time: 1 hr 8 min 3 sec) 
Heartbeat CPU 0 instructions: 89000002 cycles: 573240373 heartbeat IPC: 0.161671 cumulative IPC: 0.139327 (Simulation time: 1 hr 8 min 29 sec) 
Heartbeat CPU 0 instructions: 90000002 cycles: 579295216 heartbeat IPC: 0.165157 cumulative IPC: 0.1396 (Simulation time: 1 hr 8 min 52 sec) 
Heartbeat CPU 0 instructions: 91000001 cycles: 588143269 heartbeat IPC: 0.113019 cumulative IPC: 0.139196 (Simulation time: 1 hr 9 min 15 sec) 
Heartbeat CPU 0 instructions: 92000000 cycles: 594756004 heartbeat IPC: 0.151223 cumulative IPC: 0.139331 (Simulation time: 1 hr 9 min 34 sec) 
Heartbeat CPU 0 instructions: 93000003 cycles: 602108450 heartbeat IPC: 0.13601 cumulative IPC: 0.13929 (Simulation time: 1 hr 9 min 51 sec) 
Heartbeat CPU 0 instructions: 94000000 cycles: 609929966 heartbeat IPC: 0.127852 cumulative IPC: 0.139142 (Simulation time: 1 hr 10 min 6 sec) 
Heartbeat CPU 0 instructions: 95000000 cycles: 616607507 heartbeat IPC: 0.149756 cumulative IPC: 0.139258 (Simulation time: 1 hr 10 min 22 sec) 
Heartbeat CPU 0 instructions: 96000000 cycles: 625718195 heartbeat IPC: 0.109761 cumulative IPC: 0.138824 (Simulation time: 1 hr 10 min 37 sec) 
Heartbeat CPU 0 instructions: 97000000 cycles: 632599550 heartbeat IPC: 0.14532 cumulative IPC: 0.138895 (Simulation time: 1 hr 10 min 52 sec) 
Heartbeat CPU 0 instructions: 98000003 cycles: 640220056 heartbeat IPC: 0.131225 cumulative IPC: 0.138803 (Simulation time: 1 hr 11 min 5 sec) 
Heartbeat CPU 0 instructions: 99000001 cycles: 648184319 heartbeat IPC: 0.125561 cumulative IPC: 0.138639 (Simulation time: 1 hr 11 min 18 sec) 
Heartbeat CPU 0 instructions: 100000000 cycles: 655654474 heartbeat IPC: 0.133866 cumulative IPC: 0.138584 (Simulation time: 1 hr 11 min 32 sec) 
Heartbeat CPU 0 instructions: 101000000 cycles: 664594179 heartbeat IPC: 0.111861 cumulative IPC: 0.138221 (Simulation time: 1 hr 11 min 47 sec) 
Heartbeat CPU 0 instructions: 102000001 cycles: 670300599 heartbeat IPC: 0.175241 cumulative IPC: 0.138539 (Simulation time: 1 hr 11 min 59 sec) 
Heartbeat CPU 0 instructions: 103000000 cycles: 676642517 heartbeat IPC: 0.157681 cumulative IPC: 0.13872 (Simulation time: 1 hr 12 min 10 sec) 
Heartbeat CPU 0 instructions: 104000000 cycles: 683012207 heartbeat IPC: 0.156994 cumulative IPC: 0.138892 (Simulation time: 1 hr 12 min 20 sec) 
Heartbeat CPU 0 instructions: 105000000 cycles: 689126268 heartbeat IPC: 0.163557 cumulative IPC: 0.139113 (Simulation time: 1 hr 12 min 30 sec) 
Heartbeat CPU 0 instructions: 106000000 cycles: 698149423 heartbeat IPC: 0.110826 cumulative IPC: 0.138744 (Simulation time: 1 hr 12 min 41 sec) 
Heartbeat CPU 0 instructions: 107000002 cycles: 704863558 heartbeat IPC: 0.14894 cumulative IPC: 0.138842 (Simulation time: 1 hr 12 min 50 sec) 
Heartbeat CPU 0 instructions: 108000000 cycles: 714168272 heartbeat IPC: 0.107472 cumulative IPC: 0.13843 (Simulation time: 1 hr 12 min 59 sec) 
Heartbeat CPU 0 instructions: 109000003 cycles: 720819895 heartbeat IPC: 0.15034 cumulative IPC: 0.138541 (Simulation time: 1 hr 13 min 8 sec) 
Heartbeat CPU 0 instructions: 110000003 cycles: 727345699 heartbeat IPC: 0.153238 cumulative IPC: 0.138674 (Simulation time: 1 hr 13 min 15 sec) 
Finished CPU 0 instructions: 100000001 cycles: 721117363 cummulative IPC: 0.138674 (Simulation time: 1 hr 13 min 15 sec) 

ChampSim completed all CPUs

Region of Interest Statistics

CPU 0 cummulative IPC: 0.138674 instructions: 100000001 cycles: 721117363
LLC TOTAL     ACCESS:    8752642  HIT:    2674761  MISS:    6077881
LLC LOAD      ACCESS:    1888637  HIT:     504324  MISS:    1384313
LLC RFO       ACCESS:    1828657  HIT:     434402  MISS:    1394255
LLC PREFETCH  ACCESS:    2272515  HIT:     163736  MISS:    2108779
LLC WRITEBACK ACCESS:    2762833  HIT:    1572299  MISS:    1190534
Insertion Distribution: 
	LOAD 446073 0 325725 719319 
	RFO 245375 0 114014 1299406 
	PREF 0 107908 189569 2031874 
	WRITEBACK 0 0 0 1438852 
Total Prefetch Downgrades: 92885
