
*** ChampSim Multicore Out-of-Order Simulator ***

Warmup Instructions: 10000000
Simulation Instructions: 100000000
Configuration: 2
Number of CPUs: 1
LLC sets: 2048
LLC ways: 16
Off-chip DRAM Channels: 1 Width: 64-bit Data Rate: 1600 MT/s

CPU 0 runs /datasets/cs240c-wi22-a00-public/data/Assignment2-gz/soplex_217B.trace.gz
CPU 0 L1D next line prefetcher
CPU 0 L2C IP-based stride prefetcher
Initialize SRRIP state
Heartbeat CPU 0 instructions: 1000002 cycles: 441470 heartbeat IPC: 2.26516 cumulative IPC: 2.26516 (Simulation time: 0 hr 0 min 41 sec) 
Heartbeat CPU 0 instructions: 2000003 cycles: 800554 heartbeat IPC: 2.78487 cumulative IPC: 2.49827 (Simulation time: 0 hr 1 min 21 sec) 
Heartbeat CPU 0 instructions: 3000002 cycles: 1245567 heartbeat IPC: 2.24712 cumulative IPC: 2.40854 (Simulation time: 0 hr 2 min 0 sec) 
Heartbeat CPU 0 instructions: 4000000 cycles: 1673549 heartbeat IPC: 2.33654 cumulative IPC: 2.39013 (Simulation time: 0 hr 2 min 41 sec) 
Heartbeat CPU 0 instructions: 5000001 cycles: 2057596 heartbeat IPC: 2.60385 cumulative IPC: 2.43002 (Simulation time: 0 hr 3 min 13 sec) 
Heartbeat CPU 0 instructions: 6000000 cycles: 2432126 heartbeat IPC: 2.67001 cumulative IPC: 2.46698 (Simulation time: 0 hr 3 min 45 sec) 
Heartbeat CPU 0 instructions: 7000003 cycles: 2962175 heartbeat IPC: 1.88662 cumulative IPC: 2.36313 (Simulation time: 0 hr 4 min 20 sec) 
Heartbeat CPU 0 instructions: 8000000 cycles: 3409949 heartbeat IPC: 2.23326 cumulative IPC: 2.34608 (Simulation time: 0 hr 5 min 2 sec) 
Heartbeat CPU 0 instructions: 9000001 cycles: 3834347 heartbeat IPC: 2.35628 cumulative IPC: 2.34721 (Simulation time: 0 hr 5 min 39 sec) 
Heartbeat CPU 0 instructions: 10000000 cycles: 4246672 heartbeat IPC: 2.42527 cumulative IPC: 2.35479 (Simulation time: 0 hr 6 min 15 sec) 

Warmup complete CPU 0 instructions: 10000004 cycles: 4246673 (Simulation time: 0 hr 6 min 15 sec) 

Heartbeat CPU 0 instructions: 11000002 cycles: 8053825 heartbeat IPC: 0.262664 cumulative IPC: 0.262663 (Simulation time: 0 hr 7 min 11 sec) 
Heartbeat CPU 0 instructions: 12000000 cycles: 10582174 heartbeat IPC: 0.395514 cumulative IPC: 0.315681 (Simulation time: 0 hr 7 min 50 sec) 
Heartbeat CPU 0 instructions: 13000000 cycles: 11901076 heartbeat IPC: 0.758206 cumulative IPC: 0.391931 (Simulation time: 0 hr 8 min 22 sec) 
Heartbeat CPU 0 instructions: 14000000 cycles: 14576175 heartbeat IPC: 0.373818 cumulative IPC: 0.38724 (Simulation time: 0 hr 9 min 7 sec) 
Heartbeat CPU 0 instructions: 15000000 cycles: 17272403 heartbeat IPC: 0.370889 cumulative IPC: 0.383855 (Simulation time: 0 hr 9 min 55 sec) 
Heartbeat CPU 0 instructions: 16000000 cycles: 20906011 heartbeat IPC: 0.275209 cumulative IPC: 0.360158 (Simulation time: 0 hr 10 min 56 sec) 
Heartbeat CPU 0 instructions: 17000002 cycles: 23107971 heartbeat IPC: 0.454142 cumulative IPC: 0.37113 (Simulation time: 0 hr 11 min 32 sec) 
Heartbeat CPU 0 instructions: 18000002 cycles: 25643696 heartbeat IPC: 0.394365 cumulative IPC: 0.373884 (Simulation time: 0 hr 12 min 8 sec) 
Heartbeat CPU 0 instructions: 19000000 cycles: 29044266 heartbeat IPC: 0.294068 cumulative IPC: 0.362938 (Simulation time: 0 hr 12 min 51 sec) 
Heartbeat CPU 0 instructions: 20000000 cycles: 30354400 heartbeat IPC: 0.763281 cumulative IPC: 0.383028 (Simulation time: 0 hr 13 min 15 sec) 
Heartbeat CPU 0 instructions: 21000000 cycles: 31740970 heartbeat IPC: 0.721204 cumulative IPC: 0.400083 (Simulation time: 0 hr 13 min 41 sec) 
Heartbeat CPU 0 instructions: 22000001 cycles: 34948868 heartbeat IPC: 0.311731 cumulative IPC: 0.390851 (Simulation time: 0 hr 14 min 25 sec) 
Heartbeat CPU 0 instructions: 23000003 cycles: 38223370 heartbeat IPC: 0.305391 cumulative IPC: 0.382615 (Simulation time: 0 hr 15 min 14 sec) 
Heartbeat CPU 0 instructions: 24000000 cycles: 41572793 heartbeat IPC: 0.298558 cumulative IPC: 0.375072 (Simulation time: 0 hr 16 min 8 sec) 
Heartbeat CPU 0 instructions: 25000001 cycles: 43011733 heartbeat IPC: 0.694957 cumulative IPC: 0.386946 (Simulation time: 0 hr 16 min 50 sec) 
Heartbeat CPU 0 instructions: 26000003 cycles: 46761690 heartbeat IPC: 0.26667 cumulative IPC: 0.376338 (Simulation time: 0 hr 17 min 43 sec) 
Heartbeat CPU 0 instructions: 27000002 cycles: 49105215 heartbeat IPC: 0.426707 cumulative IPC: 0.378969 (Simulation time: 0 hr 18 min 23 sec) 
Heartbeat CPU 0 instructions: 28000000 cycles: 50386782 heartbeat IPC: 0.780293 cumulative IPC: 0.390116 (Simulation time: 0 hr 18 min 51 sec) 
Heartbeat CPU 0 instructions: 29000002 cycles: 53052465 heartbeat IPC: 0.375139 cumulative IPC: 0.389298 (Simulation time: 0 hr 19 min 29 sec) 
Heartbeat CPU 0 instructions: 30000002 cycles: 55829238 heartbeat IPC: 0.36013 cumulative IPC: 0.387728 (Simulation time: 0 hr 20 min 16 sec) 
Heartbeat CPU 0 instructions: 31000000 cycles: 58981322 heartbeat IPC: 0.31725 cumulative IPC: 0.383669 (Simulation time: 0 hr 21 min 7 sec) 
Heartbeat CPU 0 instructions: 32000000 cycles: 60738781 heartbeat IPC: 0.569003 cumulative IPC: 0.389435 (Simulation time: 0 hr 21 min 48 sec) 
Heartbeat CPU 0 instructions: 33000001 cycles: 64202810 heartbeat IPC: 0.288681 cumulative IPC: 0.383614 (Simulation time: 0 hr 22 min 42 sec) 
Heartbeat CPU 0 instructions: 34000000 cycles: 66933637 heartbeat IPC: 0.366189 cumulative IPC: 0.382855 (Simulation time: 0 hr 23 min 22 sec) 
Heartbeat CPU 0 instructions: 35000002 cycles: 68236512 heartbeat IPC: 0.767535 cumulative IPC: 0.390687 (Simulation time: 0 hr 23 min 50 sec) 
Heartbeat CPU 0 instructions: 36000000 cycles: 70428407 heartbeat IPC: 0.456225 cumulative IPC: 0.392858 (Simulation time: 0 hr 24 min 25 sec) 
Heartbeat CPU 0 instructions: 37000002 cycles: 73090307 heartbeat IPC: 0.375672 cumulative IPC: 0.392193 (Simulation time: 0 hr 25 min 11 sec) 
Heartbeat CPU 0 instructions: 38000000 cycles: 76479953 heartbeat IPC: 0.295015 cumulative IPC: 0.387633 (Simulation time: 0 hr 26 min 1 sec) 
Heartbeat CPU 0 instructions: 39000001 cycles: 78520908 heartbeat IPC: 0.489967 cumulative IPC: 0.390445 (Simulation time: 0 hr 26 min 41 sec) 
Heartbeat CPU 0 instructions: 40000000 cycles: 81639902 heartbeat IPC: 0.320616 cumulative IPC: 0.387631 (Simulation time: 0 hr 27 min 28 sec) 
Heartbeat CPU 0 instructions: 41000000 cycles: 84633491 heartbeat IPC: 0.334047 cumulative IPC: 0.385635 (Simulation time: 0 hr 28 min 10 sec) 
Heartbeat CPU 0 instructions: 42000002 cycles: 85956502 heartbeat IPC: 0.755853 cumulative IPC: 0.39163 (Simulation time: 0 hr 28 min 38 sec) 
Heartbeat CPU 0 instructions: 43000001 cycles: 87724357 heartbeat IPC: 0.565657 cumulative IPC: 0.395315 (Simulation time: 0 hr 29 min 12 sec) 
Heartbeat CPU 0 instructions: 44000000 cycles: 90552610 heartbeat IPC: 0.353575 cumulative IPC: 0.393947 (Simulation time: 0 hr 29 min 55 sec) 
Heartbeat CPU 0 instructions: 45000003 cycles: 94058697 heartbeat IPC: 0.285219 cumulative IPC: 0.389703 (Simulation time: 0 hr 30 min 49 sec) 
Heartbeat CPU 0 instructions: 46000000 cycles: 97033369 heartbeat IPC: 0.33617 cumulative IPC: 0.387987 (Simulation time: 0 hr 31 min 40 sec) 
Heartbeat CPU 0 instructions: 47000001 cycles: 98641143 heartbeat IPC: 0.621979 cumulative IPC: 0.391972 (Simulation time: 0 hr 32 min 21 sec) 
Heartbeat CPU 0 instructions: 48000000 cycles: 102195180 heartbeat IPC: 0.28137 cumulative IPC: 0.387959 (Simulation time: 0 hr 33 min 15 sec) 
Heartbeat CPU 0 instructions: 49000000 cycles: 104748661 heartbeat IPC: 0.391622 cumulative IPC: 0.388052 (Simulation time: 0 hr 33 min 55 sec) 
Heartbeat CPU 0 instructions: 50000001 cycles: 106052979 heartbeat IPC: 0.766685 cumulative IPC: 0.392903 (Simulation time: 0 hr 34 min 23 sec) 
Heartbeat CPU 0 instructions: 51000000 cycles: 108543209 heartbeat IPC: 0.401569 cumulative IPC: 0.39311 (Simulation time: 0 hr 34 min 59 sec) 
Heartbeat CPU 0 instructions: 52000000 cycles: 111257076 heartbeat IPC: 0.368478 cumulative IPC: 0.392485 (Simulation time: 0 hr 35 min 45 sec) 
Heartbeat CPU 0 instructions: 53000000 cycles: 114446376 heartbeat IPC: 0.313548 cumulative IPC: 0.390201 (Simulation time: 0 hr 36 min 35 sec) 
Heartbeat CPU 0 instructions: 54000000 cycles: 116311592 heartbeat IPC: 0.536131 cumulative IPC: 0.39263 (Simulation time: 0 hr 37 min 17 sec) 
Heartbeat CPU 0 instructions: 55000000 cycles: 119657906 heartbeat IPC: 0.298836 cumulative IPC: 0.38991 (Simulation time: 0 hr 38 min 9 sec) 
Heartbeat CPU 0 instructions: 56000000 cycles: 122464202 heartbeat IPC: 0.356342 cumulative IPC: 0.389113 (Simulation time: 0 hr 38 min 52 sec) 
Heartbeat CPU 0 instructions: 57000003 cycles: 123770192 heartbeat IPC: 0.765705 cumulative IPC: 0.393228 (Simulation time: 0 hr 39 min 20 sec) 
Heartbeat CPU 0 instructions: 58000000 cycles: 125910139 heartbeat IPC: 0.4673 cumulative IPC: 0.394531 (Simulation time: 0 hr 39 min 57 sec) 
Heartbeat CPU 0 instructions: 59000000 cycles: 128554661 heartbeat IPC: 0.37814 cumulative IPC: 0.394182 (Simulation time: 0 hr 40 min 42 sec) 
Heartbeat CPU 0 instructions: 60000000 cycles: 131902198 heartbeat IPC: 0.298727 cumulative IPC: 0.391679 (Simulation time: 0 hr 41 min 35 sec) 
Heartbeat CPU 0 instructions: 61000000 cycles: 134154624 heartbeat IPC: 0.443966 cumulative IPC: 0.392586 (Simulation time: 0 hr 42 min 17 sec) 
Heartbeat CPU 0 instructions: 62000002 cycles: 136873773 heartbeat IPC: 0.367763 cumulative IPC: 0.392077 (Simulation time: 0 hr 43 min 5 sec) 
Heartbeat CPU 0 instructions: 63000001 cycles: 140194366 heartbeat IPC: 0.301151 cumulative IPC: 0.389856 (Simulation time: 0 hr 43 min 53 sec) 
Heartbeat CPU 0 instructions: 64000000 cycles: 141514921 heartbeat IPC: 0.757257 cumulative IPC: 0.39339 (Simulation time: 0 hr 44 min 20 sec) 
Heartbeat CPU 0 instructions: 65000001 cycles: 142971428 heartbeat IPC: 0.686575 cumulative IPC: 0.396469 (Simulation time: 0 hr 44 min 52 sec) 
Heartbeat CPU 0 instructions: 66000002 cycles: 146102714 heartbeat IPC: 0.319358 cumulative IPC: 0.394766 (Simulation time: 0 hr 45 min 37 sec) 
Heartbeat CPU 0 instructions: 67000000 cycles: 149270723 heartbeat IPC: 0.315655 cumulative IPC: 0.393038 (Simulation time: 0 hr 46 min 30 sec) 
Heartbeat CPU 0 instructions: 68000000 cycles: 155201853 heartbeat IPC: 0.168602 cumulative IPC: 0.38422 (Simulation time: 0 hr 47 min 27 sec) 
Heartbeat CPU 0 instructions: 69000001 cycles: 159422983 heartbeat IPC: 0.236904 cumulative IPC: 0.380213 (Simulation time: 0 hr 48 min 12 sec) 
Heartbeat CPU 0 instructions: 70000000 cycles: 163354682 heartbeat IPC: 0.254343 cumulative IPC: 0.377102 (Simulation time: 0 hr 48 min 56 sec) 
Heartbeat CPU 0 instructions: 71000002 cycles: 167547201 heartbeat IPC: 0.238521 cumulative IPC: 0.373544 (Simulation time: 0 hr 49 min 38 sec) 
Heartbeat CPU 0 instructions: 72000000 cycles: 170860296 heartbeat IPC: 0.301832 cumulative IPC: 0.372118 (Simulation time: 0 hr 50 min 13 sec) 
Heartbeat CPU 0 instructions: 73000000 cycles: 174153075 heartbeat IPC: 0.303695 cumulative IPC: 0.370792 (Simulation time: 0 hr 50 min 55 sec) 
Heartbeat CPU 0 instructions: 74000000 cycles: 177801427 heartbeat IPC: 0.274096 cumulative IPC: 0.36876 (Simulation time: 0 hr 51 min 30 sec) 
Heartbeat CPU 0 instructions: 75000002 cycles: 181479813 heartbeat IPC: 0.271859 cumulative IPC: 0.366749 (Simulation time: 0 hr 52 min 10 sec) 
Heartbeat CPU 0 instructions: 76000000 cycles: 184019383 heartbeat IPC: 0.393767 cumulative IPC: 0.36713 (Simulation time: 0 hr 52 min 43 sec) 
Heartbeat CPU 0 instructions: 77000000 cycles: 187583689 heartbeat IPC: 0.28056 cumulative IPC: 0.365447 (Simulation time: 0 hr 53 min 23 sec) 
Heartbeat CPU 0 instructions: 78000002 cycles: 189760732 heartbeat IPC: 0.45934 cumulative IPC: 0.366549 (Simulation time: 0 hr 54 min 1 sec) 
Heartbeat CPU 0 instructions: 79000002 cycles: 191645539 heartbeat IPC: 0.530558 cumulative IPC: 0.368199 (Simulation time: 0 hr 54 min 38 sec) 
Heartbeat CPU 0 instructions: 80000000 cycles: 192853840 heartbeat IPC: 0.827607 cumulative IPC: 0.371142 (Simulation time: 0 hr 55 min 10 sec) 
Heartbeat CPU 0 instructions: 81000002 cycles: 195186051 heartbeat IPC: 0.428779 cumulative IPC: 0.371846 (Simulation time: 0 hr 55 min 49 sec) 
Heartbeat CPU 0 instructions: 82000001 cycles: 198017108 heartbeat IPC: 0.353225 cumulative IPC: 0.371574 (Simulation time: 0 hr 56 min 29 sec) 
Heartbeat CPU 0 instructions: 83000002 cycles: 200451631 heartbeat IPC: 0.410758 cumulative IPC: 0.37206 (Simulation time: 0 hr 57 min 8 sec) 
Heartbeat CPU 0 instructions: 84000000 cycles: 202666388 heartbeat IPC: 0.451516 cumulative IPC: 0.372947 (Simulation time: 0 hr 57 min 41 sec) 
Heartbeat CPU 0 instructions: 85000000 cycles: 204232367 heartbeat IPC: 0.638578 cumulative IPC: 0.375027 (Simulation time: 0 hr 58 min 12 sec) 
Heartbeat CPU 0 instructions: 86000000 cycles: 207953543 heartbeat IPC: 0.268732 cumulative IPC: 0.373085 (Simulation time: 0 hr 58 min 53 sec) 
Heartbeat CPU 0 instructions: 87000000 cycles: 210531212 heartbeat IPC: 0.387947 cumulative IPC: 0.373271 (Simulation time: 0 hr 59 min 24 sec) 
Heartbeat CPU 0 instructions: 88000000 cycles: 211829229 heartbeat IPC: 0.770406 cumulative IPC: 0.375754 (Simulation time: 0 hr 59 min 45 sec) 
Heartbeat CPU 0 instructions: 89000003 cycles: 214397661 heartbeat IPC: 0.389344 cumulative IPC: 0.37592 (Simulation time: 1 hr 0 min 12 sec) 
Heartbeat CPU 0 instructions: 90000002 cycles: 217128905 heartbeat IPC: 0.366133 cumulative IPC: 0.375795 (Simulation time: 1 hr 0 min 45 sec) 
Heartbeat CPU 0 instructions: 91000001 cycles: 220377842 heartbeat IPC: 0.307793 cumulative IPC: 0.374772 (Simulation time: 1 hr 1 min 20 sec) 
Heartbeat CPU 0 instructions: 92000000 cycles: 222211045 heartbeat IPC: 0.545493 cumulative IPC: 0.376208 (Simulation time: 1 hr 1 min 49 sec) 
Heartbeat CPU 0 instructions: 93000000 cycles: 225617935 heartbeat IPC: 0.293523 cumulative IPC: 0.374936 (Simulation time: 1 hr 2 min 24 sec) 
Heartbeat CPU 0 instructions: 94000001 cycles: 228474445 heartbeat IPC: 0.350078 cumulative IPC: 0.374619 (Simulation time: 1 hr 2 min 51 sec) 
Heartbeat CPU 0 instructions: 95000003 cycles: 229791761 heartbeat IPC: 0.759121 cumulative IPC: 0.376865 (Simulation time: 1 hr 3 min 8 sec) 
Heartbeat CPU 0 instructions: 96000000 cycles: 231984730 heartbeat IPC: 0.456001 cumulative IPC: 0.377627 (Simulation time: 1 hr 3 min 29 sec) 
Heartbeat CPU 0 instructions: 97000002 cycles: 234490689 heartbeat IPC: 0.39905 cumulative IPC: 0.37786 (Simulation time: 1 hr 3 min 56 sec) 
Heartbeat CPU 0 instructions: 98000003 cycles: 238446098 heartbeat IPC: 0.252819 cumulative IPC: 0.375748 (Simulation time: 1 hr 4 min 29 sec) 
Heartbeat CPU 0 instructions: 99000000 cycles: 241308306 heartbeat IPC: 0.34938 cumulative IPC: 0.37543 (Simulation time: 1 hr 4 min 55 sec) 
Heartbeat CPU 0 instructions: 100000000 cycles: 243205719 heartbeat IPC: 0.527033 cumulative IPC: 0.376634 (Simulation time: 1 hr 5 min 19 sec) 
Heartbeat CPU 0 instructions: 101000001 cycles: 247120868 heartbeat IPC: 0.255418 cumulative IPC: 0.37468 (Simulation time: 1 hr 5 min 48 sec) 
Heartbeat CPU 0 instructions: 102000000 cycles: 248726473 heartbeat IPC: 0.622818 cumulative IPC: 0.376309 (Simulation time: 1 hr 6 min 3 sec) 
Heartbeat CPU 0 instructions: 103000001 cycles: 249988321 heartbeat IPC: 0.792489 cumulative IPC: 0.378446 (Simulation time: 1 hr 6 min 18 sec) 
Heartbeat CPU 0 instructions: 104000000 cycles: 253263648 heartbeat IPC: 0.305313 cumulative IPC: 0.377484 (Simulation time: 1 hr 6 min 41 sec) 
Heartbeat CPU 0 instructions: 105000003 cycles: 256262870 heartbeat IPC: 0.333421 cumulative IPC: 0.37696 (Simulation time: 1 hr 7 min 7 sec) 
Heartbeat CPU 0 instructions: 106000002 cycles: 258951932 heartbeat IPC: 0.371877 cumulative IPC: 0.376906 (Simulation time: 1 hr 7 min 29 sec) 
Heartbeat CPU 0 instructions: 107000001 cycles: 260686610 heartbeat IPC: 0.576475 cumulative IPC: 0.378256 (Simulation time: 1 hr 7 min 50 sec) 
Heartbeat CPU 0 instructions: 108000000 cycles: 264492232 heartbeat IPC: 0.262769 cumulative IPC: 0.376567 (Simulation time: 1 hr 8 min 17 sec) 
Heartbeat CPU 0 instructions: 109000000 cycles: 266394898 heartbeat IPC: 0.525578 cumulative IPC: 0.377649 (Simulation time: 1 hr 8 min 33 sec) 
Heartbeat CPU 0 instructions: 110000002 cycles: 267642512 heartbeat IPC: 0.801532 cumulative IPC: 0.379657 (Simulation time: 1 hr 8 min 47 sec) 
Finished CPU 0 instructions: 100000000 cycles: 263395843 cummulative IPC: 0.379657 (Simulation time: 1 hr 8 min 47 sec) 

ChampSim completed all CPUs

Region of Interest Statistics

CPU 0 cummulative IPC: 0.379657 instructions: 100000000 cycles: 263395843
LLC TOTAL     ACCESS:    8713494  HIT:    4807186  MISS:    3906308
LLC LOAD      ACCESS:    2237059  HIT:    1104088  MISS:    1132971
LLC RFO       ACCESS:     764919  HIT:     276908  MISS:     488011
LLC PREFETCH  ACCESS:    3551045  HIT:    1637974  MISS:    1913071
LLC WRITEBACK ACCESS:    2160471  HIT:    1788216  MISS:     372255
Insertion Distribution: 
	LOAD 364236 0 150102 722462 
	RFO 198179 0 108599 233140 
	PREF 0 189531 369162 1593075 
	WRITEBACK 0 0 0 424822 
Total Prefetch Downgrades: 190876
