
*** ChampSim Multicore Out-of-Order Simulator ***

Warmup Instructions: 10000000
Simulation Instructions: 100000000
Configuration: 2
Number of CPUs: 1
LLC sets: 2048
LLC ways: 16
Off-chip DRAM Channels: 1 Width: 64-bit Data Rate: 1600 MT/s

CPU 0 runs /datasets/cs240c-wi22-a00-public/data/Assignment2-gz/cactusADM_1495B.trace.gz
CPU 0 L1D next line prefetcher
CPU 0 L2C IP-based stride prefetcher
Initialize SRRIP state
Heartbeat CPU 0 instructions: 1000003 cycles: 593383 heartbeat IPC: 1.68526 cumulative IPC: 1.68526 (Simulation time: 0 hr 0 min 45 sec) 
Heartbeat CPU 0 instructions: 2000000 cycles: 1186345 heartbeat IPC: 1.68644 cumulative IPC: 1.68585 (Simulation time: 0 hr 1 min 30 sec) 
Heartbeat CPU 0 instructions: 3000003 cycles: 1779703 heartbeat IPC: 1.68533 cumulative IPC: 1.68568 (Simulation time: 0 hr 2 min 15 sec) 
Heartbeat CPU 0 instructions: 4000000 cycles: 2372522 heartbeat IPC: 1.68685 cumulative IPC: 1.68597 (Simulation time: 0 hr 2 min 57 sec) 
Heartbeat CPU 0 instructions: 5000000 cycles: 2965579 heartbeat IPC: 1.68618 cumulative IPC: 1.68601 (Simulation time: 0 hr 3 min 41 sec) 
Heartbeat CPU 0 instructions: 6000001 cycles: 3558796 heartbeat IPC: 1.68573 cumulative IPC: 1.68596 (Simulation time: 0 hr 4 min 25 sec) 
Heartbeat CPU 0 instructions: 7000000 cycles: 4151738 heartbeat IPC: 1.6865 cumulative IPC: 1.68604 (Simulation time: 0 hr 5 min 10 sec) 
Heartbeat CPU 0 instructions: 8000000 cycles: 4906787 heartbeat IPC: 1.32442 cumulative IPC: 1.63039 (Simulation time: 0 hr 6 min 1 sec) 
Heartbeat CPU 0 instructions: 9000002 cycles: 5499988 heartbeat IPC: 1.68577 cumulative IPC: 1.63637 (Simulation time: 0 hr 6 min 45 sec) 
Heartbeat CPU 0 instructions: 10000002 cycles: 6092912 heartbeat IPC: 1.68656 cumulative IPC: 1.64125 (Simulation time: 0 hr 7 min 29 sec) 

Warmup complete CPU 0 instructions: 10000002 cycles: 6092912 (Simulation time: 0 hr 7 min 29 sec) 

Heartbeat CPU 0 instructions: 11000000 cycles: 7785032 heartbeat IPC: 0.590973 cumulative IPC: 0.590973 (Simulation time: 0 hr 8 min 16 sec) 
Heartbeat CPU 0 instructions: 12000000 cycles: 9528488 heartbeat IPC: 0.573573 cumulative IPC: 0.582143 (Simulation time: 0 hr 9 min 3 sec) 
Heartbeat CPU 0 instructions: 13000002 cycles: 11273012 heartbeat IPC: 0.573223 cumulative IPC: 0.579139 (Simulation time: 0 hr 9 min 47 sec) 
Heartbeat CPU 0 instructions: 14000001 cycles: 13008258 heartbeat IPC: 0.576287 cumulative IPC: 0.578424 (Simulation time: 0 hr 10 min 30 sec) 
Heartbeat CPU 0 instructions: 15000001 cycles: 14665582 heartbeat IPC: 0.603382 cumulative IPC: 0.583249 (Simulation time: 0 hr 11 min 15 sec) 
Heartbeat CPU 0 instructions: 16000000 cycles: 16387037 heartbeat IPC: 0.580903 cumulative IPC: 0.582857 (Simulation time: 0 hr 12 min 10 sec) 
Heartbeat CPU 0 instructions: 17000003 cycles: 18131086 heartbeat IPC: 0.57338 cumulative IPC: 0.581484 (Simulation time: 0 hr 12 min 48 sec) 
Heartbeat CPU 0 instructions: 18000000 cycles: 19876739 heartbeat IPC: 0.57285 cumulative IPC: 0.58039 (Simulation time: 0 hr 13 min 27 sec) 
Heartbeat CPU 0 instructions: 19000002 cycles: 21587039 heartbeat IPC: 0.584694 cumulative IPC: 0.580865 (Simulation time: 0 hr 14 min 7 sec) 
Heartbeat CPU 0 instructions: 20000000 cycles: 23253387 heartbeat IPC: 0.600114 cumulative IPC: 0.582734 (Simulation time: 0 hr 14 min 46 sec) 
Heartbeat CPU 0 instructions: 21000001 cycles: 29566229 heartbeat IPC: 0.158407 cumulative IPC: 0.468617 (Simulation time: 0 hr 15 min 45 sec) 
Heartbeat CPU 0 instructions: 22000000 cycles: 31656708 heartbeat IPC: 0.478359 cumulative IPC: 0.469414 (Simulation time: 0 hr 16 min 36 sec) 
Heartbeat CPU 0 instructions: 23000001 cycles: 33388682 heartbeat IPC: 0.577376 cumulative IPC: 0.476264 (Simulation time: 0 hr 17 min 28 sec) 
Heartbeat CPU 0 instructions: 24000000 cycles: 35043778 heartbeat IPC: 0.604194 cumulative IPC: 0.483578 (Simulation time: 0 hr 18 min 20 sec) 
Heartbeat CPU 0 instructions: 25000002 cycles: 36769756 heartbeat IPC: 0.579383 cumulative IPC: 0.488968 (Simulation time: 0 hr 19 min 15 sec) 
Heartbeat CPU 0 instructions: 26000000 cycles: 38522738 heartbeat IPC: 0.570455 cumulative IPC: 0.493373 (Simulation time: 0 hr 20 min 6 sec) 
Heartbeat CPU 0 instructions: 27000002 cycles: 40262031 heartbeat IPC: 0.574947 cumulative IPC: 0.497525 (Simulation time: 0 hr 20 min 55 sec) 
Heartbeat CPU 0 instructions: 28000000 cycles: 41969942 heartbeat IPC: 0.585509 cumulative IPC: 0.501714 (Simulation time: 0 hr 21 min 42 sec) 
Heartbeat CPU 0 instructions: 29000003 cycles: 43627124 heartbeat IPC: 0.603436 cumulative IPC: 0.506205 (Simulation time: 0 hr 22 min 30 sec) 
Heartbeat CPU 0 instructions: 30000000 cycles: 45394864 heartbeat IPC: 0.565692 cumulative IPC: 0.508881 (Simulation time: 0 hr 23 min 17 sec) 
Heartbeat CPU 0 instructions: 31000003 cycles: 47135252 heartbeat IPC: 0.574586 cumulative IPC: 0.511667 (Simulation time: 0 hr 24 min 11 sec) 
Heartbeat CPU 0 instructions: 32000000 cycles: 48873475 heartbeat IPC: 0.575298 cumulative IPC: 0.514252 (Simulation time: 0 hr 25 min 2 sec) 
Heartbeat CPU 0 instructions: 33000001 cycles: 50552543 heartbeat IPC: 0.595569 cumulative IPC: 0.517323 (Simulation time: 0 hr 25 min 53 sec) 
Heartbeat CPU 0 instructions: 34000002 cycles: 55974970 heartbeat IPC: 0.184419 cumulative IPC: 0.481135 (Simulation time: 0 hr 26 min 49 sec) 
Heartbeat CPU 0 instructions: 35000002 cycles: 58962377 heartbeat IPC: 0.334738 cumulative IPC: 0.472863 (Simulation time: 0 hr 27 min 42 sec) 
Heartbeat CPU 0 instructions: 36000000 cycles: 60699237 heartbeat IPC: 0.57575 cumulative IPC: 0.476135 (Simulation time: 0 hr 28 min 30 sec) 
Heartbeat CPU 0 instructions: 37000001 cycles: 62413320 heartbeat IPC: 0.583403 cumulative IPC: 0.4794 (Simulation time: 0 hr 29 min 21 sec) 
Heartbeat CPU 0 instructions: 38000003 cycles: 64067052 heartbeat IPC: 0.604694 cumulative IPC: 0.482974 (Simulation time: 0 hr 30 min 8 sec) 
Heartbeat CPU 0 instructions: 39000003 cycles: 65797213 heartbeat IPC: 0.577981 cumulative IPC: 0.485727 (Simulation time: 0 hr 30 min 57 sec) 
Heartbeat CPU 0 instructions: 40000000 cycles: 67536059 heartbeat IPC: 0.575092 cumulative IPC: 0.488256 (Simulation time: 0 hr 31 min 45 sec) 
Heartbeat CPU 0 instructions: 41000002 cycles: 69272236 heartbeat IPC: 0.575979 cumulative IPC: 0.490667 (Simulation time: 0 hr 32 min 35 sec) 
Heartbeat CPU 0 instructions: 42000000 cycles: 70951530 heartbeat IPC: 0.595487 cumulative IPC: 0.493381 (Simulation time: 0 hr 33 min 33 sec) 
Heartbeat CPU 0 instructions: 43000000 cycles: 72632359 heartbeat IPC: 0.594945 cumulative IPC: 0.495946 (Simulation time: 0 hr 34 min 33 sec) 
Heartbeat CPU 0 instructions: 44000000 cycles: 74370291 heartbeat IPC: 0.575396 cumulative IPC: 0.497969 (Simulation time: 0 hr 35 min 30 sec) 
Heartbeat CPU 0 instructions: 45000003 cycles: 76109640 heartbeat IPC: 0.574929 cumulative IPC: 0.499881 (Simulation time: 0 hr 36 min 35 sec) 
Heartbeat CPU 0 instructions: 46000002 cycles: 77840340 heartbeat IPC: 0.5778 cumulative IPC: 0.50176 (Simulation time: 0 hr 37 min 42 sec) 
Heartbeat CPU 0 instructions: 47000002 cycles: 82223123 heartbeat IPC: 0.228166 cumulative IPC: 0.486009 (Simulation time: 0 hr 38 min 58 sec) 
Heartbeat CPU 0 instructions: 48000000 cycles: 86188089 heartbeat IPC: 0.252208 cumulative IPC: 0.474436 (Simulation time: 0 hr 40 min 9 sec) 
Heartbeat CPU 0 instructions: 49000000 cycles: 87924677 heartbeat IPC: 0.575842 cumulative IPC: 0.476588 (Simulation time: 0 hr 41 min 6 sec) 
Heartbeat CPU 0 instructions: 50000000 cycles: 89662445 heartbeat IPC: 0.575451 cumulative IPC: 0.478643 (Simulation time: 0 hr 42 min 10 sec) 
Heartbeat CPU 0 instructions: 51000000 cycles: 91347957 heartbeat IPC: 0.593292 cumulative IPC: 0.48091 (Simulation time: 0 hr 43 min 20 sec) 
Heartbeat CPU 0 instructions: 52000000 cycles: 93026194 heartbeat IPC: 0.595863 cumulative IPC: 0.483129 (Simulation time: 0 hr 44 min 20 sec) 
Heartbeat CPU 0 instructions: 53000003 cycles: 94762030 heartbeat IPC: 0.576093 cumulative IPC: 0.484949 (Simulation time: 0 hr 45 min 25 sec) 
Heartbeat CPU 0 instructions: 54000001 cycles: 96497984 heartbeat IPC: 0.576051 cumulative IPC: 0.486698 (Simulation time: 0 hr 46 min 33 sec) 
Heartbeat CPU 0 instructions: 55000000 cycles: 98232222 heartbeat IPC: 0.576622 cumulative IPC: 0.488391 (Simulation time: 0 hr 47 min 44 sec) 
Heartbeat CPU 0 instructions: 56000000 cycles: 99888808 heartbeat IPC: 0.603651 cumulative IPC: 0.490427 (Simulation time: 0 hr 48 min 50 sec) 
Heartbeat CPU 0 instructions: 57000000 cycles: 101598552 heartbeat IPC: 0.584883 cumulative IPC: 0.492118 (Simulation time: 0 hr 50 min 0 sec) 
Heartbeat CPU 0 instructions: 58000002 cycles: 103336433 heartbeat IPC: 0.575415 cumulative IPC: 0.493606 (Simulation time: 0 hr 51 min 5 sec) 
Heartbeat CPU 0 instructions: 59000001 cycles: 105074921 heartbeat IPC: 0.575212 cumulative IPC: 0.495039 (Simulation time: 0 hr 52 min 11 sec) 
Heartbeat CPU 0 instructions: 60000000 cycles: 108433610 heartbeat IPC: 0.297735 cumulative IPC: 0.488564 (Simulation time: 0 hr 53 min 23 sec) 
Heartbeat CPU 0 instructions: 61000001 cycles: 113400699 heartbeat IPC: 0.201325 cumulative IPC: 0.475268 (Simulation time: 0 hr 54 min 38 sec) 
Heartbeat CPU 0 instructions: 62000000 cycles: 115135690 heartbeat IPC: 0.576371 cumulative IPC: 0.476877 (Simulation time: 0 hr 55 min 46 sec) 
Heartbeat CPU 0 instructions: 63000000 cycles: 116874210 heartbeat IPC: 0.575202 cumulative IPC: 0.47842 (Simulation time: 0 hr 56 min 50 sec) 
Heartbeat CPU 0 instructions: 64000000 cycles: 118606503 heartbeat IPC: 0.57727 cumulative IPC: 0.479942 (Simulation time: 0 hr 57 min 48 sec) 
Heartbeat CPU 0 instructions: 65000002 cycles: 120266839 heartbeat IPC: 0.602289 cumulative IPC: 0.481721 (Simulation time: 0 hr 58 min 47 sec) 
Heartbeat CPU 0 instructions: 66000003 cycles: 121971513 heartbeat IPC: 0.586623 cumulative IPC: 0.483264 (Simulation time: 0 hr 59 min 43 sec) 
Heartbeat CPU 0 instructions: 67000001 cycles: 123709662 heartbeat IPC: 0.575324 cumulative IPC: 0.484625 (Simulation time: 1 hr 0 min 37 sec) 
Heartbeat CPU 0 instructions: 68000000 cycles: 125447934 heartbeat IPC: 0.575283 cumulative IPC: 0.485945 (Simulation time: 1 hr 1 min 35 sec) 
Heartbeat CPU 0 instructions: 69000003 cycles: 127165018 heartbeat IPC: 0.582384 cumulative IPC: 0.487313 (Simulation time: 1 hr 2 min 21 sec) 
Heartbeat CPU 0 instructions: 70000000 cycles: 128817988 heartbeat IPC: 0.60497 cumulative IPC: 0.488898 (Simulation time: 1 hr 3 min 6 sec) 
Heartbeat CPU 0 instructions: 71000002 cycles: 130546272 heartbeat IPC: 0.57861 cumulative IPC: 0.490143 (Simulation time: 1 hr 3 min 51 sec) 
Heartbeat CPU 0 instructions: 72000000 cycles: 132285999 heartbeat IPC: 0.574802 cumulative IPC: 0.491311 (Simulation time: 1 hr 4 min 35 sec) 
Heartbeat CPU 0 instructions: 73000001 cycles: 134752980 heartbeat IPC: 0.405354 cumulative IPC: 0.489662 (Simulation time: 1 hr 5 min 14 sec) 
Heartbeat CPU 0 instructions: 74000002 cycles: 140679339 heartbeat IPC: 0.168738 cumulative IPC: 0.475531 (Simulation time: 1 hr 5 min 56 sec) 
Heartbeat CPU 0 instructions: 75000002 cycles: 142377742 heartbeat IPC: 0.588788 cumulative IPC: 0.476942 (Simulation time: 1 hr 6 min 26 sec) 
Heartbeat CPU 0 instructions: 76000000 cycles: 144117497 heartbeat IPC: 0.574792 cumulative IPC: 0.478176 (Simulation time: 1 hr 6 min 59 sec) 
Heartbeat CPU 0 instructions: 77000001 cycles: 145856115 heartbeat IPC: 0.57517 cumulative IPC: 0.479382 (Simulation time: 1 hr 7 min 30 sec) 
Heartbeat CPU 0 instructions: 78000000 cycles: 147578601 heartbeat IPC: 0.580556 cumulative IPC: 0.480614 (Simulation time: 1 hr 8 min 3 sec) 
Heartbeat CPU 0 instructions: 79000003 cycles: 149224802 heartbeat IPC: 0.607461 cumulative IPC: 0.482073 (Simulation time: 1 hr 8 min 35 sec) 
Heartbeat CPU 0 instructions: 80000000 cycles: 150955745 heartbeat IPC: 0.577718 cumulative IPC: 0.483216 (Simulation time: 1 hr 9 min 0 sec) 
Heartbeat CPU 0 instructions: 81000002 cycles: 152694923 heartbeat IPC: 0.574985 cumulative IPC: 0.484304 (Simulation time: 1 hr 9 min 24 sec) 
Heartbeat CPU 0 instructions: 82000000 cycles: 154433597 heartbeat IPC: 0.57515 cumulative IPC: 0.485369 (Simulation time: 1 hr 9 min 46 sec) 
Heartbeat CPU 0 instructions: 83000000 cycles: 156120499 heartbeat IPC: 0.592803 cumulative IPC: 0.486577 (Simulation time: 1 hr 10 min 6 sec) 
Heartbeat CPU 0 instructions: 84000000 cycles: 157795857 heartbeat IPC: 0.596887 cumulative IPC: 0.487795 (Simulation time: 1 hr 10 min 24 sec) 
Heartbeat CPU 0 instructions: 85000003 cycles: 159558072 heartbeat IPC: 0.567469 cumulative IPC: 0.48871 (Simulation time: 1 hr 10 min 42 sec) 
Heartbeat CPU 0 instructions: 86000000 cycles: 161297402 heartbeat IPC: 0.574932 cumulative IPC: 0.489677 (Simulation time: 1 hr 10 min 59 sec) 
Heartbeat CPU 0 instructions: 87000001 cycles: 168051025 heartbeat IPC: 0.148069 cumulative IPC: 0.475432 (Simulation time: 1 hr 11 min 18 sec) 
Heartbeat CPU 0 instructions: 88000000 cycles: 169696478 heartbeat IPC: 0.607735 cumulative IPC: 0.476762 (Simulation time: 1 hr 11 min 34 sec) 
Heartbeat CPU 0 instructions: 89000002 cycles: 171424456 heartbeat IPC: 0.578712 cumulative IPC: 0.477828 (Simulation time: 1 hr 11 min 49 sec) 
Heartbeat CPU 0 instructions: 90000001 cycles: 173190029 heartbeat IPC: 0.566388 cumulative IPC: 0.478763 (Simulation time: 1 hr 12 min 2 sec) 
Heartbeat CPU 0 instructions: 91000002 cycles: 174928401 heartbeat IPC: 0.575251 cumulative IPC: 0.479757 (Simulation time: 1 hr 12 min 14 sec) 
Heartbeat CPU 0 instructions: 92000000 cycles: 176622327 heartbeat IPC: 0.590343 cumulative IPC: 0.480855 (Simulation time: 1 hr 12 min 24 sec) 
Heartbeat CPU 0 instructions: 93000002 cycles: 178293190 heartbeat IPC: 0.598494 cumulative IPC: 0.481997 (Simulation time: 1 hr 12 min 32 sec) 
Heartbeat CPU 0 instructions: 94000002 cycles: 180028371 heartbeat IPC: 0.576309 cumulative IPC: 0.482938 (Simulation time: 1 hr 12 min 39 sec) 
Heartbeat CPU 0 instructions: 95000003 cycles: 181768103 heartbeat IPC: 0.574802 cumulative IPC: 0.483847 (Simulation time: 1 hr 12 min 46 sec) 
Heartbeat CPU 0 instructions: 96000000 cycles: 183502078 heartbeat IPC: 0.576708 cumulative IPC: 0.484755 (Simulation time: 1 hr 12 min 53 sec) 
Heartbeat CPU 0 instructions: 97000003 cycles: 185163106 heartbeat IPC: 0.602039 cumulative IPC: 0.485843 (Simulation time: 1 hr 13 min 0 sec) 
Heartbeat CPU 0 instructions: 98000003 cycles: 186864765 heartbeat IPC: 0.587662 cumulative IPC: 0.486801 (Simulation time: 1 hr 13 min 8 sec) 
Heartbeat CPU 0 instructions: 99000000 cycles: 188603585 heartbeat IPC: 0.575101 cumulative IPC: 0.487643 (Simulation time: 1 hr 13 min 15 sec) 
Heartbeat CPU 0 instructions: 100000000 cycles: 195365839 heartbeat IPC: 0.14788 cumulative IPC: 0.475504 (Simulation time: 1 hr 13 min 22 sec) 
Heartbeat CPU 0 instructions: 101000000 cycles: 197063994 heartbeat IPC: 0.588874 cumulative IPC: 0.476512 (Simulation time: 1 hr 13 min 28 sec) 
Heartbeat CPU 0 instructions: 102000003 cycles: 198730734 heartbeat IPC: 0.599975 cumulative IPC: 0.47758 (Simulation time: 1 hr 13 min 34 sec) 
Heartbeat CPU 0 instructions: 103000000 cycles: 200465222 heartbeat IPC: 0.576537 cumulative IPC: 0.478463 (Simulation time: 1 hr 13 min 40 sec) 
Heartbeat CPU 0 instructions: 104000000 cycles: 202204573 heartbeat IPC: 0.574927 cumulative IPC: 0.479319 (Simulation time: 1 hr 13 min 47 sec) 
Heartbeat CPU 0 instructions: 105000001 cycles: 203939387 heartbeat IPC: 0.576431 cumulative IPC: 0.48017 (Simulation time: 1 hr 13 min 52 sec) 
Heartbeat CPU 0 instructions: 106000000 cycles: 205607325 heartbeat IPC: 0.599542 cumulative IPC: 0.481168 (Simulation time: 1 hr 13 min 56 sec) 
Heartbeat CPU 0 instructions: 107000001 cycles: 207303425 heartbeat IPC: 0.589588 cumulative IPC: 0.482082 (Simulation time: 1 hr 14 min 1 sec) 
Heartbeat CPU 0 instructions: 108000000 cycles: 209042806 heartbeat IPC: 0.574917 cumulative IPC: 0.482878 (Simulation time: 1 hr 14 min 6 sec) 
Heartbeat CPU 0 instructions: 109000002 cycles: 210781665 heartbeat IPC: 0.575091 cumulative IPC: 0.483661 (Simulation time: 1 hr 14 min 10 sec) 
Heartbeat CPU 0 instructions: 110000001 cycles: 212506059 heartbeat IPC: 0.579913 cumulative IPC: 0.484465 (Simulation time: 1 hr 14 min 15 sec) 
Finished CPU 0 instructions: 100000003 cycles: 206413148 cummulative IPC: 0.484465 (Simulation time: 1 hr 14 min 15 sec) 

ChampSim completed all CPUs

Region of Interest Statistics

CPU 0 cummulative IPC: 0.484465 instructions: 100000003 cycles: 206413148
LLC TOTAL     ACCESS:    1107464  HIT:     333972  MISS:     773492
LLC LOAD      ACCESS:      23069  HIT:       3613  MISS:      19456
LLC RFO       ACCESS:     245174  HIT:      67497  MISS:     177677
LLC PREFETCH  ACCESS:     593710  HIT:     159614  MISS:     434096
LLC WRITEBACK ACCESS:     245511  HIT:     103248  MISS:     142263
Insertion Distribution: 
	LOAD 0 0 3750 17223 
	RFO 20500 0 20698 167200 
	PREF 0 32983 66289 400280 
	WRITEBACK 0 0 0 151532 
Total Prefetch Downgrades: 37209
