
*** ChampSim Multicore Out-of-Order Simulator ***

Warmup Instructions: 10000000
Simulation Instructions: 100000000
Configuration: 2
Number of CPUs: 1
LLC sets: 2048
LLC ways: 16
Off-chip DRAM Channels: 1 Width: 64-bit Data Rate: 1600 MT/s

CPU 0 runs /datasets/cs240c-wi22-a00-public/data/Assignment2-gz/GemsFDTD_109B.trace.gz
CPU 0 L1D next line prefetcher
CPU 0 L2C IP-based stride prefetcher
Initialize SRRIP state
Heartbeat CPU 0 instructions: 1000002 cycles: 579772 heartbeat IPC: 1.72482 cumulative IPC: 1.72482 (Simulation time: 0 hr 0 min 48 sec) 
Heartbeat CPU 0 instructions: 2000001 cycles: 1159543 heartbeat IPC: 1.72482 cumulative IPC: 1.72482 (Simulation time: 0 hr 1 min 35 sec) 
Heartbeat CPU 0 instructions: 3000000 cycles: 1738739 heartbeat IPC: 1.72653 cumulative IPC: 1.72539 (Simulation time: 0 hr 2 min 21 sec) 
Heartbeat CPU 0 instructions: 4000000 cycles: 2317733 heartbeat IPC: 1.72713 cumulative IPC: 1.72582 (Simulation time: 0 hr 3 min 7 sec) 
Heartbeat CPU 0 instructions: 5000000 cycles: 2897548 heartbeat IPC: 1.72469 cumulative IPC: 1.7256 (Simulation time: 0 hr 3 min 52 sec) 
Heartbeat CPU 0 instructions: 6000002 cycles: 3478271 heartbeat IPC: 1.72199 cumulative IPC: 1.725 (Simulation time: 0 hr 4 min 36 sec) 
Heartbeat CPU 0 instructions: 7000001 cycles: 4058948 heartbeat IPC: 1.72213 cumulative IPC: 1.72459 (Simulation time: 0 hr 5 min 19 sec) 
Heartbeat CPU 0 instructions: 8000000 cycles: 4639139 heartbeat IPC: 1.72357 cumulative IPC: 1.72446 (Simulation time: 0 hr 6 min 2 sec) 
Heartbeat CPU 0 instructions: 9000002 cycles: 5219300 heartbeat IPC: 1.72366 cumulative IPC: 1.72437 (Simulation time: 0 hr 6 min 47 sec) 
Heartbeat CPU 0 instructions: 10000001 cycles: 5799493 heartbeat IPC: 1.72356 cumulative IPC: 1.72429 (Simulation time: 0 hr 7 min 33 sec) 

Warmup complete CPU 0 instructions: 10000001 cycles: 5799493 (Simulation time: 0 hr 7 min 33 sec) 

Heartbeat CPU 0 instructions: 11000002 cycles: 6842071 heartbeat IPC: 0.959162 cumulative IPC: 0.959162 (Simulation time: 0 hr 8 min 20 sec) 
Heartbeat CPU 0 instructions: 12000000 cycles: 7898167 heartbeat IPC: 0.946882 cumulative IPC: 0.952982 (Simulation time: 0 hr 9 min 7 sec) 
Heartbeat CPU 0 instructions: 13000001 cycles: 8994907 heartbeat IPC: 0.911794 cumulative IPC: 0.938845 (Simulation time: 0 hr 9 min 56 sec) 
Heartbeat CPU 0 instructions: 14000001 cycles: 10064047 heartbeat IPC: 0.935331 cumulative IPC: 0.937964 (Simulation time: 0 hr 10 min 42 sec) 
Heartbeat CPU 0 instructions: 15000000 cycles: 11134611 heartbeat IPC: 0.934086 cumulative IPC: 0.937186 (Simulation time: 0 hr 11 min 26 sec) 
Heartbeat CPU 0 instructions: 16000000 cycles: 12199680 heartbeat IPC: 0.938906 cumulative IPC: 0.937472 (Simulation time: 0 hr 12 min 16 sec) 
Heartbeat CPU 0 instructions: 17000000 cycles: 13282578 heartbeat IPC: 0.923448 cumulative IPC: 0.935443 (Simulation time: 0 hr 13 min 7 sec) 
Heartbeat CPU 0 instructions: 18000003 cycles: 14330751 heartbeat IPC: 0.954044 cumulative IPC: 0.937728 (Simulation time: 0 hr 13 min 53 sec) 
Heartbeat CPU 0 instructions: 19000001 cycles: 15402255 heartbeat IPC: 0.933266 cumulative IPC: 0.93723 (Simulation time: 0 hr 14 min 38 sec) 
Heartbeat CPU 0 instructions: 20000000 cycles: 16645687 heartbeat IPC: 0.804225 cumulative IPC: 0.921982 (Simulation time: 0 hr 15 min 23 sec) 
Heartbeat CPU 0 instructions: 21000001 cycles: 17922099 heartbeat IPC: 0.783447 cumulative IPC: 0.907396 (Simulation time: 0 hr 16 min 11 sec) 
Heartbeat CPU 0 instructions: 22000001 cycles: 21329691 heartbeat IPC: 0.293462 cumulative IPC: 0.772688 (Simulation time: 0 hr 16 min 58 sec) 
Heartbeat CPU 0 instructions: 23000001 cycles: 22594302 heartbeat IPC: 0.790757 cumulative IPC: 0.774049 (Simulation time: 0 hr 17 min 45 sec) 
Heartbeat CPU 0 instructions: 24000000 cycles: 26204932 heartbeat IPC: 0.27696 cumulative IPC: 0.686092 (Simulation time: 0 hr 18 min 35 sec) 
Heartbeat CPU 0 instructions: 25000003 cycles: 27450458 heartbeat IPC: 0.802876 cumulative IPC: 0.69281 (Simulation time: 0 hr 19 min 22 sec) 
Heartbeat CPU 0 instructions: 26000000 cycles: 31078441 heartbeat IPC: 0.275634 cumulative IPC: 0.632938 (Simulation time: 0 hr 20 min 15 sec) 
Heartbeat CPU 0 instructions: 27000000 cycles: 32293353 heartbeat IPC: 0.823105 cumulative IPC: 0.641658 (Simulation time: 0 hr 20 min 59 sec) 
Heartbeat CPU 0 instructions: 28000000 cycles: 35738118 heartbeat IPC: 0.290296 cumulative IPC: 0.60123 (Simulation time: 0 hr 21 min 48 sec) 
Heartbeat CPU 0 instructions: 29000000 cycles: 36957010 heartbeat IPC: 0.820417 cumulative IPC: 0.609805 (Simulation time: 0 hr 22 min 32 sec) 
Heartbeat CPU 0 instructions: 30000003 cycles: 38284554 heartbeat IPC: 0.753273 cumulative IPC: 0.615668 (Simulation time: 0 hr 23 min 9 sec) 
Heartbeat CPU 0 instructions: 31000002 cycles: 39451465 heartbeat IPC: 0.856963 cumulative IPC: 0.624035 (Simulation time: 0 hr 23 min 54 sec) 
Heartbeat CPU 0 instructions: 32000000 cycles: 40756338 heartbeat IPC: 0.766357 cumulative IPC: 0.629347 (Simulation time: 0 hr 24 min 35 sec) 
Heartbeat CPU 0 instructions: 33000003 cycles: 41920898 heartbeat IPC: 0.858696 cumulative IPC: 0.636742 (Simulation time: 0 hr 25 min 22 sec) 
Heartbeat CPU 0 instructions: 34000002 cycles: 43224513 heartbeat IPC: 0.767097 cumulative IPC: 0.641282 (Simulation time: 0 hr 26 min 2 sec) 
Heartbeat CPU 0 instructions: 35000003 cycles: 44411491 heartbeat IPC: 0.842476 cumulative IPC: 0.647467 (Simulation time: 0 hr 26 min 46 sec) 
Heartbeat CPU 0 instructions: 36000000 cycles: 45766286 heartbeat IPC: 0.738117 cumulative IPC: 0.65054 (Simulation time: 0 hr 27 min 27 sec) 
Heartbeat CPU 0 instructions: 37000000 cycles: 47095782 heartbeat IPC: 0.752165 cumulative IPC: 0.653812 (Simulation time: 0 hr 28 min 13 sec) 
Heartbeat CPU 0 instructions: 38000001 cycles: 48425320 heartbeat IPC: 0.752142 cumulative IPC: 0.656879 (Simulation time: 0 hr 29 min 2 sec) 
Heartbeat CPU 0 instructions: 39000000 cycles: 49754709 heartbeat IPC: 0.752225 cumulative IPC: 0.659762 (Simulation time: 0 hr 29 min 51 sec) 
Heartbeat CPU 0 instructions: 40000000 cycles: 51084249 heartbeat IPC: 0.75214 cumulative IPC: 0.662475 (Simulation time: 0 hr 30 min 41 sec) 
Heartbeat CPU 0 instructions: 41000000 cycles: 52346143 heartbeat IPC: 0.79246 cumulative IPC: 0.665999 (Simulation time: 0 hr 31 min 22 sec) 
Heartbeat CPU 0 instructions: 42000000 cycles: 53675624 heartbeat IPC: 0.752173 cumulative IPC: 0.668392 (Simulation time: 0 hr 32 min 11 sec) 
Heartbeat CPU 0 instructions: 43000002 cycles: 55005293 heartbeat IPC: 0.752068 cumulative IPC: 0.670653 (Simulation time: 0 hr 32 min 59 sec) 
Heartbeat CPU 0 instructions: 44000000 cycles: 56334794 heartbeat IPC: 0.75216 cumulative IPC: 0.672797 (Simulation time: 0 hr 33 min 46 sec) 
Heartbeat CPU 0 instructions: 45000001 cycles: 57664119 heartbeat IPC: 0.752262 cumulative IPC: 0.674834 (Simulation time: 0 hr 34 min 34 sec) 
Heartbeat CPU 0 instructions: 46000003 cycles: 59051924 heartbeat IPC: 0.720564 cumulative IPC: 0.676026 (Simulation time: 0 hr 35 min 22 sec) 
Heartbeat CPU 0 instructions: 47000001 cycles: 60168985 heartbeat IPC: 0.895204 cumulative IPC: 0.680529 (Simulation time: 0 hr 35 min 56 sec) 
Heartbeat CPU 0 instructions: 48000000 cycles: 61540914 heartbeat IPC: 0.7289 cumulative IPC: 0.681719 (Simulation time: 0 hr 36 min 32 sec) 
Heartbeat CPU 0 instructions: 49000003 cycles: 71143383 heartbeat IPC: 0.10414 cumulative IPC: 0.596842 (Simulation time: 0 hr 37 min 50 sec) 
Heartbeat CPU 0 instructions: 50000001 cycles: 72988776 heartbeat IPC: 0.541889 cumulative IPC: 0.595333 (Simulation time: 0 hr 38 min 41 sec) 
Heartbeat CPU 0 instructions: 51000000 cycles: 74589531 heartbeat IPC: 0.624705 cumulative IPC: 0.596017 (Simulation time: 0 hr 39 min 29 sec) 
Heartbeat CPU 0 instructions: 52000000 cycles: 76226797 heartbeat IPC: 0.610774 cumulative IPC: 0.59636 (Simulation time: 0 hr 40 min 19 sec) 
Heartbeat CPU 0 instructions: 53000001 cycles: 77830403 heartbeat IPC: 0.623595 cumulative IPC: 0.596966 (Simulation time: 0 hr 41 min 9 sec) 
Heartbeat CPU 0 instructions: 54000000 cycles: 79452032 heartbeat IPC: 0.616663 cumulative IPC: 0.5974 (Simulation time: 0 hr 41 min 58 sec) 
Heartbeat CPU 0 instructions: 55000002 cycles: 81045105 heartbeat IPC: 0.627719 cumulative IPC: 0.598042 (Simulation time: 0 hr 42 min 47 sec) 
Heartbeat CPU 0 instructions: 56000000 cycles: 82670234 heartbeat IPC: 0.615335 cumulative IPC: 0.598407 (Simulation time: 0 hr 43 min 36 sec) 
Heartbeat CPU 0 instructions: 57000003 cycles: 84308046 heartbeat IPC: 0.610573 cumulative IPC: 0.598661 (Simulation time: 0 hr 44 min 27 sec) 
Heartbeat CPU 0 instructions: 58000002 cycles: 85943091 heartbeat IPC: 0.611603 cumulative IPC: 0.598925 (Simulation time: 0 hr 45 min 16 sec) 
Heartbeat CPU 0 instructions: 59000003 cycles: 87585123 heartbeat IPC: 0.609002 cumulative IPC: 0.599127 (Simulation time: 0 hr 46 min 5 sec) 
Heartbeat CPU 0 instructions: 60000000 cycles: 89215873 heartbeat IPC: 0.613213 cumulative IPC: 0.599403 (Simulation time: 0 hr 46 min 53 sec) 
Heartbeat CPU 0 instructions: 61000000 cycles: 90824950 heartbeat IPC: 0.621474 cumulative IPC: 0.59982 (Simulation time: 0 hr 47 min 37 sec) 
Heartbeat CPU 0 instructions: 62000003 cycles: 92432539 heartbeat IPC: 0.622051 cumulative IPC: 0.600233 (Simulation time: 0 hr 48 min 19 sec) 
Heartbeat CPU 0 instructions: 63000002 cycles: 94045337 heartbeat IPC: 0.62004 cumulative IPC: 0.600595 (Simulation time: 0 hr 48 min 59 sec) 
Heartbeat CPU 0 instructions: 64000000 cycles: 95684072 heartbeat IPC: 0.610226 cumulative IPC: 0.60077 (Simulation time: 0 hr 49 min 40 sec) 
Heartbeat CPU 0 instructions: 65000003 cycles: 97329768 heartbeat IPC: 0.607647 cumulative IPC: 0.600894 (Simulation time: 0 hr 50 min 24 sec) 
Heartbeat CPU 0 instructions: 66000001 cycles: 98981345 heartbeat IPC: 0.605481 cumulative IPC: 0.600975 (Simulation time: 0 hr 51 min 5 sec) 
Heartbeat CPU 0 instructions: 67000000 cycles: 100599053 heartbeat IPC: 0.618158 cumulative IPC: 0.601269 (Simulation time: 0 hr 51 min 47 sec) 
Heartbeat CPU 0 instructions: 68000000 cycles: 102229892 heartbeat IPC: 0.613181 cumulative IPC: 0.60147 (Simulation time: 0 hr 52 min 25 sec) 
Heartbeat CPU 0 instructions: 69000000 cycles: 103857689 heartbeat IPC: 0.614327 cumulative IPC: 0.601683 (Simulation time: 0 hr 53 min 5 sec) 
Heartbeat CPU 0 instructions: 70000003 cycles: 105450474 heartbeat IPC: 0.627833 cumulative IPC: 0.602101 (Simulation time: 0 hr 53 min 44 sec) 
Heartbeat CPU 0 instructions: 71000003 cycles: 107084104 heartbeat IPC: 0.612134 cumulative IPC: 0.602263 (Simulation time: 0 hr 54 min 24 sec) 
Heartbeat CPU 0 instructions: 72000000 cycles: 108691245 heartbeat IPC: 0.622221 cumulative IPC: 0.602575 (Simulation time: 0 hr 55 min 3 sec) 
Heartbeat CPU 0 instructions: 73000002 cycles: 110320801 heartbeat IPC: 0.613665 cumulative IPC: 0.602748 (Simulation time: 0 hr 55 min 44 sec) 
Heartbeat CPU 0 instructions: 74000000 cycles: 111964555 heartbeat IPC: 0.608362 cumulative IPC: 0.602835 (Simulation time: 0 hr 56 min 23 sec) 
Heartbeat CPU 0 instructions: 75000000 cycles: 113611740 heartbeat IPC: 0.607096 cumulative IPC: 0.6029 (Simulation time: 0 hr 57 min 3 sec) 
Heartbeat CPU 0 instructions: 76000000 cycles: 115211698 heartbeat IPC: 0.625016 cumulative IPC: 0.603223 (Simulation time: 0 hr 57 min 38 sec) 
Heartbeat CPU 0 instructions: 77000002 cycles: 116853141 heartbeat IPC: 0.609221 cumulative IPC: 0.603312 (Simulation time: 0 hr 58 min 16 sec) 
Heartbeat CPU 0 instructions: 78000001 cycles: 118466743 heartbeat IPC: 0.619731 cumulative IPC: 0.603547 (Simulation time: 0 hr 58 min 54 sec) 
Heartbeat CPU 0 instructions: 79000001 cycles: 120067597 heartbeat IPC: 0.624667 cumulative IPC: 0.603843 (Simulation time: 0 hr 59 min 32 sec) 
Heartbeat CPU 0 instructions: 80000000 cycles: 121674790 heartbeat IPC: 0.622202 cumulative IPC: 0.604098 (Simulation time: 1 hr 0 min 6 sec) 
Heartbeat CPU 0 instructions: 81000001 cycles: 123295317 heartbeat IPC: 0.617084 cumulative IPC: 0.604277 (Simulation time: 1 hr 0 min 40 sec) 
Heartbeat CPU 0 instructions: 82000000 cycles: 124915405 heartbeat IPC: 0.61725 cumulative IPC: 0.604453 (Simulation time: 1 hr 1 min 13 sec) 
Heartbeat CPU 0 instructions: 83000001 cycles: 126526529 heartbeat IPC: 0.620685 cumulative IPC: 0.60467 (Simulation time: 1 hr 1 min 46 sec) 
Heartbeat CPU 0 instructions: 84000000 cycles: 128132847 heartbeat IPC: 0.622541 cumulative IPC: 0.604905 (Simulation time: 1 hr 2 min 16 sec) 
Heartbeat CPU 0 instructions: 85000001 cycles: 129760938 heartbeat IPC: 0.614217 cumulative IPC: 0.605027 (Simulation time: 1 hr 2 min 44 sec) 
Heartbeat CPU 0 instructions: 86000002 cycles: 131389710 heartbeat IPC: 0.61396 cumulative IPC: 0.605143 (Simulation time: 1 hr 3 min 11 sec) 
Heartbeat CPU 0 instructions: 87000002 cycles: 133008795 heartbeat IPC: 0.617633 cumulative IPC: 0.605302 (Simulation time: 1 hr 3 min 39 sec) 
Heartbeat CPU 0 instructions: 88000000 cycles: 134640743 heartbeat IPC: 0.612763 cumulative IPC: 0.605396 (Simulation time: 1 hr 4 min 7 sec) 
Heartbeat CPU 0 instructions: 89000003 cycles: 136297475 heartbeat IPC: 0.6036 cumulative IPC: 0.605373 (Simulation time: 1 hr 4 min 34 sec) 
Heartbeat CPU 0 instructions: 90000000 cycles: 137952884 heartbeat IPC: 0.604079 cumulative IPC: 0.605357 (Simulation time: 1 hr 4 min 59 sec) 
Heartbeat CPU 0 instructions: 91000002 cycles: 139602098 heartbeat IPC: 0.606351 cumulative IPC: 0.605369 (Simulation time: 1 hr 5 min 24 sec) 
Heartbeat CPU 0 instructions: 92000000 cycles: 141223597 heartbeat IPC: 0.616712 cumulative IPC: 0.605505 (Simulation time: 1 hr 5 min 49 sec) 
Heartbeat CPU 0 instructions: 93000001 cycles: 142855651 heartbeat IPC: 0.612725 cumulative IPC: 0.605591 (Simulation time: 1 hr 6 min 14 sec) 
Heartbeat CPU 0 instructions: 94000003 cycles: 144460143 heartbeat IPC: 0.623251 cumulative IPC: 0.605796 (Simulation time: 1 hr 6 min 38 sec) 
Heartbeat CPU 0 instructions: 95000000 cycles: 146067864 heartbeat IPC: 0.621997 cumulative IPC: 0.605981 (Simulation time: 1 hr 7 min 1 sec) 
Heartbeat CPU 0 instructions: 96000000 cycles: 147687819 heartbeat IPC: 0.617301 cumulative IPC: 0.60611 (Simulation time: 1 hr 7 min 25 sec) 
Heartbeat CPU 0 instructions: 97000002 cycles: 149305936 heartbeat IPC: 0.618004 cumulative IPC: 0.606245 (Simulation time: 1 hr 7 min 50 sec) 
Heartbeat CPU 0 instructions: 98000000 cycles: 150949512 heartbeat IPC: 0.608428 cumulative IPC: 0.606269 (Simulation time: 1 hr 8 min 13 sec) 
Heartbeat CPU 0 instructions: 99000001 cycles: 152542469 heartbeat IPC: 0.627764 cumulative IPC: 0.606503 (Simulation time: 1 hr 8 min 36 sec) 
Heartbeat CPU 0 instructions: 100000000 cycles: 154182622 heartbeat IPC: 0.609699 cumulative IPC: 0.606538 (Simulation time: 1 hr 8 min 57 sec) 
Heartbeat CPU 0 instructions: 101000000 cycles: 155812632 heartbeat IPC: 0.613493 cumulative IPC: 0.606614 (Simulation time: 1 hr 9 min 17 sec) 
Heartbeat CPU 0 instructions: 102000000 cycles: 157448005 heartbeat IPC: 0.611481 cumulative IPC: 0.606666 (Simulation time: 1 hr 9 min 36 sec) 
Heartbeat CPU 0 instructions: 103000000 cycles: 159067509 heartbeat IPC: 0.617473 cumulative IPC: 0.60678 (Simulation time: 1 hr 9 min 52 sec) 
Heartbeat CPU 0 instructions: 104000000 cycles: 160703563 heartbeat IPC: 0.611227 cumulative IPC: 0.606827 (Simulation time: 1 hr 10 min 8 sec) 
Heartbeat CPU 0 instructions: 105000000 cycles: 162347949 heartbeat IPC: 0.60813 cumulative IPC: 0.606841 (Simulation time: 1 hr 10 min 23 sec) 
Heartbeat CPU 0 instructions: 106000001 cycles: 163978526 heartbeat IPC: 0.61328 cumulative IPC: 0.606907 (Simulation time: 1 hr 10 min 37 sec) 
Heartbeat CPU 0 instructions: 107000001 cycles: 165615499 heartbeat IPC: 0.610884 cumulative IPC: 0.606948 (Simulation time: 1 hr 10 min 52 sec) 
Heartbeat CPU 0 instructions: 108000000 cycles: 167254703 heartbeat IPC: 0.610052 cumulative IPC: 0.606979 (Simulation time: 1 hr 11 min 6 sec) 
Heartbeat CPU 0 instructions: 109000003 cycles: 168850254 heartbeat IPC: 0.626745 cumulative IPC: 0.607173 (Simulation time: 1 hr 11 min 21 sec) 
Heartbeat CPU 0 instructions: 110000002 cycles: 170475563 heartbeat IPC: 0.615267 cumulative IPC: 0.607253 (Simulation time: 1 hr 11 min 36 sec) 
Finished CPU 0 instructions: 100000001 cycles: 164676070 cummulative IPC: 0.607253 (Simulation time: 1 hr 11 min 36 sec) 

ChampSim completed all CPUs

Region of Interest Statistics

CPU 0 cummulative IPC: 0.607253 instructions: 100000001 cycles: 164676070
LLC TOTAL     ACCESS:    4812398  HIT:     566011  MISS:    4246387
LLC LOAD      ACCESS:     462182  HIT:      35942  MISS:     426240
LLC RFO       ACCESS:     126471  HIT:     117195  MISS:       9276
LLC PREFETCH  ACCESS:    2859449  HIT:     137237  MISS:    2722212
LLC WRITEBACK ACCESS:    1364296  HIT:     275637  MISS:    1088659
Insertion Distribution: 
	LOAD 27566 0 80405 327803 
	RFO 17 0 8625 636 
	PREF 0 8471 204339 2747142 
	WRITEBACK 0 0 0 1203602 
Total Prefetch Downgrades: 7451
