
*** ChampSim Multicore Out-of-Order Simulator ***

Warmup Instructions: 10000000
Simulation Instructions: 100000000
Configuration: 2
Number of CPUs: 1
LLC sets: 2048
LLC ways: 16
Off-chip DRAM Channels: 1 Width: 64-bit Data Rate: 1600 MT/s

CPU 0 runs /datasets/cs240c-wi22-a00-public/data/Assignment2-gz/soplex_205B.trace.gz
CPU 0 L1D next line prefetcher
CPU 0 L2C IP-based stride prefetcher
Initialize SRRIP state
Heartbeat CPU 0 instructions: 1000000 cycles: 395620 heartbeat IPC: 2.52768 cumulative IPC: 2.52768 (Simulation time: 0 hr 0 min 29 sec) 
Heartbeat CPU 0 instructions: 2000002 cycles: 925602 heartbeat IPC: 1.88686 cumulative IPC: 2.16076 (Simulation time: 0 hr 1 min 3 sec) 
Heartbeat CPU 0 instructions: 3000000 cycles: 1397357 heartbeat IPC: 2.11974 cumulative IPC: 2.14691 (Simulation time: 0 hr 1 min 48 sec) 
Heartbeat CPU 0 instructions: 4000000 cycles: 1758591 heartbeat IPC: 2.76829 cumulative IPC: 2.27455 (Simulation time: 0 hr 2 min 21 sec) 
Heartbeat CPU 0 instructions: 5000003 cycles: 2202024 heartbeat IPC: 2.25514 cumulative IPC: 2.27064 (Simulation time: 0 hr 3 min 0 sec) 
Heartbeat CPU 0 instructions: 6000003 cycles: 2621997 heartbeat IPC: 2.38111 cumulative IPC: 2.28833 (Simulation time: 0 hr 3 min 38 sec) 
Heartbeat CPU 0 instructions: 7000000 cycles: 3006432 heartbeat IPC: 2.60121 cumulative IPC: 2.32834 (Simulation time: 0 hr 4 min 10 sec) 
Heartbeat CPU 0 instructions: 8000000 cycles: 3400345 heartbeat IPC: 2.53863 cumulative IPC: 2.3527 (Simulation time: 0 hr 4 min 42 sec) 
Heartbeat CPU 0 instructions: 9000003 cycles: 3924849 heartbeat IPC: 1.90657 cumulative IPC: 2.29308 (Simulation time: 0 hr 5 min 19 sec) 
Heartbeat CPU 0 instructions: 10000000 cycles: 4410175 heartbeat IPC: 2.06046 cumulative IPC: 2.26748 (Simulation time: 0 hr 5 min 58 sec) 

Warmup complete CPU 0 instructions: 10000004 cycles: 4410177 (Simulation time: 0 hr 5 min 58 sec) 

Heartbeat CPU 0 instructions: 11000001 cycles: 6911534 heartbeat IPC: 0.399783 cumulative IPC: 0.399782 (Simulation time: 0 hr 6 min 38 sec) 
Heartbeat CPU 0 instructions: 12000000 cycles: 9087855 heartbeat IPC: 0.459491 cumulative IPC: 0.427562 (Simulation time: 0 hr 7 min 28 sec) 
Heartbeat CPU 0 instructions: 13000000 cycles: 12469608 heartbeat IPC: 0.295705 cumulative IPC: 0.372234 (Simulation time: 0 hr 8 min 17 sec) 
Heartbeat CPU 0 instructions: 14000003 cycles: 13727023 heartbeat IPC: 0.795285 cumulative IPC: 0.42933 (Simulation time: 0 hr 8 min 46 sec) 
Heartbeat CPU 0 instructions: 15000000 cycles: 15417452 heartbeat IPC: 0.591564 cumulative IPC: 0.454245 (Simulation time: 0 hr 9 min 18 sec) 
Heartbeat CPU 0 instructions: 16000000 cycles: 18566700 heartbeat IPC: 0.317536 cumulative IPC: 0.423833 (Simulation time: 0 hr 10 min 3 sec) 
Heartbeat CPU 0 instructions: 17000001 cycles: 22116679 heartbeat IPC: 0.281692 cumulative IPC: 0.395335 (Simulation time: 0 hr 10 min 59 sec) 
Heartbeat CPU 0 instructions: 18000000 cycles: 28736415 heartbeat IPC: 0.151063 cumulative IPC: 0.328863 (Simulation time: 0 hr 11 min 50 sec) 
Heartbeat CPU 0 instructions: 19000003 cycles: 33359647 heartbeat IPC: 0.2163 cumulative IPC: 0.310886 (Simulation time: 0 hr 12 min 51 sec) 
Heartbeat CPU 0 instructions: 20000000 cycles: 35499373 heartbeat IPC: 0.467348 cumulative IPC: 0.321655 (Simulation time: 0 hr 13 min 36 sec) 
Heartbeat CPU 0 instructions: 21000001 cycles: 39990244 heartbeat IPC: 0.222674 cumulative IPC: 0.309162 (Simulation time: 0 hr 14 min 20 sec) 
Heartbeat CPU 0 instructions: 22000001 cycles: 44111819 heartbeat IPC: 0.242626 cumulative IPC: 0.302254 (Simulation time: 0 hr 15 min 3 sec) 
Heartbeat CPU 0 instructions: 23000002 cycles: 47285488 heartbeat IPC: 0.315093 cumulative IPC: 0.303205 (Simulation time: 0 hr 15 min 51 sec) 
Heartbeat CPU 0 instructions: 24000000 cycles: 50995217 heartbeat IPC: 0.269561 cumulative IPC: 0.300526 (Simulation time: 0 hr 16 min 41 sec) 
Heartbeat CPU 0 instructions: 25000000 cycles: 54616744 heartbeat IPC: 0.276127 cumulative IPC: 0.298766 (Simulation time: 0 hr 17 min 27 sec) 
Heartbeat CPU 0 instructions: 26000002 cycles: 58123524 heartbeat IPC: 0.285162 cumulative IPC: 0.297878 (Simulation time: 0 hr 18 min 20 sec) 
Heartbeat CPU 0 instructions: 27000000 cycles: 60606374 heartbeat IPC: 0.402762 cumulative IPC: 0.302512 (Simulation time: 0 hr 19 min 2 sec) 
Heartbeat CPU 0 instructions: 28000000 cycles: 64044977 heartbeat IPC: 0.290816 cumulative IPC: 0.301837 (Simulation time: 0 hr 19 min 57 sec) 
Heartbeat CPU 0 instructions: 29000000 cycles: 66058187 heartbeat IPC: 0.496719 cumulative IPC: 0.308201 (Simulation time: 0 hr 20 min 44 sec) 
Heartbeat CPU 0 instructions: 30000003 cycles: 67029890 heartbeat IPC: 1.02912 cumulative IPC: 0.319388 (Simulation time: 0 hr 21 min 20 sec) 
Heartbeat CPU 0 instructions: 31000003 cycles: 68366533 heartbeat IPC: 0.748143 cumulative IPC: 0.328349 (Simulation time: 0 hr 21 min 59 sec) 
Heartbeat CPU 0 instructions: 32000000 cycles: 71562750 heartbeat IPC: 0.312869 cumulative IPC: 0.327612 (Simulation time: 0 hr 22 min 49 sec) 
Heartbeat CPU 0 instructions: 33000000 cycles: 74400889 heartbeat IPC: 0.352344 cumulative IPC: 0.328615 (Simulation time: 0 hr 23 min 41 sec) 
Heartbeat CPU 0 instructions: 34000002 cycles: 76056954 heartbeat IPC: 0.603842 cumulative IPC: 0.334977 (Simulation time: 0 hr 24 min 24 sec) 
Heartbeat CPU 0 instructions: 35000003 cycles: 78711139 heartbeat IPC: 0.376764 cumulative IPC: 0.336469 (Simulation time: 0 hr 25 min 6 sec) 
Heartbeat CPU 0 instructions: 36000000 cycles: 81070061 heartbeat IPC: 0.423921 cumulative IPC: 0.33916 (Simulation time: 0 hr 25 min 52 sec) 
Heartbeat CPU 0 instructions: 37000000 cycles: 84380253 heartbeat IPC: 0.302097 cumulative IPC: 0.337626 (Simulation time: 0 hr 26 min 36 sec) 
Heartbeat CPU 0 instructions: 38000002 cycles: 85628254 heartbeat IPC: 0.801283 cumulative IPC: 0.344751 (Simulation time: 0 hr 27 min 4 sec) 
Heartbeat CPU 0 instructions: 39000003 cycles: 87535488 heartbeat IPC: 0.52432 cumulative IPC: 0.348871 (Simulation time: 0 hr 27 min 37 sec) 
Heartbeat CPU 0 instructions: 40000000 cycles: 90735167 heartbeat IPC: 0.31253 cumulative IPC: 0.347524 (Simulation time: 0 hr 28 min 26 sec) 
Heartbeat CPU 0 instructions: 41000000 cycles: 93975107 heartbeat IPC: 0.308648 cumulative IPC: 0.346118 (Simulation time: 0 hr 29 min 15 sec) 
Heartbeat CPU 0 instructions: 42000001 cycles: 95761298 heartbeat IPC: 0.559851 cumulative IPC: 0.350297 (Simulation time: 0 hr 29 min 58 sec) 
Heartbeat CPU 0 instructions: 43000001 cycles: 99179143 heartbeat IPC: 0.292582 cumulative IPC: 0.348215 (Simulation time: 0 hr 30 min 53 sec) 
Heartbeat CPU 0 instructions: 44000000 cycles: 101395505 heartbeat IPC: 0.451189 cumulative IPC: 0.350568 (Simulation time: 0 hr 31 min 28 sec) 
Heartbeat CPU 0 instructions: 45000001 cycles: 102639211 heartbeat IPC: 0.804049 cumulative IPC: 0.35631 (Simulation time: 0 hr 31 min 59 sec) 
Heartbeat CPU 0 instructions: 46000002 cycles: 105480662 heartbeat IPC: 0.351933 cumulative IPC: 0.356187 (Simulation time: 0 hr 32 min 43 sec) 
Heartbeat CPU 0 instructions: 47000000 cycles: 108604316 heartbeat IPC: 0.320137 cumulative IPC: 0.355106 (Simulation time: 0 hr 33 min 34 sec) 
Heartbeat CPU 0 instructions: 48000000 cycles: 111506382 heartbeat IPC: 0.344582 cumulative IPC: 0.354821 (Simulation time: 0 hr 34 min 25 sec) 
Heartbeat CPU 0 instructions: 49000001 cycles: 113442353 heartbeat IPC: 0.516537 cumulative IPC: 0.357693 (Simulation time: 0 hr 35 min 7 sec) 
Heartbeat CPU 0 instructions: 50000000 cycles: 116702572 heartbeat IPC: 0.306728 cumulative IPC: 0.356213 (Simulation time: 0 hr 36 min 0 sec) 
Heartbeat CPU 0 instructions: 51000003 cycles: 119067747 heartbeat IPC: 0.422803 cumulative IPC: 0.357587 (Simulation time: 0 hr 36 min 38 sec) 
Heartbeat CPU 0 instructions: 52000000 cycles: 120305723 heartbeat IPC: 0.807768 cumulative IPC: 0.362395 (Simulation time: 0 hr 37 min 9 sec) 
Heartbeat CPU 0 instructions: 53000003 cycles: 123118981 heartbeat IPC: 0.355461 cumulative IPC: 0.362231 (Simulation time: 0 hr 37 min 52 sec) 
Heartbeat CPU 0 instructions: 54000001 cycles: 126284928 heartbeat IPC: 0.315861 cumulative IPC: 0.361026 (Simulation time: 0 hr 38 min 42 sec) 
Heartbeat CPU 0 instructions: 55000002 cycles: 129479255 heartbeat IPC: 0.313055 cumulative IPC: 0.359801 (Simulation time: 0 hr 39 min 32 sec) 
Heartbeat CPU 0 instructions: 56000000 cycles: 131271039 heartbeat IPC: 0.558102 cumulative IPC: 0.362602 (Simulation time: 0 hr 40 min 13 sec) 
Heartbeat CPU 0 instructions: 57000000 cycles: 134654173 heartbeat IPC: 0.295584 cumulative IPC: 0.360861 (Simulation time: 0 hr 41 min 6 sec) 
Heartbeat CPU 0 instructions: 58000000 cycles: 136872728 heartbeat IPC: 0.450744 cumulative IPC: 0.362367 (Simulation time: 0 hr 41 min 41 sec) 
Heartbeat CPU 0 instructions: 59000001 cycles: 138098205 heartbeat IPC: 0.81601 cumulative IPC: 0.366525 (Simulation time: 0 hr 42 min 12 sec) 
Heartbeat CPU 0 instructions: 60000000 cycles: 140940461 heartbeat IPC: 0.351833 cumulative IPC: 0.366219 (Simulation time: 0 hr 42 min 53 sec) 
Heartbeat CPU 0 instructions: 61000003 cycles: 144112884 heartbeat IPC: 0.315217 cumulative IPC: 0.365061 (Simulation time: 0 hr 43 min 46 sec) 
Heartbeat CPU 0 instructions: 62000002 cycles: 147370453 heartbeat IPC: 0.306977 cumulative IPC: 0.363737 (Simulation time: 0 hr 44 min 39 sec) 
Heartbeat CPU 0 instructions: 63000001 cycles: 148952846 heartbeat IPC: 0.631954 cumulative IPC: 0.366674 (Simulation time: 0 hr 45 min 21 sec) 
Heartbeat CPU 0 instructions: 64000000 cycles: 152586192 heartbeat IPC: 0.275228 cumulative IPC: 0.364431 (Simulation time: 0 hr 46 min 16 sec) 
Heartbeat CPU 0 instructions: 65000001 cycles: 154446682 heartbeat IPC: 0.537493 cumulative IPC: 0.366577 (Simulation time: 0 hr 46 min 55 sec) 
Heartbeat CPU 0 instructions: 66000000 cycles: 155669975 heartbeat IPC: 0.817465 cumulative IPC: 0.370224 (Simulation time: 0 hr 47 min 29 sec) 
Heartbeat CPU 0 instructions: 67000003 cycles: 158546074 heartbeat IPC: 0.347694 cumulative IPC: 0.369804 (Simulation time: 0 hr 48 min 7 sec) 
Heartbeat CPU 0 instructions: 68000000 cycles: 161679461 heartbeat IPC: 0.319143 cumulative IPC: 0.368794 (Simulation time: 0 hr 48 min 50 sec) 
Heartbeat CPU 0 instructions: 69000001 cycles: 164588966 heartbeat IPC: 0.343701 cumulative IPC: 0.368338 (Simulation time: 0 hr 49 min 35 sec) 
Heartbeat CPU 0 instructions: 70000000 cycles: 166421143 heartbeat IPC: 0.545798 cumulative IPC: 0.370345 (Simulation time: 0 hr 50 min 7 sec) 
Heartbeat CPU 0 instructions: 71000001 cycles: 169816476 heartbeat IPC: 0.294522 cumulative IPC: 0.368789 (Simulation time: 0 hr 50 min 48 sec) 
Heartbeat CPU 0 instructions: 72000000 cycles: 172015694 heartbeat IPC: 0.454707 cumulative IPC: 0.369916 (Simulation time: 0 hr 51 min 21 sec) 
Heartbeat CPU 0 instructions: 73000000 cycles: 173233826 heartbeat IPC: 0.820929 cumulative IPC: 0.37317 (Simulation time: 0 hr 51 min 46 sec) 
Heartbeat CPU 0 instructions: 74000001 cycles: 176062507 heartbeat IPC: 0.353522 cumulative IPC: 0.372847 (Simulation time: 0 hr 52 min 22 sec) 
Heartbeat CPU 0 instructions: 75000003 cycles: 179233183 heartbeat IPC: 0.315391 cumulative IPC: 0.371805 (Simulation time: 0 hr 53 min 2 sec) 
Heartbeat CPU 0 instructions: 76000000 cycles: 182487946 heartbeat IPC: 0.307241 cumulative IPC: 0.370625 (Simulation time: 0 hr 53 min 41 sec) 
Heartbeat CPU 0 instructions: 77000000 cycles: 184045534 heartbeat IPC: 0.642018 cumulative IPC: 0.372978 (Simulation time: 0 hr 54 min 14 sec) 
Heartbeat CPU 0 instructions: 78000000 cycles: 187819021 heartbeat IPC: 0.265007 cumulative IPC: 0.370756 (Simulation time: 0 hr 54 min 59 sec) 
Heartbeat CPU 0 instructions: 79000002 cycles: 189604852 heartbeat IPC: 0.559965 cumulative IPC: 0.372581 (Simulation time: 0 hr 55 min 26 sec) 
Heartbeat CPU 0 instructions: 80000000 cycles: 190827413 heartbeat IPC: 0.817953 cumulative IPC: 0.375502 (Simulation time: 0 hr 55 min 51 sec) 
Heartbeat CPU 0 instructions: 81000000 cycles: 193707970 heartbeat IPC: 0.347155 cumulative IPC: 0.37507 (Simulation time: 0 hr 56 min 24 sec) 
Heartbeat CPU 0 instructions: 82000000 cycles: 196904900 heartbeat IPC: 0.3128 cumulative IPC: 0.374036 (Simulation time: 0 hr 57 min 5 sec) 
Heartbeat CPU 0 instructions: 83000000 cycles: 200242874 heartbeat IPC: 0.299583 cumulative IPC: 0.372767 (Simulation time: 0 hr 57 min 41 sec) 
Heartbeat CPU 0 instructions: 84000000 cycles: 201925115 heartbeat IPC: 0.594445 cumulative IPC: 0.374655 (Simulation time: 0 hr 58 min 13 sec) 
Heartbeat CPU 0 instructions: 85000000 cycles: 205919073 heartbeat IPC: 0.250378 cumulative IPC: 0.372192 (Simulation time: 0 hr 58 min 54 sec) 
Heartbeat CPU 0 instructions: 86000002 cycles: 207330389 heartbeat IPC: 0.70856 cumulative IPC: 0.374531 (Simulation time: 0 hr 59 min 14 sec) 
Heartbeat CPU 0 instructions: 87000002 cycles: 208570524 heartbeat IPC: 0.806364 cumulative IPC: 0.377155 (Simulation time: 0 hr 59 min 39 sec) 
Heartbeat CPU 0 instructions: 88000000 cycles: 211471224 heartbeat IPC: 0.344744 cumulative IPC: 0.3767 (Simulation time: 1 hr 0 min 13 sec) 
Heartbeat CPU 0 instructions: 89000003 cycles: 214987509 heartbeat IPC: 0.284392 cumulative IPC: 0.375159 (Simulation time: 1 hr 0 min 52 sec) 
Heartbeat CPU 0 instructions: 90000001 cycles: 218034098 heartbeat IPC: 0.328235 cumulative IPC: 0.37449 (Simulation time: 1 hr 1 min 25 sec) 
Heartbeat CPU 0 instructions: 91000003 cycles: 219841750 heartbeat IPC: 0.553205 cumulative IPC: 0.375989 (Simulation time: 1 hr 1 min 55 sec) 
Heartbeat CPU 0 instructions: 92000000 cycles: 223536878 heartbeat IPC: 0.270626 cumulative IPC: 0.374213 (Simulation time: 1 hr 2 min 29 sec) 
Heartbeat CPU 0 instructions: 93000000 cycles: 224791090 heartbeat IPC: 0.797313 cumulative IPC: 0.376621 (Simulation time: 1 hr 2 min 45 sec) 
Heartbeat CPU 0 instructions: 94000000 cycles: 226154667 heartbeat IPC: 0.733365 cumulative IPC: 0.378814 (Simulation time: 1 hr 3 min 5 sec) 
Heartbeat CPU 0 instructions: 95000002 cycles: 229168901 heartbeat IPC: 0.33176 cumulative IPC: 0.378183 (Simulation time: 1 hr 3 min 30 sec) 
Heartbeat CPU 0 instructions: 96000000 cycles: 232059212 heartbeat IPC: 0.345983 cumulative IPC: 0.377774 (Simulation time: 1 hr 3 min 58 sec) 
Heartbeat CPU 0 instructions: 97000003 cycles: 234713206 heartbeat IPC: 0.376792 cumulative IPC: 0.377763 (Simulation time: 1 hr 4 min 21 sec) 
Heartbeat CPU 0 instructions: 98000003 cycles: 236984684 heartbeat IPC: 0.440242 cumulative IPC: 0.378373 (Simulation time: 1 hr 4 min 46 sec) 
Heartbeat CPU 0 instructions: 99000000 cycles: 240218115 heartbeat IPC: 0.309268 cumulative IPC: 0.377426 (Simulation time: 1 hr 5 min 10 sec) 
Heartbeat CPU 0 instructions: 100000000 cycles: 241466632 heartbeat IPC: 0.80095 cumulative IPC: 0.379656 (Simulation time: 1 hr 5 min 25 sec) 
Heartbeat CPU 0 instructions: 101000003 cycles: 243382561 heartbeat IPC: 0.521942 cumulative IPC: 0.380797 (Simulation time: 1 hr 5 min 42 sec) 
Heartbeat CPU 0 instructions: 102000002 cycles: 246534185 heartbeat IPC: 0.317296 cumulative IPC: 0.379971 (Simulation time: 1 hr 6 min 8 sec) 
Heartbeat CPU 0 instructions: 103000000 cycles: 248682848 heartbeat IPC: 0.465405 cumulative IPC: 0.380722 (Simulation time: 1 hr 6 min 33 sec) 
Heartbeat CPU 0 instructions: 104000000 cycles: 257507291 heartbeat IPC: 0.113322 cumulative IPC: 0.371399 (Simulation time: 1 hr 7 min 3 sec) 
Heartbeat CPU 0 instructions: 105000000 cycles: 259556926 heartbeat IPC: 0.487892 cumulative IPC: 0.372335 (Simulation time: 1 hr 7 min 31 sec) 
Heartbeat CPU 0 instructions: 106000002 cycles: 263437825 heartbeat IPC: 0.257673 cumulative IPC: 0.370617 (Simulation time: 1 hr 7 min 58 sec) 
Heartbeat CPU 0 instructions: 107000003 cycles: 267792520 heartbeat IPC: 0.229637 cumulative IPC: 0.368286 (Simulation time: 1 hr 8 min 23 sec) 
Heartbeat CPU 0 instructions: 108000000 cycles: 271198654 heartbeat IPC: 0.293587 cumulative IPC: 0.367332 (Simulation time: 1 hr 8 min 47 sec) 
Heartbeat CPU 0 instructions: 109000000 cycles: 274561542 heartbeat IPC: 0.297363 cumulative IPC: 0.366461 (Simulation time: 1 hr 9 min 8 sec) 
Heartbeat CPU 0 instructions: 110000003 cycles: 278100405 heartbeat IPC: 0.282577 cumulative IPC: 0.365377 (Simulation time: 1 hr 9 min 24 sec) 
Finished CPU 0 instructions: 100000003 cycles: 273690229 cummulative IPC: 0.365377 (Simulation time: 1 hr 9 min 24 sec) 

ChampSim completed all CPUs

Region of Interest Statistics

CPU 0 cummulative IPC: 0.365377 instructions: 100000003 cycles: 273690229
LLC TOTAL     ACCESS:    8729702  HIT:    4618438  MISS:    4111264
LLC LOAD      ACCESS:    2229816  HIT:    1045472  MISS:    1184344
LLC RFO       ACCESS:     871508  HIT:     343872  MISS:     527636
LLC PREFETCH  ACCESS:    3453476  HIT:    1504240  MISS:    1949236
LLC WRITEBACK ACCESS:    2174902  HIT:    1724854  MISS:     450048
Insertion Distribution: 
	LOAD 383676 0 148395 775800 
	RFO 183855 0 130988 257978 
	PREF 0 211301 373049 1653878 
	WRITEBACK 0 0 0 526762 
Total Prefetch Downgrades: 180346
