
*** ChampSim Multicore Out-of-Order Simulator ***

Warmup Instructions: 10000000
Simulation Instructions: 100000000
Configuration: 2
Number of CPUs: 1
LLC sets: 2048
LLC ways: 16
Off-chip DRAM Channels: 1 Width: 64-bit Data Rate: 1600 MT/s

CPU 0 runs /datasets/cs240c-wi22-a00-public/data/Assignment2-gz/GemsFDTD_716B.trace.gz
CPU 0 L1D next line prefetcher
CPU 0 L2C IP-based stride prefetcher
Initialize SRRIP state
Heartbeat CPU 0 instructions: 1000000 cycles: 415045 heartbeat IPC: 2.40938 cumulative IPC: 2.40938 (Simulation time: 0 hr 0 min 38 sec) 
Heartbeat CPU 0 instructions: 2000003 cycles: 829979 heartbeat IPC: 2.41003 cumulative IPC: 2.4097 (Simulation time: 0 hr 1 min 14 sec) 
Heartbeat CPU 0 instructions: 3000000 cycles: 1280233 heartbeat IPC: 2.22096 cumulative IPC: 2.34332 (Simulation time: 0 hr 1 min 49 sec) 
Heartbeat CPU 0 instructions: 4000000 cycles: 1737265 heartbeat IPC: 2.18803 cumulative IPC: 2.30247 (Simulation time: 0 hr 2 min 26 sec) 
Heartbeat CPU 0 instructions: 5000000 cycles: 2152246 heartbeat IPC: 2.40975 cumulative IPC: 2.32315 (Simulation time: 0 hr 3 min 13 sec) 
Heartbeat CPU 0 instructions: 6000000 cycles: 2567262 heartbeat IPC: 2.40955 cumulative IPC: 2.33712 (Simulation time: 0 hr 4 min 2 sec) 
Heartbeat CPU 0 instructions: 7000000 cycles: 2982265 heartbeat IPC: 2.40962 cumulative IPC: 2.34721 (Simulation time: 0 hr 4 min 47 sec) 
Heartbeat CPU 0 instructions: 8000000 cycles: 3395192 heartbeat IPC: 2.42174 cumulative IPC: 2.35627 (Simulation time: 0 hr 5 min 34 sec) 
Heartbeat CPU 0 instructions: 9000003 cycles: 3840362 heartbeat IPC: 2.24634 cumulative IPC: 2.34353 (Simulation time: 0 hr 6 min 28 sec) 
Heartbeat CPU 0 instructions: 10000002 cycles: 4355040 heartbeat IPC: 1.94296 cumulative IPC: 2.29619 (Simulation time: 0 hr 7 min 19 sec) 

Warmup complete CPU 0 instructions: 10000002 cycles: 4355040 (Simulation time: 0 hr 7 min 19 sec) 

Heartbeat CPU 0 instructions: 11000000 cycles: 7813584 heartbeat IPC: 0.289138 cumulative IPC: 0.289138 (Simulation time: 0 hr 8 min 30 sec) 
Heartbeat CPU 0 instructions: 12000000 cycles: 11275948 heartbeat IPC: 0.28882 cumulative IPC: 0.288979 (Simulation time: 0 hr 9 min 40 sec) 
Heartbeat CPU 0 instructions: 13000000 cycles: 14741408 heartbeat IPC: 0.288562 cumulative IPC: 0.28884 (Simulation time: 0 hr 10 min 43 sec) 
Heartbeat CPU 0 instructions: 14000000 cycles: 18385304 heartbeat IPC: 0.274432 cumulative IPC: 0.285098 (Simulation time: 0 hr 11 min 45 sec) 
Heartbeat CPU 0 instructions: 15000000 cycles: 22122425 heartbeat IPC: 0.267586 cumulative IPC: 0.281414 (Simulation time: 0 hr 12 min 42 sec) 
Heartbeat CPU 0 instructions: 16000000 cycles: 25867706 heartbeat IPC: 0.267003 cumulative IPC: 0.278905 (Simulation time: 0 hr 13 min 50 sec) 
Heartbeat CPU 0 instructions: 17000002 cycles: 29613686 heartbeat IPC: 0.266953 cumulative IPC: 0.277133 (Simulation time: 0 hr 15 min 1 sec) 
Heartbeat CPU 0 instructions: 18000003 cycles: 33351177 heartbeat IPC: 0.267559 cumulative IPC: 0.275899 (Simulation time: 0 hr 16 min 11 sec) 
Heartbeat CPU 0 instructions: 19000000 cycles: 37085034 heartbeat IPC: 0.267819 cumulative IPC: 0.274977 (Simulation time: 0 hr 17 min 21 sec) 
Heartbeat CPU 0 instructions: 20000000 cycles: 39753664 heartbeat IPC: 0.374724 cumulative IPC: 0.282497 (Simulation time: 0 hr 18 min 25 sec) 
Heartbeat CPU 0 instructions: 21000000 cycles: 42054048 heartbeat IPC: 0.43471 cumulative IPC: 0.291785 (Simulation time: 0 hr 19 min 25 sec) 
Heartbeat CPU 0 instructions: 22000000 cycles: 44328230 heartbeat IPC: 0.439719 cumulative IPC: 0.300201 (Simulation time: 0 hr 20 min 24 sec) 
Heartbeat CPU 0 instructions: 23000000 cycles: 46601135 heartbeat IPC: 0.439966 cumulative IPC: 0.307721 (Simulation time: 0 hr 21 min 24 sec) 
Heartbeat CPU 0 instructions: 24000000 cycles: 48902307 heartbeat IPC: 0.434561 cumulative IPC: 0.314273 (Simulation time: 0 hr 22 min 24 sec) 
Heartbeat CPU 0 instructions: 25000002 cycles: 51224802 heartbeat IPC: 0.430572 cumulative IPC: 0.320036 (Simulation time: 0 hr 23 min 25 sec) 
Heartbeat CPU 0 instructions: 26000002 cycles: 53203674 heartbeat IPC: 0.505338 cumulative IPC: 0.327542 (Simulation time: 0 hr 24 min 24 sec) 
Heartbeat CPU 0 instructions: 27000002 cycles: 55167830 heartbeat IPC: 0.509125 cumulative IPC: 0.334561 (Simulation time: 0 hr 25 min 21 sec) 
Heartbeat CPU 0 instructions: 28000000 cycles: 57011439 heartbeat IPC: 0.542413 cumulative IPC: 0.341839 (Simulation time: 0 hr 26 min 17 sec) 
Heartbeat CPU 0 instructions: 29000003 cycles: 58892025 heartbeat IPC: 0.531751 cumulative IPC: 0.348387 (Simulation time: 0 hr 27 min 9 sec) 
Heartbeat CPU 0 instructions: 30000002 cycles: 60795387 heartbeat IPC: 0.525386 cumulative IPC: 0.354356 (Simulation time: 0 hr 28 min 4 sec) 
Heartbeat CPU 0 instructions: 31000002 cycles: 62231900 heartbeat IPC: 0.69613 cumulative IPC: 0.362839 (Simulation time: 0 hr 28 min 59 sec) 
Heartbeat CPU 0 instructions: 32000000 cycles: 63636014 heartbeat IPC: 0.712191 cumulative IPC: 0.371114 (Simulation time: 0 hr 29 min 51 sec) 
Heartbeat CPU 0 instructions: 33000000 cycles: 65043867 heartbeat IPC: 0.710301 cumulative IPC: 0.378982 (Simulation time: 0 hr 30 min 44 sec) 
Heartbeat CPU 0 instructions: 34000001 cycles: 66455252 heartbeat IPC: 0.708525 cumulative IPC: 0.386472 (Simulation time: 0 hr 31 min 39 sec) 
Heartbeat CPU 0 instructions: 35000001 cycles: 67856791 heartbeat IPC: 0.713501 cumulative IPC: 0.39369 (Simulation time: 0 hr 32 min 34 sec) 
Heartbeat CPU 0 instructions: 36000000 cycles: 69333018 heartbeat IPC: 0.677402 cumulative IPC: 0.400136 (Simulation time: 0 hr 33 min 26 sec) 
Heartbeat CPU 0 instructions: 37000002 cycles: 70885640 heartbeat IPC: 0.644073 cumulative IPC: 0.405828 (Simulation time: 0 hr 34 min 21 sec) 
Heartbeat CPU 0 instructions: 38000002 cycles: 72305078 heartbeat IPC: 0.704504 cumulative IPC: 0.412067 (Simulation time: 0 hr 35 min 18 sec) 
Heartbeat CPU 0 instructions: 39000000 cycles: 73744832 heartbeat IPC: 0.694562 cumulative IPC: 0.417929 (Simulation time: 0 hr 36 min 12 sec) 
Heartbeat CPU 0 instructions: 40000000 cycles: 75177695 heartbeat IPC: 0.697903 cumulative IPC: 0.423593 (Simulation time: 0 hr 37 min 6 sec) 
Heartbeat CPU 0 instructions: 41000003 cycles: 76611884 heartbeat IPC: 0.69726 cumulative IPC: 0.429025 (Simulation time: 0 hr 38 min 0 sec) 
Heartbeat CPU 0 instructions: 42000000 cycles: 78037525 heartbeat IPC: 0.701437 cumulative IPC: 0.434296 (Simulation time: 0 hr 38 min 57 sec) 
Heartbeat CPU 0 instructions: 43000002 cycles: 80942178 heartbeat IPC: 0.344276 cumulative IPC: 0.430882 (Simulation time: 0 hr 40 min 1 sec) 
Heartbeat CPU 0 instructions: 44000000 cycles: 84392504 heartbeat IPC: 0.289827 cumulative IPC: 0.424801 (Simulation time: 0 hr 41 min 11 sec) 
Heartbeat CPU 0 instructions: 45000003 cycles: 87839316 heartbeat IPC: 0.290124 cumulative IPC: 0.419241 (Simulation time: 0 hr 42 min 22 sec) 
Heartbeat CPU 0 instructions: 46000000 cycles: 91286531 heartbeat IPC: 0.290088 cumulative IPC: 0.414119 (Simulation time: 0 hr 43 min 28 sec) 
Heartbeat CPU 0 instructions: 47000000 cycles: 94733038 heartbeat IPC: 0.290149 cumulative IPC: 0.409392 (Simulation time: 0 hr 44 min 38 sec) 
Heartbeat CPU 0 instructions: 48000000 cycles: 98379422 heartbeat IPC: 0.274244 cumulative IPC: 0.40415 (Simulation time: 0 hr 45 min 49 sec) 
Heartbeat CPU 0 instructions: 49000000 cycles: 102087341 heartbeat IPC: 0.269693 cumulative IPC: 0.399049 (Simulation time: 0 hr 46 min 58 sec) 
Heartbeat CPU 0 instructions: 50000001 cycles: 105804714 heartbeat IPC: 0.269007 cumulative IPC: 0.394284 (Simulation time: 0 hr 48 min 3 sec) 
Heartbeat CPU 0 instructions: 51000003 cycles: 109525697 heartbeat IPC: 0.268747 cumulative IPC: 0.389843 (Simulation time: 0 hr 49 min 3 sec) 
Heartbeat CPU 0 instructions: 52000000 cycles: 113237492 heartbeat IPC: 0.269411 cumulative IPC: 0.385737 (Simulation time: 0 hr 50 min 2 sec) 
Heartbeat CPU 0 instructions: 53000000 cycles: 117012204 heartbeat IPC: 0.264921 cumulative IPC: 0.381689 (Simulation time: 0 hr 50 min 59 sec) 
Heartbeat CPU 0 instructions: 54000001 cycles: 118887099 heartbeat IPC: 0.533364 cumulative IPC: 0.384172 (Simulation time: 0 hr 51 min 46 sec) 
Heartbeat CPU 0 instructions: 55000002 cycles: 120772737 heartbeat IPC: 0.530325 cumulative IPC: 0.386539 (Simulation time: 0 hr 52 min 37 sec) 
Heartbeat CPU 0 instructions: 56000000 cycles: 122705788 heartbeat IPC: 0.517316 cumulative IPC: 0.388675 (Simulation time: 0 hr 53 min 25 sec) 
Heartbeat CPU 0 instructions: 57000002 cycles: 124622886 heartbeat IPC: 0.521623 cumulative IPC: 0.390794 (Simulation time: 0 hr 54 min 10 sec) 
Heartbeat CPU 0 instructions: 58000001 cycles: 126470357 heartbeat IPC: 0.54128 cumulative IPC: 0.393071 (Simulation time: 0 hr 54 min 55 sec) 
Heartbeat CPU 0 instructions: 59000002 cycles: 128313883 heartbeat IPC: 0.542439 cumulative IPC: 0.395292 (Simulation time: 0 hr 55 min 38 sec) 
Heartbeat CPU 0 instructions: 60000000 cycles: 129930606 heartbeat IPC: 0.618534 cumulative IPC: 0.398167 (Simulation time: 0 hr 56 min 22 sec) 
Heartbeat CPU 0 instructions: 61000002 cycles: 131550643 heartbeat IPC: 0.617271 cumulative IPC: 0.400957 (Simulation time: 0 hr 57 min 6 sec) 
Heartbeat CPU 0 instructions: 62000000 cycles: 133176948 heartbeat IPC: 0.61489 cumulative IPC: 0.403658 (Simulation time: 0 hr 57 min 49 sec) 
Heartbeat CPU 0 instructions: 63000000 cycles: 134819896 heartbeat IPC: 0.608662 cumulative IPC: 0.40624 (Simulation time: 0 hr 58 min 34 sec) 
Heartbeat CPU 0 instructions: 64000000 cycles: 136447754 heartbeat IPC: 0.614304 cumulative IPC: 0.408804 (Simulation time: 0 hr 59 min 18 sec) 
Heartbeat CPU 0 instructions: 65000001 cycles: 137862608 heartbeat IPC: 0.706787 cumulative IPC: 0.411962 (Simulation time: 1 hr 0 min 2 sec) 
Heartbeat CPU 0 instructions: 66000003 cycles: 139279791 heartbeat IPC: 0.705627 cumulative IPC: 0.415046 (Simulation time: 1 hr 0 min 41 sec) 
Heartbeat CPU 0 instructions: 67000003 cycles: 140693034 heartbeat IPC: 0.707592 cumulative IPC: 0.418079 (Simulation time: 1 hr 1 min 19 sec) 
Heartbeat CPU 0 instructions: 68000000 cycles: 142101173 heartbeat IPC: 0.710155 cumulative IPC: 0.421064 (Simulation time: 1 hr 1 min 53 sec) 
Heartbeat CPU 0 instructions: 69000002 cycles: 143511522 heartbeat IPC: 0.709046 cumulative IPC: 0.423983 (Simulation time: 1 hr 2 min 24 sec) 
Heartbeat CPU 0 instructions: 70000000 cycles: 145080123 heartbeat IPC: 0.637509 cumulative IPC: 0.426363 (Simulation time: 1 hr 2 min 57 sec) 
Heartbeat CPU 0 instructions: 71000000 cycles: 146501994 heartbeat IPC: 0.703299 cumulative IPC: 0.429133 (Simulation time: 1 hr 3 min 30 sec) 
Heartbeat CPU 0 instructions: 72000000 cycles: 147925676 heartbeat IPC: 0.702404 cumulative IPC: 0.431843 (Simulation time: 1 hr 4 min 1 sec) 
Heartbeat CPU 0 instructions: 73000002 cycles: 149351741 heartbeat IPC: 0.701232 cumulative IPC: 0.434493 (Simulation time: 1 hr 4 min 31 sec) 
Heartbeat CPU 0 instructions: 74000000 cycles: 150782346 heartbeat IPC: 0.699004 cumulative IPC: 0.437077 (Simulation time: 1 hr 5 min 0 sec) 
Heartbeat CPU 0 instructions: 75000000 cycles: 152211799 heartbeat IPC: 0.699568 cumulative IPC: 0.439615 (Simulation time: 1 hr 5 min 28 sec) 
Heartbeat CPU 0 instructions: 76000000 cycles: 153635337 heartbeat IPC: 0.702475 cumulative IPC: 0.442121 (Simulation time: 1 hr 5 min 57 sec) 
Heartbeat CPU 0 instructions: 77000001 cycles: 156999358 heartbeat IPC: 0.297264 cumulative IPC: 0.438929 (Simulation time: 1 hr 6 min 31 sec) 
Heartbeat CPU 0 instructions: 78000000 cycles: 160503029 heartbeat IPC: 0.285415 cumulative IPC: 0.435484 (Simulation time: 1 hr 7 min 4 sec) 
Heartbeat CPU 0 instructions: 79000002 cycles: 163997471 heartbeat IPC: 0.286169 cumulative IPC: 0.432216 (Simulation time: 1 hr 7 min 38 sec) 
Heartbeat CPU 0 instructions: 80000000 cycles: 167500264 heartbeat IPC: 0.285486 cumulative IPC: 0.429066 (Simulation time: 1 hr 8 min 12 sec) 
Heartbeat CPU 0 instructions: 81000000 cycles: 170998071 heartbeat IPC: 0.285893 cumulative IPC: 0.42606 (Simulation time: 1 hr 8 min 45 sec) 
Heartbeat CPU 0 instructions: 82000002 cycles: 174737739 heartbeat IPC: 0.267404 cumulative IPC: 0.422578 (Simulation time: 1 hr 9 min 16 sec) 
Heartbeat CPU 0 instructions: 83000002 cycles: 178471346 heartbeat IPC: 0.267837 cumulative IPC: 0.41926 (Simulation time: 1 hr 9 min 41 sec) 
Heartbeat CPU 0 instructions: 84000000 cycles: 182218999 heartbeat IPC: 0.266833 cumulative IPC: 0.416048 (Simulation time: 1 hr 10 min 3 sec) 
Heartbeat CPU 0 instructions: 85000000 cycles: 185965423 heartbeat IPC: 0.266921 cumulative IPC: 0.412972 (Simulation time: 1 hr 10 min 24 sec) 
Heartbeat CPU 0 instructions: 86000000 cycles: 189717814 heartbeat IPC: 0.266497 cumulative IPC: 0.410007 (Simulation time: 1 hr 10 min 44 sec) 
Heartbeat CPU 0 instructions: 87000000 cycles: 193104971 heartbeat IPC: 0.295233 cumulative IPC: 0.407947 (Simulation time: 1 hr 11 min 2 sec) 
Heartbeat CPU 0 instructions: 88000000 cycles: 194813598 heartbeat IPC: 0.585265 cumulative IPC: 0.409538 (Simulation time: 1 hr 11 min 18 sec) 
Heartbeat CPU 0 instructions: 89000001 cycles: 196497820 heartbeat IPC: 0.593747 cumulative IPC: 0.411153 (Simulation time: 1 hr 11 min 35 sec) 
Heartbeat CPU 0 instructions: 90000001 cycles: 198186022 heartbeat IPC: 0.592346 cumulative IPC: 0.412731 (Simulation time: 1 hr 11 min 50 sec) 
Heartbeat CPU 0 instructions: 91000001 cycles: 199881146 heartbeat IPC: 0.589927 cumulative IPC: 0.414267 (Simulation time: 1 hr 12 min 4 sec) 
Heartbeat CPU 0 instructions: 92000000 cycles: 201571681 heartbeat IPC: 0.591528 cumulative IPC: 0.415786 (Simulation time: 1 hr 12 min 16 sec) 
Heartbeat CPU 0 instructions: 93000002 cycles: 203249053 heartbeat IPC: 0.596172 cumulative IPC: 0.417308 (Simulation time: 1 hr 12 min 28 sec) 
Heartbeat CPU 0 instructions: 94000001 cycles: 204750387 heartbeat IPC: 0.666074 cumulative IPC: 0.419171 (Simulation time: 1 hr 12 min 39 sec) 
Heartbeat CPU 0 instructions: 95000000 cycles: 206244777 heartbeat IPC: 0.669169 cumulative IPC: 0.421022 (Simulation time: 1 hr 12 min 48 sec) 
Heartbeat CPU 0 instructions: 96000000 cycles: 207741892 heartbeat IPC: 0.667951 cumulative IPC: 0.42284 (Simulation time: 1 hr 12 min 57 sec) 
Heartbeat CPU 0 instructions: 97000001 cycles: 209236761 heartbeat IPC: 0.668956 cumulative IPC: 0.424635 (Simulation time: 1 hr 13 min 6 sec) 
Heartbeat CPU 0 instructions: 98000000 cycles: 210826042 heartbeat IPC: 0.629215 cumulative IPC: 0.42621 (Simulation time: 1 hr 13 min 16 sec) 
Heartbeat CPU 0 instructions: 99000001 cycles: 212263331 heartbeat IPC: 0.695755 cumulative IPC: 0.428073 (Simulation time: 1 hr 13 min 23 sec) 
Heartbeat CPU 0 instructions: 100000000 cycles: 213700712 heartbeat IPC: 0.695709 cumulative IPC: 0.429911 (Simulation time: 1 hr 13 min 30 sec) 
Heartbeat CPU 0 instructions: 101000002 cycles: 215132364 heartbeat IPC: 0.698495 cumulative IPC: 0.431735 (Simulation time: 1 hr 13 min 36 sec) 
Heartbeat CPU 0 instructions: 102000003 cycles: 216567300 heartbeat IPC: 0.696896 cumulative IPC: 0.433528 (Simulation time: 1 hr 13 min 43 sec) 
Heartbeat CPU 0 instructions: 103000001 cycles: 217996701 heartbeat IPC: 0.699592 cumulative IPC: 0.435308 (Simulation time: 1 hr 13 min 49 sec) 
Heartbeat CPU 0 instructions: 104000000 cycles: 219576185 heartbeat IPC: 0.633117 cumulative IPC: 0.43676 (Simulation time: 1 hr 13 min 55 sec) 
Heartbeat CPU 0 instructions: 105000003 cycles: 221019226 heartbeat IPC: 0.692983 cumulative IPC: 0.438467 (Simulation time: 1 hr 14 min 0 sec) 
Heartbeat CPU 0 instructions: 106000001 cycles: 222468795 heartbeat IPC: 0.689859 cumulative IPC: 0.440137 (Simulation time: 1 hr 14 min 7 sec) 
Heartbeat CPU 0 instructions: 107000001 cycles: 223923839 heartbeat IPC: 0.687264 cumulative IPC: 0.441775 (Simulation time: 1 hr 14 min 13 sec) 
Heartbeat CPU 0 instructions: 108000000 cycles: 225370123 heartbeat IPC: 0.691426 cumulative IPC: 0.443409 (Simulation time: 1 hr 14 min 19 sec) 
Heartbeat CPU 0 instructions: 109000000 cycles: 226807499 heartbeat IPC: 0.695712 cumulative IPC: 0.445039 (Simulation time: 1 hr 14 min 24 sec) 
Heartbeat CPU 0 instructions: 110000002 cycles: 228551215 heartbeat IPC: 0.573489 cumulative IPC: 0.446038 (Simulation time: 1 hr 14 min 30 sec) 
Finished CPU 0 instructions: 100000000 cycles: 224196175 cummulative IPC: 0.446038 (Simulation time: 1 hr 14 min 30 sec) 

ChampSim completed all CPUs

Region of Interest Statistics

CPU 0 cummulative IPC: 0.446038 instructions: 100000000 cycles: 224196175
LLC TOTAL     ACCESS:   13010024  HIT:   10699797  MISS:    2310227
LLC LOAD      ACCESS:    5289343  HIT:    4386458  MISS:     902885
LLC RFO       ACCESS:          0  HIT:          0  MISS:          0
LLC PREFETCH  ACCESS:    6807202  HIT:    5403524  MISS:    1403678
LLC WRITEBACK ACCESS:     913479  HIT:     909815  MISS:       3664
Insertion Distribution: 
	LOAD 128472 0 28890 787820 
	RFO 4 0 14499 0 
	PREF 0 603156 88471 782488 
	WRITEBACK 0 0 0 5047 
Total Prefetch Downgrades: 556093
