
*** ChampSim Multicore Out-of-Order Simulator ***

Warmup Instructions: 10000000
Simulation Instructions: 100000000
Configuration: 2
Number of CPUs: 1
LLC sets: 2048
LLC ways: 16
Off-chip DRAM Channels: 1 Width: 64-bit Data Rate: 1600 MT/s

CPU 0 runs /datasets/cs240c-wi22-a00-public/data/Assignment2-gz/leslie3d_1116B.trace.gz
CPU 0 L1D next line prefetcher
CPU 0 L2C IP-based stride prefetcher
Initialize SRRIP state
Heartbeat CPU 0 instructions: 1000003 cycles: 535311 heartbeat IPC: 1.86808 cumulative IPC: 1.86808 (Simulation time: 0 hr 0 min 37 sec) 
Heartbeat CPU 0 instructions: 2000003 cycles: 1071193 heartbeat IPC: 1.86608 cumulative IPC: 1.86708 (Simulation time: 0 hr 1 min 20 sec) 
Heartbeat CPU 0 instructions: 3000003 cycles: 1607887 heartbeat IPC: 1.86326 cumulative IPC: 1.8658 (Simulation time: 0 hr 2 min 1 sec) 
Heartbeat CPU 0 instructions: 4000000 cycles: 2143304 heartbeat IPC: 1.8677 cumulative IPC: 1.86628 (Simulation time: 0 hr 2 min 43 sec) 
Heartbeat CPU 0 instructions: 5000001 cycles: 2678444 heartbeat IPC: 1.86867 cumulative IPC: 1.86676 (Simulation time: 0 hr 3 min 22 sec) 
Heartbeat CPU 0 instructions: 6000001 cycles: 3213900 heartbeat IPC: 1.86757 cumulative IPC: 1.86689 (Simulation time: 0 hr 4 min 5 sec) 
Heartbeat CPU 0 instructions: 7000001 cycles: 3749871 heartbeat IPC: 1.86577 cumulative IPC: 1.86673 (Simulation time: 0 hr 4 min 49 sec) 
Heartbeat CPU 0 instructions: 8000000 cycles: 4285905 heartbeat IPC: 1.86555 cumulative IPC: 1.86658 (Simulation time: 0 hr 5 min 30 sec) 
Heartbeat CPU 0 instructions: 9000003 cycles: 4821064 heartbeat IPC: 1.86861 cumulative IPC: 1.86681 (Simulation time: 0 hr 6 min 9 sec) 
Heartbeat CPU 0 instructions: 10000002 cycles: 5356129 heartbeat IPC: 1.86893 cumulative IPC: 1.86702 (Simulation time: 0 hr 6 min 50 sec) 

Warmup complete CPU 0 instructions: 10000002 cycles: 5356129 (Simulation time: 0 hr 6 min 50 sec) 

Heartbeat CPU 0 instructions: 11000001 cycles: 6456489 heartbeat IPC: 0.908793 cumulative IPC: 0.908793 (Simulation time: 0 hr 7 min 35 sec) 
Heartbeat CPU 0 instructions: 12000000 cycles: 7508808 heartbeat IPC: 0.950281 cumulative IPC: 0.929074 (Simulation time: 0 hr 8 min 19 sec) 
Heartbeat CPU 0 instructions: 13000002 cycles: 8558663 heartbeat IPC: 0.952514 cumulative IPC: 0.936758 (Simulation time: 0 hr 9 min 3 sec) 
Heartbeat CPU 0 instructions: 14000003 cycles: 9614536 heartbeat IPC: 0.947085 cumulative IPC: 0.939319 (Simulation time: 0 hr 9 min 49 sec) 
Heartbeat CPU 0 instructions: 15000000 cycles: 10697014 heartbeat IPC: 0.923804 cumulative IPC: 0.936174 (Simulation time: 0 hr 10 min 33 sec) 
Heartbeat CPU 0 instructions: 16000000 cycles: 11763564 heartbeat IPC: 0.937603 cumulative IPC: 0.936412 (Simulation time: 0 hr 11 min 12 sec) 
Heartbeat CPU 0 instructions: 17000003 cycles: 12794873 heartbeat IPC: 0.969644 cumulative IPC: 0.941019 (Simulation time: 0 hr 11 min 48 sec) 
Heartbeat CPU 0 instructions: 18000001 cycles: 13845024 heartbeat IPC: 0.952242 cumulative IPC: 0.942408 (Simulation time: 0 hr 12 min 34 sec) 
Heartbeat CPU 0 instructions: 19000001 cycles: 14915309 heartbeat IPC: 0.934331 cumulative IPC: 0.941503 (Simulation time: 0 hr 13 min 13 sec) 
Heartbeat CPU 0 instructions: 20000000 cycles: 15985606 heartbeat IPC: 0.934319 cumulative IPC: 0.94078 (Simulation time: 0 hr 13 min 47 sec) 
Heartbeat CPU 0 instructions: 21000000 cycles: 17066261 heartbeat IPC: 0.925365 cumulative IPC: 0.939357 (Simulation time: 0 hr 14 min 26 sec) 
Heartbeat CPU 0 instructions: 22000000 cycles: 18117896 heartbeat IPC: 0.9509 cumulative IPC: 0.940309 (Simulation time: 0 hr 15 min 6 sec) 
Heartbeat CPU 0 instructions: 23000003 cycles: 19200271 heartbeat IPC: 0.923897 cumulative IPC: 0.939025 (Simulation time: 0 hr 15 min 56 sec) 
Heartbeat CPU 0 instructions: 24000000 cycles: 20266345 heartbeat IPC: 0.938018 cumulative IPC: 0.938953 (Simulation time: 0 hr 16 min 40 sec) 
Heartbeat CPU 0 instructions: 25000001 cycles: 21332843 heartbeat IPC: 0.937649 cumulative IPC: 0.938866 (Simulation time: 0 hr 17 min 22 sec) 
Heartbeat CPU 0 instructions: 26000002 cycles: 22423026 heartbeat IPC: 0.917278 cumulative IPC: 0.937487 (Simulation time: 0 hr 18 min 5 sec) 
Heartbeat CPU 0 instructions: 27000001 cycles: 23505192 heartbeat IPC: 0.924072 cumulative IPC: 0.936687 (Simulation time: 0 hr 18 min 47 sec) 
Heartbeat CPU 0 instructions: 28000000 cycles: 24561870 heartbeat IPC: 0.946361 cumulative IPC: 0.93722 (Simulation time: 0 hr 19 min 32 sec) 
Heartbeat CPU 0 instructions: 29000003 cycles: 25630147 heartbeat IPC: 0.93609 cumulative IPC: 0.93716 (Simulation time: 0 hr 20 min 13 sec) 
Heartbeat CPU 0 instructions: 30000002 cycles: 26731577 heartbeat IPC: 0.90791 cumulative IPC: 0.935653 (Simulation time: 0 hr 20 min 56 sec) 
Heartbeat CPU 0 instructions: 31000001 cycles: 27805550 heartbeat IPC: 0.931121 cumulative IPC: 0.935436 (Simulation time: 0 hr 21 min 36 sec) 
Heartbeat CPU 0 instructions: 32000000 cycles: 28877308 heartbeat IPC: 0.933046 cumulative IPC: 0.935327 (Simulation time: 0 hr 22 min 18 sec) 
Heartbeat CPU 0 instructions: 33000002 cycles: 29954280 heartbeat IPC: 0.928531 cumulative IPC: 0.93503 (Simulation time: 0 hr 23 min 0 sec) 
Heartbeat CPU 0 instructions: 34000002 cycles: 31039405 heartbeat IPC: 0.921553 cumulative IPC: 0.93446 (Simulation time: 0 hr 23 min 42 sec) 
Heartbeat CPU 0 instructions: 35000000 cycles: 32121362 heartbeat IPC: 0.924249 cumulative IPC: 0.934047 (Simulation time: 0 hr 24 min 25 sec) 
Heartbeat CPU 0 instructions: 36000000 cycles: 33183185 heartbeat IPC: 0.941777 cumulative IPC: 0.934342 (Simulation time: 0 hr 25 min 6 sec) 
Heartbeat CPU 0 instructions: 37000003 cycles: 34447059 heartbeat IPC: 0.79122 cumulative IPC: 0.928124 (Simulation time: 0 hr 25 min 48 sec) 
Heartbeat CPU 0 instructions: 38000003 cycles: 35946070 heartbeat IPC: 0.667107 cumulative IPC: 0.915334 (Simulation time: 0 hr 26 min 34 sec) 
Heartbeat CPU 0 instructions: 39000003 cycles: 37484243 heartbeat IPC: 0.650122 cumulative IPC: 0.902636 (Simulation time: 0 hr 27 min 18 sec) 
Heartbeat CPU 0 instructions: 40000000 cycles: 39028504 heartbeat IPC: 0.647557 cumulative IPC: 0.890938 (Simulation time: 0 hr 28 min 0 sec) 
Heartbeat CPU 0 instructions: 41000002 cycles: 40560324 heartbeat IPC: 0.65282 cumulative IPC: 0.880577 (Simulation time: 0 hr 28 min 42 sec) 
Heartbeat CPU 0 instructions: 42000001 cycles: 42096859 heartbeat IPC: 0.650814 cumulative IPC: 0.870968 (Simulation time: 0 hr 29 min 25 sec) 
Heartbeat CPU 0 instructions: 43000003 cycles: 43624126 heartbeat IPC: 0.654766 cumulative IPC: 0.862339 (Simulation time: 0 hr 30 min 11 sec) 
Heartbeat CPU 0 instructions: 44000000 cycles: 45154605 heartbeat IPC: 0.653388 cumulative IPC: 0.854304 (Simulation time: 0 hr 30 min 52 sec) 
Heartbeat CPU 0 instructions: 45000002 cycles: 46688101 heartbeat IPC: 0.652106 cumulative IPC: 0.846802 (Simulation time: 0 hr 31 min 33 sec) 
Heartbeat CPU 0 instructions: 46000002 cycles: 48227144 heartbeat IPC: 0.649754 cumulative IPC: 0.839728 (Simulation time: 0 hr 32 min 15 sec) 
Heartbeat CPU 0 instructions: 47000001 cycles: 49762046 heartbeat IPC: 0.651507 cumulative IPC: 0.833222 (Simulation time: 0 hr 32 min 59 sec) 
Heartbeat CPU 0 instructions: 48000000 cycles: 51285604 heartbeat IPC: 0.656358 cumulative IPC: 0.827355 (Simulation time: 0 hr 33 min 41 sec) 
Heartbeat CPU 0 instructions: 49000002 cycles: 53394825 heartbeat IPC: 0.47411 cumulative IPC: 0.811846 (Simulation time: 0 hr 34 min 28 sec) 
Heartbeat CPU 0 instructions: 50000002 cycles: 55755340 heartbeat IPC: 0.423636 cumulative IPC: 0.793663 (Simulation time: 0 hr 35 min 17 sec) 
Heartbeat CPU 0 instructions: 51000003 cycles: 58073654 heartbeat IPC: 0.431348 cumulative IPC: 0.77773 (Simulation time: 0 hr 36 min 7 sec) 
Heartbeat CPU 0 instructions: 52000000 cycles: 60416124 heartbeat IPC: 0.426899 cumulative IPC: 0.762804 (Simulation time: 0 hr 36 min 57 sec) 
Heartbeat CPU 0 instructions: 53000003 cycles: 62819145 heartbeat IPC: 0.416144 cumulative IPC: 0.748307 (Simulation time: 0 hr 37 min 49 sec) 
Heartbeat CPU 0 instructions: 54000000 cycles: 65133232 heartbeat IPC: 0.432135 cumulative IPC: 0.736068 (Simulation time: 0 hr 38 min 48 sec) 
Heartbeat CPU 0 instructions: 55000002 cycles: 67434240 heartbeat IPC: 0.434593 cumulative IPC: 0.724893 (Simulation time: 0 hr 39 min 44 sec) 
Heartbeat CPU 0 instructions: 56000000 cycles: 69804495 heartbeat IPC: 0.421895 cumulative IPC: 0.71375 (Simulation time: 0 hr 40 min 42 sec) 
Heartbeat CPU 0 instructions: 57000001 cycles: 72142362 heartbeat IPC: 0.427741 cumulative IPC: 0.703738 (Simulation time: 0 hr 41 min 40 sec) 
Heartbeat CPU 0 instructions: 58000001 cycles: 74391215 heartbeat IPC: 0.444671 cumulative IPC: 0.695299 (Simulation time: 0 hr 42 min 35 sec) 
Heartbeat CPU 0 instructions: 59000000 cycles: 75663186 heartbeat IPC: 0.786181 cumulative IPC: 0.696943 (Simulation time: 0 hr 43 min 21 sec) 
Heartbeat CPU 0 instructions: 60000000 cycles: 76944151 heartbeat IPC: 0.780661 cumulative IPC: 0.698441 (Simulation time: 0 hr 44 min 7 sec) 
Heartbeat CPU 0 instructions: 61000003 cycles: 78317475 heartbeat IPC: 0.728162 cumulative IPC: 0.699 (Simulation time: 0 hr 44 min 52 sec) 
Heartbeat CPU 0 instructions: 62000002 cycles: 79658446 heartbeat IPC: 0.745728 cumulative IPC: 0.699844 (Simulation time: 0 hr 45 min 38 sec) 
Heartbeat CPU 0 instructions: 63000003 cycles: 80869400 heartbeat IPC: 0.825796 cumulative IPC: 0.701863 (Simulation time: 0 hr 46 min 24 sec) 
Heartbeat CPU 0 instructions: 64000000 cycles: 82107942 heartbeat IPC: 0.807399 cumulative IPC: 0.703566 (Simulation time: 0 hr 47 min 10 sec) 
Heartbeat CPU 0 instructions: 65000001 cycles: 83644699 heartbeat IPC: 0.650722 cumulative IPC: 0.702529 (Simulation time: 0 hr 47 min 48 sec) 
Heartbeat CPU 0 instructions: 66000000 cycles: 84855070 heartbeat IPC: 0.826192 cumulative IPC: 0.704412 (Simulation time: 0 hr 48 min 29 sec) 
Heartbeat CPU 0 instructions: 67000001 cycles: 86085475 heartbeat IPC: 0.812741 cumulative IPC: 0.706063 (Simulation time: 0 hr 49 min 6 sec) 
Heartbeat CPU 0 instructions: 68000000 cycles: 87513751 heartbeat IPC: 0.700144 cumulative IPC: 0.70596 (Simulation time: 0 hr 49 min 41 sec) 
Heartbeat CPU 0 instructions: 69000002 cycles: 88806976 heartbeat IPC: 0.773262 cumulative IPC: 0.707003 (Simulation time: 0 hr 50 min 19 sec) 
Heartbeat CPU 0 instructions: 70000000 cycles: 90011200 heartbeat IPC: 0.830409 cumulative IPC: 0.708758 (Simulation time: 0 hr 50 min 56 sec) 
Heartbeat CPU 0 instructions: 71000002 cycles: 91232377 heartbeat IPC: 0.818884 cumulative IPC: 0.710324 (Simulation time: 0 hr 51 min 33 sec) 
Heartbeat CPU 0 instructions: 72000000 cycles: 92683616 heartbeat IPC: 0.689065 cumulative IPC: 0.709971 (Simulation time: 0 hr 52 min 9 sec) 
Heartbeat CPU 0 instructions: 73000000 cycles: 93898832 heartbeat IPC: 0.822899 cumulative IPC: 0.711521 (Simulation time: 0 hr 52 min 43 sec) 
Heartbeat CPU 0 instructions: 74000000 cycles: 95108628 heartbeat IPC: 0.826586 cumulative IPC: 0.713072 (Simulation time: 0 hr 53 min 20 sec) 
Heartbeat CPU 0 instructions: 75000002 cycles: 96558242 heartbeat IPC: 0.68984 cumulative IPC: 0.712703 (Simulation time: 0 hr 53 min 55 sec) 
Heartbeat CPU 0 instructions: 76000000 cycles: 97769175 heartbeat IPC: 0.825808 cumulative IPC: 0.714185 (Simulation time: 0 hr 54 min 32 sec) 
Heartbeat CPU 0 instructions: 77000001 cycles: 98968771 heartbeat IPC: 0.833615 cumulative IPC: 0.715715 (Simulation time: 0 hr 55 min 10 sec) 
Heartbeat CPU 0 instructions: 78000000 cycles: 100271537 heartbeat IPC: 0.767597 cumulative IPC: 0.716427 (Simulation time: 0 hr 55 min 45 sec) 
Heartbeat CPU 0 instructions: 79000001 cycles: 101617959 heartbeat IPC: 0.74271 cumulative IPC: 0.716795 (Simulation time: 0 hr 56 min 18 sec) 
Heartbeat CPU 0 instructions: 80000000 cycles: 102827343 heartbeat IPC: 0.826866 cumulative IPC: 0.718161 (Simulation time: 0 hr 56 min 53 sec) 
Heartbeat CPU 0 instructions: 81000003 cycles: 104031939 heartbeat IPC: 0.830156 cumulative IPC: 0.719528 (Simulation time: 0 hr 57 min 29 sec) 
Heartbeat CPU 0 instructions: 82000000 cycles: 105465392 heartbeat IPC: 0.697614 cumulative IPC: 0.719214 (Simulation time: 0 hr 58 min 2 sec) 
Heartbeat CPU 0 instructions: 83000001 cycles: 106669840 heartbeat IPC: 0.830257 cumulative IPC: 0.720534 (Simulation time: 0 hr 58 min 35 sec) 
Heartbeat CPU 0 instructions: 84000000 cycles: 107883707 heartbeat IPC: 0.823813 cumulative IPC: 0.721757 (Simulation time: 0 hr 59 min 9 sec) 
Heartbeat CPU 0 instructions: 85000003 cycles: 109285446 heartbeat IPC: 0.713402 cumulative IPC: 0.721644 (Simulation time: 0 hr 59 min 40 sec) 
Heartbeat CPU 0 instructions: 86000002 cycles: 110519383 heartbeat IPC: 0.810413 cumulative IPC: 0.722686 (Simulation time: 1 hr 0 min 12 sec) 
Heartbeat CPU 0 instructions: 87000001 cycles: 111721331 heartbeat IPC: 0.831982 cumulative IPC: 0.723921 (Simulation time: 1 hr 0 min 42 sec) 
Heartbeat CPU 0 instructions: 88000000 cycles: 112949860 heartbeat IPC: 0.813981 cumulative IPC: 0.724949 (Simulation time: 1 hr 1 min 12 sec) 
Heartbeat CPU 0 instructions: 89000001 cycles: 114368725 heartbeat IPC: 0.704789 cumulative IPC: 0.724687 (Simulation time: 1 hr 1 min 41 sec) 
Heartbeat CPU 0 instructions: 90000003 cycles: 115571384 heartbeat IPC: 0.831493 cumulative IPC: 0.725852 (Simulation time: 1 hr 2 min 10 sec) 
Heartbeat CPU 0 instructions: 91000000 cycles: 116780177 heartbeat IPC: 0.827269 cumulative IPC: 0.726953 (Simulation time: 1 hr 2 min 40 sec) 
Heartbeat CPU 0 instructions: 92000000 cycles: 118209618 heartbeat IPC: 0.699574 cumulative IPC: 0.726606 (Simulation time: 1 hr 3 min 6 sec) 
Heartbeat CPU 0 instructions: 93000002 cycles: 119421323 heartbeat IPC: 0.825285 cumulative IPC: 0.727654 (Simulation time: 1 hr 3 min 33 sec) 
Heartbeat CPU 0 instructions: 94000000 cycles: 120636582 heartbeat IPC: 0.822868 cumulative IPC: 0.728658 (Simulation time: 1 hr 4 min 0 sec) 
Heartbeat CPU 0 instructions: 95000003 cycles: 121961569 heartbeat IPC: 0.754727 cumulative IPC: 0.728954 (Simulation time: 1 hr 4 min 25 sec) 
Heartbeat CPU 0 instructions: 96000000 cycles: 123302020 heartbeat IPC: 0.746015 cumulative IPC: 0.729148 (Simulation time: 1 hr 4 min 51 sec) 
Heartbeat CPU 0 instructions: 97000000 cycles: 124497083 heartbeat IPC: 0.836776 cumulative IPC: 0.730227 (Simulation time: 1 hr 5 min 17 sec) 
Heartbeat CPU 0 instructions: 98000000 cycles: 125714349 heartbeat IPC: 0.821513 cumulative IPC: 0.731151 (Simulation time: 1 hr 5 min 42 sec) 
Heartbeat CPU 0 instructions: 99000003 cycles: 127144363 heartbeat IPC: 0.699296 cumulative IPC: 0.730777 (Simulation time: 1 hr 6 min 5 sec) 
Heartbeat CPU 0 instructions: 100000000 cycles: 128365013 heartbeat IPC: 0.819233 cumulative IPC: 0.731654 (Simulation time: 1 hr 6 min 28 sec) 
Heartbeat CPU 0 instructions: 101000001 cycles: 129583775 heartbeat IPC: 0.820506 cumulative IPC: 0.732526 (Simulation time: 1 hr 6 min 51 sec) 
Heartbeat CPU 0 instructions: 102000003 cycles: 131009170 heartbeat IPC: 0.701561 cumulative IPC: 0.732175 (Simulation time: 1 hr 7 min 14 sec) 
Heartbeat CPU 0 instructions: 103000002 cycles: 132234960 heartbeat IPC: 0.8158 cumulative IPC: 0.732983 (Simulation time: 1 hr 7 min 36 sec) 
Heartbeat CPU 0 instructions: 104000000 cycles: 133459751 heartbeat IPC: 0.816464 cumulative IPC: 0.733781 (Simulation time: 1 hr 7 min 58 sec) 
Heartbeat CPU 0 instructions: 105000000 cycles: 134699038 heartbeat IPC: 0.806916 cumulative IPC: 0.734482 (Simulation time: 1 hr 8 min 19 sec) 
Heartbeat CPU 0 instructions: 106000003 cycles: 136516527 heartbeat IPC: 0.550211 cumulative IPC: 0.731928 (Simulation time: 1 hr 8 min 40 sec) 
Heartbeat CPU 0 instructions: 107000002 cycles: 138190962 heartbeat IPC: 0.597216 cumulative IPC: 0.73023 (Simulation time: 1 hr 9 min 0 sec) 
Heartbeat CPU 0 instructions: 108000000 cycles: 140067869 heartbeat IPC: 0.53279 cumulative IPC: 0.727479 (Simulation time: 1 hr 9 min 19 sec) 
Heartbeat CPU 0 instructions: 109000003 cycles: 142043464 heartbeat IPC: 0.506178 cumulative IPC: 0.724281 (Simulation time: 1 hr 9 min 38 sec) 
Heartbeat CPU 0 instructions: 110000003 cycles: 143989665 heartbeat IPC: 0.513822 cumulative IPC: 0.721326 (Simulation time: 1 hr 9 min 55 sec) 
Finished CPU 0 instructions: 100000001 cycles: 138633536 cummulative IPC: 0.721326 (Simulation time: 1 hr 9 min 55 sec) 

ChampSim completed all CPUs

Region of Interest Statistics

CPU 0 cummulative IPC: 0.721326 instructions: 100000001 cycles: 138633536
LLC TOTAL     ACCESS:    3582950  HIT:     679752  MISS:    2903198
LLC LOAD      ACCESS:     297209  HIT:      54845  MISS:     242364
LLC RFO       ACCESS:     622465  HIT:     118190  MISS:     504275
LLC PREFETCH  ACCESS:    1899967  HIT:     265451  MISS:    1634516
LLC WRITEBACK ACCESS:     763309  HIT:     241266  MISS:     522043
Insertion Distribution: 
	LOAD 25900 0 51034 168091 
	RFO 43 0 65560 465065 
	PREF 0 19668 186281 1542788 
	WRITEBACK 0 0 0 540456 
Total Prefetch Downgrades: 22304
