
*** ChampSim Multicore Out-of-Order Simulator ***

Warmup Instructions: 10000000
Simulation Instructions: 100000000
Configuration: 2
Number of CPUs: 1
LLC sets: 2048
LLC ways: 16
Off-chip DRAM Channels: 1 Width: 64-bit Data Rate: 1600 MT/s

CPU 0 runs /datasets/cs240c-wi22-a00-public/data/Assignment2-gz/zeusmp_100B.trace.gz
CPU 0 L1D next line prefetcher
CPU 0 L2C IP-based stride prefetcher
Initialize SRRIP state
Heartbeat CPU 0 instructions: 1000002 cycles: 462677 heartbeat IPC: 2.16134 cumulative IPC: 2.16134 (Simulation time: 0 hr 0 min 34 sec) 
Heartbeat CPU 0 instructions: 2000001 cycles: 925467 heartbeat IPC: 2.16081 cumulative IPC: 2.16107 (Simulation time: 0 hr 1 min 8 sec) 
Heartbeat CPU 0 instructions: 3000003 cycles: 1388524 heartbeat IPC: 2.15957 cumulative IPC: 2.16057 (Simulation time: 0 hr 1 min 44 sec) 
Heartbeat CPU 0 instructions: 4000000 cycles: 1851251 heartbeat IPC: 2.16109 cumulative IPC: 2.1607 (Simulation time: 0 hr 2 min 18 sec) 
Heartbeat CPU 0 instructions: 5000003 cycles: 2314192 heartbeat IPC: 2.16011 cumulative IPC: 2.16058 (Simulation time: 0 hr 2 min 53 sec) 
Heartbeat CPU 0 instructions: 6000001 cycles: 2777070 heartbeat IPC: 2.16039 cumulative IPC: 2.16055 (Simulation time: 0 hr 3 min 25 sec) 
Heartbeat CPU 0 instructions: 7000001 cycles: 3239755 heartbeat IPC: 2.1613 cumulative IPC: 2.16066 (Simulation time: 0 hr 4 min 3 sec) 
Heartbeat CPU 0 instructions: 8000000 cycles: 3702619 heartbeat IPC: 2.16046 cumulative IPC: 2.16063 (Simulation time: 0 hr 4 min 39 sec) 
Heartbeat CPU 0 instructions: 9000003 cycles: 4165378 heartbeat IPC: 2.16096 cumulative IPC: 2.16067 (Simulation time: 0 hr 5 min 13 sec) 
Heartbeat CPU 0 instructions: 10000001 cycles: 4628708 heartbeat IPC: 2.15828 cumulative IPC: 2.16043 (Simulation time: 0 hr 5 min 45 sec) 

Warmup complete CPU 0 instructions: 10000001 cycles: 4628708 (Simulation time: 0 hr 5 min 45 sec) 

Heartbeat CPU 0 instructions: 11000000 cycles: 5298893 heartbeat IPC: 1.49212 cumulative IPC: 1.49212 (Simulation time: 0 hr 6 min 23 sec) 
Heartbeat CPU 0 instructions: 12000000 cycles: 5975673 heartbeat IPC: 1.47759 cumulative IPC: 1.48482 (Simulation time: 0 hr 7 min 0 sec) 
Heartbeat CPU 0 instructions: 13000001 cycles: 6674474 heartbeat IPC: 1.43102 cumulative IPC: 1.46644 (Simulation time: 0 hr 7 min 40 sec) 
Heartbeat CPU 0 instructions: 14000003 cycles: 7369958 heartbeat IPC: 1.43785 cumulative IPC: 1.45919 (Simulation time: 0 hr 8 min 17 sec) 
Heartbeat CPU 0 instructions: 15000002 cycles: 8049057 heartbeat IPC: 1.47254 cumulative IPC: 1.46184 (Simulation time: 0 hr 8 min 52 sec) 
Heartbeat CPU 0 instructions: 16000000 cycles: 8716179 heartbeat IPC: 1.49897 cumulative IPC: 1.4679 (Simulation time: 0 hr 9 min 26 sec) 
Heartbeat CPU 0 instructions: 17000003 cycles: 9492584 heartbeat IPC: 1.28799 cumulative IPC: 1.43918 (Simulation time: 0 hr 10 min 2 sec) 
Heartbeat CPU 0 instructions: 18000000 cycles: 10188476 heartbeat IPC: 1.437 cumulative IPC: 1.43891 (Simulation time: 0 hr 10 min 39 sec) 
Heartbeat CPU 0 instructions: 19000002 cycles: 10884855 heartbeat IPC: 1.436 cumulative IPC: 1.43859 (Simulation time: 0 hr 11 min 14 sec) 
Heartbeat CPU 0 instructions: 20000000 cycles: 11568182 heartbeat IPC: 1.46343 cumulative IPC: 1.44103 (Simulation time: 0 hr 11 min 50 sec) 
Heartbeat CPU 0 instructions: 21000001 cycles: 12263598 heartbeat IPC: 1.43799 cumulative IPC: 1.44075 (Simulation time: 0 hr 12 min 26 sec) 
Heartbeat CPU 0 instructions: 22000001 cycles: 12944481 heartbeat IPC: 1.46868 cumulative IPC: 1.44304 (Simulation time: 0 hr 13 min 6 sec) 
Heartbeat CPU 0 instructions: 23000002 cycles: 13644486 heartbeat IPC: 1.42856 cumulative IPC: 1.44192 (Simulation time: 0 hr 13 min 42 sec) 
Heartbeat CPU 0 instructions: 24000000 cycles: 14327960 heartbeat IPC: 1.46311 cumulative IPC: 1.44341 (Simulation time: 0 hr 14 min 21 sec) 
Heartbeat CPU 0 instructions: 25000001 cycles: 15021830 heartbeat IPC: 1.44119 cumulative IPC: 1.44326 (Simulation time: 0 hr 14 min 58 sec) 
Heartbeat CPU 0 instructions: 26000001 cycles: 15703045 heartbeat IPC: 1.46797 cumulative IPC: 1.44478 (Simulation time: 0 hr 15 min 35 sec) 
Heartbeat CPU 0 instructions: 27000002 cycles: 16399633 heartbeat IPC: 1.43557 cumulative IPC: 1.44424 (Simulation time: 0 hr 16 min 13 sec) 
Heartbeat CPU 0 instructions: 28000000 cycles: 17082587 heartbeat IPC: 1.46422 cumulative IPC: 1.44533 (Simulation time: 0 hr 16 min 49 sec) 
Heartbeat CPU 0 instructions: 29000000 cycles: 17764336 heartbeat IPC: 1.46682 cumulative IPC: 1.44645 (Simulation time: 0 hr 17 min 25 sec) 
Heartbeat CPU 0 instructions: 30000003 cycles: 18457371 heartbeat IPC: 1.44293 cumulative IPC: 1.44627 (Simulation time: 0 hr 18 min 1 sec) 
Heartbeat CPU 0 instructions: 31000000 cycles: 19138027 heartbeat IPC: 1.46917 cumulative IPC: 1.44735 (Simulation time: 0 hr 18 min 36 sec) 
Heartbeat CPU 0 instructions: 32000000 cycles: 19833768 heartbeat IPC: 1.43732 cumulative IPC: 1.44689 (Simulation time: 0 hr 19 min 14 sec) 
Heartbeat CPU 0 instructions: 33000002 cycles: 20513549 heartbeat IPC: 1.47106 cumulative IPC: 1.44792 (Simulation time: 0 hr 19 min 50 sec) 
Heartbeat CPU 0 instructions: 34000002 cycles: 21205968 heartbeat IPC: 1.44421 cumulative IPC: 1.44777 (Simulation time: 0 hr 20 min 26 sec) 
Heartbeat CPU 0 instructions: 35000003 cycles: 21888685 heartbeat IPC: 1.46474 cumulative IPC: 1.44844 (Simulation time: 0 hr 21 min 3 sec) 
Heartbeat CPU 0 instructions: 36000000 cycles: 22582721 heartbeat IPC: 1.44084 cumulative IPC: 1.44814 (Simulation time: 0 hr 21 min 37 sec) 
Heartbeat CPU 0 instructions: 37000001 cycles: 23264525 heartbeat IPC: 1.4667 cumulative IPC: 1.44882 (Simulation time: 0 hr 22 min 12 sec) 
Heartbeat CPU 0 instructions: 38000003 cycles: 23963022 heartbeat IPC: 1.43165 cumulative IPC: 1.4482 (Simulation time: 0 hr 22 min 48 sec) 
Heartbeat CPU 0 instructions: 39000001 cycles: 24660622 heartbeat IPC: 1.43348 cumulative IPC: 1.44769 (Simulation time: 0 hr 23 min 21 sec) 
Heartbeat CPU 0 instructions: 40000000 cycles: 25371578 heartbeat IPC: 1.40656 cumulative IPC: 1.44628 (Simulation time: 0 hr 23 min 58 sec) 
Heartbeat CPU 0 instructions: 41000002 cycles: 26070612 heartbeat IPC: 1.43055 cumulative IPC: 1.44577 (Simulation time: 0 hr 24 min 35 sec) 
Heartbeat CPU 0 instructions: 42000001 cycles: 26765585 heartbeat IPC: 1.4389 cumulative IPC: 1.44555 (Simulation time: 0 hr 25 min 11 sec) 
Heartbeat CPU 0 instructions: 43000003 cycles: 27478298 heartbeat IPC: 1.40309 cumulative IPC: 1.44423 (Simulation time: 0 hr 25 min 46 sec) 
Heartbeat CPU 0 instructions: 44000000 cycles: 28173613 heartbeat IPC: 1.43819 cumulative IPC: 1.44405 (Simulation time: 0 hr 26 min 25 sec) 
Heartbeat CPU 0 instructions: 45000001 cycles: 28885487 heartbeat IPC: 1.40474 cumulative IPC: 1.4429 (Simulation time: 0 hr 27 min 3 sec) 
Heartbeat CPU 0 instructions: 46000002 cycles: 29583421 heartbeat IPC: 1.4328 cumulative IPC: 1.44261 (Simulation time: 0 hr 27 min 37 sec) 
Heartbeat CPU 0 instructions: 47000003 cycles: 30294125 heartbeat IPC: 1.40706 cumulative IPC: 1.44163 (Simulation time: 0 hr 28 min 12 sec) 
Heartbeat CPU 0 instructions: 48000000 cycles: 30989606 heartbeat IPC: 1.43785 cumulative IPC: 1.44153 (Simulation time: 0 hr 28 min 47 sec) 
Heartbeat CPU 0 instructions: 49000001 cycles: 31698389 heartbeat IPC: 1.41087 cumulative IPC: 1.44073 (Simulation time: 0 hr 29 min 24 sec) 
Heartbeat CPU 0 instructions: 50000001 cycles: 32398754 heartbeat IPC: 1.42783 cumulative IPC: 1.4404 (Simulation time: 0 hr 29 min 59 sec) 
Heartbeat CPU 0 instructions: 51000002 cycles: 33109181 heartbeat IPC: 1.40761 cumulative IPC: 1.43958 (Simulation time: 0 hr 30 min 35 sec) 
Heartbeat CPU 0 instructions: 52000000 cycles: 33805070 heartbeat IPC: 1.43701 cumulative IPC: 1.43952 (Simulation time: 0 hr 31 min 10 sec) 
Heartbeat CPU 0 instructions: 53000001 cycles: 34515832 heartbeat IPC: 1.40694 cumulative IPC: 1.43875 (Simulation time: 0 hr 31 min 47 sec) 
Heartbeat CPU 0 instructions: 54000003 cycles: 35216809 heartbeat IPC: 1.42658 cumulative IPC: 1.43847 (Simulation time: 0 hr 32 min 23 sec) 
Heartbeat CPU 0 instructions: 55000003 cycles: 35919301 heartbeat IPC: 1.4235 cumulative IPC: 1.43813 (Simulation time: 0 hr 32 min 58 sec) 
Heartbeat CPU 0 instructions: 56000000 cycles: 36625087 heartbeat IPC: 1.41686 cumulative IPC: 1.43766 (Simulation time: 0 hr 33 min 35 sec) 
Heartbeat CPU 0 instructions: 57000003 cycles: 37319987 heartbeat IPC: 1.43906 cumulative IPC: 1.43769 (Simulation time: 0 hr 34 min 11 sec) 
Heartbeat CPU 0 instructions: 58000003 cycles: 38031337 heartbeat IPC: 1.40578 cumulative IPC: 1.43701 (Simulation time: 0 hr 34 min 46 sec) 
Heartbeat CPU 0 instructions: 59000000 cycles: 38730085 heartbeat IPC: 1.43113 cumulative IPC: 1.43689 (Simulation time: 0 hr 35 min 23 sec) 
Heartbeat CPU 0 instructions: 60000000 cycles: 39445531 heartbeat IPC: 1.39773 cumulative IPC: 1.43609 (Simulation time: 0 hr 35 min 59 sec) 
Heartbeat CPU 0 instructions: 61000000 cycles: 40143623 heartbeat IPC: 1.43248 cumulative IPC: 1.43602 (Simulation time: 0 hr 36 min 34 sec) 
Heartbeat CPU 0 instructions: 62000001 cycles: 40855161 heartbeat IPC: 1.40541 cumulative IPC: 1.43542 (Simulation time: 0 hr 37 min 11 sec) 
Heartbeat CPU 0 instructions: 63000001 cycles: 41553511 heartbeat IPC: 1.43195 cumulative IPC: 1.43535 (Simulation time: 0 hr 37 min 46 sec) 
Heartbeat CPU 0 instructions: 64000000 cycles: 42267352 heartbeat IPC: 1.40087 cumulative IPC: 1.4347 (Simulation time: 0 hr 38 min 23 sec) 
Heartbeat CPU 0 instructions: 65000003 cycles: 42964442 heartbeat IPC: 1.43454 cumulative IPC: 1.43469 (Simulation time: 0 hr 38 min 58 sec) 
Heartbeat CPU 0 instructions: 66000003 cycles: 43675986 heartbeat IPC: 1.40539 cumulative IPC: 1.43416 (Simulation time: 0 hr 39 min 32 sec) 
Heartbeat CPU 0 instructions: 67000000 cycles: 44374090 heartbeat IPC: 1.43245 cumulative IPC: 1.43413 (Simulation time: 0 hr 40 min 7 sec) 
Heartbeat CPU 0 instructions: 68000000 cycles: 45082225 heartbeat IPC: 1.41216 cumulative IPC: 1.43374 (Simulation time: 0 hr 40 min 42 sec) 
Heartbeat CPU 0 instructions: 69000000 cycles: 45781901 heartbeat IPC: 1.42923 cumulative IPC: 1.43367 (Simulation time: 0 hr 41 min 19 sec) 
Heartbeat CPU 0 instructions: 70000003 cycles: 46475947 heartbeat IPC: 1.44083 cumulative IPC: 1.43379 (Simulation time: 0 hr 41 min 54 sec) 
Heartbeat CPU 0 instructions: 71000003 cycles: 47186614 heartbeat IPC: 1.40713 cumulative IPC: 1.43334 (Simulation time: 0 hr 42 min 30 sec) 
Heartbeat CPU 0 instructions: 72000000 cycles: 47883766 heartbeat IPC: 1.4344 cumulative IPC: 1.43336 (Simulation time: 0 hr 43 min 6 sec) 
Heartbeat CPU 0 instructions: 73000002 cycles: 48594999 heartbeat IPC: 1.40601 cumulative IPC: 1.43292 (Simulation time: 0 hr 43 min 42 sec) 
Heartbeat CPU 0 instructions: 74000003 cycles: 49291401 heartbeat IPC: 1.43595 cumulative IPC: 1.43296 (Simulation time: 0 hr 44 min 17 sec) 
Heartbeat CPU 0 instructions: 75000003 cycles: 49999234 heartbeat IPC: 1.41276 cumulative IPC: 1.43265 (Simulation time: 0 hr 44 min 53 sec) 
Heartbeat CPU 0 instructions: 76000000 cycles: 50695376 heartbeat IPC: 1.43648 cumulative IPC: 1.43271 (Simulation time: 0 hr 45 min 30 sec) 
Heartbeat CPU 0 instructions: 77000000 cycles: 51411344 heartbeat IPC: 1.39671 cumulative IPC: 1.43216 (Simulation time: 0 hr 46 min 7 sec) 
Heartbeat CPU 0 instructions: 78000002 cycles: 52111759 heartbeat IPC: 1.42773 cumulative IPC: 1.43209 (Simulation time: 0 hr 46 min 40 sec) 
Heartbeat CPU 0 instructions: 79000000 cycles: 52822187 heartbeat IPC: 1.4076 cumulative IPC: 1.43173 (Simulation time: 0 hr 47 min 14 sec) 
Heartbeat CPU 0 instructions: 80000000 cycles: 53516018 heartbeat IPC: 1.44127 cumulative IPC: 1.43186 (Simulation time: 0 hr 47 min 44 sec) 
Heartbeat CPU 0 instructions: 81000003 cycles: 54229960 heartbeat IPC: 1.40068 cumulative IPC: 1.43142 (Simulation time: 0 hr 48 min 15 sec) 
Heartbeat CPU 0 instructions: 82000000 cycles: 54928253 heartbeat IPC: 1.43206 cumulative IPC: 1.43142 (Simulation time: 0 hr 48 min 45 sec) 
Heartbeat CPU 0 instructions: 83000002 cycles: 55622709 heartbeat IPC: 1.43998 cumulative IPC: 1.43154 (Simulation time: 0 hr 49 min 15 sec) 
Heartbeat CPU 0 instructions: 84000000 cycles: 56331991 heartbeat IPC: 1.40987 cumulative IPC: 1.43124 (Simulation time: 0 hr 49 min 45 sec) 
Heartbeat CPU 0 instructions: 85000001 cycles: 57027988 heartbeat IPC: 1.43679 cumulative IPC: 1.43132 (Simulation time: 0 hr 50 min 14 sec) 
Heartbeat CPU 0 instructions: 86000001 cycles: 57740220 heartbeat IPC: 1.40404 cumulative IPC: 1.43095 (Simulation time: 0 hr 50 min 44 sec) 
Heartbeat CPU 0 instructions: 87000001 cycles: 58441779 heartbeat IPC: 1.4254 cumulative IPC: 1.43088 (Simulation time: 0 hr 51 min 14 sec) 
Heartbeat CPU 0 instructions: 88000000 cycles: 59150318 heartbeat IPC: 1.41135 cumulative IPC: 1.43063 (Simulation time: 0 hr 51 min 46 sec) 
Heartbeat CPU 0 instructions: 89000003 cycles: 59844534 heartbeat IPC: 1.44048 cumulative IPC: 1.43075 (Simulation time: 0 hr 52 min 15 sec) 
Heartbeat CPU 0 instructions: 90000001 cycles: 60554800 heartbeat IPC: 1.40792 cumulative IPC: 1.43046 (Simulation time: 0 hr 52 min 45 sec) 
Heartbeat CPU 0 instructions: 91000002 cycles: 61255978 heartbeat IPC: 1.42617 cumulative IPC: 1.43041 (Simulation time: 0 hr 53 min 14 sec) 
Heartbeat CPU 0 instructions: 92000000 cycles: 61972428 heartbeat IPC: 1.39577 cumulative IPC: 1.42997 (Simulation time: 0 hr 53 min 42 sec) 
Heartbeat CPU 0 instructions: 93000001 cycles: 62673202 heartbeat IPC: 1.427 cumulative IPC: 1.42994 (Simulation time: 0 hr 54 min 13 sec) 
Heartbeat CPU 0 instructions: 94000003 cycles: 63384330 heartbeat IPC: 1.40622 cumulative IPC: 1.42965 (Simulation time: 0 hr 54 min 43 sec) 
Heartbeat CPU 0 instructions: 95000003 cycles: 64083934 heartbeat IPC: 1.42938 cumulative IPC: 1.42965 (Simulation time: 0 hr 55 min 13 sec) 
Heartbeat CPU 0 instructions: 96000000 cycles: 64786714 heartbeat IPC: 1.42292 cumulative IPC: 1.42957 (Simulation time: 0 hr 55 min 40 sec) 
Heartbeat CPU 0 instructions: 97000000 cycles: 65494080 heartbeat IPC: 1.4137 cumulative IPC: 1.42938 (Simulation time: 0 hr 56 min 8 sec) 
Heartbeat CPU 0 instructions: 98000001 cycles: 66187865 heartbeat IPC: 1.44137 cumulative IPC: 1.42952 (Simulation time: 0 hr 56 min 36 sec) 
Heartbeat CPU 0 instructions: 99000001 cycles: 66907687 heartbeat IPC: 1.38923 cumulative IPC: 1.42905 (Simulation time: 0 hr 57 min 5 sec) 
Heartbeat CPU 0 instructions: 100000000 cycles: 67616840 heartbeat IPC: 1.41013 cumulative IPC: 1.42884 (Simulation time: 0 hr 57 min 33 sec) 
Heartbeat CPU 0 instructions: 101000002 cycles: 68337268 heartbeat IPC: 1.38807 cumulative IPC: 1.42838 (Simulation time: 0 hr 58 min 1 sec) 
Heartbeat CPU 0 instructions: 102000003 cycles: 69046568 heartbeat IPC: 1.40984 cumulative IPC: 1.42818 (Simulation time: 0 hr 58 min 30 sec) 
Heartbeat CPU 0 instructions: 103000001 cycles: 69773115 heartbeat IPC: 1.37637 cumulative IPC: 1.4276 (Simulation time: 0 hr 59 min 1 sec) 
Heartbeat CPU 0 instructions: 104000000 cycles: 70484271 heartbeat IPC: 1.40616 cumulative IPC: 1.42737 (Simulation time: 0 hr 59 min 28 sec) 
Heartbeat CPU 0 instructions: 105000003 cycles: 71207428 heartbeat IPC: 1.38283 cumulative IPC: 1.42688 (Simulation time: 0 hr 59 min 55 sec) 
Heartbeat CPU 0 instructions: 106000002 cycles: 71915415 heartbeat IPC: 1.41245 cumulative IPC: 1.42673 (Simulation time: 1 hr 0 min 21 sec) 
Heartbeat CPU 0 instructions: 107000000 cycles: 72630899 heartbeat IPC: 1.39765 cumulative IPC: 1.42642 (Simulation time: 1 hr 0 min 47 sec) 
Heartbeat CPU 0 instructions: 108000000 cycles: 73328147 heartbeat IPC: 1.43421 cumulative IPC: 1.4265 (Simulation time: 1 hr 1 min 11 sec) 
Heartbeat CPU 0 instructions: 109000002 cycles: 74025091 heartbeat IPC: 1.43484 cumulative IPC: 1.42659 (Simulation time: 1 hr 1 min 34 sec) 
Heartbeat CPU 0 instructions: 110000000 cycles: 74733930 heartbeat IPC: 1.41075 cumulative IPC: 1.42643 (Simulation time: 1 hr 1 min 58 sec) 
Finished CPU 0 instructions: 100000003 cycles: 70105223 cummulative IPC: 1.42643 (Simulation time: 1 hr 1 min 58 sec) 

ChampSim completed all CPUs

Region of Interest Statistics

CPU 0 cummulative IPC: 1.42643 instructions: 100000003 cycles: 70105223
LLC TOTAL     ACCESS:     832690  HIT:      84798  MISS:     747892
LLC LOAD      ACCESS:      26296  HIT:      12725  MISS:      13571
LLC RFO       ACCESS:     201568  HIT:       8121  MISS:     193447
LLC PREFETCH  ACCESS:     401759  HIT:      29928  MISS:     371831
LLC WRITEBACK ACCESS:     203067  HIT:      34024  MISS:     169043
Insertion Distribution: 
	LOAD 2846 0 3601 8890 
	RFO 4440 0 9911 190666 
	PREF 0 14095 46266 340574 
	WRITEBACK 0 0 0 170077 
Total Prefetch Downgrades: 6159
