
*** ChampSim Multicore Out-of-Order Simulator ***

Warmup Instructions: 10000000
Simulation Instructions: 100000000
Configuration: 2
Number of CPUs: 1
LLC sets: 2048
LLC ways: 16
Off-chip DRAM Channels: 1 Width: 64-bit Data Rate: 1600 MT/s

CPU 0 runs /datasets/cs240c-wi22-a00-public/data/Assignment2-gz/mcf_46B.trace.gz
CPU 0 L1D next line prefetcher
CPU 0 L2C IP-based stride prefetcher
Initialize SRRIP state
Heartbeat CPU 0 instructions: 1000002 cycles: 492135 heartbeat IPC: 2.03197 cumulative IPC: 2.03197 (Simulation time: 0 hr 0 min 47 sec) 
Heartbeat CPU 0 instructions: 2000002 cycles: 987045 heartbeat IPC: 2.02057 cumulative IPC: 2.02625 (Simulation time: 0 hr 1 min 34 sec) 
Heartbeat CPU 0 instructions: 3000003 cycles: 1513156 heartbeat IPC: 1.90074 cumulative IPC: 1.98261 (Simulation time: 0 hr 2 min 26 sec) 
Heartbeat CPU 0 instructions: 4000000 cycles: 2031707 heartbeat IPC: 1.92844 cumulative IPC: 1.96879 (Simulation time: 0 hr 3 min 16 sec) 
Heartbeat CPU 0 instructions: 5000000 cycles: 2524586 heartbeat IPC: 2.0289 cumulative IPC: 1.98052 (Simulation time: 0 hr 4 min 5 sec) 
Heartbeat CPU 0 instructions: 6000002 cycles: 3027363 heartbeat IPC: 1.98896 cumulative IPC: 1.98192 (Simulation time: 0 hr 4 min 54 sec) 
Heartbeat CPU 0 instructions: 7000001 cycles: 3575201 heartbeat IPC: 1.82536 cumulative IPC: 1.95793 (Simulation time: 0 hr 5 min 42 sec) 
Heartbeat CPU 0 instructions: 8000000 cycles: 4065341 heartbeat IPC: 2.04023 cumulative IPC: 1.96785 (Simulation time: 0 hr 6 min 29 sec) 
Heartbeat CPU 0 instructions: 9000001 cycles: 4548305 heartbeat IPC: 2.07055 cumulative IPC: 1.97876 (Simulation time: 0 hr 7 min 14 sec) 
Heartbeat CPU 0 instructions: 10000001 cycles: 5086290 heartbeat IPC: 1.85879 cumulative IPC: 1.96607 (Simulation time: 0 hr 7 min 59 sec) 

Warmup complete CPU 0 instructions: 10000001 cycles: 5086290 (Simulation time: 0 hr 7 min 59 sec) 

Heartbeat CPU 0 instructions: 11000002 cycles: 15687116 heartbeat IPC: 0.0943324 cumulative IPC: 0.0943324 (Simulation time: 0 hr 9 min 18 sec) 
Heartbeat CPU 0 instructions: 12000000 cycles: 19819289 heartbeat IPC: 0.242003 cumulative IPC: 0.13575 (Simulation time: 0 hr 10 min 16 sec) 
Heartbeat CPU 0 instructions: 13000000 cycles: 27161838 heartbeat IPC: 0.136192 cumulative IPC: 0.135897 (Simulation time: 0 hr 11 min 22 sec) 
Heartbeat CPU 0 instructions: 14000003 cycles: 41699604 heartbeat IPC: 0.0687866 cumulative IPC: 0.10925 (Simulation time: 0 hr 12 min 54 sec) 
Heartbeat CPU 0 instructions: 15000000 cycles: 45923644 heartbeat IPC: 0.236739 cumulative IPC: 0.122437 (Simulation time: 0 hr 13 min 47 sec) 
Heartbeat CPU 0 instructions: 16000000 cycles: 49735058 heartbeat IPC: 0.26237 cumulative IPC: 0.134382 (Simulation time: 0 hr 14 min 35 sec) 
Heartbeat CPU 0 instructions: 17000002 cycles: 65147172 heartbeat IPC: 0.0648842 cumulative IPC: 0.116548 (Simulation time: 0 hr 16 min 10 sec) 
Heartbeat CPU 0 instructions: 18000001 cycles: 70456850 heartbeat IPC: 0.188335 cumulative IPC: 0.122379 (Simulation time: 0 hr 17 min 15 sec) 
Heartbeat CPU 0 instructions: 19000002 cycles: 75031223 heartbeat IPC: 0.218609 cumulative IPC: 0.128673 (Simulation time: 0 hr 18 min 17 sec) 
Heartbeat CPU 0 instructions: 20000000 cycles: 87028182 heartbeat IPC: 0.0833543 cumulative IPC: 0.122038 (Simulation time: 0 hr 19 min 45 sec) 
Heartbeat CPU 0 instructions: 21000002 cycles: 102973803 heartbeat IPC: 0.0627133 cumulative IPC: 0.112374 (Simulation time: 0 hr 21 min 19 sec) 
Heartbeat CPU 0 instructions: 22000002 cycles: 107200119 heartbeat IPC: 0.236613 cumulative IPC: 0.117516 (Simulation time: 0 hr 22 min 19 sec) 
Heartbeat CPU 0 instructions: 23000001 cycles: 111040305 heartbeat IPC: 0.260404 cumulative IPC: 0.122695 (Simulation time: 0 hr 23 min 15 sec) 
Heartbeat CPU 0 instructions: 24000000 cycles: 124080227 heartbeat IPC: 0.0766875 cumulative IPC: 0.117653 (Simulation time: 0 hr 24 min 42 sec) 
Heartbeat CPU 0 instructions: 25000002 cycles: 131809225 heartbeat IPC: 0.129383 cumulative IPC: 0.118368 (Simulation time: 0 hr 25 min 55 sec) 
Heartbeat CPU 0 instructions: 26000001 cycles: 135647582 heartbeat IPC: 0.260528 cumulative IPC: 0.122548 (Simulation time: 0 hr 26 min 55 sec) 
Heartbeat CPU 0 instructions: 27000000 cycles: 145258700 heartbeat IPC: 0.104046 cumulative IPC: 0.121279 (Simulation time: 0 hr 28 min 9 sec) 
Heartbeat CPU 0 instructions: 28000000 cycles: 156695352 heartbeat IPC: 0.0874382 cumulative IPC: 0.118726 (Simulation time: 0 hr 29 min 41 sec) 
Heartbeat CPU 0 instructions: 29000001 cycles: 160999108 heartbeat IPC: 0.232355 cumulative IPC: 0.121863 (Simulation time: 0 hr 30 min 40 sec) 
Heartbeat CPU 0 instructions: 30000000 cycles: 168130603 heartbeat IPC: 0.140223 cumulative IPC: 0.122666 (Simulation time: 0 hr 31 min 49 sec) 
Heartbeat CPU 0 instructions: 31000002 cycles: 181891916 heartbeat IPC: 0.0726676 cumulative IPC: 0.118775 (Simulation time: 0 hr 33 min 22 sec) 
Heartbeat CPU 0 instructions: 32000000 cycles: 186208305 heartbeat IPC: 0.231675 cumulative IPC: 0.121465 (Simulation time: 0 hr 34 min 20 sec) 
Heartbeat CPU 0 instructions: 33000000 cycles: 192496543 heartbeat IPC: 0.159027 cumulative IPC: 0.122725 (Simulation time: 0 hr 35 min 25 sec) 
Heartbeat CPU 0 instructions: 34000000 cycles: 207652871 heartbeat IPC: 0.065979 cumulative IPC: 0.11848 (Simulation time: 0 hr 36 min 59 sec) 
Heartbeat CPU 0 instructions: 35000000 cycles: 213693995 heartbeat IPC: 0.165532 cumulative IPC: 0.119842 (Simulation time: 0 hr 38 min 7 sec) 
Heartbeat CPU 0 instructions: 36000000 cycles: 219668526 heartbeat IPC: 0.167377 cumulative IPC: 0.121166 (Simulation time: 0 hr 39 min 11 sec) 
Heartbeat CPU 0 instructions: 37000002 cycles: 229650866 heartbeat IPC: 0.100177 cumulative IPC: 0.120233 (Simulation time: 0 hr 40 min 28 sec) 
Heartbeat CPU 0 instructions: 38000000 cycles: 240684179 heartbeat IPC: 0.0906344 cumulative IPC: 0.118847 (Simulation time: 0 hr 41 min 48 sec) 
Heartbeat CPU 0 instructions: 39000000 cycles: 244774080 heartbeat IPC: 0.244505 cumulative IPC: 0.120991 (Simulation time: 0 hr 42 min 43 sec) 
Heartbeat CPU 0 instructions: 40000000 cycles: 250537920 heartbeat IPC: 0.173495 cumulative IPC: 0.122224 (Simulation time: 0 hr 43 min 44 sec) 
Heartbeat CPU 0 instructions: 41000000 cycles: 265372796 heartbeat IPC: 0.0674087 cumulative IPC: 0.1191 (Simulation time: 0 hr 45 min 16 sec) 
Heartbeat CPU 0 instructions: 42000001 cycles: 270016264 heartbeat IPC: 0.215356 cumulative IPC: 0.120787 (Simulation time: 0 hr 46 min 13 sec) 
Heartbeat CPU 0 instructions: 43000000 cycles: 273982664 heartbeat IPC: 0.252118 cumulative IPC: 0.122724 (Simulation time: 0 hr 47 min 8 sec) 
Heartbeat CPU 0 instructions: 44000000 cycles: 287543137 heartbeat IPC: 0.0737437 cumulative IPC: 0.120372 (Simulation time: 0 hr 48 min 11 sec) 
Heartbeat CPU 0 instructions: 45000001 cycles: 294942986 heartbeat IPC: 0.135138 cumulative IPC: 0.120749 (Simulation time: 0 hr 49 min 2 sec) 
Heartbeat CPU 0 instructions: 46000001 cycles: 299033714 heartbeat IPC: 0.244455 cumulative IPC: 0.122471 (Simulation time: 0 hr 49 min 44 sec) 
Heartbeat CPU 0 instructions: 47000002 cycles: 308396866 heartbeat IPC: 0.106802 cumulative IPC: 0.121987 (Simulation time: 0 hr 50 min 38 sec) 
Heartbeat CPU 0 instructions: 48000000 cycles: 320087377 heartbeat IPC: 0.0855393 cumulative IPC: 0.120635 (Simulation time: 0 hr 51 min 40 sec) 
Heartbeat CPU 0 instructions: 49000000 cycles: 324548783 heartbeat IPC: 0.224145 cumulative IPC: 0.12208 (Simulation time: 0 hr 52 min 23 sec) 
Heartbeat CPU 0 instructions: 50000001 cycles: 330682594 heartbeat IPC: 0.163031 cumulative IPC: 0.122852 (Simulation time: 0 hr 53 min 11 sec) 
Heartbeat CPU 0 instructions: 51000001 cycles: 345363668 heartbeat IPC: 0.0681149 cumulative IPC: 0.12049 (Simulation time: 0 hr 54 min 24 sec) 
Heartbeat CPU 0 instructions: 52000000 cycles: 349848116 heartbeat IPC: 0.222993 cumulative IPC: 0.121823 (Simulation time: 0 hr 55 min 10 sec) 
Heartbeat CPU 0 instructions: 53000000 cycles: 353921297 heartbeat IPC: 0.245508 cumulative IPC: 0.123267 (Simulation time: 0 hr 55 min 52 sec) 
Heartbeat CPU 0 instructions: 54000002 cycles: 369775595 heartbeat IPC: 0.0630745 cumulative IPC: 0.120651 (Simulation time: 0 hr 57 min 1 sec) 
Heartbeat CPU 0 instructions: 55000002 cycles: 374927180 heartbeat IPC: 0.194115 cumulative IPC: 0.121674 (Simulation time: 0 hr 57 min 43 sec) 
Heartbeat CPU 0 instructions: 56000000 cycles: 379131854 heartbeat IPC: 0.23783 cumulative IPC: 0.12298 (Simulation time: 0 hr 58 min 22 sec) 
Heartbeat CPU 0 instructions: 57000000 cycles: 392600728 heartbeat IPC: 0.0742453 cumulative IPC: 0.121286 (Simulation time: 0 hr 59 min 21 sec) 
Heartbeat CPU 0 instructions: 58000000 cycles: 400136782 heartbeat IPC: 0.132695 cumulative IPC: 0.121503 (Simulation time: 1 hr 0 min 9 sec) 
Heartbeat CPU 0 instructions: 59000002 cycles: 404278881 heartbeat IPC: 0.241424 cumulative IPC: 0.122748 (Simulation time: 1 hr 0 min 46 sec) 
Heartbeat CPU 0 instructions: 60000000 cycles: 415905707 heartbeat IPC: 0.0860078 cumulative IPC: 0.121708 (Simulation time: 1 hr 1 min 37 sec) 
Heartbeat CPU 0 instructions: 61000002 cycles: 425349630 heartbeat IPC: 0.105888 cumulative IPC: 0.121352 (Simulation time: 1 hr 2 min 22 sec) 
Heartbeat CPU 0 instructions: 62000001 cycles: 429473791 heartbeat IPC: 0.242473 cumulative IPC: 0.12253 (Simulation time: 1 hr 2 min 55 sec) 
Heartbeat CPU 0 instructions: 63000001 cycles: 439458929 heartbeat IPC: 0.100149 cumulative IPC: 0.122015 (Simulation time: 1 hr 3 min 37 sec) 
Heartbeat CPU 0 instructions: 64000000 cycles: 450873193 heartbeat IPC: 0.0876096 cumulative IPC: 0.121134 (Simulation time: 1 hr 4 min 21 sec) 
Heartbeat CPU 0 instructions: 65000002 cycles: 456281546 heartbeat IPC: 0.1849 cumulative IPC: 0.121898 (Simulation time: 1 hr 4 min 53 sec) 
Heartbeat CPU 0 instructions: 66000000 cycles: 462570917 heartbeat IPC: 0.158998 cumulative IPC: 0.122408 (Simulation time: 1 hr 5 min 24 sec) 
Heartbeat CPU 0 instructions: 67000002 cycles: 478591389 heartbeat IPC: 0.0624203 cumulative IPC: 0.120379 (Simulation time: 1 hr 6 min 10 sec) 
Heartbeat CPU 0 instructions: 68000000 cycles: 483008562 heartbeat IPC: 0.226389 cumulative IPC: 0.121359 (Simulation time: 1 hr 6 min 39 sec) 
Heartbeat CPU 0 instructions: 69000000 cycles: 487003956 heartbeat IPC: 0.250288 cumulative IPC: 0.122428 (Simulation time: 1 hr 7 min 6 sec) 
Heartbeat CPU 0 instructions: 70000001 cycles: 501355756 heartbeat IPC: 0.0696777 cumulative IPC: 0.120902 (Simulation time: 1 hr 7 min 48 sec) 
Heartbeat CPU 0 instructions: 71000002 cycles: 509664532 heartbeat IPC: 0.120355 cumulative IPC: 0.120893 (Simulation time: 1 hr 8 min 22 sec) 
Heartbeat CPU 0 instructions: 72000000 cycles: 514382436 heartbeat IPC: 0.211958 cumulative IPC: 0.121737 (Simulation time: 1 hr 8 min 47 sec) 
Heartbeat CPU 0 instructions: 73000002 cycles: 523396372 heartbeat IPC: 0.11094 cumulative IPC: 0.121549 (Simulation time: 1 hr 9 min 15 sec) 
Heartbeat CPU 0 instructions: 74000001 cycles: 535587874 heartbeat IPC: 0.0820243 cumulative IPC: 0.120641 (Simulation time: 1 hr 9 min 44 sec) 
Heartbeat CPU 0 instructions: 75000002 cycles: 540031425 heartbeat IPC: 0.225045 cumulative IPC: 0.121508 (Simulation time: 1 hr 10 min 1 sec) 
Heartbeat CPU 0 instructions: 76000000 cycles: 545950570 heartbeat IPC: 0.168943 cumulative IPC: 0.122027 (Simulation time: 1 hr 10 min 18 sec) 
Heartbeat CPU 0 instructions: 77000001 cycles: 562028225 heartbeat IPC: 0.0621982 cumulative IPC: 0.1203 (Simulation time: 1 hr 10 min 41 sec) 
Heartbeat CPU 0 instructions: 78000002 cycles: 566791725 heartbeat IPC: 0.20993 cumulative IPC: 0.12106 (Simulation time: 1 hr 10 min 57 sec) 
Heartbeat CPU 0 instructions: 79000001 cycles: 571043570 heartbeat IPC: 0.235192 cumulative IPC: 0.121917 (Simulation time: 1 hr 11 min 11 sec) 
Heartbeat CPU 0 instructions: 80000000 cycles: 584557765 heartbeat IPC: 0.0739962 cumulative IPC: 0.1208 (Simulation time: 1 hr 11 min 31 sec) 
Heartbeat CPU 0 instructions: 81000000 cycles: 592094857 heartbeat IPC: 0.132677 cumulative IPC: 0.120952 (Simulation time: 1 hr 11 min 47 sec) 
Heartbeat CPU 0 instructions: 82000000 cycles: 596870613 heartbeat IPC: 0.209391 cumulative IPC: 0.121666 (Simulation time: 1 hr 11 min 59 sec) 
Heartbeat CPU 0 instructions: 83000001 cycles: 606523981 heartbeat IPC: 0.103591 cumulative IPC: 0.121376 (Simulation time: 1 hr 12 min 13 sec) 
Heartbeat CPU 0 instructions: 84000000 cycles: 618310731 heartbeat IPC: 0.0848409 cumulative IPC: 0.120674 (Simulation time: 1 hr 12 min 27 sec) 
Heartbeat CPU 0 instructions: 85000001 cycles: 622507966 heartbeat IPC: 0.238252 cumulative IPC: 0.121473 (Simulation time: 1 hr 12 min 36 sec) 
Heartbeat CPU 0 instructions: 86000000 cycles: 630354585 heartbeat IPC: 0.127443 cumulative IPC: 0.121548 (Simulation time: 1 hr 12 min 47 sec) 
Heartbeat CPU 0 instructions: 87000000 cycles: 645192975 heartbeat IPC: 0.0673928 cumulative IPC: 0.120292 (Simulation time: 1 hr 13 min 0 sec) 
Heartbeat CPU 0 instructions: 88000000 cycles: 651203025 heartbeat IPC: 0.166388 cumulative IPC: 0.120721 (Simulation time: 1 hr 13 min 10 sec) 
Heartbeat CPU 0 instructions: 89000000 cycles: 655268661 heartbeat IPC: 0.245964 cumulative IPC: 0.121504 (Simulation time: 1 hr 13 min 18 sec) 
Heartbeat CPU 0 instructions: 90000003 cycles: 667299710 heartbeat IPC: 0.0831185 cumulative IPC: 0.120807 (Simulation time: 1 hr 13 min 28 sec) 
Heartbeat CPU 0 instructions: 91000000 cycles: 676465438 heartbeat IPC: 0.109102 cumulative IPC: 0.120647 (Simulation time: 1 hr 13 min 36 sec) 
Heartbeat CPU 0 instructions: 92000000 cycles: 680613560 heartbeat IPC: 0.241073 cumulative IPC: 0.121387 (Simulation time: 1 hr 13 min 43 sec) 
Heartbeat CPU 0 instructions: 93000002 cycles: 689546875 heartbeat IPC: 0.111941 cumulative IPC: 0.121263 (Simulation time: 1 hr 13 min 50 sec) 
Heartbeat CPU 0 instructions: 94000002 cycles: 701367836 heartbeat IPC: 0.0845955 cumulative IPC: 0.120641 (Simulation time: 1 hr 13 min 58 sec) 
Heartbeat CPU 0 instructions: 95000000 cycles: 707074148 heartbeat IPC: 0.175244 cumulative IPC: 0.121085 (Simulation time: 1 hr 14 min 4 sec) 
Heartbeat CPU 0 instructions: 96000000 cycles: 712635385 heartbeat IPC: 0.179816 cumulative IPC: 0.121546 (Simulation time: 1 hr 14 min 10 sec) 
Heartbeat CPU 0 instructions: 97000000 cycles: 728122667 heartbeat IPC: 0.0645691 cumulative IPC: 0.120326 (Simulation time: 1 hr 14 min 20 sec) 
Heartbeat CPU 0 instructions: 98000002 cycles: 732745488 heartbeat IPC: 0.216319 cumulative IPC: 0.120936 (Simulation time: 1 hr 14 min 26 sec) 
Heartbeat CPU 0 instructions: 99000002 cycles: 737260330 heartbeat IPC: 0.221492 cumulative IPC: 0.121556 (Simulation time: 1 hr 14 min 32 sec) 
Heartbeat CPU 0 instructions: 100000000 cycles: 751668109 heartbeat IPC: 0.0694068 cumulative IPC: 0.120549 (Simulation time: 1 hr 14 min 41 sec) 
Heartbeat CPU 0 instructions: 101000000 cycles: 758553474 heartbeat IPC: 0.145236 cumulative IPC: 0.120775 (Simulation time: 1 hr 14 min 48 sec) 
Heartbeat CPU 0 instructions: 102000003 cycles: 762688119 heartbeat IPC: 0.241859 cumulative IPC: 0.121436 (Simulation time: 1 hr 14 min 54 sec) 
Heartbeat CPU 0 instructions: 103000003 cycles: 774839761 heartbeat IPC: 0.0822934 cumulative IPC: 0.120818 (Simulation time: 1 hr 15 min 2 sec) 
Heartbeat CPU 0 instructions: 104000000 cycles: 786097376 heartbeat IPC: 0.0888285 cumulative IPC: 0.120357 (Simulation time: 1 hr 15 min 10 sec) 
Heartbeat CPU 0 instructions: 105000000 cycles: 790765454 heartbeat IPC: 0.214221 cumulative IPC: 0.120914 (Simulation time: 1 hr 15 min 15 sec) 
Heartbeat CPU 0 instructions: 106000000 cycles: 794815671 heartbeat IPC: 0.2469 cumulative IPC: 0.121561 (Simulation time: 1 hr 15 min 20 sec) 
Heartbeat CPU 0 instructions: 107000002 cycles: 810671084 heartbeat IPC: 0.0630701 cumulative IPC: 0.120409 (Simulation time: 1 hr 15 min 29 sec) 
Heartbeat CPU 0 instructions: 108000000 cycles: 815981148 heartbeat IPC: 0.188321 cumulative IPC: 0.120854 (Simulation time: 1 hr 15 min 35 sec) 
Heartbeat CPU 0 instructions: 109000001 cycles: 820219878 heartbeat IPC: 0.23592 cumulative IPC: 0.121452 (Simulation time: 1 hr 15 min 41 sec) 
Heartbeat CPU 0 instructions: 110000002 cycles: 830005820 heartbeat IPC: 0.102188 cumulative IPC: 0.121224 (Simulation time: 1 hr 15 min 49 sec) 
Finished CPU 0 instructions: 100000001 cycles: 824919530 cummulative IPC: 0.121224 (Simulation time: 1 hr 15 min 49 sec) 

ChampSim completed all CPUs

Region of Interest Statistics

CPU 0 cummulative IPC: 0.121224 instructions: 100000001 cycles: 824919530
LLC TOTAL     ACCESS:   18754759  HIT:    8235362  MISS:   10519397
LLC LOAD      ACCESS:    8469184  HIT:    4414718  MISS:    4054466
LLC RFO       ACCESS:     206421  HIT:      68862  MISS:     137559
LLC PREFETCH  ACCESS:    7971637  HIT:    2098273  MISS:    5873364
LLC WRITEBACK ACCESS:    2107517  HIT:    1653509  MISS:     454008
Insertion Distribution: 
	LOAD 824178 0 577518 2975917 
	RFO 88189 0 51232 10740 
	PREF 0 1428307 883684 4178822 
	WRITEBACK 0 0 0 504673 
Total Prefetch Downgrades: 1167698
