
*** ChampSim Multicore Out-of-Order Simulator ***

Warmup Instructions: 10000000
Simulation Instructions: 100000000
Configuration: 2
Number of CPUs: 1
LLC sets: 2048
LLC ways: 16
Off-chip DRAM Channels: 1 Width: 64-bit Data Rate: 1600 MT/s

CPU 0 runs /datasets/cs240c-wi22-a00-public/data/Assignment2-gz/GemsFDTD_712B.trace.gz
CPU 0 L1D next line prefetcher
CPU 0 L2C IP-based stride prefetcher
Initialize SRRIP state
Heartbeat CPU 0 instructions: 1000003 cycles: 634340 heartbeat IPC: 1.57645 cumulative IPC: 1.57645 (Simulation time: 0 hr 0 min 48 sec) 
Heartbeat CPU 0 instructions: 2000000 cycles: 1268251 heartbeat IPC: 1.5775 cumulative IPC: 1.57697 (Simulation time: 0 hr 1 min 35 sec) 
Heartbeat CPU 0 instructions: 3000000 cycles: 1902230 heartbeat IPC: 1.57734 cumulative IPC: 1.5771 (Simulation time: 0 hr 2 min 18 sec) 
Heartbeat CPU 0 instructions: 4000000 cycles: 2535944 heartbeat IPC: 1.578 cumulative IPC: 1.57732 (Simulation time: 0 hr 3 min 3 sec) 
Heartbeat CPU 0 instructions: 5000003 cycles: 3170098 heartbeat IPC: 1.57691 cumulative IPC: 1.57724 (Simulation time: 0 hr 3 min 48 sec) 
Heartbeat CPU 0 instructions: 6000002 cycles: 3803987 heartbeat IPC: 1.57756 cumulative IPC: 1.57729 (Simulation time: 0 hr 4 min 39 sec) 
Heartbeat CPU 0 instructions: 7000001 cycles: 4438127 heartbeat IPC: 1.57694 cumulative IPC: 1.57724 (Simulation time: 0 hr 5 min 25 sec) 
Heartbeat CPU 0 instructions: 8000000 cycles: 5071955 heartbeat IPC: 1.57771 cumulative IPC: 1.5773 (Simulation time: 0 hr 6 min 9 sec) 
Heartbeat CPU 0 instructions: 9000001 cycles: 5706062 heartbeat IPC: 1.57702 cumulative IPC: 1.57727 (Simulation time: 0 hr 6 min 53 sec) 
Heartbeat CPU 0 instructions: 10000002 cycles: 6339828 heartbeat IPC: 1.57787 cumulative IPC: 1.57733 (Simulation time: 0 hr 7 min 40 sec) 

Warmup complete CPU 0 instructions: 10000002 cycles: 6339828 (Simulation time: 0 hr 7 min 40 sec) 

Heartbeat CPU 0 instructions: 11000001 cycles: 7959933 heartbeat IPC: 0.617243 cumulative IPC: 0.617243 (Simulation time: 0 hr 8 min 33 sec) 
Heartbeat CPU 0 instructions: 12000000 cycles: 9585842 heartbeat IPC: 0.61504 cumulative IPC: 0.61614 (Simulation time: 0 hr 9 min 26 sec) 
Heartbeat CPU 0 instructions: 13000000 cycles: 11208641 heartbeat IPC: 0.616219 cumulative IPC: 0.616166 (Simulation time: 0 hr 10 min 20 sec) 
Heartbeat CPU 0 instructions: 14000001 cycles: 12814597 heartbeat IPC: 0.622683 cumulative IPC: 0.617782 (Simulation time: 0 hr 11 min 10 sec) 
Heartbeat CPU 0 instructions: 15000001 cycles: 14408571 heartbeat IPC: 0.627363 cumulative IPC: 0.619675 (Simulation time: 0 hr 11 min 53 sec) 
Heartbeat CPU 0 instructions: 16000000 cycles: 16035847 heartbeat IPC: 0.614523 cumulative IPC: 0.61881 (Simulation time: 0 hr 12 min 34 sec) 
Heartbeat CPU 0 instructions: 17000001 cycles: 17650186 heartbeat IPC: 0.619449 cumulative IPC: 0.618902 (Simulation time: 0 hr 13 min 29 sec) 
Heartbeat CPU 0 instructions: 18000003 cycles: 19286498 heartbeat IPC: 0.611132 cumulative IPC: 0.61792 (Simulation time: 0 hr 14 min 17 sec) 
Heartbeat CPU 0 instructions: 19000003 cycles: 20892818 heartbeat IPC: 0.622541 cumulative IPC: 0.61843 (Simulation time: 0 hr 15 min 4 sec) 
Heartbeat CPU 0 instructions: 20000000 cycles: 22493805 heartbeat IPC: 0.624613 cumulative IPC: 0.619042 (Simulation time: 0 hr 15 min 59 sec) 
Heartbeat CPU 0 instructions: 21000002 cycles: 24110333 heartbeat IPC: 0.618611 cumulative IPC: 0.619003 (Simulation time: 0 hr 16 min 55 sec) 
Heartbeat CPU 0 instructions: 22000001 cycles: 25737157 heartbeat IPC: 0.614694 cumulative IPC: 0.618642 (Simulation time: 0 hr 17 min 50 sec) 
Heartbeat CPU 0 instructions: 23000002 cycles: 27347305 heartbeat IPC: 0.621062 cumulative IPC: 0.618827 (Simulation time: 0 hr 18 min 54 sec) 
Heartbeat CPU 0 instructions: 24000000 cycles: 28992615 heartbeat IPC: 0.607787 cumulative IPC: 0.618025 (Simulation time: 0 hr 20 min 15 sec) 
Heartbeat CPU 0 instructions: 25000000 cycles: 30614419 heartbeat IPC: 0.616597 cumulative IPC: 0.61793 (Simulation time: 0 hr 21 min 20 sec) 
Heartbeat CPU 0 instructions: 26000002 cycles: 32228609 heartbeat IPC: 0.619507 cumulative IPC: 0.618028 (Simulation time: 0 hr 22 min 32 sec) 
Heartbeat CPU 0 instructions: 27000002 cycles: 33860075 heartbeat IPC: 0.612946 cumulative IPC: 0.617727 (Simulation time: 0 hr 23 min 33 sec) 
Heartbeat CPU 0 instructions: 28000000 cycles: 35470711 heartbeat IPC: 0.620871 cumulative IPC: 0.617901 (Simulation time: 0 hr 24 min 29 sec) 
Heartbeat CPU 0 instructions: 29000002 cycles: 37080024 heartbeat IPC: 0.621384 cumulative IPC: 0.618083 (Simulation time: 0 hr 25 min 24 sec) 
Heartbeat CPU 0 instructions: 30000003 cycles: 38684253 heartbeat IPC: 0.623353 cumulative IPC: 0.618345 (Simulation time: 0 hr 26 min 21 sec) 
Heartbeat CPU 0 instructions: 31000001 cycles: 40301205 heartbeat IPC: 0.618446 cumulative IPC: 0.618349 (Simulation time: 0 hr 27 min 14 sec) 
Heartbeat CPU 0 instructions: 32000000 cycles: 41927611 heartbeat IPC: 0.614852 cumulative IPC: 0.61819 (Simulation time: 0 hr 28 min 7 sec) 
Heartbeat CPU 0 instructions: 33000003 cycles: 43542237 heartbeat IPC: 0.61934 cumulative IPC: 0.61824 (Simulation time: 0 hr 29 min 1 sec) 
Heartbeat CPU 0 instructions: 34000003 cycles: 45126996 heartbeat IPC: 0.631011 cumulative IPC: 0.618761 (Simulation time: 0 hr 29 min 51 sec) 
Heartbeat CPU 0 instructions: 35000000 cycles: 46740448 heartbeat IPC: 0.619787 cumulative IPC: 0.618802 (Simulation time: 0 hr 30 min 43 sec) 
Heartbeat CPU 0 instructions: 36000000 cycles: 48358132 heartbeat IPC: 0.618168 cumulative IPC: 0.618778 (Simulation time: 0 hr 31 min 34 sec) 
Heartbeat CPU 0 instructions: 37000001 cycles: 49953708 heartbeat IPC: 0.626734 cumulative IPC: 0.619069 (Simulation time: 0 hr 32 min 26 sec) 
Heartbeat CPU 0 instructions: 38000003 cycles: 51553013 heartbeat IPC: 0.625273 cumulative IPC: 0.619288 (Simulation time: 0 hr 33 min 15 sec) 
Heartbeat CPU 0 instructions: 39000000 cycles: 53186433 heartbeat IPC: 0.612211 cumulative IPC: 0.619042 (Simulation time: 0 hr 34 min 8 sec) 
Heartbeat CPU 0 instructions: 40000000 cycles: 54764721 heartbeat IPC: 0.633598 cumulative IPC: 0.619516 (Simulation time: 0 hr 34 min 58 sec) 
Heartbeat CPU 0 instructions: 41000003 cycles: 56369062 heartbeat IPC: 0.623311 cumulative IPC: 0.619638 (Simulation time: 0 hr 35 min 51 sec) 
Heartbeat CPU 0 instructions: 42000000 cycles: 57991643 heartbeat IPC: 0.6163 cumulative IPC: 0.619533 (Simulation time: 0 hr 36 min 42 sec) 
Heartbeat CPU 0 instructions: 43000001 cycles: 59606902 heartbeat IPC: 0.619096 cumulative IPC: 0.61952 (Simulation time: 0 hr 37 min 32 sec) 
Heartbeat CPU 0 instructions: 44000000 cycles: 61210916 heartbeat IPC: 0.623435 cumulative IPC: 0.619634 (Simulation time: 0 hr 38 min 21 sec) 
Heartbeat CPU 0 instructions: 45000003 cycles: 62813303 heartbeat IPC: 0.624071 cumulative IPC: 0.61976 (Simulation time: 0 hr 39 min 8 sec) 
Heartbeat CPU 0 instructions: 46000002 cycles: 64401103 heartbeat IPC: 0.629802 cumulative IPC: 0.620035 (Simulation time: 0 hr 39 min 57 sec) 
Heartbeat CPU 0 instructions: 47000001 cycles: 66019807 heartbeat IPC: 0.617778 cumulative IPC: 0.619973 (Simulation time: 0 hr 40 min 48 sec) 
Heartbeat CPU 0 instructions: 48000000 cycles: 67634062 heartbeat IPC: 0.61948 cumulative IPC: 0.61996 (Simulation time: 0 hr 41 min 37 sec) 
Heartbeat CPU 0 instructions: 49000000 cycles: 69233618 heartbeat IPC: 0.625174 cumulative IPC: 0.620093 (Simulation time: 0 hr 42 min 26 sec) 
Heartbeat CPU 0 instructions: 50000001 cycles: 70855583 heartbeat IPC: 0.616537 cumulative IPC: 0.620004 (Simulation time: 0 hr 43 min 15 sec) 
Heartbeat CPU 0 instructions: 51000002 cycles: 72480286 heartbeat IPC: 0.615498 cumulative IPC: 0.619893 (Simulation time: 0 hr 44 min 5 sec) 
Heartbeat CPU 0 instructions: 52000000 cycles: 74093312 heartbeat IPC: 0.619952 cumulative IPC: 0.619894 (Simulation time: 0 hr 44 min 53 sec) 
Heartbeat CPU 0 instructions: 53000000 cycles: 75735838 heartbeat IPC: 0.608818 cumulative IPC: 0.619632 (Simulation time: 0 hr 45 min 43 sec) 
Heartbeat CPU 0 instructions: 54000000 cycles: 77327972 heartbeat IPC: 0.628088 cumulative IPC: 0.619822 (Simulation time: 0 hr 46 min 32 sec) 
Heartbeat CPU 0 instructions: 55000003 cycles: 78918217 heartbeat IPC: 0.628836 cumulative IPC: 0.620019 (Simulation time: 0 hr 47 min 19 sec) 
Heartbeat CPU 0 instructions: 56000000 cycles: 80533995 heartbeat IPC: 0.618895 cumulative IPC: 0.619995 (Simulation time: 0 hr 48 min 1 sec) 
Heartbeat CPU 0 instructions: 57000000 cycles: 82186320 heartbeat IPC: 0.605208 cumulative IPC: 0.619673 (Simulation time: 0 hr 48 min 41 sec) 
Heartbeat CPU 0 instructions: 58000001 cycles: 83802021 heartbeat IPC: 0.618927 cumulative IPC: 0.619657 (Simulation time: 0 hr 49 min 21 sec) 
Heartbeat CPU 0 instructions: 59000001 cycles: 85420427 heartbeat IPC: 0.617892 cumulative IPC: 0.619621 (Simulation time: 0 hr 50 min 3 sec) 
Heartbeat CPU 0 instructions: 60000000 cycles: 87051610 heartbeat IPC: 0.613051 cumulative IPC: 0.619488 (Simulation time: 0 hr 50 min 44 sec) 
Heartbeat CPU 0 instructions: 61000001 cycles: 88639269 heartbeat IPC: 0.629859 cumulative IPC: 0.619688 (Simulation time: 0 hr 51 min 25 sec) 
Heartbeat CPU 0 instructions: 62000000 cycles: 90234700 heartbeat IPC: 0.626789 cumulative IPC: 0.619823 (Simulation time: 0 hr 52 min 8 sec) 
Heartbeat CPU 0 instructions: 63000003 cycles: 91858379 heartbeat IPC: 0.615887 cumulative IPC: 0.619749 (Simulation time: 0 hr 52 min 48 sec) 
Heartbeat CPU 0 instructions: 64000000 cycles: 93481268 heartbeat IPC: 0.616183 cumulative IPC: 0.619682 (Simulation time: 0 hr 53 min 31 sec) 
Heartbeat CPU 0 instructions: 65000003 cycles: 95112410 heartbeat IPC: 0.613069 cumulative IPC: 0.619561 (Simulation time: 0 hr 54 min 11 sec) 
Heartbeat CPU 0 instructions: 66000000 cycles: 96702503 heartbeat IPC: 0.628892 cumulative IPC: 0.619725 (Simulation time: 0 hr 54 min 51 sec) 
Heartbeat CPU 0 instructions: 67000000 cycles: 98302645 heartbeat IPC: 0.624945 cumulative IPC: 0.619816 (Simulation time: 0 hr 55 min 33 sec) 
Heartbeat CPU 0 instructions: 68000000 cycles: 99904585 heartbeat IPC: 0.624243 cumulative IPC: 0.619892 (Simulation time: 0 hr 56 min 12 sec) 
Heartbeat CPU 0 instructions: 69000003 cycles: 101487864 heartbeat IPC: 0.631603 cumulative IPC: 0.620086 (Simulation time: 0 hr 56 min 50 sec) 
Heartbeat CPU 0 instructions: 70000002 cycles: 103122197 heartbeat IPC: 0.61187 cumulative IPC: 0.619948 (Simulation time: 0 hr 57 min 30 sec) 
Heartbeat CPU 0 instructions: 71000002 cycles: 104770160 heartbeat IPC: 0.60681 cumulative IPC: 0.619728 (Simulation time: 0 hr 58 min 10 sec) 
Heartbeat CPU 0 instructions: 72000000 cycles: 106456095 heartbeat IPC: 0.593141 cumulative IPC: 0.61928 (Simulation time: 0 hr 58 min 51 sec) 
Heartbeat CPU 0 instructions: 73000000 cycles: 108137993 heartbeat IPC: 0.594566 cumulative IPC: 0.618872 (Simulation time: 0 hr 59 min 28 sec) 
Heartbeat CPU 0 instructions: 74000001 cycles: 109846095 heartbeat IPC: 0.585446 cumulative IPC: 0.61832 (Simulation time: 1 hr 0 min 6 sec) 
Heartbeat CPU 0 instructions: 75000003 cycles: 111534111 heartbeat IPC: 0.592413 cumulative IPC: 0.617904 (Simulation time: 1 hr 0 min 43 sec) 
Heartbeat CPU 0 instructions: 76000000 cycles: 113214066 heartbeat IPC: 0.595252 cumulative IPC: 0.617548 (Simulation time: 1 hr 1 min 19 sec) 
Heartbeat CPU 0 instructions: 77000000 cycles: 114907821 heartbeat IPC: 0.590404 cumulative IPC: 0.617125 (Simulation time: 1 hr 1 min 53 sec) 
Heartbeat CPU 0 instructions: 78000001 cycles: 116595784 heartbeat IPC: 0.592431 cumulative IPC: 0.616747 (Simulation time: 1 hr 2 min 26 sec) 
Heartbeat CPU 0 instructions: 79000003 cycles: 118299948 heartbeat IPC: 0.586799 cumulative IPC: 0.616291 (Simulation time: 1 hr 2 min 58 sec) 
Heartbeat CPU 0 instructions: 80000000 cycles: 120008531 heartbeat IPC: 0.585279 cumulative IPC: 0.615825 (Simulation time: 1 hr 3 min 27 sec) 
Heartbeat CPU 0 instructions: 81000001 cycles: 121717466 heartbeat IPC: 0.58516 cumulative IPC: 0.615371 (Simulation time: 1 hr 3 min 58 sec) 
Heartbeat CPU 0 instructions: 82000000 cycles: 123431677 heartbeat IPC: 0.583358 cumulative IPC: 0.614902 (Simulation time: 1 hr 4 min 26 sec) 
Heartbeat CPU 0 instructions: 83000001 cycles: 125133252 heartbeat IPC: 0.587691 cumulative IPC: 0.614512 (Simulation time: 1 hr 4 min 54 sec) 
Heartbeat CPU 0 instructions: 84000000 cycles: 126835824 heartbeat IPC: 0.587346 cumulative IPC: 0.614128 (Simulation time: 1 hr 5 min 22 sec) 
Heartbeat CPU 0 instructions: 85000000 cycles: 128538589 heartbeat IPC: 0.58728 cumulative IPC: 0.613754 (Simulation time: 1 hr 5 min 49 sec) 
Heartbeat CPU 0 instructions: 86000000 cycles: 130238802 heartbeat IPC: 0.588162 cumulative IPC: 0.613403 (Simulation time: 1 hr 6 min 15 sec) 
Heartbeat CPU 0 instructions: 87000001 cycles: 131948891 heartbeat IPC: 0.584765 cumulative IPC: 0.613013 (Simulation time: 1 hr 6 min 41 sec) 
Heartbeat CPU 0 instructions: 88000000 cycles: 133653715 heartbeat IPC: 0.58657 cumulative IPC: 0.612659 (Simulation time: 1 hr 7 min 6 sec) 
Heartbeat CPU 0 instructions: 89000003 cycles: 135365953 heartbeat IPC: 0.584033 cumulative IPC: 0.612279 (Simulation time: 1 hr 7 min 32 sec) 
Heartbeat CPU 0 instructions: 90000000 cycles: 137073762 heartbeat IPC: 0.585544 cumulative IPC: 0.61193 (Simulation time: 1 hr 7 min 58 sec) 
Heartbeat CPU 0 instructions: 91000001 cycles: 138769786 heartbeat IPC: 0.589615 cumulative IPC: 0.611644 (Simulation time: 1 hr 8 min 24 sec) 
Heartbeat CPU 0 instructions: 92000000 cycles: 140477276 heartbeat IPC: 0.585654 cumulative IPC: 0.611313 (Simulation time: 1 hr 8 min 48 sec) 
Heartbeat CPU 0 instructions: 93000003 cycles: 142170422 heartbeat IPC: 0.590618 cumulative IPC: 0.611055 (Simulation time: 1 hr 9 min 11 sec) 
Heartbeat CPU 0 instructions: 94000002 cycles: 143869682 heartbeat IPC: 0.588491 cumulative IPC: 0.610776 (Simulation time: 1 hr 9 min 32 sec) 
Heartbeat CPU 0 instructions: 95000000 cycles: 145576722 heartbeat IPC: 0.585808 cumulative IPC: 0.61047 (Simulation time: 1 hr 9 min 51 sec) 
Heartbeat CPU 0 instructions: 96000000 cycles: 147271120 heartbeat IPC: 0.59018 cumulative IPC: 0.610226 (Simulation time: 1 hr 10 min 7 sec) 
Heartbeat CPU 0 instructions: 97000003 cycles: 148970766 heartbeat IPC: 0.58836 cumulative IPC: 0.609966 (Simulation time: 1 hr 10 min 24 sec) 
Heartbeat CPU 0 instructions: 98000000 cycles: 150672323 heartbeat IPC: 0.587695 cumulative IPC: 0.609703 (Simulation time: 1 hr 10 min 40 sec) 
Heartbeat CPU 0 instructions: 99000001 cycles: 152377972 heartbeat IPC: 0.586288 cumulative IPC: 0.60943 (Simulation time: 1 hr 10 min 57 sec) 
Heartbeat CPU 0 instructions: 100000000 cycles: 154097947 heartbeat IPC: 0.581403 cumulative IPC: 0.609104 (Simulation time: 1 hr 11 min 13 sec) 
Heartbeat CPU 0 instructions: 101000001 cycles: 155802481 heartbeat IPC: 0.586671 cumulative IPC: 0.608848 (Simulation time: 1 hr 11 min 28 sec) 
Heartbeat CPU 0 instructions: 102000002 cycles: 157514738 heartbeat IPC: 0.584025 cumulative IPC: 0.608567 (Simulation time: 1 hr 11 min 42 sec) 
Heartbeat CPU 0 instructions: 103000000 cycles: 159217241 heartbeat IPC: 0.587369 cumulative IPC: 0.608331 (Simulation time: 1 hr 11 min 56 sec) 
Heartbeat CPU 0 instructions: 104000000 cycles: 160921488 heartbeat IPC: 0.586769 cumulative IPC: 0.608093 (Simulation time: 1 hr 12 min 8 sec) 
Heartbeat CPU 0 instructions: 105000000 cycles: 162622100 heartbeat IPC: 0.588024 cumulative IPC: 0.607874 (Simulation time: 1 hr 12 min 19 sec) 
Heartbeat CPU 0 instructions: 106000002 cycles: 164318537 heartbeat IPC: 0.589472 cumulative IPC: 0.607677 (Simulation time: 1 hr 12 min 30 sec) 
Heartbeat CPU 0 instructions: 107000000 cycles: 166034675 heartbeat IPC: 0.582703 cumulative IPC: 0.607408 (Simulation time: 1 hr 12 min 40 sec) 
Heartbeat CPU 0 instructions: 108000000 cycles: 167737833 heartbeat IPC: 0.587145 cumulative IPC: 0.607195 (Simulation time: 1 hr 12 min 49 sec) 
Heartbeat CPU 0 instructions: 109000003 cycles: 169447601 heartbeat IPC: 0.584876 cumulative IPC: 0.606961 (Simulation time: 1 hr 12 min 59 sec) 
Heartbeat CPU 0 instructions: 110000001 cycles: 171149268 heartbeat IPC: 0.587658 cumulative IPC: 0.606761 (Simulation time: 1 hr 13 min 8 sec) 
Finished CPU 0 instructions: 100000003 cycles: 164809441 cummulative IPC: 0.606761 (Simulation time: 1 hr 13 min 8 sec) 

ChampSim completed all CPUs

Region of Interest Statistics

CPU 0 cummulative IPC: 0.606761 instructions: 100000003 cycles: 164809441
LLC TOTAL     ACCESS:    5145109  HIT:     271936  MISS:    4873173
LLC LOAD      ACCESS:     520983  HIT:     125508  MISS:     395475
LLC RFO       ACCESS:         18  HIT:          0  MISS:         18
LLC PREFETCH  ACCESS:    3246811  HIT:      61725  MISS:    3185086
LLC WRITEBACK ACCESS:    1377297  HIT:      84703  MISS:    1292594
Insertion Distribution: 
	LOAD 132269 0 15152 264389 
	RFO 0 0 18 0 
	PREF 0 17164 68876 3467766 
	WRITEBACK 0 0 0 1415377 
Total Prefetch Downgrades: 10558
