
*** ChampSim Multicore Out-of-Order Simulator ***

Warmup Instructions: 10000000
Simulation Instructions: 100000000
Configuration: 2
Number of CPUs: 1
LLC sets: 2048
LLC ways: 16
Off-chip DRAM Channels: 1 Width: 64-bit Data Rate: 1600 MT/s

CPU 0 runs /datasets/cs240c-wi22-a00-public/data/Assignment2-gz/calculix_3812B.trace.gz
CPU 0 L1D next line prefetcher
CPU 0 L2C IP-based stride prefetcher
Initialize SRRIP state
Heartbeat CPU 0 instructions: 1000001 cycles: 478689 heartbeat IPC: 2.08904 cumulative IPC: 2.08904 (Simulation time: 0 hr 0 min 40 sec) 
Heartbeat CPU 0 instructions: 2000002 cycles: 956483 heartbeat IPC: 2.09295 cumulative IPC: 2.091 (Simulation time: 0 hr 1 min 18 sec) 
Heartbeat CPU 0 instructions: 3000002 cycles: 1434999 heartbeat IPC: 2.08979 cumulative IPC: 2.0906 (Simulation time: 0 hr 1 min 57 sec) 
Heartbeat CPU 0 instructions: 4000000 cycles: 1907482 heartbeat IPC: 2.11647 cumulative IPC: 2.09701 (Simulation time: 0 hr 2 min 34 sec) 
Heartbeat CPU 0 instructions: 5000000 cycles: 2356309 heartbeat IPC: 2.22803 cumulative IPC: 2.12196 (Simulation time: 0 hr 3 min 10 sec) 
Heartbeat CPU 0 instructions: 6000003 cycles: 2761685 heartbeat IPC: 2.46685 cumulative IPC: 2.17259 (Simulation time: 0 hr 3 min 39 sec) 
Heartbeat CPU 0 instructions: 7000002 cycles: 3154795 heartbeat IPC: 2.54381 cumulative IPC: 2.21885 (Simulation time: 0 hr 4 min 7 sec) 
Heartbeat CPU 0 instructions: 8000000 cycles: 3547936 heartbeat IPC: 2.54361 cumulative IPC: 2.25483 (Simulation time: 0 hr 4 min 33 sec) 
Heartbeat CPU 0 instructions: 9000000 cycles: 3940925 heartbeat IPC: 2.5446 cumulative IPC: 2.28373 (Simulation time: 0 hr 5 min 0 sec) 
Heartbeat CPU 0 instructions: 10000003 cycles: 4334014 heartbeat IPC: 2.54396 cumulative IPC: 2.30733 (Simulation time: 0 hr 5 min 28 sec) 

Warmup complete CPU 0 instructions: 10000003 cycles: 4334014 (Simulation time: 0 hr 5 min 28 sec) 

Heartbeat CPU 0 instructions: 11000001 cycles: 4770214 heartbeat IPC: 2.29252 cumulative IPC: 2.29252 (Simulation time: 0 hr 5 min 57 sec) 
Heartbeat CPU 0 instructions: 12000000 cycles: 5205542 heartbeat IPC: 2.29712 cumulative IPC: 2.29482 (Simulation time: 0 hr 6 min 27 sec) 
Heartbeat CPU 0 instructions: 13000002 cycles: 5640784 heartbeat IPC: 2.29758 cumulative IPC: 2.29574 (Simulation time: 0 hr 6 min 57 sec) 
Heartbeat CPU 0 instructions: 14000000 cycles: 6436084 heartbeat IPC: 1.25738 cumulative IPC: 1.90288 (Simulation time: 0 hr 7 min 32 sec) 
Heartbeat CPU 0 instructions: 15000003 cycles: 6910646 heartbeat IPC: 2.10721 cumulative IPC: 1.94052 (Simulation time: 0 hr 8 min 3 sec) 
Heartbeat CPU 0 instructions: 16000000 cycles: 7355250 heartbeat IPC: 2.24919 cumulative IPC: 1.98594 (Simulation time: 0 hr 8 min 36 sec) 
Heartbeat CPU 0 instructions: 17000001 cycles: 7797535 heartbeat IPC: 2.26099 cumulative IPC: 2.02106 (Simulation time: 0 hr 9 min 6 sec) 
Heartbeat CPU 0 instructions: 18000001 cycles: 8235589 heartbeat IPC: 2.28282 cumulative IPC: 2.05045 (Simulation time: 0 hr 9 min 38 sec) 
Heartbeat CPU 0 instructions: 19000001 cycles: 8675172 heartbeat IPC: 2.27488 cumulative IPC: 2.07318 (Simulation time: 0 hr 10 min 8 sec) 
Heartbeat CPU 0 instructions: 20000000 cycles: 9196848 heartbeat IPC: 1.9169 cumulative IPC: 2.05641 (Simulation time: 0 hr 10 min 37 sec) 
Heartbeat CPU 0 instructions: 21000001 cycles: 9636094 heartbeat IPC: 2.27663 cumulative IPC: 2.07466 (Simulation time: 0 hr 11 min 10 sec) 
Heartbeat CPU 0 instructions: 22000000 cycles: 10076059 heartbeat IPC: 2.27291 cumulative IPC: 2.08985 (Simulation time: 0 hr 11 min 38 sec) 
Heartbeat CPU 0 instructions: 23000001 cycles: 10515509 heartbeat IPC: 2.27557 cumulative IPC: 2.10305 (Simulation time: 0 hr 12 min 8 sec) 
Heartbeat CPU 0 instructions: 24000000 cycles: 10955876 heartbeat IPC: 2.27083 cumulative IPC: 2.11421 (Simulation time: 0 hr 12 min 36 sec) 
Heartbeat CPU 0 instructions: 25000003 cycles: 11480849 heartbeat IPC: 1.90487 cumulative IPC: 2.09883 (Simulation time: 0 hr 13 min 1 sec) 
Heartbeat CPU 0 instructions: 26000003 cycles: 12028316 heartbeat IPC: 1.82659 cumulative IPC: 2.07946 (Simulation time: 0 hr 13 min 27 sec) 
Heartbeat CPU 0 instructions: 27000000 cycles: 12562746 heartbeat IPC: 1.87115 cumulative IPC: 2.06593 (Simulation time: 0 hr 13 min 53 sec) 
Heartbeat CPU 0 instructions: 28000000 cycles: 13207180 heartbeat IPC: 1.55175 cumulative IPC: 2.02859 (Simulation time: 0 hr 14 min 23 sec) 
Heartbeat CPU 0 instructions: 29000002 cycles: 13685036 heartbeat IPC: 2.09268 cumulative IPC: 2.03186 (Simulation time: 0 hr 14 min 48 sec) 
Heartbeat CPU 0 instructions: 30000001 cycles: 14239440 heartbeat IPC: 1.80374 cumulative IPC: 2.0191 (Simulation time: 0 hr 15 min 17 sec) 
Heartbeat CPU 0 instructions: 31000001 cycles: 14789264 heartbeat IPC: 1.81876 cumulative IPC: 2.00856 (Simulation time: 0 hr 15 min 48 sec) 
Heartbeat CPU 0 instructions: 32000000 cycles: 15522837 heartbeat IPC: 1.36319 cumulative IPC: 1.96625 (Simulation time: 0 hr 16 min 26 sec) 
Heartbeat CPU 0 instructions: 33000003 cycles: 16227445 heartbeat IPC: 1.41923 cumulative IPC: 1.93384 (Simulation time: 0 hr 17 min 1 sec) 
Heartbeat CPU 0 instructions: 34000000 cycles: 16927351 heartbeat IPC: 1.42876 cumulative IPC: 1.90577 (Simulation time: 0 hr 17 min 40 sec) 
Heartbeat CPU 0 instructions: 35000000 cycles: 17600550 heartbeat IPC: 1.48544 cumulative IPC: 1.88444 (Simulation time: 0 hr 18 min 17 sec) 
Heartbeat CPU 0 instructions: 36000000 cycles: 18241883 heartbeat IPC: 1.55925 cumulative IPC: 1.86945 (Simulation time: 0 hr 18 min 54 sec) 
Heartbeat CPU 0 instructions: 37000002 cycles: 18867700 heartbeat IPC: 1.59791 cumulative IPC: 1.85775 (Simulation time: 0 hr 19 min 31 sec) 
Heartbeat CPU 0 instructions: 38000003 cycles: 19502707 heartbeat IPC: 1.57479 cumulative IPC: 1.84591 (Simulation time: 0 hr 20 min 6 sec) 
Heartbeat CPU 0 instructions: 39000003 cycles: 20277034 heartbeat IPC: 1.29144 cumulative IPC: 1.81898 (Simulation time: 0 hr 20 min 42 sec) 
Heartbeat CPU 0 instructions: 40000000 cycles: 21117984 heartbeat IPC: 1.18913 cumulative IPC: 1.78742 (Simulation time: 0 hr 21 min 18 sec) 
Heartbeat CPU 0 instructions: 41000000 cycles: 22049589 heartbeat IPC: 1.07342 cumulative IPC: 1.74987 (Simulation time: 0 hr 21 min 52 sec) 
Heartbeat CPU 0 instructions: 42000001 cycles: 22651118 heartbeat IPC: 1.66243 cumulative IPC: 1.747 (Simulation time: 0 hr 22 min 25 sec) 
Heartbeat CPU 0 instructions: 43000000 cycles: 23271925 heartbeat IPC: 1.6108 cumulative IPC: 1.74254 (Simulation time: 0 hr 22 min 58 sec) 
Heartbeat CPU 0 instructions: 44000000 cycles: 23948681 heartbeat IPC: 1.47764 cumulative IPC: 1.7334 (Simulation time: 0 hr 23 min 34 sec) 
Heartbeat CPU 0 instructions: 45000002 cycles: 24623090 heartbeat IPC: 1.48278 cumulative IPC: 1.72507 (Simulation time: 0 hr 24 min 12 sec) 
Heartbeat CPU 0 instructions: 46000002 cycles: 25352359 heartbeat IPC: 1.37124 cumulative IPC: 1.71279 (Simulation time: 0 hr 24 min 47 sec) 
Heartbeat CPU 0 instructions: 47000002 cycles: 26214902 heartbeat IPC: 1.15936 cumulative IPC: 1.69097 (Simulation time: 0 hr 25 min 21 sec) 
Heartbeat CPU 0 instructions: 48000000 cycles: 26664469 heartbeat IPC: 2.22436 cumulative IPC: 1.70171 (Simulation time: 0 hr 25 min 50 sec) 
Heartbeat CPU 0 instructions: 49000000 cycles: 27111680 heartbeat IPC: 2.23608 cumulative IPC: 1.7122 (Simulation time: 0 hr 26 min 20 sec) 
Heartbeat CPU 0 instructions: 50000000 cycles: 27586030 heartbeat IPC: 2.10815 cumulative IPC: 1.72028 (Simulation time: 0 hr 26 min 50 sec) 
Heartbeat CPU 0 instructions: 51000000 cycles: 28168292 heartbeat IPC: 1.71744 cumulative IPC: 1.72021 (Simulation time: 0 hr 27 min 24 sec) 
Heartbeat CPU 0 instructions: 52000000 cycles: 28714886 heartbeat IPC: 1.82951 cumulative IPC: 1.72266 (Simulation time: 0 hr 27 min 55 sec) 
Heartbeat CPU 0 instructions: 53000000 cycles: 29175914 heartbeat IPC: 2.16907 cumulative IPC: 1.73095 (Simulation time: 0 hr 28 min 25 sec) 
Heartbeat CPU 0 instructions: 54000003 cycles: 29632674 heartbeat IPC: 2.18934 cumulative IPC: 1.73922 (Simulation time: 0 hr 28 min 54 sec) 
Heartbeat CPU 0 instructions: 55000001 cycles: 30088754 heartbeat IPC: 2.19259 cumulative IPC: 1.74725 (Simulation time: 0 hr 29 min 25 sec) 
Heartbeat CPU 0 instructions: 56000000 cycles: 30544445 heartbeat IPC: 2.19447 cumulative IPC: 1.75503 (Simulation time: 0 hr 29 min 54 sec) 
Heartbeat CPU 0 instructions: 57000003 cycles: 31004767 heartbeat IPC: 2.1724 cumulative IPC: 1.76223 (Simulation time: 0 hr 30 min 25 sec) 
Heartbeat CPU 0 instructions: 58000002 cycles: 31471664 heartbeat IPC: 2.1418 cumulative IPC: 1.76876 (Simulation time: 0 hr 30 min 55 sec) 
Heartbeat CPU 0 instructions: 59000001 cycles: 32033364 heartbeat IPC: 1.78031 cumulative IPC: 1.76899 (Simulation time: 0 hr 31 min 28 sec) 
Heartbeat CPU 0 instructions: 60000000 cycles: 32553594 heartbeat IPC: 1.92222 cumulative IPC: 1.77182 (Simulation time: 0 hr 32 min 2 sec) 
Heartbeat CPU 0 instructions: 61000003 cycles: 33079908 heartbeat IPC: 1.90001 cumulative IPC: 1.77417 (Simulation time: 0 hr 32 min 34 sec) 
Heartbeat CPU 0 instructions: 62000002 cycles: 33604977 heartbeat IPC: 1.90451 cumulative IPC: 1.7765 (Simulation time: 0 hr 33 min 7 sec) 
Heartbeat CPU 0 instructions: 63000003 cycles: 34133047 heartbeat IPC: 1.89369 cumulative IPC: 1.77858 (Simulation time: 0 hr 33 min 39 sec) 
Heartbeat CPU 0 instructions: 64000000 cycles: 34661240 heartbeat IPC: 1.89324 cumulative IPC: 1.78058 (Simulation time: 0 hr 34 min 11 sec) 
Heartbeat CPU 0 instructions: 65000000 cycles: 35340474 heartbeat IPC: 1.47225 cumulative IPC: 1.77382 (Simulation time: 0 hr 34 min 46 sec) 
Heartbeat CPU 0 instructions: 66000002 cycles: 35909514 heartbeat IPC: 1.75735 cumulative IPC: 1.77353 (Simulation time: 0 hr 35 min 19 sec) 
Heartbeat CPU 0 instructions: 67000002 cycles: 36413045 heartbeat IPC: 1.98598 cumulative IPC: 1.77686 (Simulation time: 0 hr 35 min 50 sec) 
Heartbeat CPU 0 instructions: 68000000 cycles: 36904334 heartbeat IPC: 2.03546 cumulative IPC: 1.78076 (Simulation time: 0 hr 36 min 21 sec) 
Heartbeat CPU 0 instructions: 69000001 cycles: 37446261 heartbeat IPC: 1.84527 cumulative IPC: 1.78182 (Simulation time: 0 hr 36 min 51 sec) 
Heartbeat CPU 0 instructions: 70000000 cycles: 37945191 heartbeat IPC: 2.00429 cumulative IPC: 1.78512 (Simulation time: 0 hr 37 min 25 sec) 
Heartbeat CPU 0 instructions: 71000000 cycles: 38449710 heartbeat IPC: 1.98209 cumulative IPC: 1.78803 (Simulation time: 0 hr 37 min 55 sec) 
Heartbeat CPU 0 instructions: 72000000 cycles: 38956822 heartbeat IPC: 1.97195 cumulative IPC: 1.79073 (Simulation time: 0 hr 38 min 27 sec) 
Heartbeat CPU 0 instructions: 73000001 cycles: 39505074 heartbeat IPC: 1.82398 cumulative IPC: 1.79125 (Simulation time: 0 hr 38 min 57 sec) 
Heartbeat CPU 0 instructions: 74000002 cycles: 40123098 heartbeat IPC: 1.61806 cumulative IPC: 1.78825 (Simulation time: 0 hr 39 min 28 sec) 
Heartbeat CPU 0 instructions: 75000000 cycles: 40661884 heartbeat IPC: 1.85602 cumulative IPC: 1.78926 (Simulation time: 0 hr 40 min 0 sec) 
Heartbeat CPU 0 instructions: 76000000 cycles: 41389196 heartbeat IPC: 1.37493 cumulative IPC: 1.78113 (Simulation time: 0 hr 40 min 38 sec) 
Heartbeat CPU 0 instructions: 77000000 cycles: 42110159 heartbeat IPC: 1.38703 cumulative IPC: 1.77361 (Simulation time: 0 hr 41 min 15 sec) 
Heartbeat CPU 0 instructions: 78000003 cycles: 42828740 heartbeat IPC: 1.39164 cumulative IPC: 1.76648 (Simulation time: 0 hr 41 min 54 sec) 
Heartbeat CPU 0 instructions: 79000000 cycles: 43539641 heartbeat IPC: 1.40666 cumulative IPC: 1.75995 (Simulation time: 0 hr 42 min 31 sec) 
Heartbeat CPU 0 instructions: 80000000 cycles: 44224723 heartbeat IPC: 1.45968 cumulative IPC: 1.75479 (Simulation time: 0 hr 43 min 8 sec) 
Heartbeat CPU 0 instructions: 81000001 cycles: 44889055 heartbeat IPC: 1.50527 cumulative IPC: 1.75071 (Simulation time: 0 hr 43 min 44 sec) 
Heartbeat CPU 0 instructions: 82000002 cycles: 45532013 heartbeat IPC: 1.55531 cumulative IPC: 1.74766 (Simulation time: 0 hr 44 min 19 sec) 
Heartbeat CPU 0 instructions: 83000002 cycles: 46341504 heartbeat IPC: 1.23534 cumulative IPC: 1.73779 (Simulation time: 0 hr 44 min 55 sec) 
Heartbeat CPU 0 instructions: 84000000 cycles: 47011428 heartbeat IPC: 1.4927 cumulative IPC: 1.73394 (Simulation time: 0 hr 45 min 28 sec) 
Heartbeat CPU 0 instructions: 85000000 cycles: 47542927 heartbeat IPC: 1.88147 cumulative IPC: 1.73575 (Simulation time: 0 hr 46 min 0 sec) 
Heartbeat CPU 0 instructions: 86000001 cycles: 48070196 heartbeat IPC: 1.89657 cumulative IPC: 1.73769 (Simulation time: 0 hr 46 min 28 sec) 
Heartbeat CPU 0 instructions: 87000002 cycles: 48589324 heartbeat IPC: 1.92631 cumulative IPC: 1.7399 (Simulation time: 0 hr 47 min 1 sec) 
Heartbeat CPU 0 instructions: 88000000 cycles: 49102602 heartbeat IPC: 1.94826 cumulative IPC: 1.74229 (Simulation time: 0 hr 47 min 27 sec) 
Heartbeat CPU 0 instructions: 89000001 cycles: 49615858 heartbeat IPC: 1.94835 cumulative IPC: 1.74463 (Simulation time: 0 hr 47 min 52 sec) 
Heartbeat CPU 0 instructions: 90000003 cycles: 50131241 heartbeat IPC: 1.94031 cumulative IPC: 1.74683 (Simulation time: 0 hr 48 min 17 sec) 
Heartbeat CPU 0 instructions: 91000003 cycles: 50662840 heartbeat IPC: 1.88112 cumulative IPC: 1.74837 (Simulation time: 0 hr 48 min 42 sec) 
Heartbeat CPU 0 instructions: 92000000 cycles: 51129937 heartbeat IPC: 2.14088 cumulative IPC: 1.75229 (Simulation time: 0 hr 49 min 11 sec) 
Heartbeat CPU 0 instructions: 93000000 cycles: 51577521 heartbeat IPC: 2.23422 cumulative IPC: 1.75686 (Simulation time: 0 hr 49 min 37 sec) 
Heartbeat CPU 0 instructions: 94000003 cycles: 52023830 heartbeat IPC: 2.24061 cumulative IPC: 1.76138 (Simulation time: 0 hr 50 min 2 sec) 
Heartbeat CPU 0 instructions: 95000002 cycles: 52625244 heartbeat IPC: 1.66275 cumulative IPC: 1.76015 (Simulation time: 0 hr 50 min 30 sec) 
Heartbeat CPU 0 instructions: 96000000 cycles: 53161723 heartbeat IPC: 1.864 cumulative IPC: 1.76129 (Simulation time: 0 hr 50 min 56 sec) 
Heartbeat CPU 0 instructions: 97000000 cycles: 53634195 heartbeat IPC: 2.11653 cumulative IPC: 1.7647 (Simulation time: 0 hr 51 min 21 sec) 
Heartbeat CPU 0 instructions: 98000003 cycles: 54107049 heartbeat IPC: 2.11482 cumulative IPC: 1.76803 (Simulation time: 0 hr 51 min 46 sec) 
Heartbeat CPU 0 instructions: 99000000 cycles: 54577481 heartbeat IPC: 2.1257 cumulative IPC: 1.77137 (Simulation time: 0 hr 52 min 12 sec) 
Heartbeat CPU 0 instructions: 100000000 cycles: 55047069 heartbeat IPC: 2.12953 cumulative IPC: 1.77469 (Simulation time: 0 hr 52 min 37 sec) 
Heartbeat CPU 0 instructions: 101000003 cycles: 55510919 heartbeat IPC: 2.15588 cumulative IPC: 1.77815 (Simulation time: 0 hr 53 min 2 sec) 
Heartbeat CPU 0 instructions: 102000002 cycles: 56034120 heartbeat IPC: 1.91131 cumulative IPC: 1.77949 (Simulation time: 0 hr 53 min 27 sec) 
Heartbeat CPU 0 instructions: 103000000 cycles: 56564320 heartbeat IPC: 1.88608 cumulative IPC: 1.78058 (Simulation time: 0 hr 53 min 54 sec) 
Heartbeat CPU 0 instructions: 104000000 cycles: 57093060 heartbeat IPC: 1.89129 cumulative IPC: 1.78168 (Simulation time: 0 hr 54 min 25 sec) 
Heartbeat CPU 0 instructions: 105000000 cycles: 57625372 heartbeat IPC: 1.8786 cumulative IPC: 1.78265 (Simulation time: 0 hr 54 min 50 sec) 
Heartbeat CPU 0 instructions: 106000003 cycles: 58158895 heartbeat IPC: 1.87434 cumulative IPC: 1.78356 (Simulation time: 0 hr 55 min 19 sec) 
Heartbeat CPU 0 instructions: 107000000 cycles: 58691673 heartbeat IPC: 1.87695 cumulative IPC: 1.78448 (Simulation time: 0 hr 55 min 46 sec) 
Heartbeat CPU 0 instructions: 108000000 cycles: 59280903 heartbeat IPC: 1.69713 cumulative IPC: 1.78354 (Simulation time: 0 hr 56 min 12 sec) 
Heartbeat CPU 0 instructions: 109000002 cycles: 59931431 heartbeat IPC: 1.53722 cumulative IPC: 1.78066 (Simulation time: 0 hr 56 min 40 sec) 
Heartbeat CPU 0 instructions: 110000003 cycles: 60415877 heartbeat IPC: 2.06422 cumulative IPC: 1.78311 (Simulation time: 0 hr 57 min 4 sec) 
Finished CPU 0 instructions: 100000000 cycles: 56081863 cummulative IPC: 1.78311 (Simulation time: 0 hr 57 min 4 sec) 

ChampSim completed all CPUs

Region of Interest Statistics

CPU 0 cummulative IPC: 1.78311 instructions: 100000000 cycles: 56081863
LLC TOTAL     ACCESS:    1161480  HIT:     968049  MISS:     193431
LLC LOAD      ACCESS:     133707  HIT:     127289  MISS:       6418
LLC RFO       ACCESS:      47549  HIT:      16886  MISS:      30663
LLC PREFETCH  ACCESS:     680401  HIT:     531298  MISS:     149103
LLC WRITEBACK ACCESS:     299823  HIT:     292576  MISS:       7247
Insertion Distribution: 
	LOAD 3333 0 3597 265 
	RFO 13455 0 16939 6325 
	PREF 0 7102 17851 131511 
	WRITEBACK 0 0 0 7950 
Total Prefetch Downgrades: 7184
