
*** ChampSim Multicore Out-of-Order Simulator ***

Warmup Instructions: 10000000
Simulation Instructions: 100000000
Configuration: 2
Number of CPUs: 1
LLC sets: 2048
LLC ways: 16
Off-chip DRAM Channels: 1 Width: 64-bit Data Rate: 1600 MT/s

CPU 0 runs /datasets/cs240c-wi22-a00-public/data/Assignment2-gz/leslie3d_1186B.trace.gz
CPU 0 L1D next line prefetcher
CPU 0 L2C IP-based stride prefetcher
Initialize SRRIP state
Heartbeat CPU 0 instructions: 1000002 cycles: 564509 heartbeat IPC: 1.77145 cumulative IPC: 1.77145 (Simulation time: 0 hr 0 min 46 sec) 
Heartbeat CPU 0 instructions: 2000000 cycles: 1215813 heartbeat IPC: 1.53538 cumulative IPC: 1.64499 (Simulation time: 0 hr 1 min 33 sec) 
Heartbeat CPU 0 instructions: 3000000 cycles: 1867529 heartbeat IPC: 1.53441 cumulative IPC: 1.6064 (Simulation time: 0 hr 2 min 22 sec) 
Heartbeat CPU 0 instructions: 4000000 cycles: 2473057 heartbeat IPC: 1.65145 cumulative IPC: 1.61743 (Simulation time: 0 hr 3 min 8 sec) 
Heartbeat CPU 0 instructions: 5000000 cycles: 3083367 heartbeat IPC: 1.63851 cumulative IPC: 1.6216 (Simulation time: 0 hr 3 min 52 sec) 
Heartbeat CPU 0 instructions: 6000000 cycles: 3735075 heartbeat IPC: 1.53443 cumulative IPC: 1.60639 (Simulation time: 0 hr 4 min 37 sec) 
Heartbeat CPU 0 instructions: 7000001 cycles: 4386282 heartbeat IPC: 1.53561 cumulative IPC: 1.59588 (Simulation time: 0 hr 5 min 21 sec) 
Heartbeat CPU 0 instructions: 8000000 cycles: 4950871 heartbeat IPC: 1.7712 cumulative IPC: 1.61588 (Simulation time: 0 hr 6 min 2 sec) 
Heartbeat CPU 0 instructions: 9000003 cycles: 5602158 heartbeat IPC: 1.53543 cumulative IPC: 1.60652 (Simulation time: 0 hr 6 min 46 sec) 
Heartbeat CPU 0 instructions: 10000001 cycles: 6253295 heartbeat IPC: 1.53577 cumulative IPC: 1.59916 (Simulation time: 0 hr 7 min 30 sec) 

Warmup complete CPU 0 instructions: 10000001 cycles: 6253295 (Simulation time: 0 hr 7 min 30 sec) 

Heartbeat CPU 0 instructions: 11000001 cycles: 7709108 heartbeat IPC: 0.686901 cumulative IPC: 0.686901 (Simulation time: 0 hr 8 min 13 sec) 
Heartbeat CPU 0 instructions: 12000000 cycles: 8946720 heartbeat IPC: 0.808007 cumulative IPC: 0.742549 (Simulation time: 0 hr 9 min 2 sec) 
Heartbeat CPU 0 instructions: 13000000 cycles: 10148683 heartbeat IPC: 0.831972 cumulative IPC: 0.770141 (Simulation time: 0 hr 9 min 44 sec) 
Heartbeat CPU 0 instructions: 14000000 cycles: 11381961 heartbeat IPC: 0.810847 cumulative IPC: 0.77993 (Simulation time: 0 hr 10 min 26 sec) 
Heartbeat CPU 0 instructions: 15000002 cycles: 12819702 heartbeat IPC: 0.695537 cumulative IPC: 0.761452 (Simulation time: 0 hr 11 min 7 sec) 
Heartbeat CPU 0 instructions: 16000000 cycles: 14009351 heartbeat IPC: 0.840582 cumulative IPC: 0.773589 (Simulation time: 0 hr 11 min 47 sec) 
Heartbeat CPU 0 instructions: 17000000 cycles: 15198658 heartbeat IPC: 0.840826 cumulative IPC: 0.782528 (Simulation time: 0 hr 12 min 25 sec) 
Heartbeat CPU 0 instructions: 18000001 cycles: 16641209 heartbeat IPC: 0.693217 cumulative IPC: 0.770126 (Simulation time: 0 hr 13 min 5 sec) 
Heartbeat CPU 0 instructions: 19000003 cycles: 17845478 heartbeat IPC: 0.830381 cumulative IPC: 0.776385 (Simulation time: 0 hr 13 min 44 sec) 
Heartbeat CPU 0 instructions: 20000000 cycles: 19032166 heartbeat IPC: 0.842679 cumulative IPC: 0.782542 (Simulation time: 0 hr 14 min 23 sec) 
Heartbeat CPU 0 instructions: 21000003 cycles: 20336617 heartbeat IPC: 0.766608 cumulative IPC: 0.781066 (Simulation time: 0 hr 15 min 2 sec) 
Heartbeat CPU 0 instructions: 22000003 cycles: 21660370 heartbeat IPC: 0.755428 cumulative IPC: 0.778863 (Simulation time: 0 hr 15 min 49 sec) 
Heartbeat CPU 0 instructions: 23000002 cycles: 22829815 heartbeat IPC: 0.855106 cumulative IPC: 0.784242 (Simulation time: 0 hr 16 min 36 sec) 
Heartbeat CPU 0 instructions: 24000000 cycles: 24017164 heartbeat IPC: 0.842211 cumulative IPC: 0.788117 (Simulation time: 0 hr 17 min 20 sec) 
Heartbeat CPU 0 instructions: 25000000 cycles: 25446166 heartbeat IPC: 0.699789 cumulative IPC: 0.78154 (Simulation time: 0 hr 18 min 4 sec) 
Heartbeat CPU 0 instructions: 26000000 cycles: 26627211 heartbeat IPC: 0.846708 cumulative IPC: 0.785318 (Simulation time: 0 hr 18 min 48 sec) 
Heartbeat CPU 0 instructions: 27000000 cycles: 27809800 heartbeat IPC: 0.845602 cumulative IPC: 0.788625 (Simulation time: 0 hr 19 min 34 sec) 
Heartbeat CPU 0 instructions: 28000000 cycles: 29215979 heartbeat IPC: 0.711147 cumulative IPC: 0.78388 (Simulation time: 0 hr 20 min 18 sec) 
Heartbeat CPU 0 instructions: 29000002 cycles: 30421405 heartbeat IPC: 0.829584 cumulative IPC: 0.78616 (Simulation time: 0 hr 21 min 2 sec) 
Heartbeat CPU 0 instructions: 30000002 cycles: 31598459 heartbeat IPC: 0.849579 cumulative IPC: 0.789105 (Simulation time: 0 hr 21 min 46 sec) 
Heartbeat CPU 0 instructions: 31000002 cycles: 32809101 heartbeat IPC: 0.826008 cumulative IPC: 0.790788 (Simulation time: 0 hr 22 min 30 sec) 
Heartbeat CPU 0 instructions: 32000000 cycles: 34194726 heartbeat IPC: 0.721695 cumulative IPC: 0.787361 (Simulation time: 0 hr 23 min 15 sec) 
Heartbeat CPU 0 instructions: 33000000 cycles: 35358610 heartbeat IPC: 0.859192 cumulative IPC: 0.790234 (Simulation time: 0 hr 24 min 1 sec) 
Heartbeat CPU 0 instructions: 34000000 cycles: 36537123 heartbeat IPC: 0.848527 cumulative IPC: 0.792502 (Simulation time: 0 hr 24 min 47 sec) 
Heartbeat CPU 0 instructions: 35000002 cycles: 37960674 heartbeat IPC: 0.70247 cumulative IPC: 0.78846 (Simulation time: 0 hr 25 min 29 sec) 
Heartbeat CPU 0 instructions: 36000000 cycles: 39167063 heartbeat IPC: 0.828918 cumulative IPC: 0.789943 (Simulation time: 0 hr 26 min 16 sec) 
Heartbeat CPU 0 instructions: 37000003 cycles: 40362425 heartbeat IPC: 0.836569 cumulative IPC: 0.791577 (Simulation time: 0 hr 27 min 3 sec) 
Heartbeat CPU 0 instructions: 38000003 cycles: 41694127 heartbeat IPC: 0.750919 cumulative IPC: 0.790049 (Simulation time: 0 hr 27 min 48 sec) 
Heartbeat CPU 0 instructions: 39000001 cycles: 42999048 heartbeat IPC: 0.766328 cumulative IPC: 0.789207 (Simulation time: 0 hr 28 min 38 sec) 
Heartbeat CPU 0 instructions: 40000000 cycles: 44196149 heartbeat IPC: 0.835351 cumulative IPC: 0.790663 (Simulation time: 0 hr 29 min 26 sec) 
Heartbeat CPU 0 instructions: 41000000 cycles: 45384336 heartbeat IPC: 0.841618 cumulative IPC: 0.79221 (Simulation time: 0 hr 30 min 16 sec) 
Heartbeat CPU 0 instructions: 42000000 cycles: 46816422 heartbeat IPC: 0.698282 cumulative IPC: 0.788894 (Simulation time: 0 hr 31 min 2 sec) 
Heartbeat CPU 0 instructions: 43000002 cycles: 47994965 heartbeat IPC: 0.848507 cumulative IPC: 0.790577 (Simulation time: 0 hr 31 min 51 sec) 
Heartbeat CPU 0 instructions: 44000000 cycles: 49188796 heartbeat IPC: 0.837638 cumulative IPC: 0.791885 (Simulation time: 0 hr 32 min 41 sec) 
Heartbeat CPU 0 instructions: 45000001 cycles: 50669181 heartbeat IPC: 0.675501 cumulative IPC: 0.788006 (Simulation time: 0 hr 33 min 27 sec) 
Heartbeat CPU 0 instructions: 46000001 cycles: 52356958 heartbeat IPC: 0.592495 cumulative IPC: 0.780849 (Simulation time: 0 hr 34 min 17 sec) 
Heartbeat CPU 0 instructions: 47000002 cycles: 54087282 heartbeat IPC: 0.577927 cumulative IPC: 0.773509 (Simulation time: 0 hr 35 min 9 sec) 
Heartbeat CPU 0 instructions: 48000000 cycles: 55795853 heartbeat IPC: 0.585283 cumulative IPC: 0.767017 (Simulation time: 0 hr 36 min 0 sec) 
Heartbeat CPU 0 instructions: 49000002 cycles: 57531666 heartbeat IPC: 0.5761 cumulative IPC: 0.760555 (Simulation time: 0 hr 36 min 48 sec) 
Heartbeat CPU 0 instructions: 50000002 cycles: 59320523 heartbeat IPC: 0.559016 cumulative IPC: 0.753761 (Simulation time: 0 hr 37 min 39 sec) 
Heartbeat CPU 0 instructions: 51000000 cycles: 61113176 heartbeat IPC: 0.557831 cumulative IPC: 0.747359 (Simulation time: 0 hr 38 min 28 sec) 
Heartbeat CPU 0 instructions: 52000000 cycles: 62929335 heartbeat IPC: 0.550613 cumulative IPC: 0.741054 (Simulation time: 0 hr 39 min 14 sec) 
Heartbeat CPU 0 instructions: 53000003 cycles: 64713061 heartbeat IPC: 0.560626 cumulative IPC: 0.735549 (Simulation time: 0 hr 40 min 2 sec) 
Heartbeat CPU 0 instructions: 54000003 cycles: 66465244 heartbeat IPC: 0.570717 cumulative IPC: 0.730752 (Simulation time: 0 hr 40 min 51 sec) 
Heartbeat CPU 0 instructions: 55000001 cycles: 68351961 heartbeat IPC: 0.53002 cumulative IPC: 0.724653 (Simulation time: 0 hr 41 min 39 sec) 
Heartbeat CPU 0 instructions: 56000000 cycles: 70674391 heartbeat IPC: 0.430583 cumulative IPC: 0.714052 (Simulation time: 0 hr 42 min 29 sec) 
Heartbeat CPU 0 instructions: 57000003 cycles: 73036547 heartbeat IPC: 0.423343 cumulative IPC: 0.703769 (Simulation time: 0 hr 43 min 19 sec) 
Heartbeat CPU 0 instructions: 58000001 cycles: 75318942 heartbeat IPC: 0.438135 cumulative IPC: 0.694991 (Simulation time: 0 hr 44 min 12 sec) 
Heartbeat CPU 0 instructions: 59000003 cycles: 77557635 heartbeat IPC: 0.44669 cumulative IPC: 0.687195 (Simulation time: 0 hr 45 min 5 sec) 
Heartbeat CPU 0 instructions: 60000000 cycles: 79877469 heartbeat IPC: 0.431064 cumulative IPC: 0.679125 (Simulation time: 0 hr 46 min 4 sec) 
Heartbeat CPU 0 instructions: 61000003 cycles: 82200943 heartbeat IPC: 0.430391 cumulative IPC: 0.671515 (Simulation time: 0 hr 47 min 3 sec) 
Heartbeat CPU 0 instructions: 62000001 cycles: 84522230 heartbeat IPC: 0.430795 cumulative IPC: 0.664376 (Simulation time: 0 hr 47 min 53 sec) 
Heartbeat CPU 0 instructions: 63000000 cycles: 86500493 heartbeat IPC: 0.505493 cumulative IPC: 0.660459 (Simulation time: 0 hr 48 min 39 sec) 
Heartbeat CPU 0 instructions: 64000000 cycles: 87726138 heartbeat IPC: 0.815897 cumulative IPC: 0.662798 (Simulation time: 0 hr 49 min 19 sec) 
Heartbeat CPU 0 instructions: 65000000 cycles: 88978336 heartbeat IPC: 0.798596 cumulative IPC: 0.664853 (Simulation time: 0 hr 49 min 58 sec) 
Heartbeat CPU 0 instructions: 66000002 cycles: 90232404 heartbeat IPC: 0.797406 cumulative IPC: 0.666833 (Simulation time: 0 hr 50 min 35 sec) 
Heartbeat CPU 0 instructions: 67000001 cycles: 91494948 heartbeat IPC: 0.792051 cumulative IPC: 0.668687 (Simulation time: 0 hr 51 min 14 sec) 
Heartbeat CPU 0 instructions: 68000000 cycles: 92817917 heartbeat IPC: 0.755875 cumulative IPC: 0.67002 (Simulation time: 0 hr 51 min 50 sec) 
Heartbeat CPU 0 instructions: 69000000 cycles: 94070414 heartbeat IPC: 0.798405 cumulative IPC: 0.671851 (Simulation time: 0 hr 52 min 28 sec) 
Heartbeat CPU 0 instructions: 70000000 cycles: 95366927 heartbeat IPC: 0.7713 cumulative IPC: 0.673298 (Simulation time: 0 hr 53 min 6 sec) 
Heartbeat CPU 0 instructions: 71000000 cycles: 96633144 heartbeat IPC: 0.789754 cumulative IPC: 0.674929 (Simulation time: 0 hr 53 min 46 sec) 
Heartbeat CPU 0 instructions: 72000000 cycles: 97926858 heartbeat IPC: 0.772968 cumulative IPC: 0.676313 (Simulation time: 0 hr 54 min 24 sec) 
Heartbeat CPU 0 instructions: 73000003 cycles: 99216960 heartbeat IPC: 0.775135 cumulative IPC: 0.677684 (Simulation time: 0 hr 55 min 5 sec) 
Heartbeat CPU 0 instructions: 74000000 cycles: 100481756 heartbeat IPC: 0.790639 cumulative IPC: 0.6792 (Simulation time: 0 hr 55 min 45 sec) 
Heartbeat CPU 0 instructions: 75000003 cycles: 101790856 heartbeat IPC: 0.763886 cumulative IPC: 0.680361 (Simulation time: 0 hr 56 min 26 sec) 
Heartbeat CPU 0 instructions: 76000000 cycles: 103055330 heartbeat IPC: 0.79084 cumulative IPC: 0.681804 (Simulation time: 0 hr 57 min 7 sec) 
Heartbeat CPU 0 instructions: 77000000 cycles: 104354204 heartbeat IPC: 0.769898 cumulative IPC: 0.68297 (Simulation time: 0 hr 57 min 44 sec) 
Heartbeat CPU 0 instructions: 78000001 cycles: 105633886 heartbeat IPC: 0.781445 cumulative IPC: 0.684238 (Simulation time: 0 hr 58 min 20 sec) 
Heartbeat CPU 0 instructions: 79000002 cycles: 106935357 heartbeat IPC: 0.768362 cumulative IPC: 0.685326 (Simulation time: 0 hr 58 min 55 sec) 
Heartbeat CPU 0 instructions: 80000000 cycles: 108234297 heartbeat IPC: 0.769857 cumulative IPC: 0.686402 (Simulation time: 0 hr 59 min 31 sec) 
Heartbeat CPU 0 instructions: 81000000 cycles: 109501014 heartbeat IPC: 0.789442 cumulative IPC: 0.687667 (Simulation time: 1 hr 0 min 6 sec) 
Heartbeat CPU 0 instructions: 82000003 cycles: 110810712 heartbeat IPC: 0.763537 cumulative IPC: 0.688617 (Simulation time: 1 hr 0 min 38 sec) 
Heartbeat CPU 0 instructions: 83000001 cycles: 112091514 heartbeat IPC: 0.780759 cumulative IPC: 0.689732 (Simulation time: 1 hr 1 min 11 sec) 
Heartbeat CPU 0 instructions: 84000000 cycles: 113384177 heartbeat IPC: 0.773596 cumulative IPC: 0.690744 (Simulation time: 1 hr 1 min 42 sec) 
Heartbeat CPU 0 instructions: 85000001 cycles: 114661754 heartbeat IPC: 0.782732 cumulative IPC: 0.691828 (Simulation time: 1 hr 2 min 11 sec) 
Heartbeat CPU 0 instructions: 86000003 cycles: 115957803 heartbeat IPC: 0.771577 cumulative IPC: 0.69277 (Simulation time: 1 hr 2 min 38 sec) 
Heartbeat CPU 0 instructions: 87000001 cycles: 117254612 heartbeat IPC: 0.771122 cumulative IPC: 0.693685 (Simulation time: 1 hr 3 min 6 sec) 
Heartbeat CPU 0 instructions: 88000000 cycles: 118555359 heartbeat IPC: 0.768788 cumulative IPC: 0.694555 (Simulation time: 1 hr 3 min 33 sec) 
Heartbeat CPU 0 instructions: 89000001 cycles: 119865098 heartbeat IPC: 0.763512 cumulative IPC: 0.69535 (Simulation time: 1 hr 3 min 59 sec) 
Heartbeat CPU 0 instructions: 90000002 cycles: 121158745 heartbeat IPC: 0.773009 cumulative IPC: 0.696225 (Simulation time: 1 hr 4 min 26 sec) 
Heartbeat CPU 0 instructions: 91000000 cycles: 122461470 heartbeat IPC: 0.76762 cumulative IPC: 0.697025 (Simulation time: 1 hr 4 min 53 sec) 
Heartbeat CPU 0 instructions: 92000000 cycles: 123735649 heartbeat IPC: 0.784819 cumulative IPC: 0.697977 (Simulation time: 1 hr 5 min 20 sec) 
Heartbeat CPU 0 instructions: 93000002 cycles: 125054334 heartbeat IPC: 0.758333 cumulative IPC: 0.698647 (Simulation time: 1 hr 5 min 45 sec) 
Heartbeat CPU 0 instructions: 94000000 cycles: 126324931 heartbeat IPC: 0.78703 cumulative IPC: 0.699582 (Simulation time: 1 hr 6 min 9 sec) 
Heartbeat CPU 0 instructions: 95000003 cycles: 127602899 heartbeat IPC: 0.782495 cumulative IPC: 0.700456 (Simulation time: 1 hr 6 min 33 sec) 
Heartbeat CPU 0 instructions: 96000000 cycles: 128908926 heartbeat IPC: 0.765679 cumulative IPC: 0.70115 (Simulation time: 1 hr 6 min 56 sec) 
Heartbeat CPU 0 instructions: 97000001 cycles: 130182476 heartbeat IPC: 0.785208 cumulative IPC: 0.702014 (Simulation time: 1 hr 7 min 18 sec) 
Heartbeat CPU 0 instructions: 98000002 cycles: 131496696 heartbeat IPC: 0.760908 cumulative IPC: 0.702632 (Simulation time: 1 hr 7 min 41 sec) 
Heartbeat CPU 0 instructions: 99000000 cycles: 132772012 heartbeat IPC: 0.784118 cumulative IPC: 0.703453 (Simulation time: 1 hr 8 min 4 sec) 
Heartbeat CPU 0 instructions: 100000000 cycles: 134090490 heartbeat IPC: 0.75845 cumulative IPC: 0.70402 (Simulation time: 1 hr 8 min 27 sec) 
Heartbeat CPU 0 instructions: 101000000 cycles: 135372035 heartbeat IPC: 0.780308 cumulative IPC: 0.704778 (Simulation time: 1 hr 8 min 48 sec) 
Heartbeat CPU 0 instructions: 102000001 cycles: 136646360 heartbeat IPC: 0.78473 cumulative IPC: 0.705559 (Simulation time: 1 hr 9 min 9 sec) 
Heartbeat CPU 0 instructions: 103000002 cycles: 137958582 heartbeat IPC: 0.762067 cumulative IPC: 0.706122 (Simulation time: 1 hr 9 min 28 sec) 
Heartbeat CPU 0 instructions: 104000000 cycles: 139220291 heartbeat IPC: 0.792574 cumulative IPC: 0.706942 (Simulation time: 1 hr 9 min 46 sec) 
Heartbeat CPU 0 instructions: 105000001 cycles: 140540062 heartbeat IPC: 0.757708 cumulative IPC: 0.707441 (Simulation time: 1 hr 10 min 0 sec) 
Heartbeat CPU 0 instructions: 106000002 cycles: 141804883 heartbeat IPC: 0.790627 cumulative IPC: 0.708217 (Simulation time: 1 hr 10 min 15 sec) 
Heartbeat CPU 0 instructions: 107000000 cycles: 143099912 heartbeat IPC: 0.772182 cumulative IPC: 0.708823 (Simulation time: 1 hr 10 min 28 sec) 
Heartbeat CPU 0 instructions: 108000000 cycles: 144374358 heartbeat IPC: 0.784655 cumulative IPC: 0.709522 (Simulation time: 1 hr 10 min 42 sec) 
Heartbeat CPU 0 instructions: 109000003 cycles: 145643027 heartbeat IPC: 0.78823 cumulative IPC: 0.710239 (Simulation time: 1 hr 10 min 56 sec) 
Heartbeat CPU 0 instructions: 110000001 cycles: 146952350 heartbeat IPC: 0.763752 cumulative IPC: 0.710737 (Simulation time: 1 hr 11 min 8 sec) 
Finished CPU 0 instructions: 100000000 cycles: 140699055 cummulative IPC: 0.710737 (Simulation time: 1 hr 11 min 8 sec) 

ChampSim completed all CPUs

Region of Interest Statistics

CPU 0 cummulative IPC: 0.710737 instructions: 100000000 cycles: 140699055
LLC TOTAL     ACCESS:    3757351  HIT:    1221069  MISS:    2536282
LLC LOAD      ACCESS:     405378  HIT:     127743  MISS:     277635
LLC RFO       ACCESS:     463730  HIT:     173978  MISS:     289752
LLC PREFETCH  ACCESS:    2139055  HIT:     583751  MISS:    1555304
LLC WRITEBACK ACCESS:     749188  HIT:     335597  MISS:     413591
Insertion Distribution: 
	LOAD 44712 0 40875 195621 
	RFO 883 0 22976 267967 
	PREF 0 83143 251564 1397664 
	WRITEBACK 0 0 0 437085 
Total Prefetch Downgrades: 73673
