
*** ChampSim Multicore Out-of-Order Simulator ***

Warmup Instructions: 10000000
Simulation Instructions: 100000000
Configuration: 2
Number of CPUs: 1
LLC sets: 2048
LLC ways: 16
Off-chip DRAM Channels: 1 Width: 64-bit Data Rate: 1600 MT/s

CPU 0 runs /datasets/cs240c-wi22-a00-public/data/Assignment2-gz/gcc_13B.trace.gz
CPU 0 L1D next line prefetcher
CPU 0 L2C IP-based stride prefetcher
Initialize SRRIP state
Heartbeat CPU 0 instructions: 1000000 cycles: 633320 heartbeat IPC: 1.57898 cumulative IPC: 1.57898 (Simulation time: 0 hr 0 min 41 sec) 
Heartbeat CPU 0 instructions: 2000001 cycles: 1243585 heartbeat IPC: 1.63863 cumulative IPC: 1.60825 (Simulation time: 0 hr 1 min 24 sec) 
Heartbeat CPU 0 instructions: 3000001 cycles: 1717445 heartbeat IPC: 2.11033 cumulative IPC: 1.74678 (Simulation time: 0 hr 2 min 0 sec) 
Heartbeat CPU 0 instructions: 4000000 cycles: 2190983 heartbeat IPC: 2.11176 cumulative IPC: 1.82566 (Simulation time: 0 hr 2 min 39 sec) 
Heartbeat CPU 0 instructions: 5000002 cycles: 2665030 heartbeat IPC: 2.1095 cumulative IPC: 1.87615 (Simulation time: 0 hr 3 min 19 sec) 
Heartbeat CPU 0 instructions: 6000002 cycles: 3138855 heartbeat IPC: 2.11048 cumulative IPC: 1.91153 (Simulation time: 0 hr 3 min 58 sec) 
Heartbeat CPU 0 instructions: 7000001 cycles: 3614186 heartbeat IPC: 2.1038 cumulative IPC: 1.93681 (Simulation time: 0 hr 4 min 42 sec) 
Heartbeat CPU 0 instructions: 8000000 cycles: 4090601 heartbeat IPC: 2.09901 cumulative IPC: 1.9557 (Simulation time: 0 hr 5 min 23 sec) 
Heartbeat CPU 0 instructions: 9000001 cycles: 4831611 heartbeat IPC: 1.34951 cumulative IPC: 1.86273 (Simulation time: 0 hr 6 min 6 sec) 
Heartbeat CPU 0 instructions: 10000001 cycles: 5535997 heartbeat IPC: 1.41968 cumulative IPC: 1.80636 (Simulation time: 0 hr 6 min 51 sec) 

Warmup complete CPU 0 instructions: 10000001 cycles: 5535997 (Simulation time: 0 hr 6 min 51 sec) 

Heartbeat CPU 0 instructions: 11000000 cycles: 12481492 heartbeat IPC: 0.143978 cumulative IPC: 0.143978 (Simulation time: 0 hr 7 min 52 sec) 
Heartbeat CPU 0 instructions: 12000000 cycles: 18767468 heartbeat IPC: 0.159084 cumulative IPC: 0.151155 (Simulation time: 0 hr 8 min 49 sec) 
Heartbeat CPU 0 instructions: 13000000 cycles: 24760951 heartbeat IPC: 0.166848 cumulative IPC: 0.156047 (Simulation time: 0 hr 9 min 47 sec) 
Heartbeat CPU 0 instructions: 14000000 cycles: 30329084 heartbeat IPC: 0.179593 cumulative IPC: 0.161335 (Simulation time: 0 hr 10 min 46 sec) 
Heartbeat CPU 0 instructions: 15000000 cycles: 33003712 heartbeat IPC: 0.373884 cumulative IPC: 0.182032 (Simulation time: 0 hr 11 min 39 sec) 
Heartbeat CPU 0 instructions: 16000000 cycles: 35144595 heartbeat IPC: 0.467097 cumulative IPC: 0.202644 (Simulation time: 0 hr 12 min 13 sec) 
Heartbeat CPU 0 instructions: 17000000 cycles: 37314982 heartbeat IPC: 0.460747 cumulative IPC: 0.220271 (Simulation time: 0 hr 12 min 48 sec) 
Heartbeat CPU 0 instructions: 18000000 cycles: 39490328 heartbeat IPC: 0.459697 cumulative IPC: 0.235611 (Simulation time: 0 hr 13 min 41 sec) 
Heartbeat CPU 0 instructions: 19000002 cycles: 41698129 heartbeat IPC: 0.45294 cumulative IPC: 0.248879 (Simulation time: 0 hr 14 min 35 sec) 
Heartbeat CPU 0 instructions: 20000000 cycles: 43932384 heartbeat IPC: 0.447576 cumulative IPC: 0.260441 (Simulation time: 0 hr 15 min 23 sec) 
Heartbeat CPU 0 instructions: 21000000 cycles: 46351246 heartbeat IPC: 0.413418 cumulative IPC: 0.269507 (Simulation time: 0 hr 16 min 10 sec) 
Heartbeat CPU 0 instructions: 22000001 cycles: 50514921 heartbeat IPC: 0.240173 cumulative IPC: 0.266792 (Simulation time: 0 hr 17 min 12 sec) 
Heartbeat CPU 0 instructions: 23000002 cycles: 57731462 heartbeat IPC: 0.138571 cumulative IPC: 0.249064 (Simulation time: 0 hr 18 min 23 sec) 
Heartbeat CPU 0 instructions: 24000000 cycles: 64741002 heartbeat IPC: 0.142662 cumulative IPC: 0.236466 (Simulation time: 0 hr 19 min 26 sec) 
Heartbeat CPU 0 instructions: 25000000 cycles: 71187184 heartbeat IPC: 0.155131 cumulative IPC: 0.22848 (Simulation time: 0 hr 20 min 27 sec) 
Heartbeat CPU 0 instructions: 26000001 cycles: 77106344 heartbeat IPC: 0.168943 cumulative IPC: 0.223556 (Simulation time: 0 hr 21 min 27 sec) 
Heartbeat CPU 0 instructions: 27000000 cycles: 82591711 heartbeat IPC: 0.182303 cumulative IPC: 0.22062 (Simulation time: 0 hr 22 min 29 sec) 
Heartbeat CPU 0 instructions: 28000000 cycles: 85414252 heartbeat IPC: 0.354291 cumulative IPC: 0.225343 (Simulation time: 0 hr 23 min 22 sec) 
Heartbeat CPU 0 instructions: 29000000 cycles: 87619281 heartbeat IPC: 0.453509 cumulative IPC: 0.231472 (Simulation time: 0 hr 24 min 7 sec) 
Heartbeat CPU 0 instructions: 30000001 cycles: 89819588 heartbeat IPC: 0.454482 cumulative IPC: 0.237294 (Simulation time: 0 hr 24 min 52 sec) 
Heartbeat CPU 0 instructions: 31000000 cycles: 92021714 heartbeat IPC: 0.454106 cumulative IPC: 0.242815 (Simulation time: 0 hr 25 min 36 sec) 
Heartbeat CPU 0 instructions: 32000000 cycles: 94240224 heartbeat IPC: 0.450753 cumulative IPC: 0.248015 (Simulation time: 0 hr 26 min 19 sec) 
Heartbeat CPU 0 instructions: 33000000 cycles: 96476029 heartbeat IPC: 0.447266 cumulative IPC: 0.252914 (Simulation time: 0 hr 27 min 1 sec) 
Heartbeat CPU 0 instructions: 34000000 cycles: 99327028 heartbeat IPC: 0.350754 cumulative IPC: 0.255888 (Simulation time: 0 hr 27 min 44 sec) 
Heartbeat CPU 0 instructions: 35000000 cycles: 113559052 heartbeat IPC: 0.0702641 cumulative IPC: 0.231432 (Simulation time: 0 hr 29 min 43 sec) 
Heartbeat CPU 0 instructions: 36000000 cycles: 117354705 heartbeat IPC: 0.263459 cumulative IPC: 0.232519 (Simulation time: 0 hr 30 min 30 sec) 
Heartbeat CPU 0 instructions: 37000003 cycles: 121139589 heartbeat IPC: 0.26421 cumulative IPC: 0.233557 (Simulation time: 0 hr 31 min 14 sec) 
Heartbeat CPU 0 instructions: 38000000 cycles: 124948621 heartbeat IPC: 0.262533 cumulative IPC: 0.234481 (Simulation time: 0 hr 32 min 3 sec) 
Heartbeat CPU 0 instructions: 39000000 cycles: 128680726 heartbeat IPC: 0.267945 cumulative IPC: 0.235495 (Simulation time: 0 hr 32 min 49 sec) 
Heartbeat CPU 0 instructions: 40000000 cycles: 132329835 heartbeat IPC: 0.27404 cumulative IPC: 0.236605 (Simulation time: 0 hr 33 min 33 sec) 
Heartbeat CPU 0 instructions: 41000000 cycles: 135959678 heartbeat IPC: 0.275494 cumulative IPC: 0.237687 (Simulation time: 0 hr 34 min 21 sec) 
Heartbeat CPU 0 instructions: 42000000 cycles: 139616143 heartbeat IPC: 0.273488 cumulative IPC: 0.238663 (Simulation time: 0 hr 35 min 8 sec) 
Heartbeat CPU 0 instructions: 43000002 cycles: 143278121 heartbeat IPC: 0.273077 cumulative IPC: 0.239578 (Simulation time: 0 hr 35 min 53 sec) 
Heartbeat CPU 0 instructions: 44000000 cycles: 146936906 heartbeat IPC: 0.273314 cumulative IPC: 0.240451 (Simulation time: 0 hr 36 min 37 sec) 
Heartbeat CPU 0 instructions: 45000001 cycles: 150561104 heartbeat IPC: 0.275923 cumulative IPC: 0.241338 (Simulation time: 0 hr 37 min 23 sec) 
Heartbeat CPU 0 instructions: 46000001 cycles: 154164070 heartbeat IPC: 0.277549 cumulative IPC: 0.242215 (Simulation time: 0 hr 38 min 8 sec) 
Heartbeat CPU 0 instructions: 47000001 cycles: 157754521 heartbeat IPC: 0.278517 cumulative IPC: 0.243072 (Simulation time: 0 hr 38 min 53 sec) 
Heartbeat CPU 0 instructions: 48000000 cycles: 161319011 heartbeat IPC: 0.280545 cumulative IPC: 0.243929 (Simulation time: 0 hr 39 min 36 sec) 
Heartbeat CPU 0 instructions: 49000000 cycles: 164901053 heartbeat IPC: 0.27917 cumulative IPC: 0.244721 (Simulation time: 0 hr 40 min 23 sec) 
Heartbeat CPU 0 instructions: 50000003 cycles: 168480718 heartbeat IPC: 0.279357 cumulative IPC: 0.245482 (Simulation time: 0 hr 41 min 6 sec) 
Heartbeat CPU 0 instructions: 51000001 cycles: 172060776 heartbeat IPC: 0.279325 cumulative IPC: 0.24621 (Simulation time: 0 hr 41 min 49 sec) 
Heartbeat CPU 0 instructions: 52000000 cycles: 175626386 heartbeat IPC: 0.280457 cumulative IPC: 0.246928 (Simulation time: 0 hr 42 min 33 sec) 
Heartbeat CPU 0 instructions: 53000001 cycles: 179207383 heartbeat IPC: 0.279252 cumulative IPC: 0.247594 (Simulation time: 0 hr 43 min 17 sec) 
Heartbeat CPU 0 instructions: 54000000 cycles: 182781634 heartbeat IPC: 0.279779 cumulative IPC: 0.248243 (Simulation time: 0 hr 44 min 1 sec) 
Heartbeat CPU 0 instructions: 55000000 cycles: 186365132 heartbeat IPC: 0.279057 cumulative IPC: 0.248854 (Simulation time: 0 hr 44 min 47 sec) 
Heartbeat CPU 0 instructions: 56000000 cycles: 189939134 heartbeat IPC: 0.279798 cumulative IPC: 0.249453 (Simulation time: 0 hr 45 min 34 sec) 
Heartbeat CPU 0 instructions: 57000002 cycles: 193479302 heartbeat IPC: 0.282473 cumulative IPC: 0.250075 (Simulation time: 0 hr 46 min 20 sec) 
Heartbeat CPU 0 instructions: 58000001 cycles: 197025406 heartbeat IPC: 0.281999 cumulative IPC: 0.250667 (Simulation time: 0 hr 47 min 3 sec) 
Heartbeat CPU 0 instructions: 59000003 cycles: 200543914 heartbeat IPC: 0.284212 cumulative IPC: 0.251272 (Simulation time: 0 hr 47 min 42 sec) 
Heartbeat CPU 0 instructions: 60000000 cycles: 204059291 heartbeat IPC: 0.284464 cumulative IPC: 0.25186 (Simulation time: 0 hr 48 min 19 sec) 
Heartbeat CPU 0 instructions: 61000000 cycles: 207570961 heartbeat IPC: 0.284765 cumulative IPC: 0.252432 (Simulation time: 0 hr 48 min 55 sec) 
Heartbeat CPU 0 instructions: 62000003 cycles: 211078798 heartbeat IPC: 0.285077 cumulative IPC: 0.252989 (Simulation time: 0 hr 49 min 33 sec) 
Heartbeat CPU 0 instructions: 63000001 cycles: 214589018 heartbeat IPC: 0.284882 cumulative IPC: 0.253524 (Simulation time: 0 hr 50 min 11 sec) 
Heartbeat CPU 0 instructions: 64000000 cycles: 218118855 heartbeat IPC: 0.283299 cumulative IPC: 0.254019 (Simulation time: 0 hr 50 min 49 sec) 
Heartbeat CPU 0 instructions: 65000000 cycles: 221690306 heartbeat IPC: 0.279998 cumulative IPC: 0.254448 (Simulation time: 0 hr 51 min 25 sec) 
Heartbeat CPU 0 instructions: 66000000 cycles: 225242575 heartbeat IPC: 0.28151 cumulative IPC: 0.254885 (Simulation time: 0 hr 52 min 2 sec) 
Heartbeat CPU 0 instructions: 67000001 cycles: 228944969 heartbeat IPC: 0.270096 cumulative IPC: 0.255137 (Simulation time: 0 hr 52 min 42 sec) 
Heartbeat CPU 0 instructions: 68000000 cycles: 232713290 heartbeat IPC: 0.26537 cumulative IPC: 0.255307 (Simulation time: 0 hr 53 min 23 sec) 
Heartbeat CPU 0 instructions: 69000003 cycles: 236495953 heartbeat IPC: 0.264365 cumulative IPC: 0.255456 (Simulation time: 0 hr 54 min 4 sec) 
Heartbeat CPU 0 instructions: 70000000 cycles: 240323180 heartbeat IPC: 0.261285 cumulative IPC: 0.255551 (Simulation time: 0 hr 54 min 44 sec) 
Heartbeat CPU 0 instructions: 71000002 cycles: 243941178 heartbeat IPC: 0.276397 cumulative IPC: 0.255867 (Simulation time: 0 hr 55 min 25 sec) 
Heartbeat CPU 0 instructions: 72000000 cycles: 247541551 heartbeat IPC: 0.277748 cumulative IPC: 0.256192 (Simulation time: 0 hr 56 min 5 sec) 
Heartbeat CPU 0 instructions: 73000003 cycles: 251138608 heartbeat IPC: 0.278006 cumulative IPC: 0.256512 (Simulation time: 0 hr 56 min 43 sec) 
Heartbeat CPU 0 instructions: 74000000 cycles: 254753631 heartbeat IPC: 0.276623 cumulative IPC: 0.256804 (Simulation time: 0 hr 57 min 21 sec) 
Heartbeat CPU 0 instructions: 75000000 cycles: 258371543 heartbeat IPC: 0.276403 cumulative IPC: 0.257084 (Simulation time: 0 hr 57 min 58 sec) 
Heartbeat CPU 0 instructions: 76000000 cycles: 262006238 heartbeat IPC: 0.275126 cumulative IPC: 0.25734 (Simulation time: 0 hr 58 min 35 sec) 
Heartbeat CPU 0 instructions: 77000000 cycles: 265610506 heartbeat IPC: 0.277449 cumulative IPC: 0.257618 (Simulation time: 0 hr 59 min 12 sec) 
Heartbeat CPU 0 instructions: 78000003 cycles: 269165514 heartbeat IPC: 0.281294 cumulative IPC: 0.257938 (Simulation time: 0 hr 59 min 48 sec) 
Heartbeat CPU 0 instructions: 79000000 cycles: 272746560 heartbeat IPC: 0.279247 cumulative IPC: 0.258223 (Simulation time: 1 hr 0 min 23 sec) 
Heartbeat CPU 0 instructions: 80000000 cycles: 276296247 heartbeat IPC: 0.281715 cumulative IPC: 0.258531 (Simulation time: 1 hr 0 min 57 sec) 
Heartbeat CPU 0 instructions: 81000001 cycles: 279833106 heartbeat IPC: 0.282737 cumulative IPC: 0.258843 (Simulation time: 1 hr 1 min 31 sec) 
Heartbeat CPU 0 instructions: 82000000 cycles: 283373233 heartbeat IPC: 0.282475 cumulative IPC: 0.259145 (Simulation time: 1 hr 2 min 2 sec) 
Heartbeat CPU 0 instructions: 83000003 cycles: 286932809 heartbeat IPC: 0.280933 cumulative IPC: 0.25942 (Simulation time: 1 hr 2 min 32 sec) 
Heartbeat CPU 0 instructions: 84000000 cycles: 290475281 heartbeat IPC: 0.282288 cumulative IPC: 0.259704 (Simulation time: 1 hr 3 min 2 sec) 
Heartbeat CPU 0 instructions: 85000000 cycles: 294010956 heartbeat IPC: 0.282831 cumulative IPC: 0.259988 (Simulation time: 1 hr 3 min 31 sec) 
Heartbeat CPU 0 instructions: 86000001 cycles: 297558777 heartbeat IPC: 0.281863 cumulative IPC: 0.260254 (Simulation time: 1 hr 4 min 2 sec) 
Heartbeat CPU 0 instructions: 87000001 cycles: 301112580 heartbeat IPC: 0.281389 cumulative IPC: 0.260508 (Simulation time: 1 hr 4 min 29 sec) 
Heartbeat CPU 0 instructions: 88000000 cycles: 304655272 heartbeat IPC: 0.282271 cumulative IPC: 0.260766 (Simulation time: 1 hr 4 min 56 sec) 
Heartbeat CPU 0 instructions: 89000003 cycles: 308197459 heartbeat IPC: 0.282312 cumulative IPC: 0.261018 (Simulation time: 1 hr 5 min 23 sec) 
Heartbeat CPU 0 instructions: 90000000 cycles: 311739430 heartbeat IPC: 0.282328 cumulative IPC: 0.261264 (Simulation time: 1 hr 5 min 49 sec) 
Heartbeat CPU 0 instructions: 91000000 cycles: 315270805 heartbeat IPC: 0.283176 cumulative IPC: 0.261514 (Simulation time: 1 hr 6 min 14 sec) 
Heartbeat CPU 0 instructions: 92000000 cycles: 318786018 heartbeat IPC: 0.284478 cumulative IPC: 0.261772 (Simulation time: 1 hr 6 min 39 sec) 
Heartbeat CPU 0 instructions: 93000001 cycles: 322303469 heartbeat IPC: 0.284297 cumulative IPC: 0.262022 (Simulation time: 1 hr 7 min 3 sec) 
Heartbeat CPU 0 instructions: 94000003 cycles: 325809125 heartbeat IPC: 0.285254 cumulative IPC: 0.262276 (Simulation time: 1 hr 7 min 31 sec) 
Heartbeat CPU 0 instructions: 95000002 cycles: 329322733 heartbeat IPC: 0.284607 cumulative IPC: 0.262518 (Simulation time: 1 hr 7 min 58 sec) 
Heartbeat CPU 0 instructions: 96000000 cycles: 332818746 heartbeat IPC: 0.28604 cumulative IPC: 0.26277 (Simulation time: 1 hr 8 min 24 sec) 
Heartbeat CPU 0 instructions: 97000000 cycles: 336310828 heartbeat IPC: 0.286362 cumulative IPC: 0.263019 (Simulation time: 1 hr 8 min 47 sec) 
Heartbeat CPU 0 instructions: 98000000 cycles: 339796813 heartbeat IPC: 0.286863 cumulative IPC: 0.263267 (Simulation time: 1 hr 9 min 8 sec) 
Heartbeat CPU 0 instructions: 99000000 cycles: 343302540 heartbeat IPC: 0.285248 cumulative IPC: 0.263496 (Simulation time: 1 hr 9 min 27 sec) 
Heartbeat CPU 0 instructions: 100000000 cycles: 346839493 heartbeat IPC: 0.282729 cumulative IPC: 0.263695 (Simulation time: 1 hr 9 min 43 sec) 
Heartbeat CPU 0 instructions: 101000003 cycles: 350353084 heartbeat IPC: 0.28461 cumulative IPC: 0.263908 (Simulation time: 1 hr 9 min 59 sec) 
Heartbeat CPU 0 instructions: 102000000 cycles: 354148913 heartbeat IPC: 0.263446 cumulative IPC: 0.263903 (Simulation time: 1 hr 10 min 14 sec) 
Heartbeat CPU 0 instructions: 103000002 cycles: 358468609 heartbeat IPC: 0.231498 cumulative IPC: 0.263506 (Simulation time: 1 hr 10 min 29 sec) 
Heartbeat CPU 0 instructions: 104000000 cycles: 362557648 heartbeat IPC: 0.244556 cumulative IPC: 0.263289 (Simulation time: 1 hr 10 min 45 sec) 
Heartbeat CPU 0 instructions: 105000000 cycles: 366430798 heartbeat IPC: 0.258188 cumulative IPC: 0.263235 (Simulation time: 1 hr 11 min 0 sec) 
Heartbeat CPU 0 instructions: 106000002 cycles: 370257791 heartbeat IPC: 0.261302 cumulative IPC: 0.263214 (Simulation time: 1 hr 11 min 15 sec) 
Heartbeat CPU 0 instructions: 107000001 cycles: 374124909 heartbeat IPC: 0.25859 cumulative IPC: 0.263166 (Simulation time: 1 hr 11 min 29 sec) 
Heartbeat CPU 0 instructions: 108000000 cycles: 377885045 heartbeat IPC: 0.265948 cumulative IPC: 0.263194 (Simulation time: 1 hr 11 min 43 sec) 
Heartbeat CPU 0 instructions: 109000000 cycles: 381582232 heartbeat IPC: 0.270476 cumulative IPC: 0.263265 (Simulation time: 1 hr 11 min 56 sec) 
Heartbeat CPU 0 instructions: 110000002 cycles: 385268833 heartbeat IPC: 0.271253 cumulative IPC: 0.263343 (Simulation time: 1 hr 12 min 7 sec) 
Finished CPU 0 instructions: 100000001 cycles: 379732836 cummulative IPC: 0.263343 (Simulation time: 1 hr 12 min 7 sec) 

ChampSim completed all CPUs

Region of Interest Statistics

CPU 0 cummulative IPC: 0.263343 instructions: 100000001 cycles: 379732836
LLC TOTAL     ACCESS:    2541051  HIT:     352736  MISS:    2188315
LLC LOAD      ACCESS:     647204  HIT:      64996  MISS:     582208
LLC RFO       ACCESS:     278103  HIT:      33557  MISS:     244546
LLC PREFETCH  ACCESS:    1132147  HIT:      84221  MISS:    1047926
LLC WRITEBACK ACCESS:     483597  HIT:     169962  MISS:     313635
Insertion Distribution: 
	LOAD 35626 0 71892 574761 
	RFO 21644 0 54879 291340 
	PREF 0 18173 101178 1192252 
	WRITEBACK 0 0 0 471328 
Total Prefetch Downgrades: 9731
