
*** ChampSim Multicore Out-of-Order Simulator ***

Warmup Instructions: 10000000
Simulation Instructions: 100000000
Configuration: 2
Number of CPUs: 1
LLC sets: 2048
LLC ways: 16
Off-chip DRAM Channels: 1 Width: 64-bit Data Rate: 1600 MT/s

CPU 0 runs /datasets/cs240c-wi22-a00-public/data/Assignment2-gz/sphinx3_883B.trace.gz
CPU 0 L1D next line prefetcher
CPU 0 L2C IP-based stride prefetcher
Initialize SRRIP state
Heartbeat CPU 0 instructions: 1000003 cycles: 414388 heartbeat IPC: 2.4132 cumulative IPC: 2.4132 (Simulation time: 0 hr 0 min 42 sec) 
Heartbeat CPU 0 instructions: 2000000 cycles: 823945 heartbeat IPC: 2.44166 cumulative IPC: 2.42735 (Simulation time: 0 hr 1 min 25 sec) 
Heartbeat CPU 0 instructions: 3000003 cycles: 1298783 heartbeat IPC: 2.10599 cumulative IPC: 2.30986 (Simulation time: 0 hr 1 min 58 sec) 
Heartbeat CPU 0 instructions: 4000000 cycles: 1637673 heartbeat IPC: 2.9508 cumulative IPC: 2.44249 (Simulation time: 0 hr 2 min 33 sec) 
Heartbeat CPU 0 instructions: 5000000 cycles: 1992323 heartbeat IPC: 2.81968 cumulative IPC: 2.50963 (Simulation time: 0 hr 3 min 8 sec) 
Heartbeat CPU 0 instructions: 6000003 cycles: 2406748 heartbeat IPC: 2.41299 cumulative IPC: 2.49299 (Simulation time: 0 hr 3 min 47 sec) 
Heartbeat CPU 0 instructions: 7000002 cycles: 2815526 heartbeat IPC: 2.44631 cumulative IPC: 2.48621 (Simulation time: 0 hr 4 min 27 sec) 
Heartbeat CPU 0 instructions: 8000000 cycles: 3291702 heartbeat IPC: 2.10006 cumulative IPC: 2.43035 (Simulation time: 0 hr 5 min 2 sec) 
Heartbeat CPU 0 instructions: 9000001 cycles: 3630702 heartbeat IPC: 2.94986 cumulative IPC: 2.47886 (Simulation time: 0 hr 5 min 37 sec) 
Heartbeat CPU 0 instructions: 10000000 cycles: 3984781 heartbeat IPC: 2.82423 cumulative IPC: 2.50955 (Simulation time: 0 hr 6 min 12 sec) 

Warmup complete CPU 0 instructions: 10000004 cycles: 3984782 (Simulation time: 0 hr 6 min 12 sec) 

Heartbeat CPU 0 instructions: 11000002 cycles: 5717019 heartbeat IPC: 0.577289 cumulative IPC: 0.577287 (Simulation time: 0 hr 6 min 51 sec) 
Heartbeat CPU 0 instructions: 12000000 cycles: 7339989 heartbeat IPC: 0.616153 cumulative IPC: 0.596087 (Simulation time: 0 hr 7 min 34 sec) 
Heartbeat CPU 0 instructions: 13000001 cycles: 8531294 heartbeat IPC: 0.839416 cumulative IPC: 0.659846 (Simulation time: 0 hr 8 min 10 sec) 
Heartbeat CPU 0 instructions: 14000002 cycles: 9273018 heartbeat IPC: 1.34821 cumulative IPC: 0.756396 (Simulation time: 0 hr 8 min 48 sec) 
Heartbeat CPU 0 instructions: 15000000 cycles: 10108787 heartbeat IPC: 1.1965 cumulative IPC: 0.816459 (Simulation time: 0 hr 9 min 22 sec) 
Heartbeat CPU 0 instructions: 16000000 cycles: 11818894 heartbeat IPC: 0.584759 cumulative IPC: 0.765881 (Simulation time: 0 hr 10 min 0 sec) 
Heartbeat CPU 0 instructions: 17000000 cycles: 13428604 heartbeat IPC: 0.62123 cumulative IPC: 0.741225 (Simulation time: 0 hr 10 min 37 sec) 
Heartbeat CPU 0 instructions: 18000002 cycles: 14718960 heartbeat IPC: 0.774981 cumulative IPC: 0.745283 (Simulation time: 0 hr 11 min 15 sec) 
Heartbeat CPU 0 instructions: 19000003 cycles: 15563094 heartbeat IPC: 1.18465 cumulative IPC: 0.777315 (Simulation time: 0 hr 11 min 48 sec) 
Heartbeat CPU 0 instructions: 20000000 cycles: 16263940 heartbeat IPC: 1.42684 cumulative IPC: 0.814388 (Simulation time: 0 hr 12 min 25 sec) 
Heartbeat CPU 0 instructions: 21000000 cycles: 17866073 heartbeat IPC: 0.624168 cumulative IPC: 0.792433 (Simulation time: 0 hr 13 min 4 sec) 
Heartbeat CPU 0 instructions: 22000002 cycles: 19505645 heartbeat IPC: 0.609917 cumulative IPC: 0.773153 (Simulation time: 0 hr 13 min 40 sec) 
Heartbeat CPU 0 instructions: 23000001 cycles: 21033981 heartbeat IPC: 0.654306 cumulative IPC: 0.762499 (Simulation time: 0 hr 14 min 12 sec) 
Heartbeat CPU 0 instructions: 24000000 cycles: 21939229 heartbeat IPC: 1.10467 cumulative IPC: 0.779751 (Simulation time: 0 hr 14 min 41 sec) 
Heartbeat CPU 0 instructions: 25000001 cycles: 22729636 heartbeat IPC: 1.26517 cumulative IPC: 0.800219 (Simulation time: 0 hr 15 min 16 sec) 
Heartbeat CPU 0 instructions: 26000001 cycles: 23940744 heartbeat IPC: 0.82569 cumulative IPC: 0.801765 (Simulation time: 0 hr 15 min 55 sec) 
Heartbeat CPU 0 instructions: 27000001 cycles: 25575501 heartbeat IPC: 0.611712 cumulative IPC: 0.787375 (Simulation time: 0 hr 16 min 36 sec) 
Heartbeat CPU 0 instructions: 28000000 cycles: 27173398 heartbeat IPC: 0.625822 cumulative IPC: 0.776243 (Simulation time: 0 hr 17 min 14 sec) 
Heartbeat CPU 0 instructions: 29000000 cycles: 28193227 heartbeat IPC: 0.980557 cumulative IPC: 0.78485 (Simulation time: 0 hr 17 min 51 sec) 
Heartbeat CPU 0 instructions: 30000002 cycles: 29007931 heartbeat IPC: 1.22744 cumulative IPC: 0.79926 (Simulation time: 0 hr 18 min 28 sec) 
Heartbeat CPU 0 instructions: 31000003 cycles: 30066056 heartbeat IPC: 0.945069 cumulative IPC: 0.805175 (Simulation time: 0 hr 19 min 11 sec) 
Heartbeat CPU 0 instructions: 32000000 cycles: 31696381 heartbeat IPC: 0.613373 cumulative IPC: 0.793891 (Simulation time: 0 hr 19 min 55 sec) 
Heartbeat CPU 0 instructions: 33000000 cycles: 33258656 heartbeat IPC: 0.640092 cumulative IPC: 0.785683 (Simulation time: 0 hr 20 min 34 sec) 
Heartbeat CPU 0 instructions: 34000000 cycles: 34372138 heartbeat IPC: 0.898084 cumulative IPC: 0.789802 (Simulation time: 0 hr 21 min 11 sec) 
Heartbeat CPU 0 instructions: 35000003 cycles: 35186361 heartbeat IPC: 1.22817 cumulative IPC: 0.801241 (Simulation time: 0 hr 21 min 45 sec) 
Heartbeat CPU 0 instructions: 36000000 cycles: 36195426 heartbeat IPC: 0.991013 cumulative IPC: 0.807186 (Simulation time: 0 hr 22 min 26 sec) 
Heartbeat CPU 0 instructions: 37000001 cycles: 37840683 heartbeat IPC: 0.607808 cumulative IPC: 0.797498 (Simulation time: 0 hr 23 min 9 sec) 
Heartbeat CPU 0 instructions: 38000000 cycles: 39406678 heartbeat IPC: 0.638571 cumulative IPC: 0.790471 (Simulation time: 0 hr 23 min 50 sec) 
Heartbeat CPU 0 instructions: 39000003 cycles: 40518273 heartbeat IPC: 0.899611 cumulative IPC: 0.793792 (Simulation time: 0 hr 24 min 27 sec) 
Heartbeat CPU 0 instructions: 40000000 cycles: 41333838 heartbeat IPC: 1.22614 cumulative IPC: 0.803233 (Simulation time: 0 hr 25 min 5 sec) 
Heartbeat CPU 0 instructions: 41000003 cycles: 42343129 heartbeat IPC: 0.990798 cumulative IPC: 0.808168 (Simulation time: 0 hr 25 min 42 sec) 
Heartbeat CPU 0 instructions: 42000000 cycles: 44000285 heartbeat IPC: 0.603442 cumulative IPC: 0.79969 (Simulation time: 0 hr 26 min 23 sec) 
Heartbeat CPU 0 instructions: 43000003 cycles: 45593711 heartbeat IPC: 0.62758 cumulative IPC: 0.793099 (Simulation time: 0 hr 27 min 3 sec) 
Heartbeat CPU 0 instructions: 44000000 cycles: 46633484 heartbeat IPC: 0.961746 cumulative IPC: 0.797211 (Simulation time: 0 hr 27 min 39 sec) 
Heartbeat CPU 0 instructions: 45000002 cycles: 47444205 heartbeat IPC: 1.23347 cumulative IPC: 0.805349 (Simulation time: 0 hr 28 min 16 sec) 
Heartbeat CPU 0 instructions: 46000001 cycles: 48500412 heartbeat IPC: 0.946783 cumulative IPC: 0.808705 (Simulation time: 0 hr 28 min 55 sec) 
Heartbeat CPU 0 instructions: 47000002 cycles: 50135375 heartbeat IPC: 0.611635 cumulative IPC: 0.801723 (Simulation time: 0 hr 29 min 36 sec) 
Heartbeat CPU 0 instructions: 48000000 cycles: 51721883 heartbeat IPC: 0.630314 cumulative IPC: 0.796026 (Simulation time: 0 hr 30 min 13 sec) 
Heartbeat CPU 0 instructions: 49000001 cycles: 52675285 heartbeat IPC: 1.04888 cumulative IPC: 0.800977 (Simulation time: 0 hr 30 min 48 sec) 
Heartbeat CPU 0 instructions: 50000000 cycles: 53489372 heartbeat IPC: 1.22837 cumulative IPC: 0.808006 (Simulation time: 0 hr 31 min 23 sec) 
Heartbeat CPU 0 instructions: 51000003 cycles: 54598317 heartbeat IPC: 0.901761 cumulative IPC: 0.81006 (Simulation time: 0 hr 32 min 1 sec) 
Heartbeat CPU 0 instructions: 52000000 cycles: 56272470 heartbeat IPC: 0.597315 cumulative IPC: 0.803248 (Simulation time: 0 hr 32 min 41 sec) 
Heartbeat CPU 0 instructions: 53000000 cycles: 58065894 heartbeat IPC: 0.557593 cumulative IPC: 0.795102 (Simulation time: 0 hr 33 min 23 sec) 
Heartbeat CPU 0 instructions: 54000003 cycles: 59347979 heartbeat IPC: 0.779982 cumulative IPC: 0.794752 (Simulation time: 0 hr 34 min 2 sec) 
Heartbeat CPU 0 instructions: 55000003 cycles: 60218424 heartbeat IPC: 1.14884 cumulative IPC: 0.800233 (Simulation time: 0 hr 34 min 37 sec) 
Heartbeat CPU 0 instructions: 56000000 cycles: 61090778 heartbeat IPC: 1.14632 cumulative IPC: 0.80552 (Simulation time: 0 hr 35 min 14 sec) 
Heartbeat CPU 0 instructions: 57000002 cycles: 62267244 heartbeat IPC: 0.850005 cumulative IPC: 0.806418 (Simulation time: 0 hr 35 min 50 sec) 
Heartbeat CPU 0 instructions: 58000001 cycles: 63310104 heartbeat IPC: 0.958901 cumulative IPC: 0.809098 (Simulation time: 0 hr 36 min 26 sec) 
Heartbeat CPU 0 instructions: 59000003 cycles: 64160108 heartbeat IPC: 1.17647 cumulative IPC: 0.814287 (Simulation time: 0 hr 37 min 2 sec) 
Heartbeat CPU 0 instructions: 60000000 cycles: 65041457 heartbeat IPC: 1.13462 cumulative IPC: 0.818911 (Simulation time: 0 hr 37 min 37 sec) 
Heartbeat CPU 0 instructions: 61000001 cycles: 66253287 heartbeat IPC: 0.825199 cumulative IPC: 0.819034 (Simulation time: 0 hr 38 min 14 sec) 
Heartbeat CPU 0 instructions: 62000001 cycles: 67103539 heartbeat IPC: 1.17612 cumulative IPC: 0.823844 (Simulation time: 0 hr 38 min 49 sec) 
Heartbeat CPU 0 instructions: 63000003 cycles: 67928166 heartbeat IPC: 1.21267 cumulative IPC: 0.828858 (Simulation time: 0 hr 39 min 24 sec) 
Heartbeat CPU 0 instructions: 64000000 cycles: 69196360 heartbeat IPC: 0.788521 cumulative IPC: 0.828074 (Simulation time: 0 hr 40 min 6 sec) 
Heartbeat CPU 0 instructions: 65000003 cycles: 70065981 heartbeat IPC: 1.14993 cumulative IPC: 0.832309 (Simulation time: 0 hr 40 min 42 sec) 
Heartbeat CPU 0 instructions: 66000002 cycles: 70902356 heartbeat IPC: 1.19563 cumulative IPC: 0.83685 (Simulation time: 0 hr 41 min 18 sec) 
Heartbeat CPU 0 instructions: 67000000 cycles: 72157688 heartbeat IPC: 0.7966 cumulative IPC: 0.836109 (Simulation time: 0 hr 41 min 55 sec) 
Heartbeat CPU 0 instructions: 68000000 cycles: 73816376 heartbeat IPC: 0.602886 cumulative IPC: 0.83057 (Simulation time: 0 hr 42 min 34 sec) 
Heartbeat CPU 0 instructions: 69000003 cycles: 74680438 heartbeat IPC: 1.15733 cumulative IPC: 0.834563 (Simulation time: 0 hr 43 min 9 sec) 
Heartbeat CPU 0 instructions: 70000000 cycles: 75526626 heartbeat IPC: 1.18177 cumulative IPC: 0.83867 (Simulation time: 0 hr 43 min 44 sec) 
Heartbeat CPU 0 instructions: 71000000 cycles: 76686508 heartbeat IPC: 0.862157 cumulative IPC: 0.839045 (Simulation time: 0 hr 44 min 21 sec) 
Heartbeat CPU 0 instructions: 72000000 cycles: 78170983 heartbeat IPC: 0.673639 cumulative IPC: 0.835735 (Simulation time: 0 hr 45 min 2 sec) 
Heartbeat CPU 0 instructions: 73000000 cycles: 79039212 heartbeat IPC: 1.15177 cumulative IPC: 0.839391 (Simulation time: 0 hr 45 min 38 sec) 
Heartbeat CPU 0 instructions: 74000000 cycles: 79905196 heartbeat IPC: 1.15476 cumulative IPC: 0.842988 (Simulation time: 0 hr 46 min 15 sec) 
Heartbeat CPU 0 instructions: 75000000 cycles: 81124821 heartbeat IPC: 0.819924 cumulative IPC: 0.842623 (Simulation time: 0 hr 46 min 52 sec) 
Heartbeat CPU 0 instructions: 76000000 cycles: 82437025 heartbeat IPC: 0.762077 cumulative IPC: 0.841276 (Simulation time: 0 hr 47 min 27 sec) 
Heartbeat CPU 0 instructions: 77000003 cycles: 83265425 heartbeat IPC: 1.20715 cumulative IPC: 0.845099 (Simulation time: 0 hr 47 min 54 sec) 
Heartbeat CPU 0 instructions: 78000000 cycles: 84090422 heartbeat IPC: 1.21212 cumulative IPC: 0.848879 (Simulation time: 0 hr 48 min 26 sec) 
Heartbeat CPU 0 instructions: 79000001 cycles: 85465749 heartbeat IPC: 0.727101 cumulative IPC: 0.846824 (Simulation time: 0 hr 49 min 0 sec) 
Heartbeat CPU 0 instructions: 80000000 cycles: 86633652 heartbeat IPC: 0.856235 cumulative IPC: 0.846956 (Simulation time: 0 hr 49 min 32 sec) 
Heartbeat CPU 0 instructions: 81000000 cycles: 87457534 heartbeat IPC: 1.21377 cumulative IPC: 0.850577 (Simulation time: 0 hr 50 min 2 sec) 
Heartbeat CPU 0 instructions: 82000000 cycles: 88279781 heartbeat IPC: 1.21618 cumulative IPC: 0.854143 (Simulation time: 0 hr 50 min 32 sec) 
Heartbeat CPU 0 instructions: 83000000 cycles: 89783043 heartbeat IPC: 0.66522 cumulative IPC: 0.850833 (Simulation time: 0 hr 51 min 3 sec) 
Heartbeat CPU 0 instructions: 84000000 cycles: 90681845 heartbeat IPC: 1.11259 cumulative IPC: 0.853547 (Simulation time: 0 hr 51 min 32 sec) 
Heartbeat CPU 0 instructions: 85000001 cycles: 91498042 heartbeat IPC: 1.2252 cumulative IPC: 0.857013 (Simulation time: 0 hr 52 min 3 sec) 
Heartbeat CPU 0 instructions: 86000001 cycles: 92568547 heartbeat IPC: 0.934139 cumulative IPC: 0.857945 (Simulation time: 0 hr 52 min 32 sec) 
Heartbeat CPU 0 instructions: 87000000 cycles: 93795701 heartbeat IPC: 0.814893 cumulative IPC: 0.857357 (Simulation time: 0 hr 53 min 0 sec) 
Heartbeat CPU 0 instructions: 88000000 cycles: 94630433 heartbeat IPC: 1.19799 cumulative IPC: 0.860494 (Simulation time: 0 hr 53 min 30 sec) 
Heartbeat CPU 0 instructions: 89000000 cycles: 95394304 heartbeat IPC: 1.30912 cumulative IPC: 0.864242 (Simulation time: 0 hr 53 min 58 sec) 
Heartbeat CPU 0 instructions: 90000000 cycles: 96770117 heartbeat IPC: 0.726843 cumulative IPC: 0.862205 (Simulation time: 0 hr 54 min 28 sec) 
Heartbeat CPU 0 instructions: 91000003 cycles: 98024675 heartbeat IPC: 0.797096 cumulative IPC: 0.861337 (Simulation time: 0 hr 54 min 58 sec) 
Heartbeat CPU 0 instructions: 92000000 cycles: 98968820 heartbeat IPC: 1.05916 cumulative IPC: 0.863303 (Simulation time: 0 hr 55 min 26 sec) 
Heartbeat CPU 0 instructions: 93000000 cycles: 99760465 heartbeat IPC: 1.26319 cumulative IPC: 0.866608 (Simulation time: 0 hr 55 min 52 sec) 
Heartbeat CPU 0 instructions: 94000002 cycles: 100557108 heartbeat IPC: 1.25527 cumulative IPC: 0.869814 (Simulation time: 0 hr 56 min 19 sec) 
Heartbeat CPU 0 instructions: 95000001 cycles: 102005277 heartbeat IPC: 0.690526 cumulative IPC: 0.867166 (Simulation time: 0 hr 56 min 47 sec) 
Heartbeat CPU 0 instructions: 96000000 cycles: 102857858 heartbeat IPC: 1.17291 cumulative IPC: 0.869802 (Simulation time: 0 hr 57 min 12 sec) 
Heartbeat CPU 0 instructions: 97000002 cycles: 103614261 heartbeat IPC: 1.32205 cumulative IPC: 0.873236 (Simulation time: 0 hr 57 min 38 sec) 
Heartbeat CPU 0 instructions: 98000003 cycles: 104845113 heartbeat IPC: 0.812446 cumulative IPC: 0.872494 (Simulation time: 0 hr 58 min 6 sec) 
Heartbeat CPU 0 instructions: 99000000 cycles: 105921713 heartbeat IPC: 0.928847 cumulative IPC: 0.873089 (Simulation time: 0 hr 58 min 34 sec) 
Heartbeat CPU 0 instructions: 100000000 cycles: 106717273 heartbeat IPC: 1.25698 cumulative IPC: 0.876062 (Simulation time: 0 hr 59 min 2 sec) 
Heartbeat CPU 0 instructions: 101000000 cycles: 107503298 heartbeat IPC: 1.27222 cumulative IPC: 0.87907 (Simulation time: 0 hr 59 min 30 sec) 
Heartbeat CPU 0 instructions: 102000003 cycles: 109062003 heartbeat IPC: 0.64156 cumulative IPC: 0.875547 (Simulation time: 0 hr 59 min 59 sec) 
Heartbeat CPU 0 instructions: 103000001 cycles: 109976758 heartbeat IPC: 1.09319 cumulative IPC: 0.877425 (Simulation time: 1 hr 0 min 26 sec) 
Heartbeat CPU 0 instructions: 104000000 cycles: 110746396 heartbeat IPC: 1.29931 cumulative IPC: 0.880466 (Simulation time: 1 hr 0 min 53 sec) 
Heartbeat CPU 0 instructions: 105000002 cycles: 111837429 heartbeat IPC: 0.916564 cumulative IPC: 0.880831 (Simulation time: 1 hr 1 min 19 sec) 
Heartbeat CPU 0 instructions: 106000003 cycles: 113359362 heartbeat IPC: 0.65706 cumulative IPC: 0.877718 (Simulation time: 1 hr 1 min 42 sec) 
Heartbeat CPU 0 instructions: 107000001 cycles: 114197632 heartbeat IPC: 1.19293 cumulative IPC: 0.880115 (Simulation time: 1 hr 2 min 3 sec) 
Heartbeat CPU 0 instructions: 108000000 cycles: 114962544 heartbeat IPC: 1.30734 cumulative IPC: 0.88306 (Simulation time: 1 hr 2 min 25 sec) 
Heartbeat CPU 0 instructions: 109000001 cycles: 116137264 heartbeat IPC: 0.851268 cumulative IPC: 0.882727 (Simulation time: 1 hr 2 min 47 sec) 
Heartbeat CPU 0 instructions: 110000000 cycles: 117548551 heartbeat IPC: 0.708572 cumulative IPC: 0.880562 (Simulation time: 1 hr 3 min 9 sec) 
Finished CPU 0 instructions: 100000000 cycles: 113563770 cummulative IPC: 0.880563 (Simulation time: 1 hr 3 min 9 sec) 

ChampSim completed all CPUs

Region of Interest Statistics

CPU 0 cummulative IPC: 0.880563 instructions: 100000000 cycles: 113563770
LLC TOTAL     ACCESS:    1795715  HIT:     725571  MISS:    1070144
LLC LOAD      ACCESS:     315544  HIT:     203248  MISS:     112296
LLC RFO       ACCESS:      99608  HIT:      79162  MISS:      20446
LLC PREFETCH  ACCESS:    1239143  HIT:     312567  MISS:     926576
LLC WRITEBACK ACCESS:     141420  HIT:     130594  MISS:      10826
Insertion Distribution: 
	LOAD 11029 0 24556 101110 
	RFO 10433 0 3779 10069 
	PREF 0 5795 82052 947174 
	WRITEBACK 0 0 0 12002 
Total Prefetch Downgrades: 6326
