Initialize SIGNATURE TABLE
ST_SET: 1
ST_WAY: 256
ST_TAG_BIT: 16
ST_TAG_MASK: ffff

Initialize PATTERN TABLE
PT_SET: 512
PT_WAY: 4
SIG_DELTA_BIT: 7
C_SIG_BIT: 4
C_DELTA_BIT: 4

Initialize PREFETCH FILTER
FILTER_SET: 1024

*** ChampSim Multicore Out-of-Order Simulator ***

Warmup Instructions: 50000000
Simulation Instructions: 50000000
Number of CPUs: 1
LLC sets: 2048
LLC ways: 16
Off-chip DRAM Size: 4096 MB Channels: 1 Width: 64-bit Data Rate: 3200 MT/s

CPU 0 runs /Users/gandhardeshpande/Desktop/CSE240C/HW1/ChampSim/ipc1_public/server_022.champsimtrace.xz
L1I Barca has been initializedCPU 0 L1D next line prefetcher
Heartbeat CPU 0 instructions: 10000002 cycles: 3626847 heartbeat IPC: 2.75722 cumulative IPC: 2.75722 (Simulation time: 0 hr 0 min 20 sec) 
Heartbeat CPU 0 instructions: 20000001 cycles: 7259456 heartbeat IPC: 2.75284 cumulative IPC: 2.75503 (Simulation time: 0 hr 0 min 40 sec) 
Heartbeat CPU 0 instructions: 30000003 cycles: 10886231 heartbeat IPC: 2.75727 cumulative IPC: 2.75577 (Simulation time: 0 hr 1 min 0 sec) 
Heartbeat CPU 0 instructions: 40000003 cycles: 14520547 heartbeat IPC: 2.75155 cumulative IPC: 2.75472 (Simulation time: 0 hr 1 min 19 sec) 
Heartbeat CPU 0 instructions: 50000002 cycles: 18144936 heartbeat IPC: 2.75909 cumulative IPC: 2.75559 (Simulation time: 0 hr 1 min 39 sec) 

Warmup complete CPU 0 instructions: 50000002 cycles: 18144936 (Simulation time: 0 hr 1 min 39 sec) 

Heartbeat CPU 0 instructions: 60000000 cycles: 35686610 heartbeat IPC: 0.570071 cumulative IPC: 0.570071 (Simulation time: 0 hr 2 min 5 sec) 
Heartbeat CPU 0 instructions: 70000001 cycles: 53393588 heartbeat IPC: 0.564749 cumulative IPC: 0.567398 (Simulation time: 0 hr 2 min 30 sec) 
Heartbeat CPU 0 instructions: 80000001 cycles: 70874449 heartbeat IPC: 0.572054 cumulative IPC: 0.568941 (Simulation time: 0 hr 2 min 55 sec) 
Heartbeat CPU 0 instructions: 90000003 cycles: 88627578 heartbeat IPC: 0.563281 cumulative IPC: 0.567516 (Simulation time: 0 hr 3 min 21 sec) 
Heartbeat CPU 0 instructions: 100000003 cycles: 106185231 heartbeat IPC: 0.569552 cumulative IPC: 0.567922 (Simulation time: 0 hr 3 min 47 sec) 
Finished CPU 0 instructions: 50000001 cycles: 88040295 cumulative IPC: 0.567922 (Simulation time: 0 hr 3 min 47 sec) 

ChampSim completed all CPUs

Region of Interest Statistics

CPU 0 cumulative IPC: 0.567922 instructions: 50000001 cycles: 88040295
L1D TOTAL     ACCESS:   18741839  HIT:   16530931  MISS:    2210908
L1D LOAD      ACCESS:    7063394  HIT:    6344371  MISS:     719023
L1D RFO       ACCESS:    5926858  HIT:    4946977  MISS:     979881
L1D PREFETCH  ACCESS:    5751587  HIT:    5239583  MISS:     512004
L1D WRITEBACK ACCESS:          0  HIT:          0  MISS:          0
L1D PREFETCH  REQUESTED:    7106794  ISSUED:    6899168  USEFUL:     190660  USELESS:     321349
L1D AVERAGE MISS LATENCY: 179.646 cycles
L1I TOTAL     ACCESS:   13544579  HIT:   10754758  MISS:    2789821
L1I LOAD      ACCESS:   10096679  HIT:    9923317  MISS:     173362
L1I RFO       ACCESS:          0  HIT:          0  MISS:          0
L1I PREFETCH  ACCESS:    3447900  HIT:     831441  MISS:    2616459
L1I WRITEBACK ACCESS:          0  HIT:          0  MISS:          0
L1I PREFETCH  REQUESTED:    3879009  ISSUED:    3879009  USEFUL:    2356372  USELESS:     260090
L1I AVERAGE MISS LATENCY: 16.5951 cycles
L2C TOTAL     ACCESS:    7373492  HIT:    5521332  MISS:    1852160
L2C LOAD      ACCESS:     535065  HIT:     266469  MISS:     268596
L2C RFO       ACCESS:     979093  HIT:      21296  MISS:     957797
L2C PREFETCH  ACCESS:    4674149  HIT:    4049987  MISS:     624162
L2C WRITEBACK ACCESS:    1185185  HIT:    1183580  MISS:       1605
L2C PREFETCH  REQUESTED:    3523617  ISSUED:    3520117  USEFUL:      20544  USELESS:     603705
L2C AVERAGE MISS LATENCY: 221.616 cycles
LLC TOTAL     ACCESS:    3941707  HIT:    2537987  MISS:    1403720
LLC LOAD      ACCESS:     268570  HIT:     187827  MISS:      80743
LLC RFO       ACCESS:     957797  HIT:     139146  MISS:     818651
LLC PREFETCH  ACCESS:    1599429  HIT:    1096893  MISS:     502536
LLC WRITEBACK ACCESS:    1115911  HIT:    1114121  MISS:       1790
LLC PREFETCH  REQUESTED:          0  ISSUED:          0  USEFUL:      27274  USELESS:     475532
LLC AVERAGE MISS LATENCY: 287.187 cycles
Major fault: 0 Minor fault: 23505
CPU 0 L1D next line prefetcher final stats

DRAM Statistics
 CHANNEL 0
 RQ ROW_BUFFER_HIT:     394138  ROW_BUFFER_MISS:    1007555
 DBUS_CONGESTED:    1410033
 WQ ROW_BUFFER_HIT:     289077  ROW_BUFFER_MISS:     614502  FULL:          0

 AVG_CONGESTED_CYCLE: 6

CPU 0 Branch Prediction Accuracy: 99.8317% MPKI: 0.27564 Average ROB Occupancy at Mispredict: 216.6

Branch types
NOT_BRANCH: 41811158 83.6223%
BRANCH_DIRECT_JUMP: 445742 0.891484%
BRANCH_INDIRECT: 48876 0.097752%
BRANCH_CONDITIONAL: 5859409 11.7188%
BRANCH_DIRECT_CALL: 758268 1.51654%
BRANCH_INDIRECT_CALL: 159103 0.318206%
BRANCH_RETURN: 917372 1.83474%
BRANCH_OTHER: 0 0%

