Initialize SIGNATURE TABLE
ST_SET: 1
ST_WAY: 256
ST_TAG_BIT: 16
ST_TAG_MASK: ffff

Initialize PATTERN TABLE
PT_SET: 512
PT_WAY: 4
SIG_DELTA_BIT: 7
C_SIG_BIT: 4
C_DELTA_BIT: 4

Initialize PREFETCH FILTER
FILTER_SET: 1024

*** ChampSim Multicore Out-of-Order Simulator ***

Warmup Instructions: 50000000
Simulation Instructions: 50000000
Number of CPUs: 1
LLC sets: 2048
LLC ways: 16
Off-chip DRAM Size: 4096 MB Channels: 1 Width: 64-bit Data Rate: 3200 MT/s

CPU 0 runs /Users/gandhardeshpande/Desktop/CSE240C/HW1/ChampSim/ipc1_public/server_034.champsimtrace.xz
L1I Barca has been initializedCPU 0 L1D next line prefetcher
Heartbeat CPU 0 instructions: 10000000 cycles: 3332497 heartbeat IPC: 3.00075 cumulative IPC: 3.00075 (Simulation time: 0 hr 0 min 19 sec) 
Heartbeat CPU 0 instructions: 20000002 cycles: 6656919 heartbeat IPC: 3.00804 cumulative IPC: 3.00439 (Simulation time: 0 hr 0 min 37 sec) 
Heartbeat CPU 0 instructions: 30000003 cycles: 9989744 heartbeat IPC: 3.00046 cumulative IPC: 3.00308 (Simulation time: 0 hr 0 min 55 sec) 
Heartbeat CPU 0 instructions: 40000001 cycles: 13320299 heartbeat IPC: 3.0025 cumulative IPC: 3.00294 (Simulation time: 0 hr 1 min 13 sec) 
Heartbeat CPU 0 instructions: 50000000 cycles: 16650203 heartbeat IPC: 3.00309 cumulative IPC: 3.00297 (Simulation time: 0 hr 1 min 32 sec) 

Warmup complete CPU 0 instructions: 50000002 cycles: 16650204 (Simulation time: 0 hr 1 min 32 sec) 

Heartbeat CPU 0 instructions: 60000002 cycles: 23604911 heartbeat IPC: 1.43788 cumulative IPC: 1.43788 (Simulation time: 0 hr 1 min 47 sec) 
Heartbeat CPU 0 instructions: 70000003 cycles: 30905089 heartbeat IPC: 1.36983 cumulative IPC: 1.40303 (Simulation time: 0 hr 2 min 4 sec) 
Heartbeat CPU 0 instructions: 80000002 cycles: 37850950 heartbeat IPC: 1.43971 cumulative IPC: 1.41504 (Simulation time: 0 hr 2 min 20 sec) 
Heartbeat CPU 0 instructions: 90000002 cycles: 44820304 heartbeat IPC: 1.43485 cumulative IPC: 1.41995 (Simulation time: 0 hr 2 min 36 sec) 
Heartbeat CPU 0 instructions: 100000002 cycles: 51847165 heartbeat IPC: 1.42311 cumulative IPC: 1.42058 (Simulation time: 0 hr 2 min 52 sec) 
Finished CPU 0 instructions: 50000000 cycles: 35196961 cumulative IPC: 1.42058 (Simulation time: 0 hr 2 min 52 sec) 

ChampSim completed all CPUs

Region of Interest Statistics

CPU 0 cumulative IPC: 1.42058 instructions: 50000000 cycles: 35196961
L1D TOTAL     ACCESS:   19381439  HIT:   17957022  MISS:    1424417
L1D LOAD      ACCESS:    6677408  HIT:    6023295  MISS:     654113
L1D RFO       ACCESS:    6192613  HIT:    6048839  MISS:     143774
L1D PREFETCH  ACCESS:    6511418  HIT:    5884888  MISS:     626530
L1D WRITEBACK ACCESS:          0  HIT:          0  MISS:          0
L1D PREFETCH  REQUESTED:    6716194  ISSUED:    6642075  USEFUL:     141619  USELESS:     484880
L1D AVERAGE MISS LATENCY: 17.4178 cycles
L1I TOTAL     ACCESS:   12571304  HIT:    8706630  MISS:    3864674
L1I LOAD      ACCESS:    9463211  HIT:    8022875  MISS:    1440336
L1I RFO       ACCESS:          0  HIT:          0  MISS:          0
L1I PREFETCH  ACCESS:    3108093  HIT:     683755  MISS:    2424338
L1I WRITEBACK ACCESS:          0  HIT:          0  MISS:          0
L1I PREFETCH  REQUESTED:    3847960  ISSUED:    3847960  USEFUL:    1904383  USELESS:     519982
L1I AVERAGE MISS LATENCY: 13.8347 cycles
L2C TOTAL     ACCESS:    7473367  HIT:    7382628  MISS:      90739
L2C LOAD      ACCESS:    1880132  HIT:    1839298  MISS:      40834
L2C RFO       ACCESS:     142162  HIT:     134189  MISS:       7973
L2C PREFETCH  ACCESS:    5100035  HIT:    5058784  MISS:      41251
L2C WRITEBACK ACCESS:     351038  HIT:     350357  MISS:        681
L2C PREFETCH  REQUESTED:    4784071  ISSUED:    4780811  USEFUL:       2581  USELESS:      38222
L2C AVERAGE MISS LATENCY: 43.0389 cycles
LLC TOTAL     ACCESS:    1457753  HIT:    1442499  MISS:      15254
LLC LOAD      ACCESS:      40735  HIT:      37247  MISS:       3488
LLC RFO       ACCESS:       7973  HIT:       7630  MISS:        343
LLC PREFETCH  ACCESS:    1372759  HIT:    1361423  MISS:      11336
LLC WRITEBACK ACCESS:      36286  HIT:      36199  MISS:         87
LLC PREFETCH  REQUESTED:          0  ISSUED:          0  USEFUL:       3157  USELESS:       6018
LLC AVERAGE MISS LATENCY: 152.907 cycles
Major fault: 0 Minor fault: 1170
CPU 0 L1D next line prefetcher final stats

DRAM Statistics
 CHANNEL 0
 RQ ROW_BUFFER_HIT:       3730  ROW_BUFFER_MISS:      11430
 DBUS_CONGESTED:       6303
 WQ ROW_BUFFER_HIT:       1314  ROW_BUFFER_MISS:       3316  FULL:          0

 AVG_CONGESTED_CYCLE: 5

CPU 0 Branch Prediction Accuracy: 99.926% MPKI: 0.14472 Average ROB Occupancy at Mispredict: 162.594

Branch types
NOT_BRANCH: 40220956 80.4419%
BRANCH_DIRECT_JUMP: 771319 1.54264%
BRANCH_INDIRECT: 108663 0.217326%
BRANCH_CONDITIONAL: 6375035 12.7501%
BRANCH_DIRECT_CALL: 1049635 2.09927%
BRANCH_INDIRECT_CALL: 212280 0.42456%
BRANCH_RETURN: 1261925 2.52385%
BRANCH_OTHER: 0 0%

