
*** ChampSim Multicore Out-of-Order Simulator ***

Warmup Instructions: 10000000
Simulation Instructions: 100000000
Configuration: 2
Number of CPUs: 1
LLC sets: 2048
LLC ways: 16
Off-chip DRAM Channels: 1 Width: 64-bit Data Rate: 1600 MT/s

CPU 0 runs /datasets/cs240c-wi22-a00-public/data/Assignment2-gz/GemsFDTD_109B.trace.gz
CPU 0 L1D next line prefetcher
CPU 0 L2C IP-based stride prefetcher
Initialize SRRIP state
Heartbeat CPU 0 instructions: 1000002 cycles: 579772 heartbeat IPC: 1.72482 cumulative IPC: 1.72482 (Simulation time: 0 hr 0 min 55 sec) 
Heartbeat CPU 0 instructions: 2000001 cycles: 1159543 heartbeat IPC: 1.72482 cumulative IPC: 1.72482 (Simulation time: 0 hr 1 min 56 sec) 
Heartbeat CPU 0 instructions: 3000000 cycles: 1738739 heartbeat IPC: 1.72653 cumulative IPC: 1.72539 (Simulation time: 0 hr 2 min 57 sec) 
Heartbeat CPU 0 instructions: 4000000 cycles: 2317733 heartbeat IPC: 1.72713 cumulative IPC: 1.72582 (Simulation time: 0 hr 3 min 55 sec) 
Heartbeat CPU 0 instructions: 5000000 cycles: 2897548 heartbeat IPC: 1.72469 cumulative IPC: 1.7256 (Simulation time: 0 hr 4 min 56 sec) 
Heartbeat CPU 0 instructions: 6000002 cycles: 3478271 heartbeat IPC: 1.72199 cumulative IPC: 1.725 (Simulation time: 0 hr 6 min 0 sec) 
Heartbeat CPU 0 instructions: 7000001 cycles: 4058948 heartbeat IPC: 1.72213 cumulative IPC: 1.72459 (Simulation time: 0 hr 6 min 59 sec) 
Heartbeat CPU 0 instructions: 8000000 cycles: 4639137 heartbeat IPC: 1.72357 cumulative IPC: 1.72446 (Simulation time: 0 hr 8 min 5 sec) 
Heartbeat CPU 0 instructions: 9000002 cycles: 5219298 heartbeat IPC: 1.72366 cumulative IPC: 1.72437 (Simulation time: 0 hr 9 min 3 sec) 
Heartbeat CPU 0 instructions: 10000001 cycles: 5799491 heartbeat IPC: 1.72356 cumulative IPC: 1.72429 (Simulation time: 0 hr 10 min 3 sec) 

Warmup complete CPU 0 instructions: 10000001 cycles: 5799491 (Simulation time: 0 hr 10 min 3 sec) 

Heartbeat CPU 0 instructions: 11000002 cycles: 6842069 heartbeat IPC: 0.959162 cumulative IPC: 0.959162 (Simulation time: 0 hr 11 min 9 sec) 
Heartbeat CPU 0 instructions: 12000000 cycles: 7897487 heartbeat IPC: 0.94749 cumulative IPC: 0.95329 (Simulation time: 0 hr 12 min 20 sec) 
Heartbeat CPU 0 instructions: 13000001 cycles: 8997202 heartbeat IPC: 0.909327 cumulative IPC: 0.938171 (Simulation time: 0 hr 13 min 33 sec) 
Heartbeat CPU 0 instructions: 14000001 cycles: 10067290 heartbeat IPC: 0.934503 cumulative IPC: 0.937251 (Simulation time: 0 hr 14 min 41 sec) 
Heartbeat CPU 0 instructions: 15000000 cycles: 11136387 heartbeat IPC: 0.935368 cumulative IPC: 0.936874 (Simulation time: 0 hr 15 min 41 sec) 
Heartbeat CPU 0 instructions: 16000000 cycles: 12204529 heartbeat IPC: 0.936205 cumulative IPC: 0.936762 (Simulation time: 0 hr 16 min 48 sec) 
Heartbeat CPU 0 instructions: 17000000 cycles: 13291130 heartbeat IPC: 0.920301 cumulative IPC: 0.934375 (Simulation time: 0 hr 17 min 57 sec) 
Heartbeat CPU 0 instructions: 18000003 cycles: 14341297 heartbeat IPC: 0.952232 cumulative IPC: 0.93657 (Simulation time: 0 hr 19 min 9 sec) 
Heartbeat CPU 0 instructions: 19000001 cycles: 15400357 heartbeat IPC: 0.944232 cumulative IPC: 0.937415 (Simulation time: 0 hr 20 min 19 sec) 
Heartbeat CPU 0 instructions: 20000000 cycles: 16639334 heartbeat IPC: 0.807117 cumulative IPC: 0.922522 (Simulation time: 0 hr 21 min 19 sec) 
Heartbeat CPU 0 instructions: 21000001 cycles: 17918209 heartbeat IPC: 0.781938 cumulative IPC: 0.907687 (Simulation time: 0 hr 22 min 21 sec) 
Heartbeat CPU 0 instructions: 22000001 cycles: 21319576 heartbeat IPC: 0.293999 cumulative IPC: 0.773192 (Simulation time: 0 hr 23 min 27 sec) 
Heartbeat CPU 0 instructions: 23000001 cycles: 22584313 heartbeat IPC: 0.790678 cumulative IPC: 0.774509 (Simulation time: 0 hr 24 min 34 sec) 
Heartbeat CPU 0 instructions: 24000000 cycles: 26187551 heartbeat IPC: 0.277528 cumulative IPC: 0.686676 (Simulation time: 0 hr 25 min 43 sec) 
Heartbeat CPU 0 instructions: 25000003 cycles: 27432896 heartbeat IPC: 0.802993 cumulative IPC: 0.693372 (Simulation time: 0 hr 26 min 48 sec) 
Heartbeat CPU 0 instructions: 26000000 cycles: 31076204 heartbeat IPC: 0.274475 cumulative IPC: 0.632994 (Simulation time: 0 hr 28 min 4 sec) 
Heartbeat CPU 0 instructions: 27000000 cycles: 32290412 heartbeat IPC: 0.823582 cumulative IPC: 0.641729 (Simulation time: 0 hr 29 min 8 sec) 
Heartbeat CPU 0 instructions: 28000000 cycles: 35756851 heartbeat IPC: 0.28848 cumulative IPC: 0.600854 (Simulation time: 0 hr 30 min 23 sec) 
Heartbeat CPU 0 instructions: 29000000 cycles: 36975911 heartbeat IPC: 0.820304 cumulative IPC: 0.609435 (Simulation time: 0 hr 31 min 28 sec) 
Heartbeat CPU 0 instructions: 30000003 cycles: 38291575 heartbeat IPC: 0.760075 cumulative IPC: 0.615535 (Simulation time: 0 hr 32 min 35 sec) 
Heartbeat CPU 0 instructions: 31000002 cycles: 39458289 heartbeat IPC: 0.857107 cumulative IPC: 0.623908 (Simulation time: 0 hr 33 min 44 sec) 
Heartbeat CPU 0 instructions: 32000000 cycles: 40738098 heartbeat IPC: 0.781365 cumulative IPC: 0.629676 (Simulation time: 0 hr 34 min 44 sec) 
Heartbeat CPU 0 instructions: 33000003 cycles: 41902473 heartbeat IPC: 0.858832 cumulative IPC: 0.637067 (Simulation time: 0 hr 35 min 52 sec) 
Heartbeat CPU 0 instructions: 34000002 cycles: 43195914 heartbeat IPC: 0.773131 cumulative IPC: 0.641773 (Simulation time: 0 hr 36 min 56 sec) 
Heartbeat CPU 0 instructions: 35000003 cycles: 44382494 heartbeat IPC: 0.842759 cumulative IPC: 0.647954 (Simulation time: 0 hr 38 min 2 sec) 
Heartbeat CPU 0 instructions: 36000000 cycles: 45729411 heartbeat IPC: 0.742434 cumulative IPC: 0.651141 (Simulation time: 0 hr 39 min 5 sec) 
Heartbeat CPU 0 instructions: 37000000 cycles: 47058907 heartbeat IPC: 0.752165 cumulative IPC: 0.654396 (Simulation time: 0 hr 40 min 13 sec) 
Heartbeat CPU 0 instructions: 38000001 cycles: 48388445 heartbeat IPC: 0.752142 cumulative IPC: 0.657447 (Simulation time: 0 hr 41 min 19 sec) 
Heartbeat CPU 0 instructions: 39000000 cycles: 49717834 heartbeat IPC: 0.752225 cumulative IPC: 0.660316 (Simulation time: 0 hr 42 min 25 sec) 
Heartbeat CPU 0 instructions: 40000000 cycles: 51047374 heartbeat IPC: 0.75214 cumulative IPC: 0.663014 (Simulation time: 0 hr 43 min 38 sec) 
Heartbeat CPU 0 instructions: 41000000 cycles: 52307499 heartbeat IPC: 0.793572 cumulative IPC: 0.666552 (Simulation time: 0 hr 44 min 44 sec) 
Heartbeat CPU 0 instructions: 42000000 cycles: 53636980 heartbeat IPC: 0.752173 cumulative IPC: 0.668931 (Simulation time: 0 hr 45 min 54 sec) 
Heartbeat CPU 0 instructions: 43000002 cycles: 54966649 heartbeat IPC: 0.752068 cumulative IPC: 0.67118 (Simulation time: 0 hr 47 min 0 sec) 
Heartbeat CPU 0 instructions: 44000000 cycles: 56296150 heartbeat IPC: 0.75216 cumulative IPC: 0.673312 (Simulation time: 0 hr 48 min 9 sec) 
Heartbeat CPU 0 instructions: 45000001 cycles: 57625475 heartbeat IPC: 0.752262 cumulative IPC: 0.675337 (Simulation time: 0 hr 49 min 27 sec) 
Heartbeat CPU 0 instructions: 46000003 cycles: 59009499 heartbeat IPC: 0.722532 cumulative IPC: 0.676565 (Simulation time: 0 hr 50 min 39 sec) 
Heartbeat CPU 0 instructions: 47000001 cycles: 60128029 heartbeat IPC: 0.894029 cumulative IPC: 0.681042 (Simulation time: 0 hr 51 min 33 sec) 
Heartbeat CPU 0 instructions: 48000000 cycles: 61488986 heartbeat IPC: 0.734776 cumulative IPC: 0.682355 (Simulation time: 0 hr 52 min 27 sec) 
Heartbeat CPU 0 instructions: 49000003 cycles: 71093462 heartbeat IPC: 0.104118 cumulative IPC: 0.597299 (Simulation time: 0 hr 54 min 18 sec) 
Heartbeat CPU 0 instructions: 50000001 cycles: 72891422 heartbeat IPC: 0.556185 cumulative IPC: 0.596197 (Simulation time: 0 hr 55 min 26 sec) 
Heartbeat CPU 0 instructions: 51000001 cycles: 74487728 heartbeat IPC: 0.626446 cumulative IPC: 0.5969 (Simulation time: 0 hr 56 min 34 sec) 
Heartbeat CPU 0 instructions: 52000000 cycles: 76129936 heartbeat IPC: 0.608936 cumulative IPC: 0.597181 (Simulation time: 0 hr 57 min 47 sec) 
Heartbeat CPU 0 instructions: 53000000 cycles: 77752035 heartbeat IPC: 0.616485 cumulative IPC: 0.597616 (Simulation time: 0 hr 58 min 55 sec) 
Heartbeat CPU 0 instructions: 54000000 cycles: 79372487 heartbeat IPC: 0.617112 cumulative IPC: 0.598045 (Simulation time: 1 hr 0 min 8 sec) 
Heartbeat CPU 0 instructions: 55000000 cycles: 80963144 heartbeat IPC: 0.628671 cumulative IPC: 0.598694 (Simulation time: 1 hr 1 min 14 sec) 
Heartbeat CPU 0 instructions: 56000000 cycles: 82579646 heartbeat IPC: 0.61862 cumulative IPC: 0.599113 (Simulation time: 1 hr 2 min 16 sec) 
Heartbeat CPU 0 instructions: 57000003 cycles: 84226964 heartbeat IPC: 0.607049 cumulative IPC: 0.59928 (Simulation time: 1 hr 3 min 19 sec) 
Heartbeat CPU 0 instructions: 58000002 cycles: 85818882 heartbeat IPC: 0.628172 cumulative IPC: 0.599855 (Simulation time: 1 hr 4 min 22 sec) 
Heartbeat CPU 0 instructions: 59000001 cycles: 87431748 heartbeat IPC: 0.620014 cumulative IPC: 0.600253 (Simulation time: 1 hr 5 min 22 sec) 
Heartbeat CPU 0 instructions: 60000000 cycles: 89062423 heartbeat IPC: 0.613242 cumulative IPC: 0.600507 (Simulation time: 1 hr 6 min 17 sec) 
Heartbeat CPU 0 instructions: 61000000 cycles: 90661453 heartbeat IPC: 0.625379 cumulative IPC: 0.600976 (Simulation time: 1 hr 7 min 14 sec) 
Heartbeat CPU 0 instructions: 62000000 cycles: 92256619 heartbeat IPC: 0.626894 cumulative IPC: 0.601454 (Simulation time: 1 hr 7 min 59 sec) 
Heartbeat CPU 0 instructions: 63000002 cycles: 93866048 heartbeat IPC: 0.62134 cumulative IPC: 0.601818 (Simulation time: 1 hr 8 min 45 sec) 
Heartbeat CPU 0 instructions: 64000000 cycles: 95491394 heartbeat IPC: 0.615252 cumulative IPC: 0.602061 (Simulation time: 1 hr 9 min 24 sec) 
Heartbeat CPU 0 instructions: 65000003 cycles: 97137090 heartbeat IPC: 0.607647 cumulative IPC: 0.602162 (Simulation time: 1 hr 10 min 5 sec) 
Heartbeat CPU 0 instructions: 66000001 cycles: 98768607 heartbeat IPC: 0.612925 cumulative IPC: 0.602351 (Simulation time: 1 hr 10 min 43 sec) 
Heartbeat CPU 0 instructions: 67000000 cycles: 100379693 heartbeat IPC: 0.620699 cumulative IPC: 0.602663 (Simulation time: 1 hr 11 min 21 sec) 
Heartbeat CPU 0 instructions: 68000000 cycles: 102002527 heartbeat IPC: 0.616206 cumulative IPC: 0.602892 (Simulation time: 1 hr 11 min 57 sec) 
Heartbeat CPU 0 instructions: 69000000 cycles: 103618494 heartbeat IPC: 0.618825 cumulative IPC: 0.603155 (Simulation time: 1 hr 12 min 33 sec) 
Heartbeat CPU 0 instructions: 70000003 cycles: 105203155 heartbeat IPC: 0.631052 cumulative IPC: 0.603599 (Simulation time: 1 hr 13 min 9 sec) 
Heartbeat CPU 0 instructions: 71000003 cycles: 106830787 heartbeat IPC: 0.614389 cumulative IPC: 0.603773 (Simulation time: 1 hr 13 min 45 sec) 
Heartbeat CPU 0 instructions: 72000000 cycles: 108434908 heartbeat IPC: 0.623393 cumulative IPC: 0.60408 (Simulation time: 1 hr 14 min 20 sec) 
Heartbeat CPU 0 instructions: 73000002 cycles: 110058433 heartbeat IPC: 0.615945 cumulative IPC: 0.604265 (Simulation time: 1 hr 14 min 52 sec) 
Heartbeat CPU 0 instructions: 74000000 cycles: 111694028 heartbeat IPC: 0.611397 cumulative IPC: 0.604375 (Simulation time: 1 hr 15 min 18 sec) 
Heartbeat CPU 0 instructions: 75000000 cycles: 113331354 heartbeat IPC: 0.610752 cumulative IPC: 0.604472 (Simulation time: 1 hr 15 min 43 sec) 
Heartbeat CPU 0 instructions: 76000000 cycles: 114926708 heartbeat IPC: 0.62682 cumulative IPC: 0.604799 (Simulation time: 1 hr 16 min 7 sec) 
Heartbeat CPU 0 instructions: 77000003 cycles: 116569739 heartbeat IPC: 0.608633 cumulative IPC: 0.604856 (Simulation time: 1 hr 16 min 30 sec) 
Heartbeat CPU 0 instructions: 78000001 cycles: 118181889 heartbeat IPC: 0.620288 cumulative IPC: 0.605077 (Simulation time: 1 hr 16 min 51 sec) 
Heartbeat CPU 0 instructions: 79000001 cycles: 119769515 heartbeat IPC: 0.629871 cumulative IPC: 0.605422 (Simulation time: 1 hr 17 min 11 sec) 
Heartbeat CPU 0 instructions: 80000000 cycles: 121374449 heartbeat IPC: 0.623078 cumulative IPC: 0.605668 (Simulation time: 1 hr 17 min 30 sec) 
Heartbeat CPU 0 instructions: 81000001 cycles: 122986754 heartbeat IPC: 0.620231 cumulative IPC: 0.605868 (Simulation time: 1 hr 17 min 47 sec) 
Heartbeat CPU 0 instructions: 82000000 cycles: 124597694 heartbeat IPC: 0.620755 cumulative IPC: 0.60607 (Simulation time: 1 hr 18 min 0 sec) 
Heartbeat CPU 0 instructions: 83000001 cycles: 126201626 heartbeat IPC: 0.623468 cumulative IPC: 0.606302 (Simulation time: 1 hr 18 min 13 sec) 
Heartbeat CPU 0 instructions: 84000000 cycles: 127803158 heartbeat IPC: 0.624402 cumulative IPC: 0.606539 (Simulation time: 1 hr 18 min 24 sec) 
Heartbeat CPU 0 instructions: 85000001 cycles: 129427547 heartbeat IPC: 0.615617 cumulative IPC: 0.606658 (Simulation time: 1 hr 18 min 35 sec) 
Heartbeat CPU 0 instructions: 86000001 cycles: 131052264 heartbeat IPC: 0.615492 cumulative IPC: 0.606773 (Simulation time: 1 hr 18 min 44 sec) 
Heartbeat CPU 0 instructions: 87000002 cycles: 132671958 heartbeat IPC: 0.617401 cumulative IPC: 0.606909 (Simulation time: 1 hr 18 min 52 sec) 
Heartbeat CPU 0 instructions: 88000000 cycles: 134311382 heartbeat IPC: 0.609969 cumulative IPC: 0.606948 (Simulation time: 1 hr 19 min 0 sec) 
Heartbeat CPU 0 instructions: 89000003 cycles: 135962323 heartbeat IPC: 0.605717 cumulative IPC: 0.606932 (Simulation time: 1 hr 19 min 8 sec) 
Heartbeat CPU 0 instructions: 90000000 cycles: 137616333 heartbeat IPC: 0.604589 cumulative IPC: 0.606903 (Simulation time: 1 hr 19 min 16 sec) 
Heartbeat CPU 0 instructions: 91000002 cycles: 139260665 heartbeat IPC: 0.608151 cumulative IPC: 0.606918 (Simulation time: 1 hr 19 min 23 sec) 
Heartbeat CPU 0 instructions: 92000000 cycles: 140878043 heartbeat IPC: 0.618283 cumulative IPC: 0.607054 (Simulation time: 1 hr 19 min 29 sec) 
Heartbeat CPU 0 instructions: 93000001 cycles: 142512046 heartbeat IPC: 0.611995 cumulative IPC: 0.607113 (Simulation time: 1 hr 19 min 36 sec) 
Heartbeat CPU 0 instructions: 94000000 cycles: 144114257 heartbeat IPC: 0.624137 cumulative IPC: 0.60731 (Simulation time: 1 hr 19 min 42 sec) 
Heartbeat CPU 0 instructions: 95000000 cycles: 145717457 heartbeat IPC: 0.623752 cumulative IPC: 0.607499 (Simulation time: 1 hr 19 min 49 sec) 
Heartbeat CPU 0 instructions: 96000000 cycles: 147335342 heartbeat IPC: 0.618091 cumulative IPC: 0.60762 (Simulation time: 1 hr 19 min 55 sec) 
Heartbeat CPU 0 instructions: 97000002 cycles: 148949989 heartbeat IPC: 0.619332 cumulative IPC: 0.607752 (Simulation time: 1 hr 20 min 1 sec) 
Heartbeat CPU 0 instructions: 98000003 cycles: 150586457 heartbeat IPC: 0.611073 cumulative IPC: 0.60779 (Simulation time: 1 hr 20 min 7 sec) 
Heartbeat CPU 0 instructions: 99000000 cycles: 152173970 heartbeat IPC: 0.629914 cumulative IPC: 0.608029 (Simulation time: 1 hr 20 min 14 sec) 
Heartbeat CPU 0 instructions: 100000000 cycles: 153811846 heartbeat IPC: 0.610547 cumulative IPC: 0.608057 (Simulation time: 1 hr 20 min 21 sec) 
Heartbeat CPU 0 instructions: 101000001 cycles: 155443831 heartbeat IPC: 0.612751 cumulative IPC: 0.608109 (Simulation time: 1 hr 20 min 27 sec) 
Heartbeat CPU 0 instructions: 102000000 cycles: 157078290 heartbeat IPC: 0.611823 cumulative IPC: 0.608149 (Simulation time: 1 hr 20 min 33 sec) 
Heartbeat CPU 0 instructions: 103000000 cycles: 158695439 heartbeat IPC: 0.618372 cumulative IPC: 0.608257 (Simulation time: 1 hr 20 min 40 sec) 
Heartbeat CPU 0 instructions: 104000000 cycles: 160323334 heartbeat IPC: 0.61429 cumulative IPC: 0.60832 (Simulation time: 1 hr 20 min 46 sec) 
Heartbeat CPU 0 instructions: 105000000 cycles: 161963395 heartbeat IPC: 0.609733 cumulative IPC: 0.608335 (Simulation time: 1 hr 20 min 52 sec) 
Heartbeat CPU 0 instructions: 106000001 cycles: 163590978 heartbeat IPC: 0.614409 cumulative IPC: 0.608398 (Simulation time: 1 hr 20 min 58 sec) 
Heartbeat CPU 0 instructions: 107000001 cycles: 165221259 heartbeat IPC: 0.613391 cumulative IPC: 0.608449 (Simulation time: 1 hr 21 min 4 sec) 
Heartbeat CPU 0 instructions: 108000000 cycles: 166855789 heartbeat IPC: 0.611796 cumulative IPC: 0.608483 (Simulation time: 1 hr 21 min 10 sec) 
Heartbeat CPU 0 instructions: 109000003 cycles: 168450577 heartbeat IPC: 0.627044 cumulative IPC: 0.608665 (Simulation time: 1 hr 21 min 16 sec) 
Heartbeat CPU 0 instructions: 110000002 cycles: 170066515 heartbeat IPC: 0.618835 cumulative IPC: 0.608765 (Simulation time: 1 hr 21 min 21 sec) 
Finished CPU 0 instructions: 100000001 cycles: 164267024 cummulative IPC: 0.608765 (Simulation time: 1 hr 21 min 21 sec) 

ChampSim completed all CPUs

Region of Interest Statistics

CPU 0 cummulative IPC: 0.608765 instructions: 100000001 cycles: 164267024
LLC TOTAL     ACCESS:    4812794  HIT:     556219  MISS:    4256575
LLC LOAD      ACCESS:     461818  HIT:      38691  MISS:     423127
LLC RFO       ACCESS:     126472  HIT:     117127  MISS:       9345
LLC PREFETCH  ACCESS:    2860207  HIT:     131743  MISS:    2728464
LLC WRITEBACK ACCESS:    1364297  HIT:     268658  MISS:    1095639
Insertion Distribution: 
	LOAD 27166 0 0 0 0 75089 330406 
	RFO 33 0 0 0 0 8590 724 
	PREF 0 8397 0 0 0 192068 2765739 
	WRITEBACK 0 0 0 0 0 0 1210582 
Total Prefetch Downgrades: 7223
