
*** ChampSim Multicore Out-of-Order Simulator ***

Warmup Instructions: 10000000
Simulation Instructions: 100000000
Configuration: 2
Number of CPUs: 1
LLC sets: 2048
LLC ways: 16
Off-chip DRAM Channels: 1 Width: 64-bit Data Rate: 1600 MT/s

CPU 0 runs /datasets/cs240c-wi22-a00-public/data/Assignment2-gz/omnetpp_340B.trace.gz
CPU 0 L1D next line prefetcher
CPU 0 L2C IP-based stride prefetcher
Initialize SRRIP state
Heartbeat CPU 0 instructions: 1000001 cycles: 576944 heartbeat IPC: 1.73327 cumulative IPC: 1.73327 (Simulation time: 0 hr 0 min 48 sec) 
Heartbeat CPU 0 instructions: 2000000 cycles: 1160917 heartbeat IPC: 1.71241 cumulative IPC: 1.72278 (Simulation time: 0 hr 1 min 32 sec) 
Heartbeat CPU 0 instructions: 3000001 cycles: 1758241 heartbeat IPC: 1.67413 cumulative IPC: 1.70625 (Simulation time: 0 hr 2 min 19 sec) 
Heartbeat CPU 0 instructions: 4000000 cycles: 2379233 heartbeat IPC: 1.61033 cumulative IPC: 1.68121 (Simulation time: 0 hr 3 min 9 sec) 
Heartbeat CPU 0 instructions: 5000002 cycles: 2954596 heartbeat IPC: 1.73804 cumulative IPC: 1.69228 (Simulation time: 0 hr 3 min 58 sec) 
Heartbeat CPU 0 instructions: 6000003 cycles: 3556087 heartbeat IPC: 1.66254 cumulative IPC: 1.68725 (Simulation time: 0 hr 4 min 45 sec) 
Heartbeat CPU 0 instructions: 7000003 cycles: 4205546 heartbeat IPC: 1.53974 cumulative IPC: 1.66447 (Simulation time: 0 hr 5 min 37 sec) 
Heartbeat CPU 0 instructions: 8000000 cycles: 4800166 heartbeat IPC: 1.68174 cumulative IPC: 1.66661 (Simulation time: 0 hr 6 min 22 sec) 
Heartbeat CPU 0 instructions: 9000002 cycles: 5433578 heartbeat IPC: 1.57875 cumulative IPC: 1.65637 (Simulation time: 0 hr 7 min 12 sec) 
Heartbeat CPU 0 instructions: 10000002 cycles: 6028117 heartbeat IPC: 1.68198 cumulative IPC: 1.65889 (Simulation time: 0 hr 8 min 0 sec) 

Warmup complete CPU 0 instructions: 10000002 cycles: 6028117 (Simulation time: 0 hr 8 min 0 sec) 

Heartbeat CPU 0 instructions: 11000000 cycles: 9690343 heartbeat IPC: 0.273057 cumulative IPC: 0.273057 (Simulation time: 0 hr 9 min 0 sec) 
Heartbeat CPU 0 instructions: 12000000 cycles: 13144159 heartbeat IPC: 0.289535 cumulative IPC: 0.281055 (Simulation time: 0 hr 9 min 59 sec) 
Heartbeat CPU 0 instructions: 13000000 cycles: 16996251 heartbeat IPC: 0.259599 cumulative IPC: 0.273519 (Simulation time: 0 hr 11 min 2 sec) 
Heartbeat CPU 0 instructions: 14000001 cycles: 20804151 heartbeat IPC: 0.262612 cumulative IPC: 0.270709 (Simulation time: 0 hr 12 min 3 sec) 
Heartbeat CPU 0 instructions: 15000003 cycles: 24631744 heartbeat IPC: 0.261261 cumulative IPC: 0.268765 (Simulation time: 0 hr 13 min 12 sec) 
Heartbeat CPU 0 instructions: 16000000 cycles: 28738467 heartbeat IPC: 0.243502 cumulative IPC: 0.264197 (Simulation time: 0 hr 14 min 12 sec) 
Heartbeat CPU 0 instructions: 17000000 cycles: 32479437 heartbeat IPC: 0.26731 cumulative IPC: 0.264637 (Simulation time: 0 hr 15 min 15 sec) 
Heartbeat CPU 0 instructions: 18000000 cycles: 36370326 heartbeat IPC: 0.257011 cumulative IPC: 0.263659 (Simulation time: 0 hr 16 min 19 sec) 
Heartbeat CPU 0 instructions: 19000000 cycles: 40686808 heartbeat IPC: 0.23167 cumulative IPC: 0.259675 (Simulation time: 0 hr 17 min 27 sec) 
Heartbeat CPU 0 instructions: 20000000 cycles: 44740869 heartbeat IPC: 0.246666 cumulative IPC: 0.258313 (Simulation time: 0 hr 18 min 37 sec) 
Heartbeat CPU 0 instructions: 21000000 cycles: 48194311 heartbeat IPC: 0.289566 cumulative IPC: 0.260872 (Simulation time: 0 hr 19 min 41 sec) 
Heartbeat CPU 0 instructions: 22000001 cycles: 52083161 heartbeat IPC: 0.257146 cumulative IPC: 0.260558 (Simulation time: 0 hr 20 min 46 sec) 
Heartbeat CPU 0 instructions: 23000001 cycles: 55905317 heartbeat IPC: 0.261632 cumulative IPC: 0.26064 (Simulation time: 0 hr 21 min 54 sec) 
Heartbeat CPU 0 instructions: 24000000 cycles: 59698024 heartbeat IPC: 0.263664 cumulative IPC: 0.260854 (Simulation time: 0 hr 23 min 8 sec) 
Heartbeat CPU 0 instructions: 25000000 cycles: 63712875 heartbeat IPC: 0.249075 cumulative IPC: 0.260034 (Simulation time: 0 hr 24 min 21 sec) 
Heartbeat CPU 0 instructions: 26000001 cycles: 67752174 heartbeat IPC: 0.247568 cumulative IPC: 0.259218 (Simulation time: 0 hr 25 min 26 sec) 
Heartbeat CPU 0 instructions: 27000000 cycles: 71775959 heartbeat IPC: 0.248522 cumulative IPC: 0.258564 (Simulation time: 0 hr 26 min 28 sec) 
Heartbeat CPU 0 instructions: 28000000 cycles: 75859618 heartbeat IPC: 0.244878 cumulative IPC: 0.257763 (Simulation time: 0 hr 27 min 38 sec) 
Heartbeat CPU 0 instructions: 29000003 cycles: 79931921 heartbeat IPC: 0.245562 cumulative IPC: 0.257091 (Simulation time: 0 hr 28 min 46 sec) 
Heartbeat CPU 0 instructions: 30000000 cycles: 83575755 heartbeat IPC: 0.274435 cumulative IPC: 0.257906 (Simulation time: 0 hr 29 min 52 sec) 
Heartbeat CPU 0 instructions: 31000000 cycles: 87442041 heartbeat IPC: 0.258646 cumulative IPC: 0.257941 (Simulation time: 0 hr 30 min 54 sec) 
Heartbeat CPU 0 instructions: 32000000 cycles: 91233631 heartbeat IPC: 0.263742 cumulative IPC: 0.258199 (Simulation time: 0 hr 31 min 56 sec) 
Heartbeat CPU 0 instructions: 33000003 cycles: 94953179 heartbeat IPC: 0.268851 cumulative IPC: 0.258645 (Simulation time: 0 hr 32 min 57 sec) 
Heartbeat CPU 0 instructions: 34000001 cycles: 99075486 heartbeat IPC: 0.242582 cumulative IPC: 0.257933 (Simulation time: 0 hr 33 min 56 sec) 
Heartbeat CPU 0 instructions: 35000002 cycles: 102608027 heartbeat IPC: 0.283083 cumulative IPC: 0.258853 (Simulation time: 0 hr 34 min 54 sec) 
Heartbeat CPU 0 instructions: 36000000 cycles: 106898728 heartbeat IPC: 0.233062 cumulative IPC: 0.257756 (Simulation time: 0 hr 36 min 0 sec) 
Heartbeat CPU 0 instructions: 37000000 cycles: 111237658 heartbeat IPC: 0.230472 cumulative IPC: 0.256631 (Simulation time: 0 hr 37 min 1 sec) 
Heartbeat CPU 0 instructions: 38000000 cycles: 114980483 heartbeat IPC: 0.267178 cumulative IPC: 0.256993 (Simulation time: 0 hr 38 min 1 sec) 
Heartbeat CPU 0 instructions: 39000001 cycles: 119127185 heartbeat IPC: 0.241156 cumulative IPC: 0.256412 (Simulation time: 0 hr 38 min 56 sec) 
Heartbeat CPU 0 instructions: 40000000 cycles: 122588593 heartbeat IPC: 0.288899 cumulative IPC: 0.257377 (Simulation time: 0 hr 39 min 52 sec) 
Heartbeat CPU 0 instructions: 41000000 cycles: 126263761 heartbeat IPC: 0.272096 cumulative IPC: 0.257827 (Simulation time: 0 hr 40 min 44 sec) 
Heartbeat CPU 0 instructions: 42000001 cycles: 130466633 heartbeat IPC: 0.237933 cumulative IPC: 0.257155 (Simulation time: 0 hr 41 min 41 sec) 
Heartbeat CPU 0 instructions: 43000001 cycles: 134581874 heartbeat IPC: 0.242999 cumulative IPC: 0.256702 (Simulation time: 0 hr 42 min 38 sec) 
Heartbeat CPU 0 instructions: 44000000 cycles: 138308562 heartbeat IPC: 0.268335 cumulative IPC: 0.25703 (Simulation time: 0 hr 43 min 37 sec) 
Heartbeat CPU 0 instructions: 45000003 cycles: 142222044 heartbeat IPC: 0.255528 cumulative IPC: 0.256986 (Simulation time: 0 hr 44 min 35 sec) 
Heartbeat CPU 0 instructions: 46000003 cycles: 146408023 heartbeat IPC: 0.238893 cumulative IPC: 0.256447 (Simulation time: 0 hr 45 min 34 sec) 
Heartbeat CPU 0 instructions: 47000000 cycles: 149734041 heartbeat IPC: 0.300659 cumulative IPC: 0.25747 (Simulation time: 0 hr 46 min 26 sec) 
Heartbeat CPU 0 instructions: 48000000 cycles: 153812803 heartbeat IPC: 0.245172 cumulative IPC: 0.257131 (Simulation time: 0 hr 47 min 24 sec) 
Heartbeat CPU 0 instructions: 49000000 cycles: 156938210 heartbeat IPC: 0.319958 cumulative IPC: 0.258432 (Simulation time: 0 hr 48 min 17 sec) 
Heartbeat CPU 0 instructions: 50000001 cycles: 161055268 heartbeat IPC: 0.242892 cumulative IPC: 0.258019 (Simulation time: 0 hr 49 min 16 sec) 
Heartbeat CPU 0 instructions: 51000003 cycles: 164849869 heartbeat IPC: 0.263533 cumulative IPC: 0.258151 (Simulation time: 0 hr 50 min 17 sec) 
Heartbeat CPU 0 instructions: 52000000 cycles: 168903740 heartbeat IPC: 0.246677 cumulative IPC: 0.257865 (Simulation time: 0 hr 51 min 20 sec) 
Heartbeat CPU 0 instructions: 53000000 cycles: 173388025 heartbeat IPC: 0.223001 cumulative IPC: 0.256931 (Simulation time: 0 hr 52 min 20 sec) 
Heartbeat CPU 0 instructions: 54000002 cycles: 177531534 heartbeat IPC: 0.241342 cumulative IPC: 0.256555 (Simulation time: 0 hr 53 min 21 sec) 
Heartbeat CPU 0 instructions: 55000001 cycles: 181490446 heartbeat IPC: 0.252594 cumulative IPC: 0.256465 (Simulation time: 0 hr 54 min 21 sec) 
Heartbeat CPU 0 instructions: 56000000 cycles: 185790131 heartbeat IPC: 0.232575 cumulative IPC: 0.255894 (Simulation time: 0 hr 55 min 23 sec) 
Heartbeat CPU 0 instructions: 57000001 cycles: 189904616 heartbeat IPC: 0.243044 cumulative IPC: 0.255606 (Simulation time: 0 hr 56 min 20 sec) 
Heartbeat CPU 0 instructions: 58000000 cycles: 193261576 heartbeat IPC: 0.297888 cumulative IPC: 0.256364 (Simulation time: 0 hr 57 min 12 sec) 
Heartbeat CPU 0 instructions: 59000003 cycles: 197226882 heartbeat IPC: 0.252188 cumulative IPC: 0.256278 (Simulation time: 0 hr 58 min 10 sec) 
Heartbeat CPU 0 instructions: 60000000 cycles: 201658524 heartbeat IPC: 0.225649 cumulative IPC: 0.255584 (Simulation time: 0 hr 59 min 9 sec) 
Heartbeat CPU 0 instructions: 61000001 cycles: 205919646 heartbeat IPC: 0.23468 cumulative IPC: 0.255138 (Simulation time: 1 hr 0 min 1 sec) 
Heartbeat CPU 0 instructions: 62000000 cycles: 210201260 heartbeat IPC: 0.233557 cumulative IPC: 0.254686 (Simulation time: 1 hr 0 min 56 sec) 
Heartbeat CPU 0 instructions: 63000001 cycles: 213832425 heartbeat IPC: 0.275394 cumulative IPC: 0.255048 (Simulation time: 1 hr 1 min 47 sec) 
Heartbeat CPU 0 instructions: 64000000 cycles: 217639002 heartbeat IPC: 0.262703 cumulative IPC: 0.255185 (Simulation time: 1 hr 2 min 34 sec) 
Heartbeat CPU 0 instructions: 65000001 cycles: 221171158 heartbeat IPC: 0.283113 cumulative IPC: 0.255644 (Simulation time: 1 hr 3 min 23 sec) 
Heartbeat CPU 0 instructions: 66000002 cycles: 225283816 heartbeat IPC: 0.243152 cumulative IPC: 0.25541 (Simulation time: 1 hr 4 min 11 sec) 
Heartbeat CPU 0 instructions: 67000002 cycles: 229177577 heartbeat IPC: 0.256821 cumulative IPC: 0.255434 (Simulation time: 1 hr 4 min 56 sec) 
Heartbeat CPU 0 instructions: 68000000 cycles: 233077798 heartbeat IPC: 0.256395 cumulative IPC: 0.255451 (Simulation time: 1 hr 5 min 43 sec) 
Heartbeat CPU 0 instructions: 69000000 cycles: 237135317 heartbeat IPC: 0.246456 cumulative IPC: 0.255293 (Simulation time: 1 hr 6 min 27 sec) 
Heartbeat CPU 0 instructions: 70000001 cycles: 240819836 heartbeat IPC: 0.271406 cumulative IPC: 0.255546 (Simulation time: 1 hr 7 min 8 sec) 
Heartbeat CPU 0 instructions: 71000003 cycles: 244733832 heartbeat IPC: 0.255494 cumulative IPC: 0.255545 (Simulation time: 1 hr 7 min 46 sec) 
Heartbeat CPU 0 instructions: 72000000 cycles: 249139725 heartbeat IPC: 0.226968 cumulative IPC: 0.255027 (Simulation time: 1 hr 8 min 25 sec) 
Heartbeat CPU 0 instructions: 73000002 cycles: 253151097 heartbeat IPC: 0.249292 cumulative IPC: 0.254934 (Simulation time: 1 hr 9 min 0 sec) 
Heartbeat CPU 0 instructions: 74000000 cycles: 256989901 heartbeat IPC: 0.260497 cumulative IPC: 0.255019 (Simulation time: 1 hr 9 min 34 sec) 
Heartbeat CPU 0 instructions: 75000003 cycles: 261072929 heartbeat IPC: 0.244917 cumulative IPC: 0.254857 (Simulation time: 1 hr 10 min 11 sec) 
Heartbeat CPU 0 instructions: 76000000 cycles: 264917764 heartbeat IPC: 0.260088 cumulative IPC: 0.254935 (Simulation time: 1 hr 10 min 48 sec) 
Heartbeat CPU 0 instructions: 77000002 cycles: 269343147 heartbeat IPC: 0.22597 cumulative IPC: 0.254448 (Simulation time: 1 hr 11 min 23 sec) 
Heartbeat CPU 0 instructions: 78000003 cycles: 273171806 heartbeat IPC: 0.261188 cumulative IPC: 0.254545 (Simulation time: 1 hr 11 min 55 sec) 
Heartbeat CPU 0 instructions: 79000002 cycles: 277038617 heartbeat IPC: 0.258611 cumulative IPC: 0.254603 (Simulation time: 1 hr 12 min 26 sec) 
Heartbeat CPU 0 instructions: 80000000 cycles: 280878235 heartbeat IPC: 0.260442 cumulative IPC: 0.254684 (Simulation time: 1 hr 12 min 58 sec) 
Heartbeat CPU 0 instructions: 81000002 cycles: 285040900 heartbeat IPC: 0.240231 cumulative IPC: 0.254469 (Simulation time: 1 hr 13 min 29 sec) 
Heartbeat CPU 0 instructions: 82000000 cycles: 289508077 heartbeat IPC: 0.223855 cumulative IPC: 0.253986 (Simulation time: 1 hr 14 min 0 sec) 
Heartbeat CPU 0 instructions: 83000002 cycles: 293259777 heartbeat IPC: 0.266546 cumulative IPC: 0.25415 (Simulation time: 1 hr 14 min 29 sec) 
Heartbeat CPU 0 instructions: 84000000 cycles: 297191189 heartbeat IPC: 0.254361 cumulative IPC: 0.254153 (Simulation time: 1 hr 14 min 55 sec) 
Heartbeat CPU 0 instructions: 85000000 cycles: 301082039 heartbeat IPC: 0.257013 cumulative IPC: 0.254191 (Simulation time: 1 hr 15 min 20 sec) 
Heartbeat CPU 0 instructions: 86000000 cycles: 305130312 heartbeat IPC: 0.247019 cumulative IPC: 0.254094 (Simulation time: 1 hr 15 min 44 sec) 
Heartbeat CPU 0 instructions: 87000001 cycles: 308917960 heartbeat IPC: 0.264016 cumulative IPC: 0.254218 (Simulation time: 1 hr 16 min 6 sec) 
Heartbeat CPU 0 instructions: 88000000 cycles: 312803495 heartbeat IPC: 0.257365 cumulative IPC: 0.254258 (Simulation time: 1 hr 16 min 28 sec) 
Heartbeat CPU 0 instructions: 89000003 cycles: 316375856 heartbeat IPC: 0.279928 cumulative IPC: 0.254553 (Simulation time: 1 hr 16 min 47 sec) 
Heartbeat CPU 0 instructions: 90000000 cycles: 320307191 heartbeat IPC: 0.254366 cumulative IPC: 0.254551 (Simulation time: 1 hr 17 min 6 sec) 
Heartbeat CPU 0 instructions: 91000001 cycles: 323945372 heartbeat IPC: 0.274863 cumulative IPC: 0.254783 (Simulation time: 1 hr 17 min 24 sec) 
Heartbeat CPU 0 instructions: 92000000 cycles: 328009025 heartbeat IPC: 0.246084 cumulative IPC: 0.254673 (Simulation time: 1 hr 17 min 42 sec) 
Heartbeat CPU 0 instructions: 93000001 cycles: 332372740 heartbeat IPC: 0.229163 cumulative IPC: 0.254332 (Simulation time: 1 hr 17 min 58 sec) 
Heartbeat CPU 0 instructions: 94000001 cycles: 336202545 heartbeat IPC: 0.26111 cumulative IPC: 0.254411 (Simulation time: 1 hr 18 min 12 sec) 
Heartbeat CPU 0 instructions: 95000000 cycles: 340205121 heartbeat IPC: 0.249839 cumulative IPC: 0.254356 (Simulation time: 1 hr 18 min 26 sec) 
Heartbeat CPU 0 instructions: 96000000 cycles: 344492531 heartbeat IPC: 0.233241 cumulative IPC: 0.254089 (Simulation time: 1 hr 18 min 37 sec) 
Heartbeat CPU 0 instructions: 97000000 cycles: 348162861 heartbeat IPC: 0.272455 cumulative IPC: 0.254286 (Simulation time: 1 hr 18 min 46 sec) 
Heartbeat CPU 0 instructions: 98000000 cycles: 352418419 heartbeat IPC: 0.234987 cumulative IPC: 0.254049 (Simulation time: 1 hr 18 min 55 sec) 
Heartbeat CPU 0 instructions: 99000000 cycles: 356875293 heartbeat IPC: 0.224373 cumulative IPC: 0.253672 (Simulation time: 1 hr 19 min 5 sec) 
Heartbeat CPU 0 instructions: 100000000 cycles: 360976450 heartbeat IPC: 0.243834 cumulative IPC: 0.253558 (Simulation time: 1 hr 19 min 13 sec) 
Heartbeat CPU 0 instructions: 101000000 cycles: 364921786 heartbeat IPC: 0.253464 cumulative IPC: 0.253557 (Simulation time: 1 hr 19 min 21 sec) 
Heartbeat CPU 0 instructions: 102000003 cycles: 369166596 heartbeat IPC: 0.235583 cumulative IPC: 0.253347 (Simulation time: 1 hr 19 min 28 sec) 
Heartbeat CPU 0 instructions: 103000000 cycles: 373086751 heartbeat IPC: 0.255091 cumulative IPC: 0.253366 (Simulation time: 1 hr 19 min 35 sec) 
Heartbeat CPU 0 instructions: 104000000 cycles: 376924571 heartbeat IPC: 0.260565 cumulative IPC: 0.25344 (Simulation time: 1 hr 19 min 42 sec) 
Heartbeat CPU 0 instructions: 105000003 cycles: 381067820 heartbeat IPC: 0.241357 cumulative IPC: 0.253307 (Simulation time: 1 hr 19 min 49 sec) 
Heartbeat CPU 0 instructions: 106000001 cycles: 384705939 heartbeat IPC: 0.274867 cumulative IPC: 0.253514 (Simulation time: 1 hr 19 min 56 sec) 
Heartbeat CPU 0 instructions: 107000000 cycles: 388775285 heartbeat IPC: 0.245739 cumulative IPC: 0.253431 (Simulation time: 1 hr 20 min 4 sec) 
Heartbeat CPU 0 instructions: 108000000 cycles: 392659903 heartbeat IPC: 0.257426 cumulative IPC: 0.253471 (Simulation time: 1 hr 20 min 11 sec) 
Heartbeat CPU 0 instructions: 109000000 cycles: 396975452 heartbeat IPC: 0.23172 cumulative IPC: 0.253231 (Simulation time: 1 hr 20 min 18 sec) 
Heartbeat CPU 0 instructions: 110000000 cycles: 400645850 heartbeat IPC: 0.27245 cumulative IPC: 0.25341 (Simulation time: 1 hr 20 min 26 sec) 
Finished CPU 0 instructions: 100000000 cycles: 394617737 cummulative IPC: 0.25341 (Simulation time: 1 hr 20 min 26 sec) 

ChampSim completed all CPUs

Region of Interest Statistics

CPU 0 cummulative IPC: 0.25341 instructions: 100000000 cycles: 394617737
LLC TOTAL     ACCESS:    4309304  HIT:    1315152  MISS:    2994152
LLC LOAD      ACCESS:    1523173  HIT:     431875  MISS:    1091298
LLC RFO       ACCESS:     250019  HIT:      85581  MISS:     164438
LLC PREFETCH  ACCESS:    1530067  HIT:     180439  MISS:    1349628
LLC WRITEBACK ACCESS:    1006045  HIT:     617257  MISS:     388788
Insertion Distribution: 
	LOAD 165774 0 0 0 0 151419 873491 
	RFO 63790 0 0 0 0 52949 64145 
	PREF 0 13072 0 0 0 54900 1429645 
	WRITEBACK 0 0 0 0 0 0 419667 
Total Prefetch Downgrades: 16273
