
*** ChampSim Multicore Out-of-Order Simulator ***

Warmup Instructions: 10000000
Simulation Instructions: 100000000
Configuration: 2
Number of CPUs: 1
LLC sets: 2048
LLC ways: 16
Off-chip DRAM Channels: 1 Width: 64-bit Data Rate: 1600 MT/s

CPU 0 runs /datasets/cs240c-wi22-a00-public/data/Assignment2-gz/omnetpp_4B.trace.gz
CPU 0 L1D next line prefetcher
CPU 0 L2C IP-based stride prefetcher
Initialize SRRIP state
Heartbeat CPU 0 instructions: 1000001 cycles: 566984 heartbeat IPC: 1.76372 cumulative IPC: 1.76372 (Simulation time: 0 hr 0 min 36 sec) 
Heartbeat CPU 0 instructions: 2000001 cycles: 1135714 heartbeat IPC: 1.7583 cumulative IPC: 1.76101 (Simulation time: 0 hr 1 min 12 sec) 
Heartbeat CPU 0 instructions: 3000001 cycles: 1722945 heartbeat IPC: 1.70291 cumulative IPC: 1.74121 (Simulation time: 0 hr 1 min 47 sec) 
Heartbeat CPU 0 instructions: 4000000 cycles: 2292438 heartbeat IPC: 1.75595 cumulative IPC: 1.74487 (Simulation time: 0 hr 2 min 20 sec) 
Heartbeat CPU 0 instructions: 5000000 cycles: 2866654 heartbeat IPC: 1.7415 cumulative IPC: 1.74419 (Simulation time: 0 hr 2 min 54 sec) 
Heartbeat CPU 0 instructions: 6000000 cycles: 3442838 heartbeat IPC: 1.73556 cumulative IPC: 1.74275 (Simulation time: 0 hr 3 min 28 sec) 
Heartbeat CPU 0 instructions: 7000000 cycles: 4012155 heartbeat IPC: 1.75649 cumulative IPC: 1.7447 (Simulation time: 0 hr 4 min 1 sec) 
Heartbeat CPU 0 instructions: 8000000 cycles: 4565643 heartbeat IPC: 1.80672 cumulative IPC: 1.75222 (Simulation time: 0 hr 4 min 36 sec) 
Heartbeat CPU 0 instructions: 9000001 cycles: 5147742 heartbeat IPC: 1.71792 cumulative IPC: 1.74834 (Simulation time: 0 hr 5 min 13 sec) 
Heartbeat CPU 0 instructions: 10000000 cycles: 5701727 heartbeat IPC: 1.8051 cumulative IPC: 1.75385 (Simulation time: 0 hr 5 min 49 sec) 

Warmup complete CPU 0 instructions: 10000003 cycles: 5701728 (Simulation time: 0 hr 5 min 49 sec) 

Heartbeat CPU 0 instructions: 11000000 cycles: 8862921 heartbeat IPC: 0.316336 cumulative IPC: 0.316335 (Simulation time: 0 hr 6 min 36 sec) 
Heartbeat CPU 0 instructions: 12000000 cycles: 10017252 heartbeat IPC: 0.866303 cumulative IPC: 0.463442 (Simulation time: 0 hr 7 min 10 sec) 
Heartbeat CPU 0 instructions: 13000003 cycles: 11162201 heartbeat IPC: 0.873404 cumulative IPC: 0.549403 (Simulation time: 0 hr 7 min 43 sec) 
Heartbeat CPU 0 instructions: 14000000 cycles: 12282469 heartbeat IPC: 0.892641 cumulative IPC: 0.607834 (Simulation time: 0 hr 8 min 14 sec) 
Heartbeat CPU 0 instructions: 15000000 cycles: 13421693 heartbeat IPC: 0.877791 cumulative IPC: 0.647671 (Simulation time: 0 hr 8 min 48 sec) 
Heartbeat CPU 0 instructions: 16000000 cycles: 16257346 heartbeat IPC: 0.352652 cumulative IPC: 0.568417 (Simulation time: 0 hr 9 min 36 sec) 
Heartbeat CPU 0 instructions: 17000003 cycles: 19101067 heartbeat IPC: 0.351653 cumulative IPC: 0.522414 (Simulation time: 0 hr 10 min 29 sec) 
Heartbeat CPU 0 instructions: 18000002 cycles: 21892855 heartbeat IPC: 0.358193 cumulative IPC: 0.494098 (Simulation time: 0 hr 11 min 18 sec) 
Heartbeat CPU 0 instructions: 19000002 cycles: 24705395 heartbeat IPC: 0.35555 cumulative IPC: 0.473593 (Simulation time: 0 hr 12 min 9 sec) 
Heartbeat CPU 0 instructions: 20000000 cycles: 28039856 heartbeat IPC: 0.299898 cumulative IPC: 0.447665 (Simulation time: 0 hr 13 min 5 sec) 
Heartbeat CPU 0 instructions: 21000000 cycles: 31356923 heartbeat IPC: 0.301471 cumulative IPC: 0.428763 (Simulation time: 0 hr 14 min 3 sec) 
Heartbeat CPU 0 instructions: 22000001 cycles: 34544021 heartbeat IPC: 0.313765 cumulative IPC: 0.416056 (Simulation time: 0 hr 15 min 0 sec) 
Heartbeat CPU 0 instructions: 23000000 cycles: 37373254 heartbeat IPC: 0.353452 cumulative IPC: 0.410463 (Simulation time: 0 hr 15 min 54 sec) 
Heartbeat CPU 0 instructions: 24000000 cycles: 40162542 heartbeat IPC: 0.358514 cumulative IPC: 0.406258 (Simulation time: 0 hr 16 min 48 sec) 
Heartbeat CPU 0 instructions: 25000000 cycles: 42950695 heartbeat IPC: 0.35866 cumulative IPC: 0.402696 (Simulation time: 0 hr 17 min 48 sec) 
Heartbeat CPU 0 instructions: 26000002 cycles: 45716453 heartbeat IPC: 0.361565 cumulative IPC: 0.399853 (Simulation time: 0 hr 18 min 41 sec) 
Heartbeat CPU 0 instructions: 27000001 cycles: 48525686 heartbeat IPC: 0.355969 cumulative IPC: 0.396974 (Simulation time: 0 hr 19 min 34 sec) 
Heartbeat CPU 0 instructions: 28000000 cycles: 51277656 heartbeat IPC: 0.363376 cumulative IPC: 0.394945 (Simulation time: 0 hr 20 min 28 sec) 
Heartbeat CPU 0 instructions: 29000001 cycles: 54119105 heartbeat IPC: 0.351933 cumulative IPC: 0.392421 (Simulation time: 0 hr 21 min 23 sec) 
Heartbeat CPU 0 instructions: 30000000 cycles: 56911262 heartbeat IPC: 0.358146 cumulative IPC: 0.390552 (Simulation time: 0 hr 22 min 13 sec) 
Heartbeat CPU 0 instructions: 31000002 cycles: 59690252 heartbeat IPC: 0.359844 cumulative IPC: 0.388972 (Simulation time: 0 hr 23 min 5 sec) 
Heartbeat CPU 0 instructions: 32000000 cycles: 62507790 heartbeat IPC: 0.354919 cumulative IPC: 0.387283 (Simulation time: 0 hr 24 min 1 sec) 
Heartbeat CPU 0 instructions: 33000000 cycles: 65666408 heartbeat IPC: 0.316594 cumulative IPC: 0.383559 (Simulation time: 0 hr 24 min 56 sec) 
Heartbeat CPU 0 instructions: 34000001 cycles: 68974337 heartbeat IPC: 0.302304 cumulative IPC: 0.379311 (Simulation time: 0 hr 25 min 54 sec) 
Heartbeat CPU 0 instructions: 35000001 cycles: 72003055 heartbeat IPC: 0.330173 cumulative IPC: 0.377066 (Simulation time: 0 hr 26 min 51 sec) 
Heartbeat CPU 0 instructions: 36000000 cycles: 75300194 heartbeat IPC: 0.303293 cumulative IPC: 0.373571 (Simulation time: 0 hr 27 min 49 sec) 
Heartbeat CPU 0 instructions: 37000001 cycles: 78093392 heartbeat IPC: 0.358013 cumulative IPC: 0.372971 (Simulation time: 0 hr 28 min 42 sec) 
Heartbeat CPU 0 instructions: 38000001 cycles: 81291938 heartbeat IPC: 0.312642 cumulative IPC: 0.370418 (Simulation time: 0 hr 29 min 38 sec) 
Heartbeat CPU 0 instructions: 39000001 cycles: 83830845 heartbeat IPC: 0.39387 cumulative IPC: 0.37118 (Simulation time: 0 hr 30 min 29 sec) 
Heartbeat CPU 0 instructions: 40000000 cycles: 84953249 heartbeat IPC: 0.890944 cumulative IPC: 0.378542 (Simulation time: 0 hr 31 min 10 sec) 
Heartbeat CPU 0 instructions: 41000001 cycles: 86079524 heartbeat IPC: 0.887883 cumulative IPC: 0.385679 (Simulation time: 0 hr 31 min 56 sec) 
Heartbeat CPU 0 instructions: 42000001 cycles: 87213660 heartbeat IPC: 0.881728 cumulative IPC: 0.392581 (Simulation time: 0 hr 32 min 42 sec) 
Heartbeat CPU 0 instructions: 43000002 cycles: 88432985 heartbeat IPC: 0.820127 cumulative IPC: 0.398882 (Simulation time: 0 hr 33 min 26 sec) 
Heartbeat CPU 0 instructions: 44000000 cycles: 91338882 heartbeat IPC: 0.344127 cumulative IPC: 0.397024 (Simulation time: 0 hr 34 min 27 sec) 
Heartbeat CPU 0 instructions: 45000000 cycles: 94228008 heartbeat IPC: 0.346125 cumulative IPC: 0.395363 (Simulation time: 0 hr 35 min 23 sec) 
Heartbeat CPU 0 instructions: 46000000 cycles: 97580048 heartbeat IPC: 0.298326 cumulative IPC: 0.391823 (Simulation time: 0 hr 36 min 18 sec) 
Heartbeat CPU 0 instructions: 47000000 cycles: 100913203 heartbeat IPC: 0.300016 cumulative IPC: 0.388609 (Simulation time: 0 hr 37 min 16 sec) 
Heartbeat CPU 0 instructions: 48000000 cycles: 104067470 heartbeat IPC: 0.317031 cumulative IPC: 0.386313 (Simulation time: 0 hr 38 min 17 sec) 
Heartbeat CPU 0 instructions: 49000000 cycles: 106975845 heartbeat IPC: 0.343835 cumulative IPC: 0.385093 (Simulation time: 0 hr 39 min 22 sec) 
Heartbeat CPU 0 instructions: 50000001 cycles: 109774137 heartbeat IPC: 0.357361 cumulative IPC: 0.384348 (Simulation time: 0 hr 40 min 16 sec) 
Heartbeat CPU 0 instructions: 51000003 cycles: 112573533 heartbeat IPC: 0.357221 cumulative IPC: 0.383637 (Simulation time: 0 hr 41 min 6 sec) 
Heartbeat CPU 0 instructions: 52000000 cycles: 115352279 heartbeat IPC: 0.359873 cumulative IPC: 0.383035 (Simulation time: 0 hr 41 min 57 sec) 
Heartbeat CPU 0 instructions: 53000003 cycles: 118147306 heartbeat IPC: 0.357779 cumulative IPC: 0.382407 (Simulation time: 0 hr 42 min 54 sec) 
Heartbeat CPU 0 instructions: 54000001 cycles: 120910514 heartbeat IPC: 0.361897 cumulative IPC: 0.381915 (Simulation time: 0 hr 43 min 48 sec) 
Heartbeat CPU 0 instructions: 55000001 cycles: 123839747 heartbeat IPC: 0.341386 cumulative IPC: 0.38091 (Simulation time: 0 hr 44 min 46 sec) 
Heartbeat CPU 0 instructions: 56000000 cycles: 126645806 heartbeat IPC: 0.356371 cumulative IPC: 0.380341 (Simulation time: 0 hr 45 min 35 sec) 
Heartbeat CPU 0 instructions: 57000003 cycles: 129413341 heartbeat IPC: 0.361333 cumulative IPC: 0.379916 (Simulation time: 0 hr 46 min 18 sec) 
Heartbeat CPU 0 instructions: 58000001 cycles: 132394751 heartbeat IPC: 0.335411 cumulative IPC: 0.378869 (Simulation time: 0 hr 47 min 5 sec) 
Heartbeat CPU 0 instructions: 59000001 cycles: 135678887 heartbeat IPC: 0.304494 cumulative IPC: 0.376989 (Simulation time: 0 hr 47 min 49 sec) 
Heartbeat CPU 0 instructions: 60000000 cycles: 138658739 heartbeat IPC: 0.335587 cumulative IPC: 0.376061 (Simulation time: 0 hr 48 min 31 sec) 
Heartbeat CPU 0 instructions: 61000001 cycles: 141711522 heartbeat IPC: 0.32757 cumulative IPC: 0.374973 (Simulation time: 0 hr 49 min 11 sec) 
Heartbeat CPU 0 instructions: 62000000 cycles: 145042918 heartbeat IPC: 0.300174 cumulative IPC: 0.373185 (Simulation time: 0 hr 49 min 52 sec) 
Heartbeat CPU 0 instructions: 63000001 cycles: 147871956 heartbeat IPC: 0.353477 cumulative IPC: 0.372793 (Simulation time: 0 hr 50 min 32 sec) 
Heartbeat CPU 0 instructions: 64000000 cycles: 150675394 heartbeat IPC: 0.356705 cumulative IPC: 0.372481 (Simulation time: 0 hr 51 min 11 sec) 
Heartbeat CPU 0 instructions: 65000001 cycles: 153462151 heartbeat IPC: 0.35884 cumulative IPC: 0.372224 (Simulation time: 0 hr 51 min 53 sec) 
Heartbeat CPU 0 instructions: 66000002 cycles: 157601791 heartbeat IPC: 0.241567 cumulative IPC: 0.368663 (Simulation time: 0 hr 52 min 44 sec) 
Heartbeat CPU 0 instructions: 67000001 cycles: 159266017 heartbeat IPC: 0.600879 cumulative IPC: 0.37118 (Simulation time: 0 hr 53 min 22 sec) 
Heartbeat CPU 0 instructions: 68000000 cycles: 160390474 heartbeat IPC: 0.889317 cumulative IPC: 0.374946 (Simulation time: 0 hr 53 min 54 sec) 
Heartbeat CPU 0 instructions: 69000003 cycles: 161532484 heartbeat IPC: 0.875652 cumulative IPC: 0.378616 (Simulation time: 0 hr 54 min 27 sec) 
Heartbeat CPU 0 instructions: 70000000 cycles: 162652731 heartbeat IPC: 0.892658 cumulative IPC: 0.382285 (Simulation time: 0 hr 54 min 59 sec) 
Heartbeat CPU 0 instructions: 71000001 cycles: 163827669 heartbeat IPC: 0.85111 cumulative IPC: 0.385768 (Simulation time: 0 hr 55 min 32 sec) 
Heartbeat CPU 0 instructions: 72000000 cycles: 167179922 heartbeat IPC: 0.298307 cumulative IPC: 0.383953 (Simulation time: 0 hr 56 min 16 sec) 
Heartbeat CPU 0 instructions: 73000000 cycles: 170586676 heartbeat IPC: 0.293535 cumulative IPC: 0.382085 (Simulation time: 0 hr 56 min 58 sec) 
Heartbeat CPU 0 instructions: 74000001 cycles: 173942335 heartbeat IPC: 0.298004 cumulative IPC: 0.380408 (Simulation time: 0 hr 57 min 41 sec) 
Heartbeat CPU 0 instructions: 75000001 cycles: 176862662 heartbeat IPC: 0.342427 cumulative IPC: 0.37976 (Simulation time: 0 hr 58 min 21 sec) 
Heartbeat CPU 0 instructions: 76000000 cycles: 179642363 heartbeat IPC: 0.359751 cumulative IPC: 0.37944 (Simulation time: 0 hr 58 min 59 sec) 
Heartbeat CPU 0 instructions: 77000000 cycles: 182447050 heartbeat IPC: 0.356546 cumulative IPC: 0.379076 (Simulation time: 0 hr 59 min 38 sec) 
Heartbeat CPU 0 instructions: 78000001 cycles: 185254135 heartbeat IPC: 0.356242 cumulative IPC: 0.37872 (Simulation time: 1 hr 0 min 16 sec) 
Heartbeat CPU 0 instructions: 79000001 cycles: 188053650 heartbeat IPC: 0.357205 cumulative IPC: 0.378389 (Simulation time: 1 hr 0 min 53 sec) 
Heartbeat CPU 0 instructions: 80000000 cycles: 190833145 heartbeat IPC: 0.359777 cumulative IPC: 0.37811 (Simulation time: 1 hr 1 min 29 sec) 
Heartbeat CPU 0 instructions: 81000002 cycles: 193696822 heartbeat IPC: 0.349202 cumulative IPC: 0.377669 (Simulation time: 1 hr 2 min 7 sec) 
Heartbeat CPU 0 instructions: 82000001 cycles: 196506417 heartbeat IPC: 0.355923 cumulative IPC: 0.377349 (Simulation time: 1 hr 2 min 41 sec) 
Heartbeat CPU 0 instructions: 83000002 cycles: 199358301 heartbeat IPC: 0.350646 cumulative IPC: 0.376956 (Simulation time: 1 hr 3 min 16 sec) 
Heartbeat CPU 0 instructions: 84000000 cycles: 202213116 heartbeat IPC: 0.350285 cumulative IPC: 0.376568 (Simulation time: 1 hr 3 min 50 sec) 
Heartbeat CPU 0 instructions: 85000002 cycles: 205510561 heartbeat IPC: 0.303266 cumulative IPC: 0.375359 (Simulation time: 1 hr 4 min 24 sec) 
Heartbeat CPU 0 instructions: 86000002 cycles: 208809812 heartbeat IPC: 0.303099 cumulative IPC: 0.374185 (Simulation time: 1 hr 4 min 56 sec) 
Heartbeat CPU 0 instructions: 87000000 cycles: 211836053 heartbeat IPC: 0.330442 cumulative IPC: 0.373543 (Simulation time: 1 hr 5 min 30 sec) 
Heartbeat CPU 0 instructions: 88000000 cycles: 214841800 heartbeat IPC: 0.332696 cumulative IPC: 0.372956 (Simulation time: 1 hr 6 min 1 sec) 
Heartbeat CPU 0 instructions: 89000002 cycles: 217912638 heartbeat IPC: 0.325645 cumulative IPC: 0.372271 (Simulation time: 1 hr 6 min 31 sec) 
Heartbeat CPU 0 instructions: 90000001 cycles: 220691113 heartbeat IPC: 0.359909 cumulative IPC: 0.372111 (Simulation time: 1 hr 6 min 59 sec) 
Heartbeat CPU 0 instructions: 91000001 cycles: 223507431 heartbeat IPC: 0.355074 cumulative IPC: 0.371891 (Simulation time: 1 hr 7 min 27 sec) 
Heartbeat CPU 0 instructions: 92000000 cycles: 226409412 heartbeat IPC: 0.344592 cumulative IPC: 0.371532 (Simulation time: 1 hr 7 min 54 sec) 
Heartbeat CPU 0 instructions: 93000000 cycles: 229226566 heartbeat IPC: 0.354968 cumulative IPC: 0.371323 (Simulation time: 1 hr 8 min 18 sec) 
Heartbeat CPU 0 instructions: 94000000 cycles: 233769682 heartbeat IPC: 0.220113 cumulative IPC: 0.368311 (Simulation time: 1 hr 8 min 48 sec) 
Heartbeat CPU 0 instructions: 95000000 cycles: 234950400 heartbeat IPC: 0.846942 cumulative IPC: 0.370776 (Simulation time: 1 hr 9 min 8 sec) 
Heartbeat CPU 0 instructions: 96000000 cycles: 236093381 heartbeat IPC: 0.874905 cumulative IPC: 0.373277 (Simulation time: 1 hr 9 min 28 sec) 
Heartbeat CPU 0 instructions: 97000002 cycles: 237212064 heartbeat IPC: 0.89391 cumulative IPC: 0.375793 (Simulation time: 1 hr 9 min 47 sec) 
Heartbeat CPU 0 instructions: 98000001 cycles: 238354029 heartbeat IPC: 0.875683 cumulative IPC: 0.378247 (Simulation time: 1 hr 10 min 5 sec) 
Heartbeat CPU 0 instructions: 99000002 cycles: 240225811 heartbeat IPC: 0.534251 cumulative IPC: 0.379492 (Simulation time: 1 hr 10 min 25 sec) 
Heartbeat CPU 0 instructions: 100000000 cycles: 243613803 heartbeat IPC: 0.295159 cumulative IPC: 0.378291 (Simulation time: 1 hr 10 min 50 sec) 
Heartbeat CPU 0 instructions: 101000002 cycles: 246710825 heartbeat IPC: 0.322891 cumulative IPC: 0.377579 (Simulation time: 1 hr 11 min 15 sec) 
Heartbeat CPU 0 instructions: 102000001 cycles: 249708850 heartbeat IPC: 0.333553 cumulative IPC: 0.377038 (Simulation time: 1 hr 11 min 37 sec) 
Heartbeat CPU 0 instructions: 103000000 cycles: 252508583 heartbeat IPC: 0.357177 cumulative IPC: 0.376813 (Simulation time: 1 hr 12 min 0 sec) 
Heartbeat CPU 0 instructions: 104000000 cycles: 255324077 heartbeat IPC: 0.355177 cumulative IPC: 0.376569 (Simulation time: 1 hr 12 min 21 sec) 
Heartbeat CPU 0 instructions: 105000001 cycles: 258114953 heartbeat IPC: 0.358311 cumulative IPC: 0.376367 (Simulation time: 1 hr 12 min 41 sec) 
Heartbeat CPU 0 instructions: 106000000 cycles: 261013452 heartbeat IPC: 0.345006 cumulative IPC: 0.376011 (Simulation time: 1 hr 13 min 3 sec) 
Heartbeat CPU 0 instructions: 107000002 cycles: 263860004 heartbeat IPC: 0.351303 cumulative IPC: 0.375738 (Simulation time: 1 hr 13 min 23 sec) 
Heartbeat CPU 0 instructions: 108000000 cycles: 266675295 heartbeat IPC: 0.355202 cumulative IPC: 0.375517 (Simulation time: 1 hr 13 min 44 sec) 
Heartbeat CPU 0 instructions: 109000002 cycles: 269470540 heartbeat IPC: 0.357751 cumulative IPC: 0.375329 (Simulation time: 1 hr 14 min 4 sec) 
Heartbeat CPU 0 instructions: 110000001 cycles: 272308705 heartbeat IPC: 0.35234 cumulative IPC: 0.375084 (Simulation time: 1 hr 14 min 24 sec) 
Finished CPU 0 instructions: 100000001 cycles: 266606979 cummulative IPC: 0.375084 (Simulation time: 1 hr 14 min 24 sec) 

ChampSim completed all CPUs

Region of Interest Statistics

CPU 0 cummulative IPC: 0.375084 instructions: 100000001 cycles: 266606979
LLC TOTAL     ACCESS:    4666010  HIT:    2416306  MISS:    2249704
LLC LOAD      ACCESS:    2183806  HIT:    2046926  MISS:     136880
LLC RFO       ACCESS:      24955  HIT:      12201  MISS:      12754
LLC PREFETCH  ACCESS:    2376880  HIT:     297610  MISS:    2079270
LLC WRITEBACK ACCESS:      80369  HIT:      59569  MISS:      20800
Insertion Distribution: 
	LOAD 38313 0 0 0 0 74685 102375 
	RFO 3432 0 0 0 0 4071 6893 
	PREF 0 11179 0 0 0 59727 2213128 
	WRITEBACK 0 0 0 0 0 0 21535 
Total Prefetch Downgrades: 12945
