
*** ChampSim Multicore Out-of-Order Simulator ***

Warmup Instructions: 10000000
Simulation Instructions: 100000000
Configuration: 2
Number of CPUs: 1
LLC sets: 2048
LLC ways: 16
Off-chip DRAM Channels: 1 Width: 64-bit Data Rate: 1600 MT/s

CPU 0 runs /datasets/cs240c-wi22-a00-public/data/Assignment2-gz/bzip2_183B.trace.gz
CPU 0 L1D next line prefetcher
CPU 0 L2C IP-based stride prefetcher
Initialize SRRIP state
Heartbeat CPU 0 instructions: 1000000 cycles: 447972 heartbeat IPC: 2.23228 cumulative IPC: 2.23228 (Simulation time: 0 hr 0 min 35 sec) 
Heartbeat CPU 0 instructions: 2000001 cycles: 951246 heartbeat IPC: 1.98699 cumulative IPC: 2.10251 (Simulation time: 0 hr 1 min 11 sec) 
Heartbeat CPU 0 instructions: 3000001 cycles: 1457933 heartbeat IPC: 1.97361 cumulative IPC: 2.05771 (Simulation time: 0 hr 1 min 50 sec) 
Heartbeat CPU 0 instructions: 4000000 cycles: 1928626 heartbeat IPC: 2.12452 cumulative IPC: 2.07402 (Simulation time: 0 hr 2 min 29 sec) 
Heartbeat CPU 0 instructions: 5000000 cycles: 2425933 heartbeat IPC: 2.01083 cumulative IPC: 2.06106 (Simulation time: 0 hr 3 min 6 sec) 
Heartbeat CPU 0 instructions: 6000001 cycles: 2887533 heartbeat IPC: 2.16638 cumulative IPC: 2.0779 (Simulation time: 0 hr 3 min 41 sec) 
Heartbeat CPU 0 instructions: 7000002 cycles: 3343396 heartbeat IPC: 2.19364 cumulative IPC: 2.09368 (Simulation time: 0 hr 4 min 13 sec) 
Heartbeat CPU 0 instructions: 8000000 cycles: 3812995 heartbeat IPC: 2.12947 cumulative IPC: 2.09809 (Simulation time: 0 hr 4 min 50 sec) 
Heartbeat CPU 0 instructions: 9000003 cycles: 4278250 heartbeat IPC: 2.14937 cumulative IPC: 2.10366 (Simulation time: 0 hr 5 min 22 sec) 
Heartbeat CPU 0 instructions: 10000000 cycles: 4746655 heartbeat IPC: 2.1349 cumulative IPC: 2.10675 (Simulation time: 0 hr 5 min 56 sec) 

Warmup complete CPU 0 instructions: 10000001 cycles: 4746656 (Simulation time: 0 hr 5 min 56 sec) 

Heartbeat CPU 0 instructions: 11000000 cycles: 6253541 heartbeat IPC: 0.66362 cumulative IPC: 0.66362 (Simulation time: 0 hr 6 min 26 sec) 
Heartbeat CPU 0 instructions: 12000000 cycles: 7709562 heartbeat IPC: 0.686803 cumulative IPC: 0.675013 (Simulation time: 0 hr 6 min 55 sec) 
Heartbeat CPU 0 instructions: 13000000 cycles: 8934132 heartbeat IPC: 0.816613 cumulative IPC: 0.716422 (Simulation time: 0 hr 7 min 26 sec) 
Heartbeat CPU 0 instructions: 14000003 cycles: 9982853 heartbeat IPC: 0.953545 cumulative IPC: 0.763914 (Simulation time: 0 hr 8 min 0 sec) 
Heartbeat CPU 0 instructions: 15000000 cycles: 11374784 heartbeat IPC: 0.718424 cumulative IPC: 0.754361 (Simulation time: 0 hr 8 min 32 sec) 
Heartbeat CPU 0 instructions: 16000000 cycles: 12351163 heartbeat IPC: 1.02419 cumulative IPC: 0.789006 (Simulation time: 0 hr 9 min 5 sec) 
Heartbeat CPU 0 instructions: 17000003 cycles: 13249929 heartbeat IPC: 1.11264 cumulative IPC: 0.823213 (Simulation time: 0 hr 9 min 37 sec) 
Heartbeat CPU 0 instructions: 18000001 cycles: 14171032 heartbeat IPC: 1.08565 cumulative IPC: 0.848863 (Simulation time: 0 hr 10 min 10 sec) 
Heartbeat CPU 0 instructions: 19000002 cycles: 15117016 heartbeat IPC: 1.0571 cumulative IPC: 0.867858 (Simulation time: 0 hr 10 min 45 sec) 
Heartbeat CPU 0 instructions: 20000000 cycles: 16318069 heartbeat IPC: 0.832601 cumulative IPC: 0.864199 (Simulation time: 0 hr 11 min 18 sec) 
Heartbeat CPU 0 instructions: 21000000 cycles: 17814140 heartbeat IPC: 0.668417 cumulative IPC: 0.841784 (Simulation time: 0 hr 11 min 52 sec) 
Heartbeat CPU 0 instructions: 22000000 cycles: 19225304 heartbeat IPC: 0.708635 cumulative IPC: 0.828807 (Simulation time: 0 hr 12 min 23 sec) 
Heartbeat CPU 0 instructions: 23000000 cycles: 20359529 heartbeat IPC: 0.881659 cumulative IPC: 0.832646 (Simulation time: 0 hr 13 min 0 sec) 
Heartbeat CPU 0 instructions: 24000000 cycles: 21617564 heartbeat IPC: 0.79489 cumulative IPC: 0.829831 (Simulation time: 0 hr 13 min 32 sec) 
Heartbeat CPU 0 instructions: 25000001 cycles: 22960266 heartbeat IPC: 0.744768 cumulative IPC: 0.82356 (Simulation time: 0 hr 14 min 6 sec) 
Heartbeat CPU 0 instructions: 26000002 cycles: 23939869 heartbeat IPC: 1.02082 cumulative IPC: 0.833628 (Simulation time: 0 hr 14 min 40 sec) 
Heartbeat CPU 0 instructions: 27000000 cycles: 24940981 heartbeat IPC: 0.998887 cumulative IPC: 0.841821 (Simulation time: 0 hr 15 min 14 sec) 
Heartbeat CPU 0 instructions: 28000000 cycles: 26223677 heartbeat IPC: 0.779608 cumulative IPC: 0.838105 (Simulation time: 0 hr 15 min 48 sec) 
Heartbeat CPU 0 instructions: 29000003 cycles: 27295910 heartbeat IPC: 0.932636 cumulative IPC: 0.8426 (Simulation time: 0 hr 16 min 21 sec) 
Heartbeat CPU 0 instructions: 30000000 cycles: 28612595 heartbeat IPC: 0.759481 cumulative IPC: 0.838014 (Simulation time: 0 hr 16 min 54 sec) 
Heartbeat CPU 0 instructions: 31000000 cycles: 29907278 heartbeat IPC: 0.77239 cumulative IPC: 0.834638 (Simulation time: 0 hr 17 min 27 sec) 
Heartbeat CPU 0 instructions: 32000000 cycles: 31524426 heartbeat IPC: 0.618373 cumulative IPC: 0.821577 (Simulation time: 0 hr 17 min 59 sec) 
Heartbeat CPU 0 instructions: 33000000 cycles: 32586474 heartbeat IPC: 0.941577 cumulative IPC: 0.826155 (Simulation time: 0 hr 18 min 34 sec) 
Heartbeat CPU 0 instructions: 34000001 cycles: 33593262 heartbeat IPC: 0.993259 cumulative IPC: 0.831987 (Simulation time: 0 hr 19 min 7 sec) 
Heartbeat CPU 0 instructions: 35000003 cycles: 34606763 heartbeat IPC: 0.986681 cumulative IPC: 0.837238 (Simulation time: 0 hr 19 min 41 sec) 
Heartbeat CPU 0 instructions: 36000000 cycles: 35615154 heartbeat IPC: 0.991676 cumulative IPC: 0.842283 (Simulation time: 0 hr 20 min 14 sec) 
Heartbeat CPU 0 instructions: 37000003 cycles: 36855841 heartbeat IPC: 0.806008 cumulative IPC: 0.840881 (Simulation time: 0 hr 20 min 50 sec) 
Heartbeat CPU 0 instructions: 38000001 cycles: 38372995 heartbeat IPC: 0.659128 cumulative IPC: 0.832681 (Simulation time: 0 hr 21 min 24 sec) 
Heartbeat CPU 0 instructions: 39000002 cycles: 39487362 heartbeat IPC: 0.897371 cumulative IPC: 0.834756 (Simulation time: 0 hr 21 min 56 sec) 
Heartbeat CPU 0 instructions: 40000000 cycles: 40525030 heartbeat IPC: 0.963697 cumulative IPC: 0.838495 (Simulation time: 0 hr 22 min 32 sec) 
Heartbeat CPU 0 instructions: 41000002 cycles: 41991546 heartbeat IPC: 0.68189 cumulative IPC: 0.832329 (Simulation time: 0 hr 23 min 4 sec) 
Heartbeat CPU 0 instructions: 42000000 cycles: 43273148 heartbeat IPC: 0.780272 cumulative IPC: 0.830597 (Simulation time: 0 hr 23 min 37 sec) 
Heartbeat CPU 0 instructions: 43000001 cycles: 44419255 heartbeat IPC: 0.87252 cumulative IPC: 0.831808 (Simulation time: 0 hr 24 min 12 sec) 
Heartbeat CPU 0 instructions: 44000000 cycles: 45567442 heartbeat IPC: 0.870937 cumulative IPC: 0.832909 (Simulation time: 0 hr 24 min 44 sec) 
Heartbeat CPU 0 instructions: 45000000 cycles: 46630199 heartbeat IPC: 0.940949 cumulative IPC: 0.83565 (Simulation time: 0 hr 25 min 18 sec) 
Heartbeat CPU 0 instructions: 46000000 cycles: 47743949 heartbeat IPC: 0.897868 cumulative IPC: 0.837262 (Simulation time: 0 hr 25 min 52 sec) 
Heartbeat CPU 0 instructions: 47000003 cycles: 48749142 heartbeat IPC: 0.994837 cumulative IPC: 0.840862 (Simulation time: 0 hr 26 min 27 sec) 
Heartbeat CPU 0 instructions: 48000000 cycles: 50317531 heartbeat IPC: 0.637595 cumulative IPC: 0.833866 (Simulation time: 0 hr 27 min 0 sec) 
Heartbeat CPU 0 instructions: 49000003 cycles: 51917890 heartbeat IPC: 0.624862 cumulative IPC: 0.826775 (Simulation time: 0 hr 27 min 34 sec) 
Heartbeat CPU 0 instructions: 50000000 cycles: 53044937 heartbeat IPC: 0.887272 cumulative IPC: 0.828187 (Simulation time: 0 hr 28 min 12 sec) 
Heartbeat CPU 0 instructions: 51000000 cycles: 54073997 heartbeat IPC: 0.971761 cumulative IPC: 0.831182 (Simulation time: 0 hr 28 min 46 sec) 
Heartbeat CPU 0 instructions: 52000000 cycles: 55091365 heartbeat IPC: 0.982929 cumulative IPC: 0.834249 (Simulation time: 0 hr 29 min 21 sec) 
Heartbeat CPU 0 instructions: 53000001 cycles: 56062004 heartbeat IPC: 1.03025 cumulative IPC: 0.837956 (Simulation time: 0 hr 29 min 55 sec) 
Heartbeat CPU 0 instructions: 54000001 cycles: 57069607 heartbeat IPC: 0.992454 cumulative IPC: 0.840931 (Simulation time: 0 hr 30 min 28 sec) 
Heartbeat CPU 0 instructions: 55000001 cycles: 58304057 heartbeat IPC: 0.810077 cumulative IPC: 0.84022 (Simulation time: 0 hr 31 min 2 sec) 
Heartbeat CPU 0 instructions: 56000000 cycles: 59490932 heartbeat IPC: 0.842548 cumulative IPC: 0.84027 (Simulation time: 0 hr 31 min 37 sec) 
Heartbeat CPU 0 instructions: 57000003 cycles: 60868099 heartbeat IPC: 0.726131 cumulative IPC: 0.83747 (Simulation time: 0 hr 32 min 11 sec) 
Heartbeat CPU 0 instructions: 58000001 cycles: 62444525 heartbeat IPC: 0.634345 cumulative IPC: 0.83192 (Simulation time: 0 hr 32 min 44 sec) 
Heartbeat CPU 0 instructions: 59000003 cycles: 63754913 heartbeat IPC: 0.763134 cumulative IPC: 0.830392 (Simulation time: 0 hr 33 min 18 sec) 
Heartbeat CPU 0 instructions: 60000000 cycles: 65330505 heartbeat IPC: 0.63468 cumulative IPC: 0.825302 (Simulation time: 0 hr 33 min 53 sec) 
Heartbeat CPU 0 instructions: 61000003 cycles: 67048376 heartbeat IPC: 0.582118 cumulative IPC: 0.818597 (Simulation time: 0 hr 34 min 25 sec) 
Heartbeat CPU 0 instructions: 62000002 cycles: 68592129 heartbeat IPC: 0.647771 cumulative IPC: 0.814467 (Simulation time: 0 hr 34 min 56 sec) 
Heartbeat CPU 0 instructions: 63000003 cycles: 69978290 heartbeat IPC: 0.721418 cumulative IPC: 0.812489 (Simulation time: 0 hr 35 min 32 sec) 
Heartbeat CPU 0 instructions: 64000000 cycles: 71545932 heartbeat IPC: 0.637899 cumulative IPC: 0.808392 (Simulation time: 0 hr 36 min 6 sec) 
Heartbeat CPU 0 instructions: 65000003 cycles: 72798858 heartbeat IPC: 0.798134 cumulative IPC: 0.808203 (Simulation time: 0 hr 36 min 38 sec) 
Heartbeat CPU 0 instructions: 66000000 cycles: 74128744 heartbeat IPC: 0.751942 cumulative IPC: 0.807125 (Simulation time: 0 hr 37 min 11 sec) 
Heartbeat CPU 0 instructions: 67000000 cycles: 75069232 heartbeat IPC: 1.06328 cumulative IPC: 0.810551 (Simulation time: 0 hr 37 min 41 sec) 
Heartbeat CPU 0 instructions: 68000000 cycles: 76468786 heartbeat IPC: 0.714513 cumulative IPC: 0.808676 (Simulation time: 0 hr 38 min 11 sec) 
Heartbeat CPU 0 instructions: 69000000 cycles: 78038486 heartbeat IPC: 0.637064 cumulative IPC: 0.805001 (Simulation time: 0 hr 38 min 41 sec) 
Heartbeat CPU 0 instructions: 70000002 cycles: 79506869 heartbeat IPC: 0.681023 cumulative IPC: 0.802566 (Simulation time: 0 hr 39 min 14 sec) 
Heartbeat CPU 0 instructions: 71000000 cycles: 81069239 heartbeat IPC: 0.640052 cumulative IPC: 0.799239 (Simulation time: 0 hr 39 min 42 sec) 
Heartbeat CPU 0 instructions: 72000000 cycles: 82438062 heartbeat IPC: 0.730555 cumulative IPC: 0.798029 (Simulation time: 0 hr 40 min 9 sec) 
Heartbeat CPU 0 instructions: 73000001 cycles: 83724133 heartbeat IPC: 0.777563 cumulative IPC: 0.797696 (Simulation time: 0 hr 40 min 34 sec) 
Heartbeat CPU 0 instructions: 74000000 cycles: 84874195 heartbeat IPC: 0.869517 cumulative IPC: 0.798727 (Simulation time: 0 hr 41 min 6 sec) 
Heartbeat CPU 0 instructions: 75000001 cycles: 86289542 heartbeat IPC: 0.706541 cumulative IPC: 0.797127 (Simulation time: 0 hr 41 min 35 sec) 
Heartbeat CPU 0 instructions: 76000000 cycles: 87427036 heartbeat IPC: 0.879125 cumulative IPC: 0.798255 (Simulation time: 0 hr 42 min 1 sec) 
Heartbeat CPU 0 instructions: 77000003 cycles: 88601936 heartbeat IPC: 0.851139 cumulative IPC: 0.798996 (Simulation time: 0 hr 42 min 28 sec) 
Heartbeat CPU 0 instructions: 78000000 cycles: 89932308 heartbeat IPC: 0.751667 cumulative IPC: 0.798256 (Simulation time: 0 hr 43 min 1 sec) 
Heartbeat CPU 0 instructions: 79000000 cycles: 91273306 heartbeat IPC: 0.745713 cumulative IPC: 0.797442 (Simulation time: 0 hr 43 min 36 sec) 
Heartbeat CPU 0 instructions: 80000000 cycles: 92661195 heartbeat IPC: 0.720519 cumulative IPC: 0.796228 (Simulation time: 0 hr 44 min 8 sec) 
Heartbeat CPU 0 instructions: 81000000 cycles: 94347606 heartbeat IPC: 0.592975 cumulative IPC: 0.792402 (Simulation time: 0 hr 44 min 43 sec) 
Heartbeat CPU 0 instructions: 82000002 cycles: 95891822 heartbeat IPC: 0.647579 cumulative IPC: 0.789949 (Simulation time: 0 hr 45 min 20 sec) 
Heartbeat CPU 0 instructions: 83000000 cycles: 97047105 heartbeat IPC: 0.865587 cumulative IPC: 0.790895 (Simulation time: 0 hr 45 min 56 sec) 
Heartbeat CPU 0 instructions: 84000000 cycles: 98002433 heartbeat IPC: 1.04676 cumulative IPC: 0.793517 (Simulation time: 0 hr 46 min 30 sec) 
Heartbeat CPU 0 instructions: 85000002 cycles: 99048972 heartbeat IPC: 0.955532 cumulative IPC: 0.795314 (Simulation time: 0 hr 47 min 5 sec) 
Heartbeat CPU 0 instructions: 86000002 cycles: 100025455 heartbeat IPC: 1.02408 cumulative IPC: 0.797659 (Simulation time: 0 hr 47 min 36 sec) 
Heartbeat CPU 0 instructions: 87000001 cycles: 101023160 heartbeat IPC: 1.0023 cumulative IPC: 0.79978 (Simulation time: 0 hr 48 min 13 sec) 
Heartbeat CPU 0 instructions: 88000000 cycles: 102319313 heartbeat IPC: 0.771513 cumulative IPC: 0.799404 (Simulation time: 0 hr 48 min 47 sec) 
Heartbeat CPU 0 instructions: 89000000 cycles: 103821793 heartbeat IPC: 0.665566 cumulative IPC: 0.797375 (Simulation time: 0 hr 49 min 26 sec) 
Heartbeat CPU 0 instructions: 90000002 cycles: 105313840 heartbeat IPC: 0.670222 cumulative IPC: 0.795488 (Simulation time: 0 hr 50 min 0 sec) 
Heartbeat CPU 0 instructions: 91000000 cycles: 107011253 heartbeat IPC: 0.589131 cumulative IPC: 0.792063 (Simulation time: 0 hr 50 min 33 sec) 
Heartbeat CPU 0 instructions: 92000000 cycles: 108503782 heartbeat IPC: 0.670004 cumulative IPC: 0.790307 (Simulation time: 0 hr 51 min 6 sec) 
Heartbeat CPU 0 instructions: 93000001 cycles: 109758523 heartbeat IPC: 0.796978 cumulative IPC: 0.790387 (Simulation time: 0 hr 51 min 43 sec) 
Heartbeat CPU 0 instructions: 94000000 cycles: 111497778 heartbeat IPC: 0.574958 cumulative IPC: 0.786877 (Simulation time: 0 hr 52 min 16 sec) 
Heartbeat CPU 0 instructions: 95000002 cycles: 113104909 heartbeat IPC: 0.622228 cumulative IPC: 0.784435 (Simulation time: 0 hr 52 min 49 sec) 
Heartbeat CPU 0 instructions: 96000000 cycles: 114707481 heartbeat IPC: 0.623996 cumulative IPC: 0.782097 (Simulation time: 0 hr 53 min 22 sec) 
Heartbeat CPU 0 instructions: 97000000 cycles: 116105664 heartbeat IPC: 0.715214 cumulative IPC: 0.781257 (Simulation time: 0 hr 53 min 56 sec) 
Heartbeat CPU 0 instructions: 98000000 cycles: 117383886 heartbeat IPC: 0.782337 cumulative IPC: 0.781269 (Simulation time: 0 hr 54 min 28 sec) 
Heartbeat CPU 0 instructions: 99000003 cycles: 118502451 heartbeat IPC: 0.894005 cumulative IPC: 0.782378 (Simulation time: 0 hr 55 min 5 sec) 
Heartbeat CPU 0 instructions: 100000000 cycles: 119972741 heartbeat IPC: 0.680136 cumulative IPC: 0.781073 (Simulation time: 0 hr 55 min 40 sec) 
Heartbeat CPU 0 instructions: 101000000 cycles: 121480887 heartbeat IPC: 0.663066 cumulative IPC: 0.779549 (Simulation time: 0 hr 56 min 12 sec) 
Heartbeat CPU 0 instructions: 102000001 cycles: 123175752 heartbeat IPC: 0.590018 cumulative IPC: 0.776836 (Simulation time: 0 hr 56 min 43 sec) 
Heartbeat CPU 0 instructions: 103000002 cycles: 124492707 heartbeat IPC: 0.759328 cumulative IPC: 0.776644 (Simulation time: 0 hr 57 min 19 sec) 
Heartbeat CPU 0 instructions: 104000000 cycles: 126201013 heartbeat IPC: 0.585374 cumulative IPC: 0.773953 (Simulation time: 0 hr 57 min 52 sec) 
Heartbeat CPU 0 instructions: 105000002 cycles: 127180837 heartbeat IPC: 1.02059 cumulative IPC: 0.775927 (Simulation time: 0 hr 58 min 23 sec) 
Heartbeat CPU 0 instructions: 106000000 cycles: 128714498 heartbeat IPC: 0.652033 cumulative IPC: 0.774394 (Simulation time: 0 hr 58 min 53 sec) 
Heartbeat CPU 0 instructions: 107000002 cycles: 130274742 heartbeat IPC: 0.640927 cumulative IPC: 0.772735 (Simulation time: 0 hr 59 min 26 sec) 
Heartbeat CPU 0 instructions: 108000000 cycles: 131592264 heartbeat IPC: 0.758999 cumulative IPC: 0.772593 (Simulation time: 1 hr 0 min 1 sec) 
Heartbeat CPU 0 instructions: 109000002 cycles: 133294013 heartbeat IPC: 0.587632 cumulative IPC: 0.770144 (Simulation time: 1 hr 0 min 29 sec) 
Heartbeat CPU 0 instructions: 110000000 cycles: 134530248 heartbeat IPC: 0.808906 cumulative IPC: 0.770513 (Simulation time: 1 hr 0 min 58 sec) 
Finished CPU 0 instructions: 100000003 cycles: 129783593 cummulative IPC: 0.770513 (Simulation time: 1 hr 0 min 58 sec) 

ChampSim completed all CPUs

Region of Interest Statistics

CPU 0 cummulative IPC: 0.770513 instructions: 100000003 cycles: 129783593
LLC TOTAL     ACCESS:    1571164  HIT:    1425083  MISS:     146081
LLC LOAD      ACCESS:     429751  HIT:     407576  MISS:      22175
LLC RFO       ACCESS:     294160  HIT:     233945  MISS:      60215
LLC PREFETCH  ACCESS:     521286  HIT:     466323  MISS:      54963
LLC WRITEBACK ACCESS:     325967  HIT:     317239  MISS:       8728
Insertion Distribution: 
	LOAD 24368 0 0 0 0 7415 291 
	RFO 37569 0 0 0 0 22683 12647 
	PREF 0 14494 0 0 0 22577 31713 
	WRITEBACK 0 0 0 0 0 0 9554 
Total Prefetch Downgrades: 19836
