
*** ChampSim Multicore Out-of-Order Simulator ***

Warmup Instructions: 10000000
Simulation Instructions: 100000000
Configuration: 2
Number of CPUs: 1
LLC sets: 2048
LLC ways: 16
Off-chip DRAM Channels: 1 Width: 64-bit Data Rate: 1600 MT/s

CPU 0 runs /datasets/cs240c-wi22-a00-public/data/Assignment2-gz/bzip2_259B.trace.gz
CPU 0 L1D next line prefetcher
CPU 0 L2C IP-based stride prefetcher
Initialize SRRIP state
Heartbeat CPU 0 instructions: 1000002 cycles: 428875 heartbeat IPC: 2.33169 cumulative IPC: 2.33169 (Simulation time: 0 hr 0 min 45 sec) 
Heartbeat CPU 0 instructions: 2000003 cycles: 861057 heartbeat IPC: 2.31384 cumulative IPC: 2.32273 (Simulation time: 0 hr 1 min 35 sec) 
Heartbeat CPU 0 instructions: 3000001 cycles: 1286790 heartbeat IPC: 2.34889 cumulative IPC: 2.33138 (Simulation time: 0 hr 2 min 24 sec) 
Heartbeat CPU 0 instructions: 4000000 cycles: 1685062 heartbeat IPC: 2.51084 cumulative IPC: 2.3738 (Simulation time: 0 hr 3 min 15 sec) 
Heartbeat CPU 0 instructions: 5000001 cycles: 2103495 heartbeat IPC: 2.38987 cumulative IPC: 2.377 (Simulation time: 0 hr 4 min 0 sec) 
Heartbeat CPU 0 instructions: 6000001 cycles: 2532858 heartbeat IPC: 2.32903 cumulative IPC: 2.36887 (Simulation time: 0 hr 4 min 54 sec) 
Heartbeat CPU 0 instructions: 7000003 cycles: 2961906 heartbeat IPC: 2.33075 cumulative IPC: 2.36334 (Simulation time: 0 hr 5 min 48 sec) 
Heartbeat CPU 0 instructions: 8000000 cycles: 3391719 heartbeat IPC: 2.32659 cumulative IPC: 2.35869 (Simulation time: 0 hr 6 min 41 sec) 
Heartbeat CPU 0 instructions: 9000000 cycles: 3819845 heartbeat IPC: 2.33576 cumulative IPC: 2.35612 (Simulation time: 0 hr 7 min 32 sec) 
Heartbeat CPU 0 instructions: 10000002 cycles: 4193917 heartbeat IPC: 2.67329 cumulative IPC: 2.38441 (Simulation time: 0 hr 8 min 13 sec) 

Warmup complete CPU 0 instructions: 10000002 cycles: 4193917 (Simulation time: 0 hr 8 min 13 sec) 

Heartbeat CPU 0 instructions: 11000002 cycles: 5034789 heartbeat IPC: 1.18924 cumulative IPC: 1.18924 (Simulation time: 0 hr 9 min 5 sec) 
Heartbeat CPU 0 instructions: 12000000 cycles: 6140435 heartbeat IPC: 0.904447 cumulative IPC: 1.02747 (Simulation time: 0 hr 10 min 6 sec) 
Heartbeat CPU 0 instructions: 13000002 cycles: 7084320 heartbeat IPC: 1.05945 cumulative IPC: 1.03792 (Simulation time: 0 hr 11 min 2 sec) 
Heartbeat CPU 0 instructions: 14000003 cycles: 7999066 heartbeat IPC: 1.0932 cumulative IPC: 1.05121 (Simulation time: 0 hr 12 min 5 sec) 
Heartbeat CPU 0 instructions: 15000002 cycles: 9024146 heartbeat IPC: 0.975533 cumulative IPC: 1.03515 (Simulation time: 0 hr 13 min 5 sec) 
Heartbeat CPU 0 instructions: 16000000 cycles: 10024490 heartbeat IPC: 0.999654 cumulative IPC: 1.02906 (Simulation time: 0 hr 14 min 6 sec) 
Heartbeat CPU 0 instructions: 17000002 cycles: 11145121 heartbeat IPC: 0.892356 cumulative IPC: 1.00702 (Simulation time: 0 hr 15 min 7 sec) 
Heartbeat CPU 0 instructions: 18000001 cycles: 12238627 heartbeat IPC: 0.914489 cumulative IPC: 0.994442 (Simulation time: 0 hr 16 min 9 sec) 
Heartbeat CPU 0 instructions: 19000003 cycles: 13211057 heartbeat IPC: 1.02835 cumulative IPC: 0.998099 (Simulation time: 0 hr 16 min 58 sec) 
Heartbeat CPU 0 instructions: 20000000 cycles: 14218969 heartbeat IPC: 0.992147 cumulative IPC: 0.997501 (Simulation time: 0 hr 17 min 40 sec) 
Heartbeat CPU 0 instructions: 21000001 cycles: 15125355 heartbeat IPC: 1.10328 cumulative IPC: 1.00627 (Simulation time: 0 hr 18 min 17 sec) 
Heartbeat CPU 0 instructions: 22000001 cycles: 16037150 heartbeat IPC: 1.09674 cumulative IPC: 1.01324 (Simulation time: 0 hr 18 min 56 sec) 
Heartbeat CPU 0 instructions: 23000002 cycles: 16942150 heartbeat IPC: 1.10497 cumulative IPC: 1.01975 (Simulation time: 0 hr 19 min 32 sec) 
Heartbeat CPU 0 instructions: 24000000 cycles: 17844074 heartbeat IPC: 1.10874 cumulative IPC: 1.02563 (Simulation time: 0 hr 20 min 10 sec) 
Heartbeat CPU 0 instructions: 25000000 cycles: 18745427 heartbeat IPC: 1.10944 cumulative IPC: 1.03082 (Simulation time: 0 hr 20 min 46 sec) 
Heartbeat CPU 0 instructions: 26000000 cycles: 19672156 heartbeat IPC: 1.07906 cumulative IPC: 1.03371 (Simulation time: 0 hr 21 min 24 sec) 
Heartbeat CPU 0 instructions: 27000003 cycles: 20608451 heartbeat IPC: 1.06804 cumulative IPC: 1.03567 (Simulation time: 0 hr 22 min 3 sec) 
Heartbeat CPU 0 instructions: 28000000 cycles: 21520319 heartbeat IPC: 1.09665 cumulative IPC: 1.03888 (Simulation time: 0 hr 22 min 40 sec) 
Heartbeat CPU 0 instructions: 29000000 cycles: 22426356 heartbeat IPC: 1.10371 cumulative IPC: 1.0421 (Simulation time: 0 hr 23 min 17 sec) 
Heartbeat CPU 0 instructions: 30000000 cycles: 23384055 heartbeat IPC: 1.04417 cumulative IPC: 1.0422 (Simulation time: 0 hr 23 min 55 sec) 
Heartbeat CPU 0 instructions: 31000001 cycles: 24287021 heartbeat IPC: 1.10746 cumulative IPC: 1.04513 (Simulation time: 0 hr 24 min 31 sec) 
Heartbeat CPU 0 instructions: 32000000 cycles: 25179312 heartbeat IPC: 1.12071 cumulative IPC: 1.04835 (Simulation time: 0 hr 25 min 12 sec) 
Heartbeat CPU 0 instructions: 33000002 cycles: 26297503 heartbeat IPC: 0.894303 cumulative IPC: 1.04056 (Simulation time: 0 hr 25 min 50 sec) 
Heartbeat CPU 0 instructions: 34000003 cycles: 27508770 heartbeat IPC: 0.825583 cumulative IPC: 1.02939 (Simulation time: 0 hr 26 min 31 sec) 
Heartbeat CPU 0 instructions: 35000001 cycles: 28554947 heartbeat IPC: 0.955859 cumulative IPC: 1.02623 (Simulation time: 0 hr 27 min 11 sec) 
Heartbeat CPU 0 instructions: 36000000 cycles: 29728747 heartbeat IPC: 0.851933 cumulative IPC: 1.01822 (Simulation time: 0 hr 27 min 47 sec) 
Heartbeat CPU 0 instructions: 37000002 cycles: 30771760 heartbeat IPC: 0.958763 cumulative IPC: 1.01588 (Simulation time: 0 hr 28 min 22 sec) 
Heartbeat CPU 0 instructions: 38000003 cycles: 31886878 heartbeat IPC: 0.896767 cumulative IPC: 1.01109 (Simulation time: 0 hr 29 min 0 sec) 
Heartbeat CPU 0 instructions: 39000001 cycles: 33030851 heartbeat IPC: 0.874145 cumulative IPC: 1.00565 (Simulation time: 0 hr 29 min 39 sec) 
Heartbeat CPU 0 instructions: 40000000 cycles: 34100200 heartbeat IPC: 0.935147 cumulative IPC: 1.00313 (Simulation time: 0 hr 30 min 17 sec) 
Heartbeat CPU 0 instructions: 41000001 cycles: 35289699 heartbeat IPC: 0.840691 cumulative IPC: 0.99692 (Simulation time: 0 hr 30 min 52 sec) 
Heartbeat CPU 0 instructions: 42000000 cycles: 36499680 heartbeat IPC: 0.826458 cumulative IPC: 0.990535 (Simulation time: 0 hr 31 min 28 sec) 
Heartbeat CPU 0 instructions: 43000003 cycles: 37716187 heartbeat IPC: 0.822028 cumulative IPC: 0.98442 (Simulation time: 0 hr 32 min 3 sec) 
Heartbeat CPU 0 instructions: 44000000 cycles: 38929389 heartbeat IPC: 0.824263 cumulative IPC: 0.978826 (Simulation time: 0 hr 32 min 43 sec) 
Heartbeat CPU 0 instructions: 45000000 cycles: 40151128 heartbeat IPC: 0.818505 cumulative IPC: 0.973379 (Simulation time: 0 hr 33 min 19 sec) 
Heartbeat CPU 0 instructions: 46000002 cycles: 41390256 heartbeat IPC: 0.807021 cumulative IPC: 0.967837 (Simulation time: 0 hr 33 min 55 sec) 
Heartbeat CPU 0 instructions: 47000000 cycles: 42621766 heartbeat IPC: 0.81201 cumulative IPC: 0.962843 (Simulation time: 0 hr 34 min 32 sec) 
Heartbeat CPU 0 instructions: 48000000 cycles: 43859939 heartbeat IPC: 0.807642 cumulative IPC: 0.957999 (Simulation time: 0 hr 35 min 4 sec) 
Heartbeat CPU 0 instructions: 49000003 cycles: 45128906 heartbeat IPC: 0.788045 cumulative IPC: 0.95273 (Simulation time: 0 hr 35 min 39 sec) 
Heartbeat CPU 0 instructions: 50000001 cycles: 46167948 heartbeat IPC: 0.962423 cumulative IPC: 0.95297 (Simulation time: 0 hr 36 min 12 sec) 
Heartbeat CPU 0 instructions: 51000002 cycles: 47332674 heartbeat IPC: 0.858572 cumulative IPC: 0.950421 (Simulation time: 0 hr 36 min 42 sec) 
Heartbeat CPU 0 instructions: 52000000 cycles: 48450831 heartbeat IPC: 0.894327 cumulative IPC: 0.949004 (Simulation time: 0 hr 37 min 11 sec) 
Heartbeat CPU 0 instructions: 53000001 cycles: 49646838 heartbeat IPC: 0.836116 cumulative IPC: 0.946034 (Simulation time: 0 hr 37 min 42 sec) 
Heartbeat CPU 0 instructions: 54000000 cycles: 50873083 heartbeat IPC: 0.815497 cumulative IPC: 0.942605 (Simulation time: 0 hr 38 min 13 sec) 
Heartbeat CPU 0 instructions: 55000000 cycles: 52024690 heartbeat IPC: 0.868352 cumulative IPC: 0.940817 (Simulation time: 0 hr 38 min 45 sec) 
Heartbeat CPU 0 instructions: 56000000 cycles: 53249358 heartbeat IPC: 0.816548 cumulative IPC: 0.937715 (Simulation time: 0 hr 39 min 15 sec) 
Heartbeat CPU 0 instructions: 57000000 cycles: 54470410 heartbeat IPC: 0.818966 cumulative IPC: 0.93483 (Simulation time: 0 hr 39 min 46 sec) 
Heartbeat CPU 0 instructions: 58000002 cycles: 55502506 heartbeat IPC: 0.968904 cumulative IPC: 0.935516 (Simulation time: 0 hr 40 min 13 sec) 
Heartbeat CPU 0 instructions: 59000000 cycles: 56603407 heartbeat IPC: 0.908345 cumulative IPC: 0.934945 (Simulation time: 0 hr 40 min 44 sec) 
Heartbeat CPU 0 instructions: 60000000 cycles: 57783330 heartbeat IPC: 0.847513 cumulative IPC: 0.93302 (Simulation time: 0 hr 41 min 13 sec) 
Heartbeat CPU 0 instructions: 61000000 cycles: 58927842 heartbeat IPC: 0.873735 cumulative IPC: 0.93178 (Simulation time: 0 hr 41 min 44 sec) 
Heartbeat CPU 0 instructions: 62000002 cycles: 59771951 heartbeat IPC: 1.18468 cumulative IPC: 0.935621 (Simulation time: 0 hr 42 min 12 sec) 
Heartbeat CPU 0 instructions: 63000003 cycles: 60671139 heartbeat IPC: 1.11212 cumulative IPC: 0.938431 (Simulation time: 0 hr 42 min 50 sec) 
Heartbeat CPU 0 instructions: 64000000 cycles: 61726251 heartbeat IPC: 0.947764 cumulative IPC: 0.938603 (Simulation time: 0 hr 43 min 32 sec) 
Heartbeat CPU 0 instructions: 65000003 cycles: 62703851 heartbeat IPC: 1.02292 cumulative IPC: 0.940011 (Simulation time: 0 hr 44 min 15 sec) 
Heartbeat CPU 0 instructions: 66000003 cycles: 63651165 heartbeat IPC: 1.05562 cumulative IPC: 0.941853 (Simulation time: 0 hr 44 min 58 sec) 
Heartbeat CPU 0 instructions: 67000003 cycles: 64700208 heartbeat IPC: 0.95325 cumulative IPC: 0.942051 (Simulation time: 0 hr 45 min 41 sec) 
Heartbeat CPU 0 instructions: 68000000 cycles: 65772435 heartbeat IPC: 0.932636 cumulative IPC: 0.941887 (Simulation time: 0 hr 46 min 23 sec) 
Heartbeat CPU 0 instructions: 69000003 cycles: 66878191 heartbeat IPC: 0.904361 cumulative IPC: 0.941225 (Simulation time: 0 hr 47 min 7 sec) 
Heartbeat CPU 0 instructions: 70000003 cycles: 68120556 heartbeat IPC: 0.804916 cumulative IPC: 0.938576 (Simulation time: 0 hr 47 min 48 sec) 
Heartbeat CPU 0 instructions: 71000000 cycles: 69418761 heartbeat IPC: 0.770292 cumulative IPC: 0.935226 (Simulation time: 0 hr 48 min 28 sec) 
Heartbeat CPU 0 instructions: 72000000 cycles: 70582256 heartbeat IPC: 0.859479 cumulative IPC: 0.933899 (Simulation time: 0 hr 49 min 6 sec) 
Heartbeat CPU 0 instructions: 73000003 cycles: 71870832 heartbeat IPC: 0.776053 cumulative IPC: 0.930894 (Simulation time: 0 hr 49 min 48 sec) 
Heartbeat CPU 0 instructions: 74000001 cycles: 73098090 heartbeat IPC: 0.814823 cumulative IPC: 0.928826 (Simulation time: 0 hr 50 min 26 sec) 
Heartbeat CPU 0 instructions: 75000000 cycles: 74243647 heartbeat IPC: 0.872937 cumulative IPC: 0.927912 (Simulation time: 0 hr 51 min 5 sec) 
Heartbeat CPU 0 instructions: 76000000 cycles: 75316850 heartbeat IPC: 0.93179 cumulative IPC: 0.927971 (Simulation time: 0 hr 51 min 43 sec) 
Heartbeat CPU 0 instructions: 77000003 cycles: 76278406 heartbeat IPC: 1.03998 cumulative IPC: 0.929465 (Simulation time: 0 hr 52 min 18 sec) 
Heartbeat CPU 0 instructions: 78000000 cycles: 77234968 heartbeat IPC: 1.04541 cumulative IPC: 0.930983 (Simulation time: 0 hr 52 min 55 sec) 
Heartbeat CPU 0 instructions: 79000003 cycles: 78305119 heartbeat IPC: 0.93445 cumulative IPC: 0.931033 (Simulation time: 0 hr 53 min 31 sec) 
Heartbeat CPU 0 instructions: 80000000 cycles: 79534263 heartbeat IPC: 0.813572 cumulative IPC: 0.929117 (Simulation time: 0 hr 54 min 10 sec) 
Heartbeat CPU 0 instructions: 81000001 cycles: 80689789 heartbeat IPC: 0.865408 cumulative IPC: 0.928155 (Simulation time: 0 hr 54 min 49 sec) 
Heartbeat CPU 0 instructions: 82000003 cycles: 81803204 heartbeat IPC: 0.89814 cumulative IPC: 0.927724 (Simulation time: 0 hr 55 min 29 sec) 
Heartbeat CPU 0 instructions: 83000002 cycles: 82850675 heartbeat IPC: 0.954679 cumulative IPC: 0.928083 (Simulation time: 0 hr 56 min 7 sec) 
Heartbeat CPU 0 instructions: 84000000 cycles: 83794924 heartbeat IPC: 1.05904 cumulative IPC: 0.929636 (Simulation time: 0 hr 56 min 41 sec) 
Heartbeat CPU 0 instructions: 85000003 cycles: 84736957 heartbeat IPC: 1.06154 cumulative IPC: 0.931179 (Simulation time: 0 hr 57 min 16 sec) 
Heartbeat CPU 0 instructions: 86000003 cycles: 85771823 heartbeat IPC: 0.966309 cumulative IPC: 0.931625 (Simulation time: 0 hr 57 min 51 sec) 
Heartbeat CPU 0 instructions: 87000002 cycles: 86829728 heartbeat IPC: 0.945264 cumulative IPC: 0.931799 (Simulation time: 0 hr 58 min 28 sec) 
Heartbeat CPU 0 instructions: 88000000 cycles: 87934450 heartbeat IPC: 0.905203 cumulative IPC: 0.931449 (Simulation time: 0 hr 59 min 0 sec) 
Heartbeat CPU 0 instructions: 89000002 cycles: 88941190 heartbeat IPC: 0.993307 cumulative IPC: 0.932183 (Simulation time: 0 hr 59 min 32 sec) 
Heartbeat CPU 0 instructions: 90000001 cycles: 90064351 heartbeat IPC: 0.890343 cumulative IPC: 0.931636 (Simulation time: 1 hr 0 min 3 sec) 
Heartbeat CPU 0 instructions: 91000002 cycles: 91178608 heartbeat IPC: 0.89746 cumulative IPC: 0.931198 (Simulation time: 1 hr 0 min 35 sec) 
Heartbeat CPU 0 instructions: 92000000 cycles: 92217950 heartbeat IPC: 0.962145 cumulative IPC: 0.931564 (Simulation time: 1 hr 1 min 4 sec) 
Heartbeat CPU 0 instructions: 93000000 cycles: 93406584 heartbeat IPC: 0.841302 cumulative IPC: 0.930361 (Simulation time: 1 hr 1 min 34 sec) 
Heartbeat CPU 0 instructions: 94000003 cycles: 94582782 heartbeat IPC: 0.8502 cumulative IPC: 0.929318 (Simulation time: 1 hr 2 min 3 sec) 
Heartbeat CPU 0 instructions: 95000002 cycles: 95767790 heartbeat IPC: 0.843875 cumulative IPC: 0.928212 (Simulation time: 1 hr 2 min 32 sec) 
Heartbeat CPU 0 instructions: 96000000 cycles: 96937501 heartbeat IPC: 0.85491 cumulative IPC: 0.927288 (Simulation time: 1 hr 3 min 5 sec) 
Heartbeat CPU 0 instructions: 97000002 cycles: 98154609 heartbeat IPC: 0.821621 cumulative IPC: 0.925919 (Simulation time: 1 hr 3 min 35 sec) 
Heartbeat CPU 0 instructions: 98000000 cycles: 99388515 heartbeat IPC: 0.810433 cumulative IPC: 0.924422 (Simulation time: 1 hr 4 min 4 sec) 
Heartbeat CPU 0 instructions: 99000000 cycles: 100628750 heartbeat IPC: 0.806299 cumulative IPC: 0.922903 (Simulation time: 1 hr 4 min 32 sec) 
Heartbeat CPU 0 instructions: 100000000 cycles: 101870811 heartbeat IPC: 0.805113 cumulative IPC: 0.921405 (Simulation time: 1 hr 5 min 3 sec) 
Heartbeat CPU 0 instructions: 101000003 cycles: 103019566 heartbeat IPC: 0.87051 cumulative IPC: 0.920814 (Simulation time: 1 hr 5 min 32 sec) 
Heartbeat CPU 0 instructions: 102000000 cycles: 104139605 heartbeat IPC: 0.892823 cumulative IPC: 0.9205 (Simulation time: 1 hr 5 min 58 sec) 
Heartbeat CPU 0 instructions: 103000000 cycles: 105240961 heartbeat IPC: 0.907972 cumulative IPC: 0.920363 (Simulation time: 1 hr 6 min 22 sec) 
Heartbeat CPU 0 instructions: 104000000 cycles: 106394400 heartbeat IPC: 0.866973 cumulative IPC: 0.919761 (Simulation time: 1 hr 6 min 48 sec) 
Heartbeat CPU 0 instructions: 105000002 cycles: 107606433 heartbeat IPC: 0.825062 cumulative IPC: 0.918651 (Simulation time: 1 hr 7 min 13 sec) 
Heartbeat CPU 0 instructions: 106000001 cycles: 108739992 heartbeat IPC: 0.882176 cumulative IPC: 0.918255 (Simulation time: 1 hr 7 min 35 sec) 
Heartbeat CPU 0 instructions: 107000000 cycles: 109943050 heartbeat IPC: 0.831214 cumulative IPC: 0.917265 (Simulation time: 1 hr 7 min 57 sec) 
Heartbeat CPU 0 instructions: 108000000 cycles: 111141386 heartbeat IPC: 0.83449 cumulative IPC: 0.916338 (Simulation time: 1 hr 8 min 18 sec) 
Heartbeat CPU 0 instructions: 109000000 cycles: 112153735 heartbeat IPC: 0.987802 cumulative IPC: 0.917008 (Simulation time: 1 hr 8 min 39 sec) 
Heartbeat CPU 0 instructions: 110000000 cycles: 113314758 heartbeat IPC: 0.861309 cumulative IPC: 0.916415 (Simulation time: 1 hr 8 min 59 sec) 
Finished CPU 0 instructions: 100000002 cycles: 109120843 cummulative IPC: 0.916415 (Simulation time: 1 hr 8 min 59 sec) 

ChampSim completed all CPUs

Region of Interest Statistics

CPU 0 cummulative IPC: 0.916415 instructions: 100000002 cycles: 109120843
LLC TOTAL     ACCESS:    1373532  HIT:    1067837  MISS:     305695
LLC LOAD      ACCESS:     396208  HIT:     350431  MISS:      45777
LLC RFO       ACCESS:     104382  HIT:      45632  MISS:      58750
LLC PREFETCH  ACCESS:     675960  HIT:     515055  MISS:     160905
LLC WRITEBACK ACCESS:     196982  HIT:     156719  MISS:      40263
Insertion Distribution: 
	LOAD 37724 0 0 0 0 8106 93 
	RFO 11309 0 0 0 0 26907 36488 
	PREF 0 11136 0 0 0 55162 95087 
	WRITEBACK 0 0 0 0 0 0 40267 
Total Prefetch Downgrades: 26313
