
*** ChampSim Multicore Out-of-Order Simulator ***

Warmup Instructions: 10000000
Simulation Instructions: 100000000
Configuration: 2
Number of CPUs: 1
LLC sets: 2048
LLC ways: 16
Off-chip DRAM Channels: 1 Width: 64-bit Data Rate: 1600 MT/s

CPU 0 runs /datasets/cs240c-wi22-a00-public/data/Assignment2-gz/perlbench_53B.trace.gz
CPU 0 L1D next line prefetcher
CPU 0 L2C IP-based stride prefetcher
Initialize SRRIP state
Heartbeat CPU 0 instructions: 1000000 cycles: 615802 heartbeat IPC: 1.6239 cumulative IPC: 1.6239 (Simulation time: 0 hr 0 min 43 sec) 
Heartbeat CPU 0 instructions: 2000001 cycles: 1252973 heartbeat IPC: 1.56944 cumulative IPC: 1.5962 (Simulation time: 0 hr 1 min 28 sec) 
Heartbeat CPU 0 instructions: 3000002 cycles: 1908459 heartbeat IPC: 1.52559 cumulative IPC: 1.57195 (Simulation time: 0 hr 2 min 15 sec) 
Heartbeat CPU 0 instructions: 4000000 cycles: 2523972 heartbeat IPC: 1.62466 cumulative IPC: 1.5848 (Simulation time: 0 hr 2 min 57 sec) 
Heartbeat CPU 0 instructions: 5000001 cycles: 3151982 heartbeat IPC: 1.59233 cumulative IPC: 1.5863 (Simulation time: 0 hr 3 min 42 sec) 
Heartbeat CPU 0 instructions: 6000001 cycles: 3767489 heartbeat IPC: 1.62468 cumulative IPC: 1.59257 (Simulation time: 0 hr 4 min 26 sec) 
Heartbeat CPU 0 instructions: 7000002 cycles: 4390292 heartbeat IPC: 1.60565 cumulative IPC: 1.59443 (Simulation time: 0 hr 5 min 13 sec) 
Heartbeat CPU 0 instructions: 8000000 cycles: 5000686 heartbeat IPC: 1.63828 cumulative IPC: 1.59978 (Simulation time: 0 hr 5 min 58 sec) 
Heartbeat CPU 0 instructions: 9000000 cycles: 5652422 heartbeat IPC: 1.53436 cumulative IPC: 1.59224 (Simulation time: 0 hr 6 min 46 sec) 
Heartbeat CPU 0 instructions: 10000001 cycles: 6287692 heartbeat IPC: 1.57414 cumulative IPC: 1.59041 (Simulation time: 0 hr 7 min 32 sec) 

Warmup complete CPU 0 instructions: 10000001 cycles: 6287692 (Simulation time: 0 hr 7 min 32 sec) 

Heartbeat CPU 0 instructions: 11000000 cycles: 9157706 heartbeat IPC: 0.34843 cumulative IPC: 0.34843 (Simulation time: 0 hr 8 min 21 sec) 
Heartbeat CPU 0 instructions: 12000000 cycles: 12019769 heartbeat IPC: 0.349398 cumulative IPC: 0.348913 (Simulation time: 0 hr 9 min 16 sec) 
Heartbeat CPU 0 instructions: 13000000 cycles: 14373313 heartbeat IPC: 0.424891 cumulative IPC: 0.371029 (Simulation time: 0 hr 10 min 1 sec) 
Heartbeat CPU 0 instructions: 14000000 cycles: 16884587 heartbeat IPC: 0.398204 cumulative IPC: 0.377469 (Simulation time: 0 hr 10 min 50 sec) 
Heartbeat CPU 0 instructions: 15000001 cycles: 19639625 heartbeat IPC: 0.362972 cumulative IPC: 0.374478 (Simulation time: 0 hr 11 min 35 sec) 
Heartbeat CPU 0 instructions: 16000000 cycles: 22303729 heartbeat IPC: 0.37536 cumulative IPC: 0.374624 (Simulation time: 0 hr 12 min 26 sec) 
Heartbeat CPU 0 instructions: 17000001 cycles: 24979942 heartbeat IPC: 0.373663 cumulative IPC: 0.374487 (Simulation time: 0 hr 13 min 15 sec) 
Heartbeat CPU 0 instructions: 18000002 cycles: 27836563 heartbeat IPC: 0.350064 cumulative IPC: 0.371249 (Simulation time: 0 hr 14 min 6 sec) 
Heartbeat CPU 0 instructions: 19000000 cycles: 30660260 heartbeat IPC: 0.354145 cumulative IPC: 0.369268 (Simulation time: 0 hr 14 min 55 sec) 
Heartbeat CPU 0 instructions: 20000000 cycles: 33515063 heartbeat IPC: 0.350287 cumulative IPC: 0.367277 (Simulation time: 0 hr 15 min 53 sec) 
Heartbeat CPU 0 instructions: 21000000 cycles: 35873852 heartbeat IPC: 0.423946 cumulative IPC: 0.371795 (Simulation time: 0 hr 16 min 46 sec) 
Heartbeat CPU 0 instructions: 22000000 cycles: 37950695 heartbeat IPC: 0.4815 cumulative IPC: 0.378991 (Simulation time: 0 hr 17 min 36 sec) 
Heartbeat CPU 0 instructions: 23000001 cycles: 39880441 heartbeat IPC: 0.518203 cumulative IPC: 0.386988 (Simulation time: 0 hr 18 min 28 sec) 
Heartbeat CPU 0 instructions: 24000000 cycles: 42278396 heartbeat IPC: 0.417022 cumulative IPC: 0.388989 (Simulation time: 0 hr 19 min 31 sec) 
Heartbeat CPU 0 instructions: 25000000 cycles: 44289811 heartbeat IPC: 0.497162 cumulative IPC: 0.394715 (Simulation time: 0 hr 20 min 20 sec) 
Heartbeat CPU 0 instructions: 26000001 cycles: 46274216 heartbeat IPC: 0.50393 cumulative IPC: 0.400135 (Simulation time: 0 hr 21 min 14 sec) 
Heartbeat CPU 0 instructions: 27000002 cycles: 48569193 heartbeat IPC: 0.435735 cumulative IPC: 0.402067 (Simulation time: 0 hr 22 min 12 sec) 
Heartbeat CPU 0 instructions: 28000000 cycles: 51140659 heartbeat IPC: 0.388882 cumulative IPC: 0.401311 (Simulation time: 0 hr 23 min 17 sec) 
Heartbeat CPU 0 instructions: 29000000 cycles: 53460111 heartbeat IPC: 0.431136 cumulative IPC: 0.402778 (Simulation time: 0 hr 24 min 17 sec) 
Heartbeat CPU 0 instructions: 30000000 cycles: 55502613 heartbeat IPC: 0.489596 cumulative IPC: 0.406381 (Simulation time: 0 hr 25 min 7 sec) 
Heartbeat CPU 0 instructions: 31000001 cycles: 57489667 heartbeat IPC: 0.503258 cumulative IPC: 0.41014 (Simulation time: 0 hr 25 min 53 sec) 
Heartbeat CPU 0 instructions: 32000000 cycles: 59486967 heartbeat IPC: 0.500675 cumulative IPC: 0.413539 (Simulation time: 0 hr 26 min 40 sec) 
Heartbeat CPU 0 instructions: 33000003 cycles: 61941816 heartbeat IPC: 0.407358 cumulative IPC: 0.413267 (Simulation time: 0 hr 27 min 31 sec) 
Heartbeat CPU 0 instructions: 34000000 cycles: 64637196 heartbeat IPC: 0.371004 cumulative IPC: 0.411315 (Simulation time: 0 hr 28 min 21 sec) 
Heartbeat CPU 0 instructions: 35000000 cycles: 67187238 heartbeat IPC: 0.39215 cumulative IPC: 0.410512 (Simulation time: 0 hr 29 min 18 sec) 
Heartbeat CPU 0 instructions: 36000000 cycles: 69977341 heartbeat IPC: 0.35841 cumulative IPC: 0.40823 (Simulation time: 0 hr 30 min 13 sec) 
Heartbeat CPU 0 instructions: 37000002 cycles: 72816674 heartbeat IPC: 0.352196 cumulative IPC: 0.405838 (Simulation time: 0 hr 31 min 12 sec) 
Heartbeat CPU 0 instructions: 38000000 cycles: 75685003 heartbeat IPC: 0.348634 cumulative IPC: 0.403474 (Simulation time: 0 hr 32 min 17 sec) 
Heartbeat CPU 0 instructions: 39000001 cycles: 78353399 heartbeat IPC: 0.374757 cumulative IPC: 0.402411 (Simulation time: 0 hr 33 min 22 sec) 
Heartbeat CPU 0 instructions: 40000000 cycles: 80951887 heartbeat IPC: 0.384839 cumulative IPC: 0.401799 (Simulation time: 0 hr 34 min 21 sec) 
Heartbeat CPU 0 instructions: 41000002 cycles: 83821772 heartbeat IPC: 0.348447 cumulative IPC: 0.399824 (Simulation time: 0 hr 35 min 13 sec) 
Heartbeat CPU 0 instructions: 42000000 cycles: 86424562 heartbeat IPC: 0.384202 cumulative IPC: 0.399317 (Simulation time: 0 hr 36 min 10 sec) 
Heartbeat CPU 0 instructions: 43000002 cycles: 89262680 heartbeat IPC: 0.352347 cumulative IPC: 0.39771 (Simulation time: 0 hr 36 min 59 sec) 
Heartbeat CPU 0 instructions: 44000000 cycles: 91927077 heartbeat IPC: 0.375319 cumulative IPC: 0.397014 (Simulation time: 0 hr 37 min 50 sec) 
Heartbeat CPU 0 instructions: 45000001 cycles: 93387349 heartbeat IPC: 0.684805 cumulative IPC: 0.401839 (Simulation time: 0 hr 38 min 37 sec) 
Heartbeat CPU 0 instructions: 46000000 cycles: 95412586 heartbeat IPC: 0.493769 cumulative IPC: 0.403928 (Simulation time: 0 hr 39 min 16 sec) 
Heartbeat CPU 0 instructions: 47000002 cycles: 97327989 heartbeat IPC: 0.522084 cumulative IPC: 0.406413 (Simulation time: 0 hr 39 min 50 sec) 
Heartbeat CPU 0 instructions: 48000000 cycles: 99248204 heartbeat IPC: 0.520774 cumulative IPC: 0.408776 (Simulation time: 0 hr 40 min 24 sec) 
Heartbeat CPU 0 instructions: 49000000 cycles: 101598982 heartbeat IPC: 0.425391 cumulative IPC: 0.409185 (Simulation time: 0 hr 41 min 6 sec) 
Heartbeat CPU 0 instructions: 50000002 cycles: 103461974 heartbeat IPC: 0.536772 cumulative IPC: 0.411632 (Simulation time: 0 hr 41 min 45 sec) 
Heartbeat CPU 0 instructions: 51000000 cycles: 105392557 heartbeat IPC: 0.517977 cumulative IPC: 0.413703 (Simulation time: 0 hr 42 min 23 sec) 
Heartbeat CPU 0 instructions: 52000000 cycles: 107307562 heartbeat IPC: 0.522192 cumulative IPC: 0.41576 (Simulation time: 0 hr 43 min 12 sec) 
Heartbeat CPU 0 instructions: 53000002 cycles: 109258229 heartbeat IPC: 0.512646 cumulative IPC: 0.417595 (Simulation time: 0 hr 44 min 4 sec) 
Heartbeat CPU 0 instructions: 54000000 cycles: 112148830 heartbeat IPC: 0.345948 cumulative IPC: 0.415639 (Simulation time: 0 hr 44 min 53 sec) 
Heartbeat CPU 0 instructions: 55000000 cycles: 114636732 heartbeat IPC: 0.401945 cumulative IPC: 0.415324 (Simulation time: 0 hr 45 min 47 sec) 
Heartbeat CPU 0 instructions: 56000000 cycles: 117437526 heartbeat IPC: 0.357042 cumulative IPC: 0.413856 (Simulation time: 0 hr 46 min 41 sec) 
Heartbeat CPU 0 instructions: 57000001 cycles: 120422449 heartbeat IPC: 0.335017 cumulative IPC: 0.411794 (Simulation time: 0 hr 47 min 34 sec) 
Heartbeat CPU 0 instructions: 58000003 cycles: 123390423 heartbeat IPC: 0.336931 cumulative IPC: 0.409897 (Simulation time: 0 hr 48 min 43 sec) 
Heartbeat CPU 0 instructions: 59000002 cycles: 126206092 heartbeat IPC: 0.355155 cumulative IPC: 0.408611 (Simulation time: 0 hr 49 min 34 sec) 
Heartbeat CPU 0 instructions: 60000000 cycles: 128970119 heartbeat IPC: 0.36179 cumulative IPC: 0.407556 (Simulation time: 0 hr 50 min 28 sec) 
Heartbeat CPU 0 instructions: 61000002 cycles: 131603263 heartbeat IPC: 0.379775 cumulative IPC: 0.406973 (Simulation time: 0 hr 51 min 21 sec) 
Heartbeat CPU 0 instructions: 62000002 cycles: 134286710 heartbeat IPC: 0.372655 cumulative IPC: 0.406253 (Simulation time: 0 hr 52 min 14 sec) 
Heartbeat CPU 0 instructions: 63000001 cycles: 136955432 heartbeat IPC: 0.374711 cumulative IPC: 0.405609 (Simulation time: 0 hr 53 min 4 sec) 
Heartbeat CPU 0 instructions: 64000000 cycles: 139612604 heartbeat IPC: 0.37634 cumulative IPC: 0.405026 (Simulation time: 0 hr 53 min 57 sec) 
Heartbeat CPU 0 instructions: 65000003 cycles: 142250593 heartbeat IPC: 0.379078 cumulative IPC: 0.404522 (Simulation time: 0 hr 54 min 47 sec) 
Heartbeat CPU 0 instructions: 66000001 cycles: 144878934 heartbeat IPC: 0.380467 cumulative IPC: 0.404066 (Simulation time: 0 hr 55 min 41 sec) 
Heartbeat CPU 0 instructions: 67000001 cycles: 147492112 heartbeat IPC: 0.382676 cumulative IPC: 0.40367 (Simulation time: 0 hr 56 min 30 sec) 
Heartbeat CPU 0 instructions: 68000000 cycles: 150160672 heartbeat IPC: 0.374734 cumulative IPC: 0.403133 (Simulation time: 0 hr 57 min 21 sec) 
Heartbeat CPU 0 instructions: 69000001 cycles: 152799457 heartbeat IPC: 0.378963 cumulative IPC: 0.402698 (Simulation time: 0 hr 58 min 12 sec) 
Heartbeat CPU 0 instructions: 70000001 cycles: 155410906 heartbeat IPC: 0.382929 cumulative IPC: 0.402352 (Simulation time: 0 hr 58 min 59 sec) 
Heartbeat CPU 0 instructions: 71000001 cycles: 158129694 heartbeat IPC: 0.367811 cumulative IPC: 0.401733 (Simulation time: 0 hr 59 min 53 sec) 
Heartbeat CPU 0 instructions: 72000000 cycles: 160734814 heartbeat IPC: 0.383859 cumulative IPC: 0.401432 (Simulation time: 1 hr 0 min 50 sec) 
Heartbeat CPU 0 instructions: 73000002 cycles: 163392984 heartbeat IPC: 0.376199 cumulative IPC: 0.401005 (Simulation time: 1 hr 1 min 39 sec) 
Heartbeat CPU 0 instructions: 74000001 cycles: 166074859 heartbeat IPC: 0.372873 cumulative IPC: 0.400533 (Simulation time: 1 hr 2 min 26 sec) 
Heartbeat CPU 0 instructions: 75000001 cycles: 168735744 heartbeat IPC: 0.375815 cumulative IPC: 0.400128 (Simulation time: 1 hr 3 min 13 sec) 
Heartbeat CPU 0 instructions: 76000000 cycles: 171378982 heartbeat IPC: 0.378323 cumulative IPC: 0.399779 (Simulation time: 1 hr 4 min 4 sec) 
Heartbeat CPU 0 instructions: 77000002 cycles: 174051681 heartbeat IPC: 0.374154 cumulative IPC: 0.399371 (Simulation time: 1 hr 4 min 48 sec) 
Heartbeat CPU 0 instructions: 78000000 cycles: 176705528 heartbeat IPC: 0.376811 cumulative IPC: 0.399019 (Simulation time: 1 hr 5 min 30 sec) 
Heartbeat CPU 0 instructions: 79000002 cycles: 179366638 heartbeat IPC: 0.375784 cumulative IPC: 0.398662 (Simulation time: 1 hr 6 min 10 sec) 
Heartbeat CPU 0 instructions: 80000000 cycles: 182001403 heartbeat IPC: 0.37954 cumulative IPC: 0.398375 (Simulation time: 1 hr 6 min 49 sec) 
Heartbeat CPU 0 instructions: 81000000 cycles: 184616027 heartbeat IPC: 0.382464 cumulative IPC: 0.398142 (Simulation time: 1 hr 7 min 27 sec) 
Heartbeat CPU 0 instructions: 82000002 cycles: 187293277 heartbeat IPC: 0.373518 cumulative IPC: 0.397778 (Simulation time: 1 hr 8 min 0 sec) 
Heartbeat CPU 0 instructions: 83000000 cycles: 189939816 heartbeat IPC: 0.377851 cumulative IPC: 0.397491 (Simulation time: 1 hr 8 min 32 sec) 
Heartbeat CPU 0 instructions: 84000000 cycles: 192596494 heartbeat IPC: 0.37641 cumulative IPC: 0.39719 (Simulation time: 1 hr 9 min 2 sec) 
Heartbeat CPU 0 instructions: 85000001 cycles: 195274869 heartbeat IPC: 0.373361 cumulative IPC: 0.396852 (Simulation time: 1 hr 9 min 33 sec) 
Heartbeat CPU 0 instructions: 86000000 cycles: 197771200 heartbeat IPC: 0.400587 cumulative IPC: 0.396901 (Simulation time: 1 hr 10 min 7 sec) 
Heartbeat CPU 0 instructions: 87000000 cycles: 199902641 heartbeat IPC: 0.469166 cumulative IPC: 0.397697 (Simulation time: 1 hr 10 min 33 sec) 
Heartbeat CPU 0 instructions: 88000000 cycles: 201900108 heartbeat IPC: 0.500634 cumulative IPC: 0.398748 (Simulation time: 1 hr 10 min 59 sec) 
Heartbeat CPU 0 instructions: 89000001 cycles: 203974938 heartbeat IPC: 0.481968 cumulative IPC: 0.399621 (Simulation time: 1 hr 11 min 26 sec) 
Heartbeat CPU 0 instructions: 90000000 cycles: 206638240 heartbeat IPC: 0.375473 cumulative IPC: 0.3993 (Simulation time: 1 hr 11 min 58 sec) 
Heartbeat CPU 0 instructions: 91000001 cycles: 209410340 heartbeat IPC: 0.360738 cumulative IPC: 0.398774 (Simulation time: 1 hr 12 min 30 sec) 
Heartbeat CPU 0 instructions: 92000000 cycles: 212095867 heartbeat IPC: 0.372366 cumulative IPC: 0.398429 (Simulation time: 1 hr 12 min 57 sec) 
Heartbeat CPU 0 instructions: 93000000 cycles: 214749517 heartbeat IPC: 0.376839 cumulative IPC: 0.398154 (Simulation time: 1 hr 13 min 24 sec) 
Heartbeat CPU 0 instructions: 94000002 cycles: 217397851 heartbeat IPC: 0.377597 cumulative IPC: 0.397897 (Simulation time: 1 hr 13 min 51 sec) 
Heartbeat CPU 0 instructions: 95000000 cycles: 220017572 heartbeat IPC: 0.381719 cumulative IPC: 0.397698 (Simulation time: 1 hr 14 min 16 sec) 
Heartbeat CPU 0 instructions: 96000000 cycles: 222681925 heartbeat IPC: 0.375326 cumulative IPC: 0.397423 (Simulation time: 1 hr 14 min 41 sec) 
Heartbeat CPU 0 instructions: 97000000 cycles: 225322677 heartbeat IPC: 0.37868 cumulative IPC: 0.397197 (Simulation time: 1 hr 15 min 4 sec) 
Heartbeat CPU 0 instructions: 98000000 cycles: 227945331 heartbeat IPC: 0.381293 cumulative IPC: 0.397009 (Simulation time: 1 hr 15 min 26 sec) 
Heartbeat CPU 0 instructions: 99000002 cycles: 230554931 heartbeat IPC: 0.383201 cumulative IPC: 0.396848 (Simulation time: 1 hr 15 min 47 sec) 
Heartbeat CPU 0 instructions: 100000000 cycles: 233181357 heartbeat IPC: 0.380745 cumulative IPC: 0.396662 (Simulation time: 1 hr 16 min 7 sec) 
Heartbeat CPU 0 instructions: 101000002 cycles: 235836268 heartbeat IPC: 0.376661 cumulative IPC: 0.39643 (Simulation time: 1 hr 16 min 26 sec) 
Heartbeat CPU 0 instructions: 102000000 cycles: 238467263 heartbeat IPC: 0.380084 cumulative IPC: 0.396245 (Simulation time: 1 hr 16 min 45 sec) 
Heartbeat CPU 0 instructions: 103000000 cycles: 241093472 heartbeat IPC: 0.380777 cumulative IPC: 0.396072 (Simulation time: 1 hr 17 min 2 sec) 
Heartbeat CPU 0 instructions: 104000000 cycles: 243756070 heartbeat IPC: 0.375573 cumulative IPC: 0.395842 (Simulation time: 1 hr 17 min 21 sec) 
Heartbeat CPU 0 instructions: 105000003 cycles: 245936056 heartbeat IPC: 0.45872 cumulative IPC: 0.396414 (Simulation time: 1 hr 17 min 37 sec) 
Heartbeat CPU 0 instructions: 106000000 cycles: 247913325 heartbeat IPC: 0.505747 cumulative IPC: 0.397309 (Simulation time: 1 hr 17 min 49 sec) 
Heartbeat CPU 0 instructions: 107000003 cycles: 249888756 heartbeat IPC: 0.50622 cumulative IPC: 0.398192 (Simulation time: 1 hr 18 min 0 sec) 
Heartbeat CPU 0 instructions: 108000000 cycles: 252610931 heartbeat IPC: 0.367352 cumulative IPC: 0.397851 (Simulation time: 1 hr 18 min 11 sec) 
Heartbeat CPU 0 instructions: 109000001 cycles: 255307167 heartbeat IPC: 0.370888 cumulative IPC: 0.397559 (Simulation time: 1 hr 18 min 22 sec) 
Heartbeat CPU 0 instructions: 110000000 cycles: 257814755 heartbeat IPC: 0.398789 cumulative IPC: 0.397572 (Simulation time: 1 hr 18 min 33 sec) 
Finished CPU 0 instructions: 100000000 cycles: 251527064 cummulative IPC: 0.397572 (Simulation time: 1 hr 18 min 33 sec) 

ChampSim completed all CPUs

Region of Interest Statistics

CPU 0 cummulative IPC: 0.397572 instructions: 100000000 cycles: 251527064
LLC TOTAL     ACCESS:     656699  HIT:     612765  MISS:      43934
LLC LOAD      ACCESS:     310901  HIT:     303129  MISS:       7772
LLC RFO       ACCESS:      30806  HIT:      26581  MISS:       4225
LLC PREFETCH  ACCESS:     212711  HIT:     181485  MISS:      31226
LLC WRITEBACK ACCESS:     102281  HIT:     101570  MISS:        711
Insertion Distribution: 
	LOAD 3440 0 0 0 0 17665 359 
	RFO 874 0 0 0 0 5073 88 
	PREF 0 636 0 0 0 27086 15919 
	WRITEBACK 0 0 0 0 0 0 971 
Total Prefetch Downgrades: 3382
