
*** ChampSim Multicore Out-of-Order Simulator ***

Warmup Instructions: 10000000
Simulation Instructions: 100000000
Configuration: 2
Number of CPUs: 1
LLC sets: 2048
LLC ways: 16
Off-chip DRAM Channels: 1 Width: 64-bit Data Rate: 1600 MT/s

CPU 0 runs /datasets/cs240c-wi22-a00-public/data/Assignment2-gz/astar_163B.trace.gz
CPU 0 L1D next line prefetcher
CPU 0 L2C IP-based stride prefetcher
Initialize SRRIP state
Heartbeat CPU 0 instructions: 1000002 cycles: 531212 heartbeat IPC: 1.88249 cumulative IPC: 1.88249 (Simulation time: 0 hr 0 min 39 sec) 
Heartbeat CPU 0 instructions: 2000003 cycles: 1060822 heartbeat IPC: 1.88818 cumulative IPC: 1.88533 (Simulation time: 0 hr 1 min 16 sec) 
Heartbeat CPU 0 instructions: 3000003 cycles: 1590855 heartbeat IPC: 1.88668 cumulative IPC: 1.88578 (Simulation time: 0 hr 1 min 54 sec) 
Heartbeat CPU 0 instructions: 4000000 cycles: 2120959 heartbeat IPC: 1.88642 cumulative IPC: 1.88594 (Simulation time: 0 hr 2 min 32 sec) 
Heartbeat CPU 0 instructions: 5000000 cycles: 2652872 heartbeat IPC: 1.88001 cumulative IPC: 1.88475 (Simulation time: 0 hr 3 min 14 sec) 
Heartbeat CPU 0 instructions: 6000002 cycles: 3181386 heartbeat IPC: 1.8921 cumulative IPC: 1.88597 (Simulation time: 0 hr 3 min 52 sec) 
Heartbeat CPU 0 instructions: 7000003 cycles: 3710910 heartbeat IPC: 1.88849 cumulative IPC: 1.88633 (Simulation time: 0 hr 4 min 29 sec) 
Heartbeat CPU 0 instructions: 8000000 cycles: 4240193 heartbeat IPC: 1.88934 cumulative IPC: 1.88671 (Simulation time: 0 hr 5 min 8 sec) 
Heartbeat CPU 0 instructions: 9000000 cycles: 4771206 heartbeat IPC: 1.88319 cumulative IPC: 1.88632 (Simulation time: 0 hr 5 min 45 sec) 
Heartbeat CPU 0 instructions: 10000001 cycles: 5301285 heartbeat IPC: 1.88651 cumulative IPC: 1.88634 (Simulation time: 0 hr 6 min 23 sec) 

Warmup complete CPU 0 instructions: 10000001 cycles: 5301285 (Simulation time: 0 hr 6 min 23 sec) 

Heartbeat CPU 0 instructions: 11000003 cycles: 7521495 heartbeat IPC: 0.450409 cumulative IPC: 0.450409 (Simulation time: 0 hr 7 min 7 sec) 
Heartbeat CPU 0 instructions: 12000000 cycles: 9768121 heartbeat IPC: 0.445111 cumulative IPC: 0.447744 (Simulation time: 0 hr 7 min 53 sec) 
Heartbeat CPU 0 instructions: 13000000 cycles: 12016245 heartbeat IPC: 0.444815 cumulative IPC: 0.446763 (Simulation time: 0 hr 8 min 43 sec) 
Heartbeat CPU 0 instructions: 14000000 cycles: 14270670 heartbeat IPC: 0.443572 cumulative IPC: 0.445961 (Simulation time: 0 hr 9 min 30 sec) 
Heartbeat CPU 0 instructions: 15000000 cycles: 16587646 heartbeat IPC: 0.431597 cumulative IPC: 0.443013 (Simulation time: 0 hr 10 min 16 sec) 
Heartbeat CPU 0 instructions: 16000000 cycles: 18946934 heartbeat IPC: 0.423857 cumulative IPC: 0.439701 (Simulation time: 0 hr 11 min 0 sec) 
Heartbeat CPU 0 instructions: 17000003 cycles: 21264527 heartbeat IPC: 0.431483 cumulative IPC: 0.438508 (Simulation time: 0 hr 11 min 44 sec) 
Heartbeat CPU 0 instructions: 18000002 cycles: 23571923 heartbeat IPC: 0.433389 cumulative IPC: 0.437861 (Simulation time: 0 hr 12 min 27 sec) 
Heartbeat CPU 0 instructions: 19000000 cycles: 25879314 heartbeat IPC: 0.433389 cumulative IPC: 0.43736 (Simulation time: 0 hr 13 min 12 sec) 
Heartbeat CPU 0 instructions: 20000000 cycles: 28188958 heartbeat IPC: 0.432967 cumulative IPC: 0.436916 (Simulation time: 0 hr 13 min 57 sec) 
Heartbeat CPU 0 instructions: 21000003 cycles: 30538228 heartbeat IPC: 0.425665 cumulative IPC: 0.435869 (Simulation time: 0 hr 14 min 40 sec) 
Heartbeat CPU 0 instructions: 22000002 cycles: 32999274 heartbeat IPC: 0.406331 cumulative IPC: 0.433244 (Simulation time: 0 hr 15 min 26 sec) 
Heartbeat CPU 0 instructions: 23000001 cycles: 35416781 heartbeat IPC: 0.413649 cumulative IPC: 0.431671 (Simulation time: 0 hr 16 min 10 sec) 
Heartbeat CPU 0 instructions: 24000000 cycles: 37852261 heartbeat IPC: 0.410596 cumulative IPC: 0.430095 (Simulation time: 0 hr 16 min 53 sec) 
Heartbeat CPU 0 instructions: 25000003 cycles: 40028500 heartbeat IPC: 0.45951 cumulative IPC: 0.431938 (Simulation time: 0 hr 17 min 37 sec) 
Heartbeat CPU 0 instructions: 26000003 cycles: 41778863 heartbeat IPC: 0.57131 cumulative IPC: 0.438626 (Simulation time: 0 hr 18 min 22 sec) 
Heartbeat CPU 0 instructions: 27000000 cycles: 43602637 heartbeat IPC: 0.548312 cumulative IPC: 0.443849 (Simulation time: 0 hr 19 min 7 sec) 
Heartbeat CPU 0 instructions: 28000000 cycles: 45542951 heartbeat IPC: 0.515381 cumulative IPC: 0.447298 (Simulation time: 0 hr 19 min 52 sec) 
Heartbeat CPU 0 instructions: 29000000 cycles: 47477074 heartbeat IPC: 0.51703 cumulative IPC: 0.450495 (Simulation time: 0 hr 20 min 37 sec) 
Heartbeat CPU 0 instructions: 30000000 cycles: 49397465 heartbeat IPC: 0.520727 cumulative IPC: 0.453554 (Simulation time: 0 hr 21 min 24 sec) 
Heartbeat CPU 0 instructions: 31000001 cycles: 51263834 heartbeat IPC: 0.5358 cumulative IPC: 0.456894 (Simulation time: 0 hr 22 min 11 sec) 
Heartbeat CPU 0 instructions: 32000000 cycles: 53168692 heartbeat IPC: 0.524973 cumulative IPC: 0.459603 (Simulation time: 0 hr 22 min 57 sec) 
Heartbeat CPU 0 instructions: 33000000 cycles: 55057047 heartbeat IPC: 0.529561 cumulative IPC: 0.462258 (Simulation time: 0 hr 23 min 42 sec) 
Heartbeat CPU 0 instructions: 34000001 cycles: 56913530 heartbeat IPC: 0.538653 cumulative IPC: 0.465006 (Simulation time: 0 hr 24 min 33 sec) 
Heartbeat CPU 0 instructions: 35000001 cycles: 58786773 heartbeat IPC: 0.533834 cumulative IPC: 0.467416 (Simulation time: 0 hr 25 min 24 sec) 
Heartbeat CPU 0 instructions: 36000000 cycles: 60648893 heartbeat IPC: 0.537022 cumulative IPC: 0.469758 (Simulation time: 0 hr 26 min 8 sec) 
Heartbeat CPU 0 instructions: 37000000 cycles: 62591173 heartbeat IPC: 0.514859 cumulative IPC: 0.471287 (Simulation time: 0 hr 26 min 52 sec) 
Heartbeat CPU 0 instructions: 38000000 cycles: 64488535 heartbeat IPC: 0.527048 cumulative IPC: 0.473075 (Simulation time: 0 hr 27 min 40 sec) 
Heartbeat CPU 0 instructions: 39000001 cycles: 66346171 heartbeat IPC: 0.538319 cumulative IPC: 0.47506 (Simulation time: 0 hr 28 min 28 sec) 
Heartbeat CPU 0 instructions: 40000000 cycles: 68235781 heartbeat IPC: 0.529209 cumulative IPC: 0.476686 (Simulation time: 0 hr 29 min 14 sec) 
Heartbeat CPU 0 instructions: 41000001 cycles: 70158876 heartbeat IPC: 0.519996 cumulative IPC: 0.47797 (Simulation time: 0 hr 30 min 2 sec) 
Heartbeat CPU 0 instructions: 42000001 cycles: 72143418 heartbeat IPC: 0.503895 cumulative IPC: 0.47874 (Simulation time: 0 hr 30 min 45 sec) 
Heartbeat CPU 0 instructions: 43000001 cycles: 74158278 heartbeat IPC: 0.496312 cumulative IPC: 0.479254 (Simulation time: 0 hr 31 min 30 sec) 
Heartbeat CPU 0 instructions: 44000000 cycles: 76220199 heartbeat IPC: 0.484984 cumulative IPC: 0.479421 (Simulation time: 0 hr 32 min 15 sec) 
Heartbeat CPU 0 instructions: 45000000 cycles: 78303941 heartbeat IPC: 0.479906 cumulative IPC: 0.479435 (Simulation time: 0 hr 32 min 59 sec) 
Heartbeat CPU 0 instructions: 46000002 cycles: 80205253 heartbeat IPC: 0.525954 cumulative IPC: 0.480615 (Simulation time: 0 hr 33 min 47 sec) 
Heartbeat CPU 0 instructions: 47000000 cycles: 82111795 heartbeat IPC: 0.524509 cumulative IPC: 0.481705 (Simulation time: 0 hr 34 min 33 sec) 
Heartbeat CPU 0 instructions: 48000000 cycles: 84040222 heartbeat IPC: 0.518557 cumulative IPC: 0.482607 (Simulation time: 0 hr 35 min 19 sec) 
Heartbeat CPU 0 instructions: 49000003 cycles: 85994026 heartbeat IPC: 0.511824 cumulative IPC: 0.483315 (Simulation time: 0 hr 36 min 2 sec) 
Heartbeat CPU 0 instructions: 50000001 cycles: 87908796 heartbeat IPC: 0.522255 cumulative IPC: 0.484217 (Simulation time: 0 hr 36 min 44 sec) 
Heartbeat CPU 0 instructions: 51000003 cycles: 89845069 heartbeat IPC: 0.516457 cumulative IPC: 0.484956 (Simulation time: 0 hr 37 min 28 sec) 
Heartbeat CPU 0 instructions: 52000000 cycles: 91878298 heartbeat IPC: 0.491827 cumulative IPC: 0.485117 (Simulation time: 0 hr 38 min 6 sec) 
Heartbeat CPU 0 instructions: 53000001 cycles: 93843064 heartbeat IPC: 0.508967 cumulative IPC: 0.485646 (Simulation time: 0 hr 38 min 45 sec) 
Heartbeat CPU 0 instructions: 54000003 cycles: 95751201 heartbeat IPC: 0.524072 cumulative IPC: 0.486457 (Simulation time: 0 hr 39 min 25 sec) 
Heartbeat CPU 0 instructions: 55000000 cycles: 97646104 heartbeat IPC: 0.52773 cumulative IPC: 0.487304 (Simulation time: 0 hr 40 min 4 sec) 
Heartbeat CPU 0 instructions: 56000000 cycles: 99551854 heartbeat IPC: 0.524728 cumulative IPC: 0.488061 (Simulation time: 0 hr 40 min 43 sec) 
Heartbeat CPU 0 instructions: 57000000 cycles: 101445259 heartbeat IPC: 0.528149 cumulative IPC: 0.48885 (Simulation time: 0 hr 41 min 23 sec) 
Heartbeat CPU 0 instructions: 58000001 cycles: 103390029 heartbeat IPC: 0.5142 cumulative IPC: 0.489353 (Simulation time: 0 hr 41 min 59 sec) 
Heartbeat CPU 0 instructions: 59000003 cycles: 105316087 heartbeat IPC: 0.519196 cumulative IPC: 0.489928 (Simulation time: 0 hr 42 min 38 sec) 
Heartbeat CPU 0 instructions: 60000000 cycles: 107215477 heartbeat IPC: 0.526483 cumulative IPC: 0.490609 (Simulation time: 0 hr 43 min 26 sec) 
Heartbeat CPU 0 instructions: 61000002 cycles: 109117895 heartbeat IPC: 0.525648 cumulative IPC: 0.491251 (Simulation time: 0 hr 44 min 15 sec) 
Heartbeat CPU 0 instructions: 62000001 cycles: 111011723 heartbeat IPC: 0.528031 cumulative IPC: 0.49191 (Simulation time: 0 hr 45 min 3 sec) 
Heartbeat CPU 0 instructions: 63000001 cycles: 113056948 heartbeat IPC: 0.488944 cumulative IPC: 0.491854 (Simulation time: 0 hr 45 min 48 sec) 
Heartbeat CPU 0 instructions: 64000000 cycles: 115006729 heartbeat IPC: 0.512878 cumulative IPC: 0.492227 (Simulation time: 0 hr 46 min 39 sec) 
Heartbeat CPU 0 instructions: 65000000 cycles: 116945366 heartbeat IPC: 0.515826 cumulative IPC: 0.492637 (Simulation time: 0 hr 47 min 28 sec) 
Heartbeat CPU 0 instructions: 66000000 cycles: 118902369 heartbeat IPC: 0.510985 cumulative IPC: 0.492953 (Simulation time: 0 hr 48 min 15 sec) 
Heartbeat CPU 0 instructions: 67000003 cycles: 120853020 heartbeat IPC: 0.512651 cumulative IPC: 0.493286 (Simulation time: 0 hr 49 min 3 sec) 
Heartbeat CPU 0 instructions: 68000000 cycles: 122778006 heartbeat IPC: 0.519483 cumulative IPC: 0.493715 (Simulation time: 0 hr 49 min 49 sec) 
Heartbeat CPU 0 instructions: 69000000 cycles: 124712674 heartbeat IPC: 0.516885 cumulative IPC: 0.49409 (Simulation time: 0 hr 50 min 36 sec) 
Heartbeat CPU 0 instructions: 70000002 cycles: 126665592 heartbeat IPC: 0.512055 cumulative IPC: 0.494379 (Simulation time: 0 hr 51 min 20 sec) 
Heartbeat CPU 0 instructions: 71000001 cycles: 128622151 heartbeat IPC: 0.511101 cumulative IPC: 0.494645 (Simulation time: 0 hr 52 min 5 sec) 
Heartbeat CPU 0 instructions: 72000000 cycles: 130578671 heartbeat IPC: 0.511111 cumulative IPC: 0.494902 (Simulation time: 0 hr 52 min 48 sec) 
Heartbeat CPU 0 instructions: 73000000 cycles: 132524801 heartbeat IPC: 0.51384 cumulative IPC: 0.495191 (Simulation time: 0 hr 53 min 35 sec) 
Heartbeat CPU 0 instructions: 74000000 cycles: 134456910 heartbeat IPC: 0.517569 cumulative IPC: 0.495526 (Simulation time: 0 hr 54 min 21 sec) 
Heartbeat CPU 0 instructions: 75000001 cycles: 136362485 heartbeat IPC: 0.524777 cumulative IPC: 0.495952 (Simulation time: 0 hr 55 min 8 sec) 
Heartbeat CPU 0 instructions: 76000000 cycles: 138284949 heartbeat IPC: 0.520165 cumulative IPC: 0.496302 (Simulation time: 0 hr 55 min 54 sec) 
Heartbeat CPU 0 instructions: 77000001 cycles: 140315598 heartbeat IPC: 0.492454 cumulative IPC: 0.496244 (Simulation time: 0 hr 56 min 38 sec) 
Heartbeat CPU 0 instructions: 78000000 cycles: 142282332 heartbeat IPC: 0.508457 cumulative IPC: 0.496419 (Simulation time: 0 hr 57 min 22 sec) 
Heartbeat CPU 0 instructions: 79000003 cycles: 144333709 heartbeat IPC: 0.487479 cumulative IPC: 0.496287 (Simulation time: 0 hr 58 min 4 sec) 
Heartbeat CPU 0 instructions: 80000000 cycles: 146467366 heartbeat IPC: 0.468677 cumulative IPC: 0.49587 (Simulation time: 0 hr 58 min 45 sec) 
Heartbeat CPU 0 instructions: 81000003 cycles: 148596552 heartbeat IPC: 0.469664 cumulative IPC: 0.49548 (Simulation time: 0 hr 59 min 26 sec) 
Heartbeat CPU 0 instructions: 82000000 cycles: 150638240 heartbeat IPC: 0.489789 cumulative IPC: 0.4954 (Simulation time: 1 hr 0 min 7 sec) 
Heartbeat CPU 0 instructions: 83000000 cycles: 152625458 heartbeat IPC: 0.503216 cumulative IPC: 0.495506 (Simulation time: 1 hr 0 min 47 sec) 
Heartbeat CPU 0 instructions: 84000000 cycles: 154609665 heartbeat IPC: 0.50398 cumulative IPC: 0.495619 (Simulation time: 1 hr 1 min 26 sec) 
Heartbeat CPU 0 instructions: 85000001 cycles: 156576112 heartbeat IPC: 0.508532 cumulative IPC: 0.495786 (Simulation time: 1 hr 2 min 6 sec) 
Heartbeat CPU 0 instructions: 86000002 cycles: 158533552 heartbeat IPC: 0.510872 cumulative IPC: 0.495979 (Simulation time: 1 hr 2 min 46 sec) 
Heartbeat CPU 0 instructions: 87000000 cycles: 160526883 heartbeat IPC: 0.501672 cumulative IPC: 0.496052 (Simulation time: 1 hr 3 min 27 sec) 
Heartbeat CPU 0 instructions: 88000000 cycles: 162580065 heartbeat IPC: 0.487049 cumulative IPC: 0.495935 (Simulation time: 1 hr 4 min 3 sec) 
Heartbeat CPU 0 instructions: 89000003 cycles: 164569525 heartbeat IPC: 0.50265 cumulative IPC: 0.496019 (Simulation time: 1 hr 4 min 43 sec) 
Heartbeat CPU 0 instructions: 90000000 cycles: 166539599 heartbeat IPC: 0.507594 cumulative IPC: 0.49616 (Simulation time: 1 hr 5 min 21 sec) 
Heartbeat CPU 0 instructions: 91000000 cycles: 168514241 heartbeat IPC: 0.506421 cumulative IPC: 0.496284 (Simulation time: 1 hr 5 min 57 sec) 
Heartbeat CPU 0 instructions: 92000000 cycles: 170512162 heartbeat IPC: 0.50052 cumulative IPC: 0.496335 (Simulation time: 1 hr 6 min 30 sec) 
Heartbeat CPU 0 instructions: 93000003 cycles: 172465612 heartbeat IPC: 0.511916 cumulative IPC: 0.496517 (Simulation time: 1 hr 7 min 3 sec) 
Heartbeat CPU 0 instructions: 94000000 cycles: 174401610 heartbeat IPC: 0.516528 cumulative IPC: 0.496747 (Simulation time: 1 hr 7 min 34 sec) 
Heartbeat CPU 0 instructions: 95000000 cycles: 176371863 heartbeat IPC: 0.507549 cumulative IPC: 0.496871 (Simulation time: 1 hr 8 min 3 sec) 
Heartbeat CPU 0 instructions: 96000000 cycles: 178378863 heartbeat IPC: 0.498256 cumulative IPC: 0.496887 (Simulation time: 1 hr 8 min 31 sec) 
Heartbeat CPU 0 instructions: 97000000 cycles: 180377369 heartbeat IPC: 0.500374 cumulative IPC: 0.496927 (Simulation time: 1 hr 8 min 58 sec) 
Heartbeat CPU 0 instructions: 98000000 cycles: 182352497 heartbeat IPC: 0.506296 cumulative IPC: 0.497031 (Simulation time: 1 hr 9 min 24 sec) 
Heartbeat CPU 0 instructions: 99000000 cycles: 184423915 heartbeat IPC: 0.482761 cumulative IPC: 0.496866 (Simulation time: 1 hr 9 min 50 sec) 
Heartbeat CPU 0 instructions: 100000000 cycles: 186428166 heartbeat IPC: 0.49894 cumulative IPC: 0.496889 (Simulation time: 1 hr 10 min 15 sec) 
Heartbeat CPU 0 instructions: 101000000 cycles: 188474656 heartbeat IPC: 0.488642 cumulative IPC: 0.496797 (Simulation time: 1 hr 10 min 40 sec) 
Heartbeat CPU 0 instructions: 102000003 cycles: 190478609 heartbeat IPC: 0.499015 cumulative IPC: 0.496821 (Simulation time: 1 hr 11 min 6 sec) 
Heartbeat CPU 0 instructions: 103000000 cycles: 192427051 heartbeat IPC: 0.513229 cumulative IPC: 0.496992 (Simulation time: 1 hr 11 min 32 sec) 
Heartbeat CPU 0 instructions: 104000000 cycles: 194364087 heartbeat IPC: 0.516253 cumulative IPC: 0.497189 (Simulation time: 1 hr 11 min 58 sec) 
Heartbeat CPU 0 instructions: 105000002 cycles: 196297274 heartbeat IPC: 0.517282 cumulative IPC: 0.497393 (Simulation time: 1 hr 12 min 22 sec) 
Heartbeat CPU 0 instructions: 106000003 cycles: 198216858 heartbeat IPC: 0.520947 cumulative IPC: 0.497627 (Simulation time: 1 hr 12 min 47 sec) 
Heartbeat CPU 0 instructions: 107000000 cycles: 200151712 heartbeat IPC: 0.516833 cumulative IPC: 0.497818 (Simulation time: 1 hr 13 min 11 sec) 
Heartbeat CPU 0 instructions: 108000000 cycles: 202201481 heartbeat IPC: 0.48786 cumulative IPC: 0.497714 (Simulation time: 1 hr 13 min 34 sec) 
Heartbeat CPU 0 instructions: 109000003 cycles: 204211580 heartbeat IPC: 0.497489 cumulative IPC: 0.497712 (Simulation time: 1 hr 13 min 57 sec) 
Heartbeat CPU 0 instructions: 110000002 cycles: 206197162 heartbeat IPC: 0.50363 cumulative IPC: 0.49777 (Simulation time: 1 hr 14 min 20 sec) 
Finished CPU 0 instructions: 100000001 cycles: 200895877 cummulative IPC: 0.49777 (Simulation time: 1 hr 14 min 20 sec) 

ChampSim completed all CPUs

Region of Interest Statistics

CPU 0 cummulative IPC: 0.49777 instructions: 100000001 cycles: 200895877
LLC TOTAL     ACCESS:     479219  HIT:     201751  MISS:     277468
LLC LOAD      ACCESS:     108310  HIT:      52827  MISS:      55483
LLC RFO       ACCESS:      72099  HIT:      11848  MISS:      60251
LLC PREFETCH  ACCESS:     138952  HIT:      55994  MISS:      82958
LLC WRITEBACK ACCESS:     159858  HIT:      81082  MISS:      78776
Insertion Distribution: 
	LOAD 14665 0 0 0 0 30714 24207 
	RFO 0 0 0 0 0 2664 61465 
	PREF 0 8025 0 0 0 24191 71731 
	WRITEBACK 0 0 0 0 0 0 80419 
Total Prefetch Downgrades: 8273
