
*** ChampSim Multicore Out-of-Order Simulator ***

Warmup Instructions: 10000000
Simulation Instructions: 100000000
Configuration: 2
Number of CPUs: 1
LLC sets: 2048
LLC ways: 16
Off-chip DRAM Channels: 1 Width: 64-bit Data Rate: 1600 MT/s

CPU 0 runs /datasets/cs240c-wi22-a00-public/data/Assignment2-gz/calculix_2655B.trace.gz
CPU 0 L1D next line prefetcher
CPU 0 L2C IP-based stride prefetcher
Initialize SRRIP state
Heartbeat CPU 0 instructions: 1000003 cycles: 392383 heartbeat IPC: 2.54854 cumulative IPC: 2.54854 (Simulation time: 0 hr 0 min 28 sec) 
Heartbeat CPU 0 instructions: 2000001 cycles: 785148 heartbeat IPC: 2.54605 cumulative IPC: 2.54729 (Simulation time: 0 hr 0 min 56 sec) 
Heartbeat CPU 0 instructions: 3000002 cycles: 1177684 heartbeat IPC: 2.54754 cumulative IPC: 2.54737 (Simulation time: 0 hr 1 min 23 sec) 
Heartbeat CPU 0 instructions: 4000000 cycles: 1569447 heartbeat IPC: 2.55256 cumulative IPC: 2.54867 (Simulation time: 0 hr 1 min 50 sec) 
Heartbeat CPU 0 instructions: 5000003 cycles: 1961684 heartbeat IPC: 2.54949 cumulative IPC: 2.54883 (Simulation time: 0 hr 2 min 14 sec) 
Heartbeat CPU 0 instructions: 6000003 cycles: 2353797 heartbeat IPC: 2.55029 cumulative IPC: 2.54907 (Simulation time: 0 hr 2 min 40 sec) 
Heartbeat CPU 0 instructions: 7000002 cycles: 2745952 heartbeat IPC: 2.55001 cumulative IPC: 2.54921 (Simulation time: 0 hr 3 min 6 sec) 
Heartbeat CPU 0 instructions: 8000000 cycles: 3137922 heartbeat IPC: 2.55121 cumulative IPC: 2.54946 (Simulation time: 0 hr 3 min 31 sec) 
Heartbeat CPU 0 instructions: 9000001 cycles: 3530092 heartbeat IPC: 2.54992 cumulative IPC: 2.54951 (Simulation time: 0 hr 3 min 55 sec) 
Heartbeat CPU 0 instructions: 10000000 cycles: 3921567 heartbeat IPC: 2.55444 cumulative IPC: 2.55 (Simulation time: 0 hr 4 min 20 sec) 

Warmup complete CPU 0 instructions: 10000004 cycles: 3921568 (Simulation time: 0 hr 4 min 20 sec) 

Heartbeat CPU 0 instructions: 11000001 cycles: 4356973 heartbeat IPC: 2.29671 cumulative IPC: 2.29671 (Simulation time: 0 hr 4 min 49 sec) 
Heartbeat CPU 0 instructions: 12000000 cycles: 4785334 heartbeat IPC: 2.33448 cumulative IPC: 2.31544 (Simulation time: 0 hr 5 min 18 sec) 
Heartbeat CPU 0 instructions: 13000000 cycles: 5213395 heartbeat IPC: 2.33612 cumulative IPC: 2.32229 (Simulation time: 0 hr 5 min 47 sec) 
Heartbeat CPU 0 instructions: 14000002 cycles: 5641046 heartbeat IPC: 2.33836 cumulative IPC: 2.32629 (Simulation time: 0 hr 6 min 16 sec) 
Heartbeat CPU 0 instructions: 15000001 cycles: 6064735 heartbeat IPC: 2.36022 cumulative IPC: 2.33299 (Simulation time: 0 hr 6 min 44 sec) 
Heartbeat CPU 0 instructions: 16000000 cycles: 6653145 heartbeat IPC: 1.69949 cumulative IPC: 2.19653 (Simulation time: 0 hr 7 min 13 sec) 
Heartbeat CPU 0 instructions: 17000000 cycles: 7095259 heartbeat IPC: 2.26186 cumulative IPC: 2.20563 (Simulation time: 0 hr 7 min 42 sec) 
Heartbeat CPU 0 instructions: 18000000 cycles: 7531683 heartbeat IPC: 2.29135 cumulative IPC: 2.21599 (Simulation time: 0 hr 8 min 12 sec) 
Heartbeat CPU 0 instructions: 19000000 cycles: 7960928 heartbeat IPC: 2.32967 cumulative IPC: 2.22807 (Simulation time: 0 hr 8 min 42 sec) 
Heartbeat CPU 0 instructions: 20000000 cycles: 8389167 heartbeat IPC: 2.33514 cumulative IPC: 2.23834 (Simulation time: 0 hr 9 min 13 sec) 
Heartbeat CPU 0 instructions: 21000002 cycles: 8817509 heartbeat IPC: 2.33459 cumulative IPC: 2.24676 (Simulation time: 0 hr 9 min 42 sec) 
Heartbeat CPU 0 instructions: 22000001 cycles: 9409528 heartbeat IPC: 1.68913 cumulative IPC: 2.1866 (Simulation time: 0 hr 10 min 15 sec) 
Heartbeat CPU 0 instructions: 23000000 cycles: 9837251 heartbeat IPC: 2.33796 cumulative IPC: 2.19755 (Simulation time: 0 hr 10 min 45 sec) 
Heartbeat CPU 0 instructions: 24000000 cycles: 10263912 heartbeat IPC: 2.34378 cumulative IPC: 2.20739 (Simulation time: 0 hr 11 min 18 sec) 
Heartbeat CPU 0 instructions: 25000003 cycles: 10690576 heartbeat IPC: 2.34377 cumulative IPC: 2.21598 (Simulation time: 0 hr 11 min 49 sec) 
Heartbeat CPU 0 instructions: 26000003 cycles: 11115928 heartbeat IPC: 2.35099 cumulative IPC: 2.22396 (Simulation time: 0 hr 12 min 17 sec) 
Heartbeat CPU 0 instructions: 27000000 cycles: 11568120 heartbeat IPC: 2.21144 cumulative IPC: 2.22322 (Simulation time: 0 hr 12 min 50 sec) 
Heartbeat CPU 0 instructions: 28000000 cycles: 12139200 heartbeat IPC: 1.75107 cumulative IPC: 2.19041 (Simulation time: 0 hr 13 min 22 sec) 
Heartbeat CPU 0 instructions: 29000003 cycles: 12567898 heartbeat IPC: 2.33265 cumulative IPC: 2.19746 (Simulation time: 0 hr 13 min 53 sec) 
Heartbeat CPU 0 instructions: 30000003 cycles: 12994987 heartbeat IPC: 2.34143 cumulative IPC: 2.20424 (Simulation time: 0 hr 14 min 22 sec) 
Heartbeat CPU 0 instructions: 31000002 cycles: 13420963 heartbeat IPC: 2.34755 cumulative IPC: 2.21067 (Simulation time: 0 hr 14 min 51 sec) 
Heartbeat CPU 0 instructions: 32000000 cycles: 13846517 heartbeat IPC: 2.34987 cumulative IPC: 2.21664 (Simulation time: 0 hr 15 min 23 sec) 
Heartbeat CPU 0 instructions: 33000003 cycles: 14340868 heartbeat IPC: 2.02286 cumulative IPC: 2.20744 (Simulation time: 0 hr 15 min 56 sec) 
Heartbeat CPU 0 instructions: 34000002 cycles: 14922682 heartbeat IPC: 1.71876 cumulative IPC: 2.1816 (Simulation time: 0 hr 16 min 27 sec) 
Heartbeat CPU 0 instructions: 35000001 cycles: 15429067 heartbeat IPC: 1.97478 cumulative IPC: 2.1725 (Simulation time: 0 hr 16 min 59 sec) 
Heartbeat CPU 0 instructions: 36000000 cycles: 15899755 heartbeat IPC: 2.12455 cumulative IPC: 2.17061 (Simulation time: 0 hr 17 min 27 sec) 
Heartbeat CPU 0 instructions: 37000002 cycles: 16356310 heartbeat IPC: 2.19032 cumulative IPC: 2.17134 (Simulation time: 0 hr 17 min 59 sec) 
Heartbeat CPU 0 instructions: 38000002 cycles: 16791868 heartbeat IPC: 2.29591 cumulative IPC: 2.17555 (Simulation time: 0 hr 18 min 29 sec) 
Heartbeat CPU 0 instructions: 39000002 cycles: 17371437 heartbeat IPC: 1.72542 cumulative IPC: 2.15615 (Simulation time: 0 hr 19 min 1 sec) 
Heartbeat CPU 0 instructions: 40000000 cycles: 17859437 heartbeat IPC: 2.04918 cumulative IPC: 2.15241 (Simulation time: 0 hr 19 min 31 sec) 
Heartbeat CPU 0 instructions: 41000003 cycles: 18349838 heartbeat IPC: 2.03915 cumulative IPC: 2.14856 (Simulation time: 0 hr 20 min 3 sec) 
Heartbeat CPU 0 instructions: 42000001 cycles: 18851423 heartbeat IPC: 1.99368 cumulative IPC: 2.14336 (Simulation time: 0 hr 20 min 33 sec) 
Heartbeat CPU 0 instructions: 43000001 cycles: 19378993 heartbeat IPC: 1.89548 cumulative IPC: 2.1349 (Simulation time: 0 hr 21 min 4 sec) 
Heartbeat CPU 0 instructions: 44000000 cycles: 20102822 heartbeat IPC: 1.38154 cumulative IPC: 2.1012 (Simulation time: 0 hr 21 min 38 sec) 
Heartbeat CPU 0 instructions: 45000002 cycles: 20567288 heartbeat IPC: 2.15301 cumulative IPC: 2.10264 (Simulation time: 0 hr 22 min 9 sec) 
Heartbeat CPU 0 instructions: 46000003 cycles: 21083737 heartbeat IPC: 1.9363 cumulative IPC: 2.09764 (Simulation time: 0 hr 22 min 40 sec) 
Heartbeat CPU 0 instructions: 47000000 cycles: 21583421 heartbeat IPC: 2.00126 cumulative IPC: 2.09491 (Simulation time: 0 hr 23 min 10 sec) 
Heartbeat CPU 0 instructions: 48000000 cycles: 22117103 heartbeat IPC: 1.87378 cumulative IPC: 2.08842 (Simulation time: 0 hr 23 min 41 sec) 
Heartbeat CPU 0 instructions: 49000000 cycles: 22561602 heartbeat IPC: 2.24972 cumulative IPC: 2.09227 (Simulation time: 0 hr 24 min 12 sec) 
Heartbeat CPU 0 instructions: 50000002 cycles: 23044034 heartbeat IPC: 2.07284 cumulative IPC: 2.09178 (Simulation time: 0 hr 24 min 42 sec) 
Heartbeat CPU 0 instructions: 51000001 cycles: 23523726 heartbeat IPC: 2.08467 cumulative IPC: 2.09161 (Simulation time: 0 hr 25 min 14 sec) 
Heartbeat CPU 0 instructions: 52000000 cycles: 23958266 heartbeat IPC: 2.30128 cumulative IPC: 2.09615 (Simulation time: 0 hr 25 min 45 sec) 
Heartbeat CPU 0 instructions: 53000002 cycles: 24489333 heartbeat IPC: 1.88301 cumulative IPC: 2.09065 (Simulation time: 0 hr 26 min 17 sec) 
Heartbeat CPU 0 instructions: 54000002 cycles: 25286023 heartbeat IPC: 1.25519 cumulative IPC: 2.0595 (Simulation time: 0 hr 26 min 53 sec) 
Heartbeat CPU 0 instructions: 55000002 cycles: 25802679 heartbeat IPC: 1.93552 cumulative IPC: 2.05657 (Simulation time: 0 hr 27 min 23 sec) 
Heartbeat CPU 0 instructions: 56000000 cycles: 26261588 heartbeat IPC: 2.17908 cumulative IPC: 2.05908 (Simulation time: 0 hr 27 min 53 sec) 
Heartbeat CPU 0 instructions: 57000000 cycles: 26790989 heartbeat IPC: 1.88893 cumulative IPC: 2.05515 (Simulation time: 0 hr 28 min 26 sec) 
Heartbeat CPU 0 instructions: 58000003 cycles: 27237361 heartbeat IPC: 2.24029 cumulative IPC: 2.05869 (Simulation time: 0 hr 28 min 57 sec) 
Heartbeat CPU 0 instructions: 59000001 cycles: 27763089 heartbeat IPC: 1.90212 cumulative IPC: 2.05524 (Simulation time: 0 hr 29 min 27 sec) 
Heartbeat CPU 0 instructions: 60000000 cycles: 28235780 heartbeat IPC: 2.11554 cumulative IPC: 2.05641 (Simulation time: 0 hr 30 min 0 sec) 
Heartbeat CPU 0 instructions: 61000002 cycles: 28739736 heartbeat IPC: 1.9843 cumulative IPC: 2.05495 (Simulation time: 0 hr 30 min 32 sec) 
Heartbeat CPU 0 instructions: 62000003 cycles: 29262920 heartbeat IPC: 1.91138 cumulative IPC: 2.05198 (Simulation time: 0 hr 31 min 4 sec) 
Heartbeat CPU 0 instructions: 63000003 cycles: 29944691 heartbeat IPC: 1.46677 cumulative IPC: 2.03665 (Simulation time: 0 hr 31 min 38 sec) 
Heartbeat CPU 0 instructions: 64000000 cycles: 30434488 heartbeat IPC: 2.04166 cumulative IPC: 2.03674 (Simulation time: 0 hr 32 min 10 sec) 
Heartbeat CPU 0 instructions: 65000001 cycles: 30962982 heartbeat IPC: 1.89217 cumulative IPC: 2.03392 (Simulation time: 0 hr 32 min 43 sec) 
Heartbeat CPU 0 instructions: 66000001 cycles: 31619114 heartbeat IPC: 1.52408 cumulative IPC: 2.02184 (Simulation time: 0 hr 33 min 18 sec) 
Heartbeat CPU 0 instructions: 67000003 cycles: 32198727 heartbeat IPC: 1.72529 cumulative IPC: 2.01576 (Simulation time: 0 hr 33 min 50 sec) 
Heartbeat CPU 0 instructions: 68000000 cycles: 32766022 heartbeat IPC: 1.76275 cumulative IPC: 2.01079 (Simulation time: 0 hr 34 min 21 sec) 
Heartbeat CPU 0 instructions: 69000001 cycles: 33327142 heartbeat IPC: 1.78215 cumulative IPC: 2.00642 (Simulation time: 0 hr 34 min 54 sec) 
Heartbeat CPU 0 instructions: 70000002 cycles: 33891972 heartbeat IPC: 1.77045 cumulative IPC: 2.00198 (Simulation time: 0 hr 35 min 24 sec) 
Heartbeat CPU 0 instructions: 71000003 cycles: 34451984 heartbeat IPC: 1.78568 cumulative IPC: 1.99801 (Simulation time: 0 hr 35 min 56 sec) 
Heartbeat CPU 0 instructions: 72000000 cycles: 35017372 heartbeat IPC: 1.76869 cumulative IPC: 1.99384 (Simulation time: 0 hr 36 min 28 sec) 
Heartbeat CPU 0 instructions: 73000000 cycles: 35583554 heartbeat IPC: 1.76622 cumulative IPC: 1.98977 (Simulation time: 0 hr 36 min 58 sec) 
Heartbeat CPU 0 instructions: 74000000 cycles: 36141591 heartbeat IPC: 1.792 cumulative IPC: 1.98634 (Simulation time: 0 hr 37 min 26 sec) 
Heartbeat CPU 0 instructions: 75000000 cycles: 36770347 heartbeat IPC: 1.59044 cumulative IPC: 1.97876 (Simulation time: 0 hr 37 min 59 sec) 
Heartbeat CPU 0 instructions: 76000000 cycles: 37364417 heartbeat IPC: 1.6833 cumulative IPC: 1.97352 (Simulation time: 0 hr 38 min 31 sec) 
Heartbeat CPU 0 instructions: 77000003 cycles: 37948477 heartbeat IPC: 1.71216 cumulative IPC: 1.96903 (Simulation time: 0 hr 38 min 56 sec) 
Heartbeat CPU 0 instructions: 78000002 cycles: 38532615 heartbeat IPC: 1.71192 cumulative IPC: 1.96469 (Simulation time: 0 hr 39 min 22 sec) 
Heartbeat CPU 0 instructions: 79000001 cycles: 39108073 heartbeat IPC: 1.73774 cumulative IPC: 1.96098 (Simulation time: 0 hr 39 min 47 sec) 
Heartbeat CPU 0 instructions: 80000000 cycles: 39686203 heartbeat IPC: 1.72971 cumulative IPC: 1.95724 (Simulation time: 0 hr 40 min 11 sec) 
Heartbeat CPU 0 instructions: 81000001 cycles: 40260111 heartbeat IPC: 1.74244 cumulative IPC: 1.95385 (Simulation time: 0 hr 40 min 36 sec) 
Heartbeat CPU 0 instructions: 82000003 cycles: 40826152 heartbeat IPC: 1.76666 cumulative IPC: 1.95098 (Simulation time: 0 hr 41 min 4 sec) 
Heartbeat CPU 0 instructions: 83000003 cycles: 41396684 heartbeat IPC: 1.75275 cumulative IPC: 1.94796 (Simulation time: 0 hr 41 min 41 sec) 
Heartbeat CPU 0 instructions: 84000000 cycles: 42002591 heartbeat IPC: 1.65041 cumulative IPC: 1.94323 (Simulation time: 0 hr 42 min 16 sec) 
Heartbeat CPU 0 instructions: 85000002 cycles: 42546246 heartbeat IPC: 1.83941 cumulative IPC: 1.94176 (Simulation time: 0 hr 42 min 43 sec) 
Heartbeat CPU 0 instructions: 86000001 cycles: 43257325 heartbeat IPC: 1.40631 cumulative IPC: 1.93208 (Simulation time: 0 hr 43 min 17 sec) 
Heartbeat CPU 0 instructions: 87000003 cycles: 43838897 heartbeat IPC: 1.71948 cumulative IPC: 1.92899 (Simulation time: 0 hr 43 min 48 sec) 
Heartbeat CPU 0 instructions: 88000000 cycles: 44302854 heartbeat IPC: 2.15537 cumulative IPC: 1.93159 (Simulation time: 0 hr 44 min 18 sec) 
Heartbeat CPU 0 instructions: 89000000 cycles: 44763582 heartbeat IPC: 2.17048 cumulative IPC: 1.93428 (Simulation time: 0 hr 44 min 49 sec) 
Heartbeat CPU 0 instructions: 90000001 cycles: 45227355 heartbeat IPC: 2.15623 cumulative IPC: 1.93677 (Simulation time: 0 hr 45 min 19 sec) 
Heartbeat CPU 0 instructions: 91000002 cycles: 45771674 heartbeat IPC: 1.83716 cumulative IPC: 1.93548 (Simulation time: 0 hr 45 min 51 sec) 
Heartbeat CPU 0 instructions: 92000000 cycles: 46289795 heartbeat IPC: 1.93005 cumulative IPC: 1.93541 (Simulation time: 0 hr 46 min 22 sec) 
Heartbeat CPU 0 instructions: 93000000 cycles: 46811018 heartbeat IPC: 1.91856 cumulative IPC: 1.93521 (Simulation time: 0 hr 46 min 52 sec) 
Heartbeat CPU 0 instructions: 94000003 cycles: 47316280 heartbeat IPC: 1.97918 cumulative IPC: 1.93572 (Simulation time: 0 hr 47 min 21 sec) 
Heartbeat CPU 0 instructions: 95000003 cycles: 47861959 heartbeat IPC: 1.83258 cumulative IPC: 1.93444 (Simulation time: 0 hr 47 min 52 sec) 
Heartbeat CPU 0 instructions: 96000000 cycles: 48339467 heartbeat IPC: 2.0942 cumulative IPC: 1.93616 (Simulation time: 0 hr 48 min 21 sec) 
Heartbeat CPU 0 instructions: 97000002 cycles: 48829478 heartbeat IPC: 2.04077 cumulative IPC: 1.9373 (Simulation time: 0 hr 48 min 50 sec) 
Heartbeat CPU 0 instructions: 98000001 cycles: 49301028 heartbeat IPC: 2.12066 cumulative IPC: 1.9392 (Simulation time: 0 hr 49 min 19 sec) 
Heartbeat CPU 0 instructions: 99000001 cycles: 49843725 heartbeat IPC: 1.84265 cumulative IPC: 1.93806 (Simulation time: 0 hr 49 min 50 sec) 
Heartbeat CPU 0 instructions: 100000000 cycles: 50323654 heartbeat IPC: 2.08364 cumulative IPC: 1.93957 (Simulation time: 0 hr 50 min 19 sec) 
Heartbeat CPU 0 instructions: 101000001 cycles: 50798046 heartbeat IPC: 2.10796 cumulative IPC: 1.94127 (Simulation time: 0 hr 50 min 50 sec) 
Heartbeat CPU 0 instructions: 102000003 cycles: 51259732 heartbeat IPC: 2.16598 cumulative IPC: 1.94346 (Simulation time: 0 hr 51 min 19 sec) 
Heartbeat CPU 0 instructions: 103000003 cycles: 51785245 heartbeat IPC: 1.9029 cumulative IPC: 1.94302 (Simulation time: 0 hr 51 min 52 sec) 
Heartbeat CPU 0 instructions: 104000000 cycles: 52338785 heartbeat IPC: 1.80655 cumulative IPC: 1.94146 (Simulation time: 0 hr 52 min 23 sec) 
Heartbeat CPU 0 instructions: 105000001 cycles: 52764544 heartbeat IPC: 2.34875 cumulative IPC: 1.94501 (Simulation time: 0 hr 52 min 53 sec) 
Heartbeat CPU 0 instructions: 106000002 cycles: 53211345 heartbeat IPC: 2.23814 cumulative IPC: 1.94767 (Simulation time: 0 hr 53 min 23 sec) 
Heartbeat CPU 0 instructions: 107000001 cycles: 53662822 heartbeat IPC: 2.21495 cumulative IPC: 1.95009 (Simulation time: 0 hr 53 min 54 sec) 
Heartbeat CPU 0 instructions: 108000000 cycles: 54081639 heartbeat IPC: 2.38768 cumulative IPC: 1.95375 (Simulation time: 0 hr 54 min 25 sec) 
Heartbeat CPU 0 instructions: 109000000 cycles: 54555065 heartbeat IPC: 2.11226 cumulative IPC: 1.95523 (Simulation time: 0 hr 54 min 57 sec) 
Heartbeat CPU 0 instructions: 110000000 cycles: 54973776 heartbeat IPC: 2.38828 cumulative IPC: 1.95878 (Simulation time: 0 hr 55 min 29 sec) 
Finished CPU 0 instructions: 100000000 cycles: 51052209 cummulative IPC: 1.95878 (Simulation time: 0 hr 55 min 29 sec) 

ChampSim completed all CPUs

Region of Interest Statistics

CPU 0 cummulative IPC: 1.95878 instructions: 100000000 cycles: 51052209
LLC TOTAL     ACCESS:     865121  HIT:     550317  MISS:     314804
LLC LOAD      ACCESS:     110524  HIT:      91340  MISS:      19184
LLC RFO       ACCESS:        416  HIT:        403  MISS:         13
LLC PREFETCH  ACCESS:     655869  HIT:     371079  MISS:     284790
LLC WRITEBACK ACCESS:      98312  HIT:      87495  MISS:      10817
Insertion Distribution: 
	LOAD 9778 0 0 0 0 9881 2248 
	RFO 0 0 0 0 0 20 0 
	PREF 0 12511 0 0 0 47204 243311 
	WRITEBACK 0 0 0 0 0 0 10839 
Total Prefetch Downgrades: 2032
