
*** ChampSim Multicore Out-of-Order Simulator ***

Warmup Instructions: 10000000
Simulation Instructions: 100000000
Configuration: 2
Number of CPUs: 1
LLC sets: 2048
LLC ways: 16
Off-chip DRAM Channels: 1 Width: 64-bit Data Rate: 1600 MT/s

CPU 0 runs /datasets/cs240c-wi22-a00-public/data/Assignment2-gz/bzip2_281B.trace.gz
CPU 0 L1D next line prefetcher
CPU 0 L2C IP-based stride prefetcher
Initialize SRRIP state
Heartbeat CPU 0 instructions: 1000000 cycles: 445877 heartbeat IPC: 2.24277 cumulative IPC: 2.24277 (Simulation time: 0 hr 0 min 37 sec) 
Heartbeat CPU 0 instructions: 2000003 cycles: 900180 heartbeat IPC: 2.20118 cumulative IPC: 2.22178 (Simulation time: 0 hr 1 min 13 sec) 
Heartbeat CPU 0 instructions: 3000002 cycles: 1315039 heartbeat IPC: 2.41046 cumulative IPC: 2.2813 (Simulation time: 0 hr 1 min 48 sec) 
Heartbeat CPU 0 instructions: 4000000 cycles: 1753503 heartbeat IPC: 2.28068 cumulative IPC: 2.28115 (Simulation time: 0 hr 2 min 24 sec) 
Heartbeat CPU 0 instructions: 5000002 cycles: 2175502 heartbeat IPC: 2.36968 cumulative IPC: 2.29832 (Simulation time: 0 hr 3 min 1 sec) 
Heartbeat CPU 0 instructions: 6000000 cycles: 2666175 heartbeat IPC: 2.03801 cumulative IPC: 2.25041 (Simulation time: 0 hr 3 min 40 sec) 
Heartbeat CPU 0 instructions: 7000001 cycles: 3193468 heartbeat IPC: 1.89648 cumulative IPC: 2.19197 (Simulation time: 0 hr 4 min 22 sec) 
Heartbeat CPU 0 instructions: 8000000 cycles: 3726137 heartbeat IPC: 1.87734 cumulative IPC: 2.147 (Simulation time: 0 hr 5 min 8 sec) 
Heartbeat CPU 0 instructions: 9000000 cycles: 4232709 heartbeat IPC: 1.97405 cumulative IPC: 2.1263 (Simulation time: 0 hr 5 min 46 sec) 
Heartbeat CPU 0 instructions: 10000002 cycles: 4685660 heartbeat IPC: 2.20775 cumulative IPC: 2.13417 (Simulation time: 0 hr 6 min 21 sec) 

Warmup complete CPU 0 instructions: 10000002 cycles: 4685660 (Simulation time: 0 hr 6 min 21 sec) 

Heartbeat CPU 0 instructions: 11000000 cycles: 6183186 heartbeat IPC: 0.667767 cumulative IPC: 0.667767 (Simulation time: 0 hr 6 min 52 sec) 
Heartbeat CPU 0 instructions: 12000000 cycles: 7404001 heartbeat IPC: 0.819125 cumulative IPC: 0.735742 (Simulation time: 0 hr 7 min 33 sec) 
Heartbeat CPU 0 instructions: 13000001 cycles: 8687045 heartbeat IPC: 0.779397 cumulative IPC: 0.74974 (Simulation time: 0 hr 8 min 15 sec) 
Heartbeat CPU 0 instructions: 14000000 cycles: 10121056 heartbeat IPC: 0.697344 cumulative IPC: 0.735917 (Simulation time: 0 hr 8 min 49 sec) 
Heartbeat CPU 0 instructions: 15000000 cycles: 11472932 heartbeat IPC: 0.739713 cumulative IPC: 0.736673 (Simulation time: 0 hr 9 min 27 sec) 
Heartbeat CPU 0 instructions: 16000000 cycles: 12950248 heartbeat IPC: 0.676903 cumulative IPC: 0.725989 (Simulation time: 0 hr 10 min 6 sec) 
Heartbeat CPU 0 instructions: 17000000 cycles: 14576374 heartbeat IPC: 0.614959 cumulative IPC: 0.707734 (Simulation time: 0 hr 10 min 43 sec) 
Heartbeat CPU 0 instructions: 18000002 cycles: 16180160 heartbeat IPC: 0.623526 cumulative IPC: 0.695985 (Simulation time: 0 hr 11 min 17 sec) 
Heartbeat CPU 0 instructions: 19000003 cycles: 17633295 heartbeat IPC: 0.688168 cumulative IPC: 0.695108 (Simulation time: 0 hr 11 min 48 sec) 
Heartbeat CPU 0 instructions: 20000000 cycles: 19169216 heartbeat IPC: 0.651073 cumulative IPC: 0.690438 (Simulation time: 0 hr 12 min 24 sec) 
Heartbeat CPU 0 instructions: 21000001 cycles: 20736996 heartbeat IPC: 0.637845 cumulative IPC: 0.685301 (Simulation time: 0 hr 13 min 4 sec) 
Heartbeat CPU 0 instructions: 22000000 cycles: 22479127 heartbeat IPC: 0.574009 cumulative IPC: 0.674405 (Simulation time: 0 hr 13 min 46 sec) 
Heartbeat CPU 0 instructions: 23000001 cycles: 24095060 heartbeat IPC: 0.618838 cumulative IPC: 0.669779 (Simulation time: 0 hr 14 min 20 sec) 
Heartbeat CPU 0 instructions: 24000000 cycles: 25516967 heartbeat IPC: 0.70328 cumulative IPC: 0.672065 (Simulation time: 0 hr 15 min 0 sec) 
Heartbeat CPU 0 instructions: 25000002 cycles: 26874677 heartbeat IPC: 0.736536 cumulative IPC: 0.67601 (Simulation time: 0 hr 15 min 43 sec) 
Heartbeat CPU 0 instructions: 26000003 cycles: 27995241 heartbeat IPC: 0.892409 cumulative IPC: 0.686413 (Simulation time: 0 hr 16 min 27 sec) 
Heartbeat CPU 0 instructions: 27000002 cycles: 29272941 heartbeat IPC: 0.782656 cumulative IPC: 0.691414 (Simulation time: 0 hr 17 min 10 sec) 
Heartbeat CPU 0 instructions: 28000000 cycles: 30250081 heartbeat IPC: 1.02339 cumulative IPC: 0.704103 (Simulation time: 0 hr 17 min 49 sec) 
Heartbeat CPU 0 instructions: 29000001 cycles: 31155972 heartbeat IPC: 1.10389 cumulative IPC: 0.717785 (Simulation time: 0 hr 18 min 26 sec) 
Heartbeat CPU 0 instructions: 30000000 cycles: 32073025 heartbeat IPC: 1.09045 cumulative IPC: 0.730264 (Simulation time: 0 hr 19 min 3 sec) 
Heartbeat CPU 0 instructions: 31000003 cycles: 33071047 heartbeat IPC: 1.00198 cumulative IPC: 0.739817 (Simulation time: 0 hr 19 min 38 sec) 
Heartbeat CPU 0 instructions: 32000000 cycles: 33992703 heartbeat IPC: 1.085 cumulative IPC: 0.750673 (Simulation time: 0 hr 20 min 12 sec) 
Heartbeat CPU 0 instructions: 33000002 cycles: 34985037 heartbeat IPC: 1.00773 cumulative IPC: 0.759091 (Simulation time: 0 hr 20 min 53 sec) 
Heartbeat CPU 0 instructions: 34000000 cycles: 35929520 heartbeat IPC: 1.05878 cumulative IPC: 0.768151 (Simulation time: 0 hr 21 min 27 sec) 
Heartbeat CPU 0 instructions: 35000000 cycles: 36786704 heartbeat IPC: 1.16661 cumulative IPC: 0.778791 (Simulation time: 0 hr 22 min 0 sec) 
Heartbeat CPU 0 instructions: 36000000 cycles: 37628393 heartbeat IPC: 1.18809 cumulative IPC: 0.789248 (Simulation time: 0 hr 22 min 31 sec) 
Heartbeat CPU 0 instructions: 37000000 cycles: 38479643 heartbeat IPC: 1.17474 cumulative IPC: 0.798959 (Simulation time: 0 hr 23 min 4 sec) 
Heartbeat CPU 0 instructions: 38000002 cycles: 39272308 heartbeat IPC: 1.26157 cumulative IPC: 0.809561 (Simulation time: 0 hr 23 min 36 sec) 
Heartbeat CPU 0 instructions: 39000001 cycles: 40177230 heartbeat IPC: 1.10507 cumulative IPC: 0.817095 (Simulation time: 0 hr 24 min 9 sec) 
Heartbeat CPU 0 instructions: 40000000 cycles: 41112067 heartbeat IPC: 1.0697 cumulative IPC: 0.823578 (Simulation time: 0 hr 24 min 45 sec) 
Heartbeat CPU 0 instructions: 41000002 cycles: 42073123 heartbeat IPC: 1.04052 cumulative IPC: 0.829155 (Simulation time: 0 hr 25 min 18 sec) 
Heartbeat CPU 0 instructions: 42000001 cycles: 43028606 heartbeat IPC: 1.04659 cumulative IPC: 0.834573 (Simulation time: 0 hr 25 min 53 sec) 
Heartbeat CPU 0 instructions: 43000001 cycles: 43977819 heartbeat IPC: 1.0535 cumulative IPC: 0.839862 (Simulation time: 0 hr 26 min 25 sec) 
Heartbeat CPU 0 instructions: 44000000 cycles: 44953673 heartbeat IPC: 1.02474 cumulative IPC: 0.844343 (Simulation time: 0 hr 27 min 0 sec) 
Heartbeat CPU 0 instructions: 45000001 cycles: 45879625 heartbeat IPC: 1.07997 cumulative IPC: 0.849639 (Simulation time: 0 hr 27 min 31 sec) 
Heartbeat CPU 0 instructions: 46000000 cycles: 46782376 heartbeat IPC: 1.10772 cumulative IPC: 0.855174 (Simulation time: 0 hr 28 min 8 sec) 
Heartbeat CPU 0 instructions: 47000000 cycles: 47661682 heartbeat IPC: 1.13726 cumulative IPC: 0.860945 (Simulation time: 0 hr 28 min 41 sec) 
Heartbeat CPU 0 instructions: 48000000 cycles: 48568402 heartbeat IPC: 1.10288 cumulative IPC: 0.865944 (Simulation time: 0 hr 29 min 17 sec) 
Heartbeat CPU 0 instructions: 49000001 cycles: 49508778 heartbeat IPC: 1.06341 cumulative IPC: 0.870087 (Simulation time: 0 hr 29 min 52 sec) 
Heartbeat CPU 0 instructions: 50000003 cycles: 50490471 heartbeat IPC: 1.01865 cumulative IPC: 0.873271 (Simulation time: 0 hr 30 min 25 sec) 
Heartbeat CPU 0 instructions: 51000002 cycles: 51447511 heartbeat IPC: 1.04489 cumulative IPC: 0.876783 (Simulation time: 0 hr 30 min 58 sec) 
Heartbeat CPU 0 instructions: 52000000 cycles: 52412530 heartbeat IPC: 1.03625 cumulative IPC: 0.880007 (Simulation time: 0 hr 31 min 34 sec) 
Heartbeat CPU 0 instructions: 53000001 cycles: 53390753 heartbeat IPC: 1.02226 cumulative IPC: 0.882865 (Simulation time: 0 hr 32 min 11 sec) 
Heartbeat CPU 0 instructions: 54000003 cycles: 54371168 heartbeat IPC: 1.01998 cumulative IPC: 0.88557 (Simulation time: 0 hr 32 min 48 sec) 
Heartbeat CPU 0 instructions: 55000000 cycles: 55335688 heartbeat IPC: 1.03678 cumulative IPC: 0.88845 (Simulation time: 0 hr 33 min 27 sec) 
Heartbeat CPU 0 instructions: 56000000 cycles: 56312044 heartbeat IPC: 1.02422 cumulative IPC: 0.891017 (Simulation time: 0 hr 34 min 2 sec) 
Heartbeat CPU 0 instructions: 57000002 cycles: 57279493 heartbeat IPC: 1.03365 cumulative IPC: 0.893641 (Simulation time: 0 hr 34 min 35 sec) 
Heartbeat CPU 0 instructions: 58000003 cycles: 58252608 heartbeat IPC: 1.02763 cumulative IPC: 0.896075 (Simulation time: 0 hr 35 min 10 sec) 
Heartbeat CPU 0 instructions: 59000003 cycles: 59281509 heartbeat IPC: 0.971911 cumulative IPC: 0.897504 (Simulation time: 0 hr 35 min 50 sec) 
Heartbeat CPU 0 instructions: 60000000 cycles: 60489234 heartbeat IPC: 0.828001 cumulative IPC: 0.896 (Simulation time: 0 hr 36 min 31 sec) 
Heartbeat CPU 0 instructions: 61000000 cycles: 61696084 heartbeat IPC: 0.828603 cumulative IPC: 0.894573 (Simulation time: 0 hr 37 min 14 sec) 
Heartbeat CPU 0 instructions: 62000003 cycles: 62919585 heartbeat IPC: 0.817329 cumulative IPC: 0.89295 (Simulation time: 0 hr 37 min 50 sec) 
Heartbeat CPU 0 instructions: 63000001 cycles: 64150790 heartbeat IPC: 0.812211 cumulative IPC: 0.891279 (Simulation time: 0 hr 38 min 28 sec) 
Heartbeat CPU 0 instructions: 64000000 cycles: 65472428 heartbeat IPC: 0.756636 cumulative IPC: 0.888351 (Simulation time: 0 hr 39 min 5 sec) 
Heartbeat CPU 0 instructions: 65000001 cycles: 66676693 heartbeat IPC: 0.830383 cumulative IPC: 0.887225 (Simulation time: 0 hr 39 min 43 sec) 
Heartbeat CPU 0 instructions: 66000003 cycles: 67878597 heartbeat IPC: 0.832015 cumulative IPC: 0.886175 (Simulation time: 0 hr 40 min 14 sec) 
Heartbeat CPU 0 instructions: 67000000 cycles: 69089864 heartbeat IPC: 0.825579 cumulative IPC: 0.885035 (Simulation time: 0 hr 40 min 45 sec) 
Heartbeat CPU 0 instructions: 68000000 cycles: 70403911 heartbeat IPC: 0.761008 cumulative IPC: 0.882555 (Simulation time: 0 hr 41 min 17 sec) 
Heartbeat CPU 0 instructions: 69000000 cycles: 71600603 heartbeat IPC: 0.835637 cumulative IPC: 0.881716 (Simulation time: 0 hr 41 min 56 sec) 
Heartbeat CPU 0 instructions: 70000002 cycles: 72802884 heartbeat IPC: 0.831754 cumulative IPC: 0.880834 (Simulation time: 0 hr 42 min 35 sec) 
Heartbeat CPU 0 instructions: 71000003 cycles: 74009656 heartbeat IPC: 0.828658 cumulative IPC: 0.879926 (Simulation time: 0 hr 43 min 17 sec) 
Heartbeat CPU 0 instructions: 72000000 cycles: 75217929 heartbeat IPC: 0.827625 cumulative IPC: 0.87903 (Simulation time: 0 hr 43 min 57 sec) 
Heartbeat CPU 0 instructions: 73000002 cycles: 76521695 heartbeat IPC: 0.76701 cumulative IPC: 0.876997 (Simulation time: 0 hr 44 min 36 sec) 
Heartbeat CPU 0 instructions: 74000000 cycles: 77721394 heartbeat IPC: 0.833541 cumulative IPC: 0.876283 (Simulation time: 0 hr 45 min 17 sec) 
Heartbeat CPU 0 instructions: 75000001 cycles: 78922810 heartbeat IPC: 0.832352 cumulative IPC: 0.875572 (Simulation time: 0 hr 46 min 1 sec) 
Heartbeat CPU 0 instructions: 76000000 cycles: 80132186 heartbeat IPC: 0.826872 cumulative IPC: 0.874792 (Simulation time: 0 hr 46 min 45 sec) 
Heartbeat CPU 0 instructions: 77000001 cycles: 81389414 heartbeat IPC: 0.795401 cumulative IPC: 0.87349 (Simulation time: 0 hr 47 min 25 sec) 
Heartbeat CPU 0 instructions: 78000003 cycles: 82554509 heartbeat IPC: 0.858301 cumulative IPC: 0.873263 (Simulation time: 0 hr 47 min 56 sec) 
Heartbeat CPU 0 instructions: 79000000 cycles: 83473755 heartbeat IPC: 1.08784 cumulative IPC: 0.875767 (Simulation time: 0 hr 48 min 30 sec) 
Heartbeat CPU 0 instructions: 80000000 cycles: 84377372 heartbeat IPC: 1.10666 cumulative IPC: 0.878385 (Simulation time: 0 hr 49 min 2 sec) 
Heartbeat CPU 0 instructions: 81000000 cycles: 85223114 heartbeat IPC: 1.18239 cumulative IPC: 0.881577 (Simulation time: 0 hr 49 min 36 sec) 
Heartbeat CPU 0 instructions: 82000001 cycles: 86114955 heartbeat IPC: 1.12128 cumulative IPC: 0.884203 (Simulation time: 0 hr 50 min 8 sec) 
Heartbeat CPU 0 instructions: 83000000 cycles: 87038840 heartbeat IPC: 1.08238 cumulative IPC: 0.886426 (Simulation time: 0 hr 50 min 42 sec) 
Heartbeat CPU 0 instructions: 84000000 cycles: 87955521 heartbeat IPC: 1.09089 cumulative IPC: 0.888677 (Simulation time: 0 hr 51 min 14 sec) 
Heartbeat CPU 0 instructions: 85000002 cycles: 88891409 heartbeat IPC: 1.06851 cumulative IPC: 0.890676 (Simulation time: 0 hr 51 min 52 sec) 
Heartbeat CPU 0 instructions: 86000002 cycles: 89821231 heartbeat IPC: 1.07547 cumulative IPC: 0.892694 (Simulation time: 0 hr 52 min 36 sec) 
Heartbeat CPU 0 instructions: 87000002 cycles: 90751039 heartbeat IPC: 1.07549 cumulative IPC: 0.894669 (Simulation time: 0 hr 53 min 18 sec) 
Heartbeat CPU 0 instructions: 88000000 cycles: 91800743 heartbeat IPC: 0.952648 cumulative IPC: 0.895367 (Simulation time: 0 hr 54 min 1 sec) 
Heartbeat CPU 0 instructions: 89000002 cycles: 92894991 heartbeat IPC: 0.913871 cumulative IPC: 0.895597 (Simulation time: 0 hr 54 min 41 sec) 
Heartbeat CPU 0 instructions: 90000001 cycles: 93987763 heartbeat IPC: 0.915103 cumulative IPC: 0.895836 (Simulation time: 0 hr 55 min 22 sec) 
Heartbeat CPU 0 instructions: 91000001 cycles: 95088371 heartbeat IPC: 0.908589 cumulative IPC: 0.895991 (Simulation time: 0 hr 56 min 5 sec) 
Heartbeat CPU 0 instructions: 92000000 cycles: 96176280 heartbeat IPC: 0.919194 cumulative IPC: 0.896267 (Simulation time: 0 hr 56 min 44 sec) 
Heartbeat CPU 0 instructions: 93000001 cycles: 97265147 heartbeat IPC: 0.918387 cumulative IPC: 0.896527 (Simulation time: 0 hr 57 min 23 sec) 
Heartbeat CPU 0 instructions: 94000001 cycles: 98349334 heartbeat IPC: 0.92235 cumulative IPC: 0.896826 (Simulation time: 0 hr 58 min 2 sec) 
Heartbeat CPU 0 instructions: 95000000 cycles: 99437392 heartbeat IPC: 0.919068 cumulative IPC: 0.897081 (Simulation time: 0 hr 58 min 41 sec) 
Heartbeat CPU 0 instructions: 96000000 cycles: 100523450 heartbeat IPC: 0.920761 cumulative IPC: 0.89735 (Simulation time: 0 hr 59 min 20 sec) 
Heartbeat CPU 0 instructions: 97000002 cycles: 101607739 heartbeat IPC: 0.922265 cumulative IPC: 0.897628 (Simulation time: 0 hr 59 min 59 sec) 
Heartbeat CPU 0 instructions: 98000002 cycles: 102691897 heartbeat IPC: 0.922375 cumulative IPC: 0.897902 (Simulation time: 1 hr 0 min 38 sec) 
Heartbeat CPU 0 instructions: 99000000 cycles: 103776678 heartbeat IPC: 0.921843 cumulative IPC: 0.898164 (Simulation time: 1 hr 1 min 15 sec) 
Heartbeat CPU 0 instructions: 100000000 cycles: 104862459 heartbeat IPC: 0.920996 cumulative IPC: 0.898412 (Simulation time: 1 hr 1 min 52 sec) 
Heartbeat CPU 0 instructions: 101000000 cycles: 105949439 heartbeat IPC: 0.91998 cumulative IPC: 0.898643 (Simulation time: 1 hr 2 min 28 sec) 
Heartbeat CPU 0 instructions: 102000000 cycles: 107040290 heartbeat IPC: 0.916716 cumulative IPC: 0.898836 (Simulation time: 1 hr 3 min 5 sec) 
Heartbeat CPU 0 instructions: 103000002 cycles: 108128787 heartbeat IPC: 0.9187 cumulative IPC: 0.899045 (Simulation time: 1 hr 3 min 42 sec) 
Heartbeat CPU 0 instructions: 104000000 cycles: 109217973 heartbeat IPC: 0.918115 cumulative IPC: 0.899243 (Simulation time: 1 hr 4 min 16 sec) 
Heartbeat CPU 0 instructions: 105000003 cycles: 110312001 heartbeat IPC: 0.914056 cumulative IPC: 0.899397 (Simulation time: 1 hr 4 min 51 sec) 
Heartbeat CPU 0 instructions: 106000002 cycles: 111408188 heartbeat IPC: 0.912252 cumulative IPC: 0.899529 (Simulation time: 1 hr 5 min 23 sec) 
Heartbeat CPU 0 instructions: 107000001 cycles: 112492595 heartbeat IPC: 0.922162 cumulative IPC: 0.899757 (Simulation time: 1 hr 5 min 56 sec) 
Heartbeat CPU 0 instructions: 108000000 cycles: 113586530 heartbeat IPC: 0.91413 cumulative IPC: 0.899901 (Simulation time: 1 hr 6 min 27 sec) 
Heartbeat CPU 0 instructions: 109000001 cycles: 114681379 heartbeat IPC: 0.913369 cumulative IPC: 0.900035 (Simulation time: 1 hr 6 min 59 sec) 
Heartbeat CPU 0 instructions: 110000002 cycles: 115782173 heartbeat IPC: 0.908436 cumulative IPC: 0.900118 (Simulation time: 1 hr 7 min 27 sec) 
Finished CPU 0 instructions: 100000000 cycles: 111096513 cummulative IPC: 0.900118 (Simulation time: 1 hr 7 min 27 sec) 

ChampSim completed all CPUs

Region of Interest Statistics

CPU 0 cummulative IPC: 0.900118 instructions: 100000000 cycles: 111096513
LLC TOTAL     ACCESS:    2346605  HIT:    2060232  MISS:     286373
LLC LOAD      ACCESS:     882455  HIT:     868013  MISS:      14442
LLC RFO       ACCESS:     180701  HIT:     101254  MISS:      79447
LLC PREFETCH  ACCESS:    1098630  HIT:     944563  MISS:     154067
LLC WRITEBACK ACCESS:     184819  HIT:     146402  MISS:      38417
Insertion Distribution: 
	LOAD 15462 0 0 0 0 9616 2268 
	RFO 8447 0 0 0 0 38746 49542 
	PREF 0 9792 0 0 0 27313 137632 
	WRITEBACK 0 0 0 0 0 0 41440 
Total Prefetch Downgrades: 17764
