
*** ChampSim Multicore Out-of-Order Simulator ***

Warmup Instructions: 10000000
Simulation Instructions: 100000000
Configuration: 2
Number of CPUs: 1
LLC sets: 2048
LLC ways: 16
Off-chip DRAM Channels: 1 Width: 64-bit Data Rate: 1600 MT/s

CPU 0 runs /datasets/cs240c-wi22-a00-public/data/Assignment2-gz/sphinx3_2520B.trace.gz
CPU 0 L1D next line prefetcher
CPU 0 L2C IP-based stride prefetcher
Initialize SRRIP state
Heartbeat CPU 0 instructions: 1000003 cycles: 338965 heartbeat IPC: 2.95017 cumulative IPC: 2.95017 (Simulation time: 0 hr 0 min 30 sec) 
Heartbeat CPU 0 instructions: 2000000 cycles: 737243 heartbeat IPC: 2.5108 cumulative IPC: 2.71281 (Simulation time: 0 hr 1 min 5 sec) 
Heartbeat CPU 0 instructions: 3000003 cycles: 1185241 heartbeat IPC: 2.23216 cumulative IPC: 2.53113 (Simulation time: 0 hr 1 min 35 sec) 
Heartbeat CPU 0 instructions: 4000000 cycles: 1524269 heartbeat IPC: 2.9496 cumulative IPC: 2.62421 (Simulation time: 0 hr 2 min 6 sec) 
Heartbeat CPU 0 instructions: 5000001 cycles: 1902428 heartbeat IPC: 2.64439 cumulative IPC: 2.62822 (Simulation time: 0 hr 2 min 43 sec) 
Heartbeat CPU 0 instructions: 6000001 cycles: 2367856 heartbeat IPC: 2.14856 cumulative IPC: 2.53394 (Simulation time: 0 hr 3 min 16 sec) 
Heartbeat CPU 0 instructions: 7000001 cycles: 2706797 heartbeat IPC: 2.95037 cumulative IPC: 2.58608 (Simulation time: 0 hr 3 min 48 sec) 
Heartbeat CPU 0 instructions: 8000000 cycles: 3055805 heartbeat IPC: 2.86526 cumulative IPC: 2.61797 (Simulation time: 0 hr 4 min 20 sec) 
Heartbeat CPU 0 instructions: 9000000 cycles: 3509228 heartbeat IPC: 2.20545 cumulative IPC: 2.56467 (Simulation time: 0 hr 4 min 54 sec) 
Heartbeat CPU 0 instructions: 10000000 cycles: 3859387 heartbeat IPC: 2.85585 cumulative IPC: 2.59108 (Simulation time: 0 hr 5 min 27 sec) 

Warmup complete CPU 0 instructions: 10000004 cycles: 3859388 (Simulation time: 0 hr 5 min 27 sec) 

Heartbeat CPU 0 instructions: 11000001 cycles: 4648174 heartbeat IPC: 1.26777 cumulative IPC: 1.26777 (Simulation time: 0 hr 6 min 6 sec) 
Heartbeat CPU 0 instructions: 12000000 cycles: 5517173 heartbeat IPC: 1.15075 cumulative IPC: 1.20643 (Simulation time: 0 hr 6 min 45 sec) 
Heartbeat CPU 0 instructions: 13000002 cycles: 6378064 heartbeat IPC: 1.16159 cumulative IPC: 1.1911 (Simulation time: 0 hr 7 min 23 sec) 
Heartbeat CPU 0 instructions: 14000002 cycles: 7144323 heartbeat IPC: 1.30504 cumulative IPC: 1.21768 (Simulation time: 0 hr 8 min 2 sec) 
Heartbeat CPU 0 instructions: 15000003 cycles: 8030666 heartbeat IPC: 1.12823 cumulative IPC: 1.19867 (Simulation time: 0 hr 8 min 40 sec) 
Heartbeat CPU 0 instructions: 16000000 cycles: 8877930 heartbeat IPC: 1.18027 cumulative IPC: 1.19557 (Simulation time: 0 hr 9 min 18 sec) 
Heartbeat CPU 0 instructions: 17000000 cycles: 9636033 heartbeat IPC: 1.31908 cumulative IPC: 1.21178 (Simulation time: 0 hr 9 min 55 sec) 
Heartbeat CPU 0 instructions: 18000002 cycles: 10498835 heartbeat IPC: 1.15902 cumulative IPC: 1.20492 (Simulation time: 0 hr 10 min 30 sec) 
Heartbeat CPU 0 instructions: 19000001 cycles: 11318407 heartbeat IPC: 1.22015 cumulative IPC: 1.20659 (Simulation time: 0 hr 11 min 9 sec) 
Heartbeat CPU 0 instructions: 20000000 cycles: 12069700 heartbeat IPC: 1.33104 cumulative IPC: 1.21798 (Simulation time: 0 hr 11 min 46 sec) 
Heartbeat CPU 0 instructions: 21000001 cycles: 13240982 heartbeat IPC: 0.853766 cumulative IPC: 1.17251 (Simulation time: 0 hr 12 min 24 sec) 
Heartbeat CPU 0 instructions: 22000002 cycles: 14192528 heartbeat IPC: 1.05092 cumulative IPC: 1.16131 (Simulation time: 0 hr 13 min 0 sec) 
Heartbeat CPU 0 instructions: 23000001 cycles: 15004529 heartbeat IPC: 1.23152 cumulative IPC: 1.16643 (Simulation time: 0 hr 13 min 38 sec) 
Heartbeat CPU 0 instructions: 24000000 cycles: 15780650 heartbeat IPC: 1.28846 cumulative IPC: 1.17437 (Simulation time: 0 hr 14 min 14 sec) 
Heartbeat CPU 0 instructions: 25000003 cycles: 16596838 heartbeat IPC: 1.22521 cumulative IPC: 1.17763 (Simulation time: 0 hr 14 min 49 sec) 
Heartbeat CPU 0 instructions: 26000001 cycles: 17388018 heartbeat IPC: 1.26393 cumulative IPC: 1.18268 (Simulation time: 0 hr 15 min 27 sec) 
Heartbeat CPU 0 instructions: 27000002 cycles: 18156589 heartbeat IPC: 1.30112 cumulative IPC: 1.18904 (Simulation time: 0 hr 16 min 5 sec) 
Heartbeat CPU 0 instructions: 28000000 cycles: 18977262 heartbeat IPC: 1.21851 cumulative IPC: 1.19064 (Simulation time: 0 hr 16 min 41 sec) 
Heartbeat CPU 0 instructions: 29000003 cycles: 19773926 heartbeat IPC: 1.25524 cumulative IPC: 1.19388 (Simulation time: 0 hr 17 min 18 sec) 
Heartbeat CPU 0 instructions: 30000003 cycles: 20540622 heartbeat IPC: 1.3043 cumulative IPC: 1.19895 (Simulation time: 0 hr 17 min 56 sec) 
Heartbeat CPU 0 instructions: 31000001 cycles: 21348603 heartbeat IPC: 1.23765 cumulative IPC: 1.20074 (Simulation time: 0 hr 18 min 33 sec) 
Heartbeat CPU 0 instructions: 32000000 cycles: 22138817 heartbeat IPC: 1.26548 cumulative IPC: 1.20354 (Simulation time: 0 hr 19 min 7 sec) 
Heartbeat CPU 0 instructions: 33000000 cycles: 22910220 heartbeat IPC: 1.29634 cumulative IPC: 1.2073 (Simulation time: 0 hr 19 min 44 sec) 
Heartbeat CPU 0 instructions: 34000000 cycles: 23712680 heartbeat IPC: 1.24617 cumulative IPC: 1.20887 (Simulation time: 0 hr 20 min 19 sec) 
Heartbeat CPU 0 instructions: 35000002 cycles: 24506244 heartbeat IPC: 1.26014 cumulative IPC: 1.21084 (Simulation time: 0 hr 20 min 56 sec) 
Heartbeat CPU 0 instructions: 36000000 cycles: 25259032 heartbeat IPC: 1.32839 cumulative IPC: 1.21497 (Simulation time: 0 hr 21 min 34 sec) 
Heartbeat CPU 0 instructions: 37000000 cycles: 26074511 heartbeat IPC: 1.22627 cumulative IPC: 1.21539 (Simulation time: 0 hr 22 min 9 sec) 
Heartbeat CPU 0 instructions: 38000002 cycles: 26873556 heartbeat IPC: 1.2515 cumulative IPC: 1.21664 (Simulation time: 0 hr 22 min 44 sec) 
Heartbeat CPU 0 instructions: 39000000 cycles: 27656749 heartbeat IPC: 1.27682 cumulative IPC: 1.21862 (Simulation time: 0 hr 23 min 23 sec) 
Heartbeat CPU 0 instructions: 40000000 cycles: 28481222 heartbeat IPC: 1.2129 cumulative IPC: 1.21843 (Simulation time: 0 hr 24 min 1 sec) 
Heartbeat CPU 0 instructions: 41000001 cycles: 29272293 heartbeat IPC: 1.26411 cumulative IPC: 1.21985 (Simulation time: 0 hr 24 min 39 sec) 
Heartbeat CPU 0 instructions: 42000002 cycles: 30058682 heartbeat IPC: 1.27164 cumulative IPC: 1.22141 (Simulation time: 0 hr 25 min 15 sec) 
Heartbeat CPU 0 instructions: 43000001 cycles: 30852401 heartbeat IPC: 1.25989 cumulative IPC: 1.22254 (Simulation time: 0 hr 25 min 51 sec) 
Heartbeat CPU 0 instructions: 44000000 cycles: 31641916 heartbeat IPC: 1.2666 cumulative IPC: 1.22379 (Simulation time: 0 hr 26 min 27 sec) 
Heartbeat CPU 0 instructions: 45000001 cycles: 32422227 heartbeat IPC: 1.28154 cumulative IPC: 1.22537 (Simulation time: 0 hr 27 min 4 sec) 
Heartbeat CPU 0 instructions: 46000001 cycles: 33239502 heartbeat IPC: 1.22358 cumulative IPC: 1.22532 (Simulation time: 0 hr 27 min 40 sec) 
Heartbeat CPU 0 instructions: 47000003 cycles: 34024386 heartbeat IPC: 1.27408 cumulative IPC: 1.22659 (Simulation time: 0 hr 28 min 17 sec) 
Heartbeat CPU 0 instructions: 48000000 cycles: 34820878 heartbeat IPC: 1.2555 cumulative IPC: 1.22733 (Simulation time: 0 hr 28 min 54 sec) 
Heartbeat CPU 0 instructions: 49000002 cycles: 35596150 heartbeat IPC: 1.28987 cumulative IPC: 1.22886 (Simulation time: 0 hr 29 min 32 sec) 
Heartbeat CPU 0 instructions: 50000003 cycles: 36371993 heartbeat IPC: 1.28892 cumulative IPC: 1.23029 (Simulation time: 0 hr 30 min 8 sec) 
Heartbeat CPU 0 instructions: 51000001 cycles: 37168713 heartbeat IPC: 1.25514 cumulative IPC: 1.23089 (Simulation time: 0 hr 30 min 45 sec) 
Heartbeat CPU 0 instructions: 52000000 cycles: 37933183 heartbeat IPC: 1.30809 cumulative IPC: 1.23262 (Simulation time: 0 hr 31 min 24 sec) 
Heartbeat CPU 0 instructions: 53000001 cycles: 38713201 heartbeat IPC: 1.28202 cumulative IPC: 1.23372 (Simulation time: 0 hr 32 min 2 sec) 
Heartbeat CPU 0 instructions: 54000001 cycles: 39488828 heartbeat IPC: 1.28928 cumulative IPC: 1.23493 (Simulation time: 0 hr 32 min 38 sec) 
Heartbeat CPU 0 instructions: 55000000 cycles: 40231886 heartbeat IPC: 1.34579 cumulative IPC: 1.2372 (Simulation time: 0 hr 33 min 15 sec) 
Heartbeat CPU 0 instructions: 56000000 cycles: 41005390 heartbeat IPC: 1.29282 cumulative IPC: 1.23836 (Simulation time: 0 hr 33 min 54 sec) 
Heartbeat CPU 0 instructions: 57000000 cycles: 41890544 heartbeat IPC: 1.12975 cumulative IPC: 1.23583 (Simulation time: 0 hr 34 min 30 sec) 
Heartbeat CPU 0 instructions: 58000002 cycles: 43019017 heartbeat IPC: 0.886155 cumulative IPC: 1.22575 (Simulation time: 0 hr 35 min 6 sec) 
Heartbeat CPU 0 instructions: 59000001 cycles: 43813161 heartbeat IPC: 1.25922 cumulative IPC: 1.22642 (Simulation time: 0 hr 35 min 44 sec) 
Heartbeat CPU 0 instructions: 60000000 cycles: 44575672 heartbeat IPC: 1.31146 cumulative IPC: 1.22801 (Simulation time: 0 hr 36 min 23 sec) 
Heartbeat CPU 0 instructions: 61000001 cycles: 45347162 heartbeat IPC: 1.29619 cumulative IPC: 1.22928 (Simulation time: 0 hr 37 min 2 sec) 
Heartbeat CPU 0 instructions: 62000000 cycles: 46104091 heartbeat IPC: 1.32113 cumulative IPC: 1.23092 (Simulation time: 0 hr 37 min 38 sec) 
Heartbeat CPU 0 instructions: 63000002 cycles: 46871971 heartbeat IPC: 1.30229 cumulative IPC: 1.2322 (Simulation time: 0 hr 38 min 16 sec) 
Heartbeat CPU 0 instructions: 64000000 cycles: 47655576 heartbeat IPC: 1.27615 cumulative IPC: 1.23298 (Simulation time: 0 hr 38 min 48 sec) 
Heartbeat CPU 0 instructions: 65000003 cycles: 48407354 heartbeat IPC: 1.33018 cumulative IPC: 1.23462 (Simulation time: 0 hr 39 min 19 sec) 
Heartbeat CPU 0 instructions: 66000003 cycles: 49179246 heartbeat IPC: 1.29552 cumulative IPC: 1.23566 (Simulation time: 0 hr 39 min 53 sec) 
Heartbeat CPU 0 instructions: 67000003 cycles: 49995580 heartbeat IPC: 1.22499 cumulative IPC: 1.23547 (Simulation time: 0 hr 40 min 24 sec) 
Heartbeat CPU 0 instructions: 68000000 cycles: 50753169 heartbeat IPC: 1.31997 cumulative IPC: 1.23684 (Simulation time: 0 hr 40 min 53 sec) 
Heartbeat CPU 0 instructions: 69000003 cycles: 51529205 heartbeat IPC: 1.2886 cumulative IPC: 1.23768 (Simulation time: 0 hr 41 min 28 sec) 
Heartbeat CPU 0 instructions: 70000000 cycles: 52327760 heartbeat IPC: 1.25226 cumulative IPC: 1.23792 (Simulation time: 0 hr 42 min 2 sec) 
Heartbeat CPU 0 instructions: 71000002 cycles: 53087277 heartbeat IPC: 1.31663 cumulative IPC: 1.23913 (Simulation time: 0 hr 42 min 34 sec) 
Heartbeat CPU 0 instructions: 72000000 cycles: 53864198 heartbeat IPC: 1.28713 cumulative IPC: 1.23988 (Simulation time: 0 hr 43 min 11 sec) 
Heartbeat CPU 0 instructions: 73000003 cycles: 54653205 heartbeat IPC: 1.26742 cumulative IPC: 1.24031 (Simulation time: 0 hr 43 min 52 sec) 
Heartbeat CPU 0 instructions: 74000003 cycles: 55407533 heartbeat IPC: 1.32568 cumulative IPC: 1.24156 (Simulation time: 0 hr 44 min 29 sec) 
Heartbeat CPU 0 instructions: 75000002 cycles: 56187888 heartbeat IPC: 1.28147 cumulative IPC: 1.24215 (Simulation time: 0 hr 45 min 5 sec) 
Heartbeat CPU 0 instructions: 76000000 cycles: 56970619 heartbeat IPC: 1.27758 cumulative IPC: 1.24267 (Simulation time: 0 hr 45 min 39 sec) 
Heartbeat CPU 0 instructions: 77000003 cycles: 57747680 heartbeat IPC: 1.2869 cumulative IPC: 1.24331 (Simulation time: 0 hr 46 min 15 sec) 
Heartbeat CPU 0 instructions: 78000003 cycles: 58520538 heartbeat IPC: 1.2939 cumulative IPC: 1.24403 (Simulation time: 0 hr 46 min 53 sec) 
Heartbeat CPU 0 instructions: 79000003 cycles: 59302984 heartbeat IPC: 1.27804 cumulative IPC: 1.24451 (Simulation time: 0 hr 47 min 31 sec) 
Heartbeat CPU 0 instructions: 80000000 cycles: 60072449 heartbeat IPC: 1.2996 cumulative IPC: 1.24526 (Simulation time: 0 hr 48 min 9 sec) 
Heartbeat CPU 0 instructions: 81000001 cycles: 60846212 heartbeat IPC: 1.29239 cumulative IPC: 1.2459 (Simulation time: 0 hr 48 min 44 sec) 
Heartbeat CPU 0 instructions: 82000002 cycles: 61630888 heartbeat IPC: 1.27441 cumulative IPC: 1.24629 (Simulation time: 0 hr 49 min 21 sec) 
Heartbeat CPU 0 instructions: 83000003 cycles: 62413690 heartbeat IPC: 1.27746 cumulative IPC: 1.24671 (Simulation time: 0 hr 49 min 58 sec) 
Heartbeat CPU 0 instructions: 84000000 cycles: 63184937 heartbeat IPC: 1.2966 cumulative IPC: 1.24735 (Simulation time: 0 hr 50 min 34 sec) 
Heartbeat CPU 0 instructions: 85000001 cycles: 63968948 heartbeat IPC: 1.27549 cumulative IPC: 1.24772 (Simulation time: 0 hr 51 min 10 sec) 
Heartbeat CPU 0 instructions: 86000000 cycles: 64725797 heartbeat IPC: 1.32127 cumulative IPC: 1.24864 (Simulation time: 0 hr 51 min 46 sec) 
Heartbeat CPU 0 instructions: 87000003 cycles: 65493092 heartbeat IPC: 1.30328 cumulative IPC: 1.24932 (Simulation time: 0 hr 52 min 23 sec) 
Heartbeat CPU 0 instructions: 88000000 cycles: 66280536 heartbeat IPC: 1.26993 cumulative IPC: 1.24958 (Simulation time: 0 hr 53 min 0 sec) 
Heartbeat CPU 0 instructions: 89000000 cycles: 67032069 heartbeat IPC: 1.33061 cumulative IPC: 1.25054 (Simulation time: 0 hr 53 min 36 sec) 
Heartbeat CPU 0 instructions: 90000000 cycles: 67788455 heartbeat IPC: 1.32208 cumulative IPC: 1.25139 (Simulation time: 0 hr 54 min 11 sec) 
Heartbeat CPU 0 instructions: 91000001 cycles: 68574690 heartbeat IPC: 1.27189 cumulative IPC: 1.25164 (Simulation time: 0 hr 54 min 47 sec) 
Heartbeat CPU 0 instructions: 92000000 cycles: 69330684 heartbeat IPC: 1.32276 cumulative IPC: 1.25246 (Simulation time: 0 hr 55 min 24 sec) 
Heartbeat CPU 0 instructions: 93000002 cycles: 70071291 heartbeat IPC: 1.35025 cumulative IPC: 1.25355 (Simulation time: 0 hr 56 min 0 sec) 
Heartbeat CPU 0 instructions: 94000000 cycles: 70876027 heartbeat IPC: 1.24264 cumulative IPC: 1.25342 (Simulation time: 0 hr 56 min 34 sec) 
Heartbeat CPU 0 instructions: 95000000 cycles: 71626149 heartbeat IPC: 1.33312 cumulative IPC: 1.2543 (Simulation time: 0 hr 57 min 10 sec) 
Heartbeat CPU 0 instructions: 96000000 cycles: 72385910 heartbeat IPC: 1.3162 cumulative IPC: 1.25499 (Simulation time: 0 hr 57 min 47 sec) 
Heartbeat CPU 0 instructions: 97000002 cycles: 73569528 heartbeat IPC: 0.844869 cumulative IPC: 1.24803 (Simulation time: 0 hr 58 min 27 sec) 
Heartbeat CPU 0 instructions: 98000003 cycles: 74494499 heartbeat IPC: 1.08112 cumulative IPC: 1.24584 (Simulation time: 0 hr 59 min 1 sec) 
Heartbeat CPU 0 instructions: 99000001 cycles: 75270896 heartbeat IPC: 1.288 cumulative IPC: 1.2463 (Simulation time: 0 hr 59 min 37 sec) 
Heartbeat CPU 0 instructions: 100000000 cycles: 76028042 heartbeat IPC: 1.32075 cumulative IPC: 1.24708 (Simulation time: 1 hr 0 min 16 sec) 
Heartbeat CPU 0 instructions: 101000001 cycles: 77380273 heartbeat IPC: 0.739519 cumulative IPC: 1.23774 (Simulation time: 1 hr 0 min 53 sec) 
Heartbeat CPU 0 instructions: 102000002 cycles: 78187167 heartbeat IPC: 1.23932 cumulative IPC: 1.23776 (Simulation time: 1 hr 1 min 26 sec) 
Heartbeat CPU 0 instructions: 103000001 cycles: 78993299 heartbeat IPC: 1.24049 cumulative IPC: 1.23779 (Simulation time: 1 hr 1 min 59 sec) 
Heartbeat CPU 0 instructions: 104000000 cycles: 80239100 heartbeat IPC: 0.802696 cumulative IPC: 1.23069 (Simulation time: 1 hr 2 min 34 sec) 
Heartbeat CPU 0 instructions: 105000002 cycles: 81056444 heartbeat IPC: 1.22348 cumulative IPC: 1.23062 (Simulation time: 1 hr 3 min 7 sec) 
Heartbeat CPU 0 instructions: 106000000 cycles: 81839109 heartbeat IPC: 1.27768 cumulative IPC: 1.23109 (Simulation time: 1 hr 3 min 39 sec) 
Heartbeat CPU 0 instructions: 107000000 cycles: 82920971 heartbeat IPC: 0.924332 cumulative IPC: 1.22689 (Simulation time: 1 hr 4 min 11 sec) 
Heartbeat CPU 0 instructions: 108000000 cycles: 83901323 heartbeat IPC: 1.02004 cumulative IPC: 1.22436 (Simulation time: 1 hr 4 min 42 sec) 
Heartbeat CPU 0 instructions: 109000003 cycles: 84683300 heartbeat IPC: 1.27881 cumulative IPC: 1.22488 (Simulation time: 1 hr 5 min 11 sec) 
Heartbeat CPU 0 instructions: 110000000 cycles: 85534280 heartbeat IPC: 1.17511 cumulative IPC: 1.22437 (Simulation time: 1 hr 5 min 41 sec) 
Finished CPU 0 instructions: 100000003 cycles: 81674896 cummulative IPC: 1.22437 (Simulation time: 1 hr 5 min 41 sec) 

ChampSim completed all CPUs

Region of Interest Statistics

CPU 0 cummulative IPC: 1.22437 instructions: 100000003 cycles: 81674896
LLC TOTAL     ACCESS:    1445932  HIT:     849491  MISS:     596441
LLC LOAD      ACCESS:     118926  HIT:     100374  MISS:      18552
LLC RFO       ACCESS:     121986  HIT:     120678  MISS:       1308
LLC PREFETCH  ACCESS:    1076624  HIT:     500268  MISS:     576356
LLC WRITEBACK ACCESS:     128396  HIT:     128171  MISS:        225
Insertion Distribution: 
	LOAD 9248 0 0 0 0 14889 3245 
	RFO 1155 0 0 0 0 3322 0 
	PREF 0 7570 0 0 0 55023 595338 
	WRITEBACK 0 0 0 0 0 0 288 
Total Prefetch Downgrades: 5450
