
*** ChampSim Multicore Out-of-Order Simulator ***

Warmup Instructions: 10000000
Simulation Instructions: 100000000
Configuration: 2
Number of CPUs: 1
LLC sets: 2048
LLC ways: 16
Off-chip DRAM Channels: 1 Width: 64-bit Data Rate: 1600 MT/s

CPU 0 runs /datasets/cs240c-wi22-a00-public/data/Assignment2-gz/cactusADM_1039B.trace.gz
CPU 0 L1D next line prefetcher
CPU 0 L2C IP-based stride prefetcher
Initialize SRRIP state
Heartbeat CPU 0 instructions: 1000000 cycles: 595518 heartbeat IPC: 1.67921 cumulative IPC: 1.67921 (Simulation time: 0 hr 0 min 44 sec) 
Heartbeat CPU 0 instructions: 2000002 cycles: 1190937 heartbeat IPC: 1.67949 cumulative IPC: 1.67935 (Simulation time: 0 hr 1 min 29 sec) 
Heartbeat CPU 0 instructions: 3000003 cycles: 1786622 heartbeat IPC: 1.67874 cumulative IPC: 1.67915 (Simulation time: 0 hr 2 min 16 sec) 
Heartbeat CPU 0 instructions: 4000000 cycles: 2382046 heartbeat IPC: 1.67947 cumulative IPC: 1.67923 (Simulation time: 0 hr 3 min 10 sec) 
Heartbeat CPU 0 instructions: 5000001 cycles: 2977457 heartbeat IPC: 1.67951 cumulative IPC: 1.67929 (Simulation time: 0 hr 4 min 1 sec) 
Heartbeat CPU 0 instructions: 6000002 cycles: 3572930 heartbeat IPC: 1.67934 cumulative IPC: 1.67929 (Simulation time: 0 hr 4 min 58 sec) 
Heartbeat CPU 0 instructions: 7000000 cycles: 4168306 heartbeat IPC: 1.67961 cumulative IPC: 1.67934 (Simulation time: 0 hr 5 min 53 sec) 
Heartbeat CPU 0 instructions: 8000000 cycles: 4763681 heartbeat IPC: 1.67961 cumulative IPC: 1.67937 (Simulation time: 0 hr 6 min 46 sec) 
Heartbeat CPU 0 instructions: 9000002 cycles: 5359336 heartbeat IPC: 1.67883 cumulative IPC: 1.67931 (Simulation time: 0 hr 7 min 37 sec) 
Heartbeat CPU 0 instructions: 10000003 cycles: 5974113 heartbeat IPC: 1.62661 cumulative IPC: 1.67389 (Simulation time: 0 hr 8 min 36 sec) 

Warmup complete CPU 0 instructions: 10000003 cycles: 5974113 (Simulation time: 0 hr 8 min 36 sec) 

Heartbeat CPU 0 instructions: 11000003 cycles: 12128139 heartbeat IPC: 0.162495 cumulative IPC: 0.162495 (Simulation time: 0 hr 9 min 53 sec) 
Heartbeat CPU 0 instructions: 12000000 cycles: 13871151 heartbeat IPC: 0.573718 cumulative IPC: 0.253259 (Simulation time: 0 hr 10 min 57 sec) 
Heartbeat CPU 0 instructions: 13000002 cycles: 15538685 heartbeat IPC: 0.599689 cumulative IPC: 0.313657 (Simulation time: 0 hr 12 min 0 sec) 
Heartbeat CPU 0 instructions: 14000001 cycles: 17246509 heartbeat IPC: 0.58554 cumulative IPC: 0.354849 (Simulation time: 0 hr 13 min 1 sec) 
Heartbeat CPU 0 instructions: 15000002 cycles: 18989814 heartbeat IPC: 0.573624 cumulative IPC: 0.384151 (Simulation time: 0 hr 14 min 11 sec) 
Heartbeat CPU 0 instructions: 16000000 cycles: 20736593 heartbeat IPC: 0.572481 cumulative IPC: 0.406436 (Simulation time: 0 hr 15 min 18 sec) 
Heartbeat CPU 0 instructions: 17000003 cycles: 22460437 heartbeat IPC: 0.580101 cumulative IPC: 0.424594 (Simulation time: 0 hr 16 min 23 sec) 
Heartbeat CPU 0 instructions: 18000002 cycles: 24115414 heartbeat IPC: 0.604237 cumulative IPC: 0.440983 (Simulation time: 0 hr 17 min 30 sec) 
Heartbeat CPU 0 instructions: 19000003 cycles: 25852751 heartbeat IPC: 0.575594 cumulative IPC: 0.452747 (Simulation time: 0 hr 18 min 38 sec) 
Heartbeat CPU 0 instructions: 20000000 cycles: 27596483 heartbeat IPC: 0.573481 cumulative IPC: 0.462484 (Simulation time: 0 hr 19 min 44 sec) 
Heartbeat CPU 0 instructions: 21000002 cycles: 29340249 heartbeat IPC: 0.573473 cumulative IPC: 0.470767 (Simulation time: 0 hr 20 min 56 sec) 
Heartbeat CPU 0 instructions: 22000003 cycles: 31030902 heartbeat IPC: 0.591488 cumulative IPC: 0.478912 (Simulation time: 0 hr 22 min 4 sec) 
Heartbeat CPU 0 instructions: 23000001 cycles: 32715911 heartbeat IPC: 0.593467 cumulative IPC: 0.48613 (Simulation time: 0 hr 23 min 9 sec) 
Heartbeat CPU 0 instructions: 24000000 cycles: 39377009 heartbeat IPC: 0.150125 cumulative IPC: 0.419125 (Simulation time: 0 hr 24 min 26 sec) 
Heartbeat CPU 0 instructions: 25000002 cycles: 41114347 heartbeat IPC: 0.575594 cumulative IPC: 0.426861 (Simulation time: 0 hr 25 min 38 sec) 
Heartbeat CPU 0 instructions: 26000002 cycles: 42839291 heartbeat IPC: 0.579729 cumulative IPC: 0.434014 (Simulation time: 0 hr 26 min 43 sec) 
Heartbeat CPU 0 instructions: 27000002 cycles: 44504249 heartbeat IPC: 0.600616 cumulative IPC: 0.441213 (Simulation time: 0 hr 27 min 43 sec) 
Heartbeat CPU 0 instructions: 28000000 cycles: 46234580 heartbeat IPC: 0.577923 cumulative IPC: 0.447089 (Simulation time: 0 hr 28 min 39 sec) 
Heartbeat CPU 0 instructions: 29000000 cycles: 47975566 heartbeat IPC: 0.574387 cumulative IPC: 0.452365 (Simulation time: 0 hr 29 min 29 sec) 
Heartbeat CPU 0 instructions: 30000003 cycles: 49714141 heartbeat IPC: 0.575185 cumulative IPC: 0.457247 (Simulation time: 0 hr 30 min 20 sec) 
Heartbeat CPU 0 instructions: 31000001 cycles: 51409836 heartbeat IPC: 0.589728 cumulative IPC: 0.462191 (Simulation time: 0 hr 31 min 17 sec) 
Heartbeat CPU 0 instructions: 32000000 cycles: 53084797 heartbeat IPC: 0.597028 cumulative IPC: 0.466985 (Simulation time: 0 hr 32 min 10 sec) 
Heartbeat CPU 0 instructions: 33000001 cycles: 54822374 heartbeat IPC: 0.575515 cumulative IPC: 0.470846 (Simulation time: 0 hr 33 min 8 sec) 
Heartbeat CPU 0 instructions: 34000000 cycles: 56561786 heartbeat IPC: 0.574906 cumulative IPC: 0.474424 (Simulation time: 0 hr 34 min 12 sec) 
Heartbeat CPU 0 instructions: 35000001 cycles: 58296942 heartbeat IPC: 0.576318 cumulative IPC: 0.477803 (Simulation time: 0 hr 35 min 19 sec) 
Heartbeat CPU 0 instructions: 36000000 cycles: 59960090 heartbeat IPC: 0.601269 cumulative IPC: 0.481606 (Simulation time: 0 hr 36 min 33 sec) 
Heartbeat CPU 0 instructions: 37000002 cycles: 66552576 heartbeat IPC: 0.151688 cumulative IPC: 0.445703 (Simulation time: 0 hr 37 min 52 sec) 
Heartbeat CPU 0 instructions: 38000001 cycles: 68290803 heartbeat IPC: 0.575298 cumulative IPC: 0.449318 (Simulation time: 0 hr 39 min 2 sec) 
Heartbeat CPU 0 instructions: 39000002 cycles: 70031102 heartbeat IPC: 0.574614 cumulative IPC: 0.452722 (Simulation time: 0 hr 40 min 5 sec) 
Heartbeat CPU 0 instructions: 40000000 cycles: 71727995 heartbeat IPC: 0.589311 cumulative IPC: 0.456247 (Simulation time: 0 hr 41 min 10 sec) 
Heartbeat CPU 0 instructions: 41000003 cycles: 73397624 heartbeat IPC: 0.598937 cumulative IPC: 0.45978 (Simulation time: 0 hr 42 min 8 sec) 
Heartbeat CPU 0 instructions: 42000000 cycles: 75133990 heartbeat IPC: 0.575914 cumulative IPC: 0.462696 (Simulation time: 0 hr 43 min 11 sec) 
Heartbeat CPU 0 instructions: 43000000 cycles: 76874222 heartbeat IPC: 0.574636 cumulative IPC: 0.465444 (Simulation time: 0 hr 44 min 19 sec) 
Heartbeat CPU 0 instructions: 44000000 cycles: 78612301 heartbeat IPC: 0.575348 cumulative IPC: 0.468073 (Simulation time: 0 hr 45 min 20 sec) 
Heartbeat CPU 0 instructions: 45000000 cycles: 80280206 heartbeat IPC: 0.599555 cumulative IPC: 0.471025 (Simulation time: 0 hr 46 min 27 sec) 
Heartbeat CPU 0 instructions: 46000003 cycles: 81983811 heartbeat IPC: 0.586992 cumulative IPC: 0.473624 (Simulation time: 0 hr 47 min 31 sec) 
Heartbeat CPU 0 instructions: 47000001 cycles: 83723725 heartbeat IPC: 0.57474 cumulative IPC: 0.475887 (Simulation time: 0 hr 48 min 40 sec) 
Heartbeat CPU 0 instructions: 48000000 cycles: 85463548 heartbeat IPC: 0.574771 cumulative IPC: 0.478051 (Simulation time: 0 hr 49 min 50 sec) 
Heartbeat CPU 0 instructions: 49000001 cycles: 87186850 heartbeat IPC: 0.580282 cumulative IPC: 0.48022 (Simulation time: 0 hr 50 min 59 sec) 
Heartbeat CPU 0 instructions: 50000000 cycles: 93830218 heartbeat IPC: 0.150526 cumulative IPC: 0.45529 (Simulation time: 0 hr 52 min 20 sec) 
Heartbeat CPU 0 instructions: 51000003 cycles: 95593476 heartbeat IPC: 0.567134 cumulative IPC: 0.45749 (Simulation time: 0 hr 53 min 33 sec) 
Heartbeat CPU 0 instructions: 52000000 cycles: 97364058 heartbeat IPC: 0.564784 cumulative IPC: 0.459569 (Simulation time: 0 hr 54 min 44 sec) 
Heartbeat CPU 0 instructions: 53000003 cycles: 99134545 heartbeat IPC: 0.564818 cumulative IPC: 0.461569 (Simulation time: 0 hr 55 min 51 sec) 
Heartbeat CPU 0 instructions: 54000002 cycles: 100849643 heartbeat IPC: 0.583056 cumulative IPC: 0.463766 (Simulation time: 0 hr 56 min 56 sec) 
Heartbeat CPU 0 instructions: 55000001 cycles: 102574838 heartbeat IPC: 0.579644 cumulative IPC: 0.465835 (Simulation time: 0 hr 58 min 2 sec) 
Heartbeat CPU 0 instructions: 56000000 cycles: 104343837 heartbeat IPC: 0.565291 cumulative IPC: 0.467624 (Simulation time: 0 hr 59 min 11 sec) 
Heartbeat CPU 0 instructions: 57000000 cycles: 106117919 heartbeat IPC: 0.563672 cumulative IPC: 0.469325 (Simulation time: 1 hr 0 min 15 sec) 
Heartbeat CPU 0 instructions: 58000000 cycles: 107883667 heartbeat IPC: 0.566332 cumulative IPC: 0.471006 (Simulation time: 1 hr 1 min 16 sec) 
Heartbeat CPU 0 instructions: 59000002 cycles: 109569415 heartbeat IPC: 0.59321 cumulative IPC: 0.472994 (Simulation time: 1 hr 2 min 16 sec) 
Heartbeat CPU 0 instructions: 60000000 cycles: 111328701 heartbeat IPC: 0.568411 cumulative IPC: 0.474588 (Simulation time: 1 hr 3 min 17 sec) 
Heartbeat CPU 0 instructions: 61000001 cycles: 113103575 heartbeat IPC: 0.563421 cumulative IPC: 0.476059 (Simulation time: 1 hr 4 min 18 sec) 
Heartbeat CPU 0 instructions: 62000000 cycles: 114874972 heartbeat IPC: 0.564526 cumulative IPC: 0.477499 (Simulation time: 1 hr 5 min 20 sec) 
Heartbeat CPU 0 instructions: 63000001 cycles: 121090811 heartbeat IPC: 0.160879 cumulative IPC: 0.460402 (Simulation time: 1 hr 6 min 27 sec) 
Heartbeat CPU 0 instructions: 64000000 cycles: 123357226 heartbeat IPC: 0.441225 cumulative IPC: 0.460032 (Simulation time: 1 hr 7 min 18 sec) 
Heartbeat CPU 0 instructions: 65000002 cycles: 125127247 heartbeat IPC: 0.564966 cumulative IPC: 0.461591 (Simulation time: 1 hr 8 min 0 sec) 
Heartbeat CPU 0 instructions: 66000001 cycles: 126898261 heartbeat IPC: 0.564648 cumulative IPC: 0.4631 (Simulation time: 1 hr 8 min 45 sec) 
Heartbeat CPU 0 instructions: 67000003 cycles: 128663109 heartbeat IPC: 0.566622 cumulative IPC: 0.464589 (Simulation time: 1 hr 9 min 23 sec) 
Heartbeat CPU 0 instructions: 68000000 cycles: 130389143 heartbeat IPC: 0.579361 cumulative IPC: 0.466182 (Simulation time: 1 hr 9 min 56 sec) 
Heartbeat CPU 0 instructions: 69000003 cycles: 132165681 heartbeat IPC: 0.562894 cumulative IPC: 0.467543 (Simulation time: 1 hr 10 min 29 sec) 
Heartbeat CPU 0 instructions: 70000002 cycles: 133936874 heartbeat IPC: 0.564591 cumulative IPC: 0.468886 (Simulation time: 1 hr 11 min 8 sec) 
Heartbeat CPU 0 instructions: 71000000 cycles: 135707719 heartbeat IPC: 0.564701 cumulative IPC: 0.470194 (Simulation time: 1 hr 11 min 42 sec) 
Heartbeat CPU 0 instructions: 72000000 cycles: 137453653 heartbeat IPC: 0.572759 cumulative IPC: 0.471556 (Simulation time: 1 hr 12 min 18 sec) 
Heartbeat CPU 0 instructions: 73000001 cycles: 139153464 heartbeat IPC: 0.588301 cumulative IPC: 0.473046 (Simulation time: 1 hr 12 min 51 sec) 
Heartbeat CPU 0 instructions: 74000003 cycles: 140920271 heartbeat IPC: 0.565994 cumulative IPC: 0.474263 (Simulation time: 1 hr 13 min 26 sec) 
Heartbeat CPU 0 instructions: 75000002 cycles: 142692855 heartbeat IPC: 0.564148 cumulative IPC: 0.475429 (Simulation time: 1 hr 13 min 59 sec) 
Heartbeat CPU 0 instructions: 76000000 cycles: 147965751 heartbeat IPC: 0.189649 cumulative IPC: 0.464816 (Simulation time: 1 hr 14 min 35 sec) 
Heartbeat CPU 0 instructions: 77000001 cycles: 151132472 heartbeat IPC: 0.315784 cumulative IPC: 0.461565 (Simulation time: 1 hr 15 min 4 sec) 
Heartbeat CPU 0 instructions: 78000000 cycles: 152880565 heartbeat IPC: 0.572051 cumulative IPC: 0.46288 (Simulation time: 1 hr 15 min 29 sec) 
Heartbeat CPU 0 instructions: 79000002 cycles: 154648710 heartbeat IPC: 0.565566 cumulative IPC: 0.464101 (Simulation time: 1 hr 15 min 55 sec) 
Heartbeat CPU 0 instructions: 80000000 cycles: 156418388 heartbeat IPC: 0.565073 cumulative IPC: 0.465289 (Simulation time: 1 hr 16 min 16 sec) 
Heartbeat CPU 0 instructions: 81000002 cycles: 158165705 heartbeat IPC: 0.572307 cumulative IPC: 0.466517 (Simulation time: 1 hr 16 min 37 sec) 
Heartbeat CPU 0 instructions: 82000002 cycles: 159859275 heartbeat IPC: 0.590469 cumulative IPC: 0.467881 (Simulation time: 1 hr 16 min 56 sec) 
Heartbeat CPU 0 instructions: 83000003 cycles: 161625328 heartbeat IPC: 0.566235 cumulative IPC: 0.468997 (Simulation time: 1 hr 17 min 16 sec) 
Heartbeat CPU 0 instructions: 84000000 cycles: 163395617 heartbeat IPC: 0.564878 cumulative IPC: 0.470076 (Simulation time: 1 hr 17 min 34 sec) 
Heartbeat CPU 0 instructions: 85000002 cycles: 165165810 heartbeat IPC: 0.564911 cumulative IPC: 0.47113 (Simulation time: 1 hr 17 min 49 sec) 
Heartbeat CPU 0 instructions: 86000003 cycles: 166879998 heartbeat IPC: 0.583367 cumulative IPC: 0.472326 (Simulation time: 1 hr 18 min 1 sec) 
Heartbeat CPU 0 instructions: 87000000 cycles: 168622267 heartbeat IPC: 0.573962 cumulative IPC: 0.473415 (Simulation time: 1 hr 18 min 13 sec) 
Heartbeat CPU 0 instructions: 88000000 cycles: 170390655 heartbeat IPC: 0.565487 cumulative IPC: 0.474405 (Simulation time: 1 hr 18 min 24 sec) 
Heartbeat CPU 0 instructions: 89000001 cycles: 174723669 heartbeat IPC: 0.230786 cumulative IPC: 0.468149 (Simulation time: 1 hr 18 min 36 sec) 
Heartbeat CPU 0 instructions: 90000002 cycles: 178852076 heartbeat IPC: 0.242224 cumulative IPC: 0.462754 (Simulation time: 1 hr 18 min 45 sec) 
Heartbeat CPU 0 instructions: 91000000 cycles: 180544258 heartbeat IPC: 0.590952 cumulative IPC: 0.463997 (Simulation time: 1 hr 18 min 53 sec) 
Heartbeat CPU 0 instructions: 92000000 cycles: 182306514 heartbeat IPC: 0.567454 cumulative IPC: 0.465031 (Simulation time: 1 hr 19 min 0 sec) 
Heartbeat CPU 0 instructions: 93000001 cycles: 184075011 heartbeat IPC: 0.565452 cumulative IPC: 0.466028 (Simulation time: 1 hr 19 min 8 sec) 
Heartbeat CPU 0 instructions: 94000003 cycles: 185847313 heartbeat IPC: 0.564239 cumulative IPC: 0.466996 (Simulation time: 1 hr 19 min 15 sec) 
Heartbeat CPU 0 instructions: 95000001 cycles: 187566821 heartbeat IPC: 0.581561 cumulative IPC: 0.46808 (Simulation time: 1 hr 19 min 21 sec) 
Heartbeat CPU 0 instructions: 96000000 cycles: 189286429 heartbeat IPC: 0.581527 cumulative IPC: 0.469145 (Simulation time: 1 hr 19 min 28 sec) 
Heartbeat CPU 0 instructions: 97000002 cycles: 191054301 heartbeat IPC: 0.565653 cumulative IPC: 0.470067 (Simulation time: 1 hr 19 min 34 sec) 
Heartbeat CPU 0 instructions: 98000000 cycles: 192827343 heartbeat IPC: 0.564001 cumulative IPC: 0.470958 (Simulation time: 1 hr 19 min 40 sec) 
Heartbeat CPU 0 instructions: 99000002 cycles: 194593421 heartbeat IPC: 0.566228 cumulative IPC: 0.47185 (Simulation time: 1 hr 19 min 46 sec) 
Heartbeat CPU 0 instructions: 100000000 cycles: 196283297 heartbeat IPC: 0.591758 cumulative IPC: 0.472915 (Simulation time: 1 hr 19 min 52 sec) 
Heartbeat CPU 0 instructions: 101000002 cycles: 198037046 heartbeat IPC: 0.570208 cumulative IPC: 0.473803 (Simulation time: 1 hr 19 min 59 sec) 
Heartbeat CPU 0 instructions: 102000000 cycles: 201385471 heartbeat IPC: 0.298647 cumulative IPC: 0.470802 (Simulation time: 1 hr 20 min 5 sec) 
Heartbeat CPU 0 instructions: 103000002 cycles: 206512469 heartbeat IPC: 0.195046 cumulative IPC: 0.463752 (Simulation time: 1 hr 20 min 12 sec) 
Heartbeat CPU 0 instructions: 104000000 cycles: 208238057 heartbeat IPC: 0.579511 cumulative IPC: 0.464739 (Simulation time: 1 hr 20 min 18 sec) 
Heartbeat CPU 0 instructions: 105000002 cycles: 209952991 heartbeat IPC: 0.583114 cumulative IPC: 0.465734 (Simulation time: 1 hr 20 min 24 sec) 
Heartbeat CPU 0 instructions: 106000001 cycles: 211725072 heartbeat IPC: 0.564308 cumulative IPC: 0.466583 (Simulation time: 1 hr 20 min 30 sec) 
Heartbeat CPU 0 instructions: 107000003 cycles: 213495089 heartbeat IPC: 0.564967 cumulative IPC: 0.467423 (Simulation time: 1 hr 20 min 36 sec) 
Heartbeat CPU 0 instructions: 108000000 cycles: 215262561 heartbeat IPC: 0.565778 cumulative IPC: 0.468253 (Simulation time: 1 hr 20 min 42 sec) 
Heartbeat CPU 0 instructions: 109000003 cycles: 216959306 heartbeat IPC: 0.589366 cumulative IPC: 0.469227 (Simulation time: 1 hr 20 min 48 sec) 
Heartbeat CPU 0 instructions: 110000002 cycles: 218708025 heartbeat IPC: 0.571847 cumulative IPC: 0.470071 (Simulation time: 1 hr 20 min 53 sec) 
Finished CPU 0 instructions: 100000003 cycles: 212733913 cummulative IPC: 0.470071 (Simulation time: 1 hr 20 min 53 sec) 

ChampSim completed all CPUs

Region of Interest Statistics

CPU 0 cummulative IPC: 0.470071 instructions: 100000003 cycles: 212733913
LLC TOTAL     ACCESS:    1168848  HIT:     340361  MISS:     828487
LLC LOAD      ACCESS:      25204  HIT:       3126  MISS:      22078
LLC RFO       ACCESS:     265309  HIT:      76970  MISS:     188339
LLC PREFETCH  ACCESS:     610990  HIT:     143340  MISS:     467650
LLC WRITEBACK ACCESS:     267345  HIT:     116925  MISS:     150420
Insertion Distribution: 
	LOAD 0 0 0 0 0 12310 10929 
	RFO 12205 0 0 0 0 21173 166233 
	PREF 0 48344 0 0 0 72771 395501 
	WRITEBACK 0 0 0 0 0 0 152433 
Total Prefetch Downgrades: 51157
