Initialize SIGNATURE TABLE
ST_SET: 1
ST_WAY: 256
ST_TAG_BIT: 16
ST_TAG_MASK: ffff

Initialize PATTERN TABLE
PT_SET: 512
PT_WAY: 4
SIG_DELTA_BIT: 7
C_SIG_BIT: 4
C_DELTA_BIT: 4

Initialize PREFETCH FILTER
FILTER_SET: 1024

*** ChampSim Multicore Out-of-Order Simulator ***

Warmup Instructions: 50000000
Simulation Instructions: 50000000
Number of CPUs: 1
LLC sets: 2048
LLC ways: 16
Off-chip DRAM Size: 4096 MB Channels: 1 Width: 64-bit Data Rate: 3200 MT/s

CPU 0 runs /Users/gandhardeshpande/Desktop/CSE240C/HW1/ChampSim/ipc1_public/server_022.champsimtrace.xz
L1I Barca has been initializedCPU 0 L1D next line prefetcher
Heartbeat CPU 0 instructions: 10000002 cycles: 3626160 heartbeat IPC: 2.75774 cumulative IPC: 2.75774 (Simulation time: 0 hr 0 min 21 sec) 
Heartbeat CPU 0 instructions: 20000001 cycles: 7258699 heartbeat IPC: 2.7529 cumulative IPC: 2.75531 (Simulation time: 0 hr 0 min 42 sec) 
Heartbeat CPU 0 instructions: 30000003 cycles: 10884864 heartbeat IPC: 2.75774 cumulative IPC: 2.75612 (Simulation time: 0 hr 1 min 3 sec) 
Heartbeat CPU 0 instructions: 40000003 cycles: 14518718 heartbeat IPC: 2.7519 cumulative IPC: 2.75506 (Simulation time: 0 hr 1 min 23 sec) 
Heartbeat CPU 0 instructions: 50000002 cycles: 18142901 heartbeat IPC: 2.75924 cumulative IPC: 2.7559 (Simulation time: 0 hr 1 min 44 sec) 

Warmup complete CPU 0 instructions: 50000002 cycles: 18142901 (Simulation time: 0 hr 1 min 44 sec) 

Heartbeat CPU 0 instructions: 60000000 cycles: 35537865 heartbeat IPC: 0.574879 cumulative IPC: 0.574879 (Simulation time: 0 hr 2 min 11 sec) 
Heartbeat CPU 0 instructions: 70000001 cycles: 53105350 heartbeat IPC: 0.569233 cumulative IPC: 0.572042 (Simulation time: 0 hr 2 min 37 sec) 
Heartbeat CPU 0 instructions: 80000001 cycles: 70486876 heartbeat IPC: 0.575323 cumulative IPC: 0.573132 (Simulation time: 0 hr 3 min 4 sec) 
Heartbeat CPU 0 instructions: 90000003 cycles: 88117714 heartbeat IPC: 0.567188 cumulative IPC: 0.571634 (Simulation time: 0 hr 3 min 30 sec) 
Heartbeat CPU 0 instructions: 100000003 cycles: 105483903 heartbeat IPC: 0.575832 cumulative IPC: 0.572469 (Simulation time: 0 hr 3 min 57 sec) 
Finished CPU 0 instructions: 50000001 cycles: 87341002 cumulative IPC: 0.572469 (Simulation time: 0 hr 3 min 57 sec) 

ChampSim completed all CPUs

Region of Interest Statistics

CPU 0 cumulative IPC: 0.572469 instructions: 50000001 cycles: 87341002
L1D TOTAL     ACCESS:   18724360  HIT:   16513685  MISS:    2210675
L1D LOAD      ACCESS:    7054151  HIT:    6334829  MISS:     719322
L1D RFO       ACCESS:    5927878  HIT:    4947970  MISS:     979908
L1D PREFETCH  ACCESS:    5742331  HIT:    5230886  MISS:     511445
L1D WRITEBACK ACCESS:          0  HIT:          0  MISS:          0
L1D PREFETCH  REQUESTED:    7097113  ISSUED:    6889039  USEFUL:     190312  USELESS:     321138
L1D AVERAGE MISS LATENCY: 179.234 cycles
L1I TOTAL     ACCESS:   13504688  HIT:   10722950  MISS:    2781738
L1I LOAD      ACCESS:   10112495  HIT:    9930431  MISS:     182064
L1I RFO       ACCESS:          0  HIT:          0  MISS:          0
L1I PREFETCH  ACCESS:    3392193  HIT:     792519  MISS:    2599674
L1I WRITEBACK ACCESS:          0  HIT:          0  MISS:          0
L1I PREFETCH  REQUESTED:    3851549  ISSUED:    3851549  USEFUL:    2354013  USELESS:     245653
L1I AVERAGE MISS LATENCY: 16.498 cycles
L2C TOTAL     ACCESS:    7405250  HIT:    5550833  MISS:    1854417
L2C LOAD      ACCESS:     514241  HIT:     265719  MISS:     248522
L2C RFO       ACCESS:     979023  HIT:      21299  MISS:     957724
L2C PREFETCH  ACCESS:    4726833  HIT:    4080263  MISS:     646570
L2C WRITEBACK ACCESS:    1185153  HIT:    1183552  MISS:       1601
L2C PREFETCH  REQUESTED:    3609694  ISSUED:    3606359  USEFUL:      20278  USELESS:     626358
L2C AVERAGE MISS LATENCY: 221.234 cycles
LLC TOTAL     ACCESS:    3932437  HIT:    2540281  MISS:    1392156
LLC LOAD      ACCESS:     248503  HIT:     171779  MISS:      76724
LLC RFO       ACCESS:     957693  HIT:     139786  MISS:     817907
LLC PREFETCH  ACCESS:    1610268  HIT:    1114534  MISS:     495734
LLC WRITEBACK ACCESS:    1115973  HIT:    1114182  MISS:       1791
LLC PREFETCH  REQUESTED:          0  ISSUED:          0  USEFUL:      25358  USELESS:     471079
LLC AVERAGE MISS LATENCY: 287.854 cycles
Major fault: 0 Minor fault: 23505
CPU 0 L1D next line prefetcher final stats

DRAM Statistics
 CHANNEL 0
 RQ ROW_BUFFER_HIT:     394493  ROW_BUFFER_MISS:     995663
 DBUS_CONGESTED:    1407247
 WQ ROW_BUFFER_HIT:     287430  ROW_BUFFER_MISS:     614403  FULL:          0

 AVG_CONGESTED_CYCLE: 6

CPU 0 Branch Prediction Accuracy: 99.8317% MPKI: 0.27564 Average ROB Occupancy at Mispredict: 220.184

Branch types
NOT_BRANCH: 41811158 83.6223%
BRANCH_DIRECT_JUMP: 445742 0.891484%
BRANCH_INDIRECT: 48876 0.097752%
BRANCH_CONDITIONAL: 5859409 11.7188%
BRANCH_DIRECT_CALL: 758268 1.51654%
BRANCH_INDIRECT_CALL: 159103 0.318206%
BRANCH_RETURN: 917372 1.83474%
BRANCH_OTHER: 0 0%

