Initialize SIGNATURE TABLE
ST_SET: 1
ST_WAY: 256
ST_TAG_BIT: 16
ST_TAG_MASK: ffff

Initialize PATTERN TABLE
PT_SET: 512
PT_WAY: 4
SIG_DELTA_BIT: 7
C_SIG_BIT: 4
C_DELTA_BIT: 4

Initialize PREFETCH FILTER
FILTER_SET: 1024

*** ChampSim Multicore Out-of-Order Simulator ***

Warmup Instructions: 50000000
Simulation Instructions: 50000000
Number of CPUs: 1
LLC sets: 2048
LLC ways: 16
Off-chip DRAM Size: 4096 MB Channels: 1 Width: 64-bit Data Rate: 3200 MT/s

CPU 0 runs /Users/gandhardeshpande/Desktop/CSE240C/HW1/ChampSim/ipc1_public/server_026.champsimtrace.xz
L1I Barca has been initializedCPU 0 L1D next line prefetcher
Heartbeat CPU 0 instructions: 10000000 cycles: 3525401 heartbeat IPC: 2.83656 cumulative IPC: 2.83656 (Simulation time: 0 hr 0 min 21 sec) 
Heartbeat CPU 0 instructions: 20000002 cycles: 7055671 heartbeat IPC: 2.83265 cumulative IPC: 2.8346 (Simulation time: 0 hr 0 min 42 sec) 
Heartbeat CPU 0 instructions: 30000000 cycles: 10576451 heartbeat IPC: 2.84028 cumulative IPC: 2.83649 (Simulation time: 0 hr 1 min 4 sec) 
Heartbeat CPU 0 instructions: 40000003 cycles: 14105946 heartbeat IPC: 2.83327 cumulative IPC: 2.83568 (Simulation time: 0 hr 1 min 26 sec) 
Heartbeat CPU 0 instructions: 50000000 cycles: 17627768 heartbeat IPC: 2.83944 cumulative IPC: 2.83643 (Simulation time: 0 hr 1 min 47 sec) 

Warmup complete CPU 0 instructions: 50000004 cycles: 17627769 (Simulation time: 0 hr 1 min 47 sec) 

*** Reached end of trace for Core: 0 Repeating trace: /Users/gandhardeshpande/Desktop/CSE240C/HW1/ChampSim/ipc1_public/server_026.champsimtrace.xz
Heartbeat CPU 0 instructions: 60000000 cycles: 24544288 heartbeat IPC: 1.44581 cumulative IPC: 1.44581 (Simulation time: 0 hr 2 min 9 sec) 
Heartbeat CPU 0 instructions: 70000003 cycles: 31346037 heartbeat IPC: 1.47021 cumulative IPC: 1.45791 (Simulation time: 0 hr 2 min 32 sec) 
Heartbeat CPU 0 instructions: 80000002 cycles: 38247800 heartbeat IPC: 1.4489 cumulative IPC: 1.4549 (Simulation time: 0 hr 2 min 55 sec) 
Heartbeat CPU 0 instructions: 90000002 cycles: 45048821 heartbeat IPC: 1.47037 cumulative IPC: 1.45873 (Simulation time: 0 hr 3 min 17 sec) 
Heartbeat CPU 0 instructions: 100000000 cycles: 51927114 heartbeat IPC: 1.45385 cumulative IPC: 1.45775 (Simulation time: 0 hr 3 min 40 sec) 
Finished CPU 0 instructions: 50000000 cycles: 34299346 cumulative IPC: 1.45775 (Simulation time: 0 hr 3 min 40 sec) 

ChampSim completed all CPUs

Region of Interest Statistics

CPU 0 cumulative IPC: 1.45775 instructions: 50000000 cycles: 34299346
L1D TOTAL     ACCESS:   19861909  HIT:   18216939  MISS:    1644970
L1D LOAD      ACCESS:    6972372  HIT:    6243789  MISS:     728583
L1D RFO       ACCESS:    6249232  HIT:    5962773  MISS:     286459
L1D PREFETCH  ACCESS:    6640305  HIT:    6010377  MISS:     629928
L1D WRITEBACK ACCESS:          0  HIT:          0  MISS:          0
L1D PREFETCH  REQUESTED:    7018893  ISSUED:    6878096  USEFUL:     152253  USELESS:     477686
L1D AVERAGE MISS LATENCY: 23.2799 cycles
L1I TOTAL     ACCESS:   13613671  HIT:    9887125  MISS:    3726546
L1I LOAD      ACCESS:    9399407  HIT:    9093148  MISS:     306259
L1I RFO       ACCESS:          0  HIT:          0  MISS:          0
L1I PREFETCH  ACCESS:    4214264  HIT:     793977  MISS:    3420287
L1I WRITEBACK ACCESS:          0  HIT:          0  MISS:          0
L1I PREFETCH  REQUESTED:    4827300  ISSUED:    4827300  USEFUL:    2538237  USELESS:     882104
L1I AVERAGE MISS LATENCY: 16.6049 cycles
L2C TOTAL     ACCESS:    7262104  HIT:    6535966  MISS:     726138
L2C LOAD      ACCESS:     786718  HIT:     649985  MISS:     136733
L2C RFO       ACCESS:     284791  HIT:     199656  MISS:      85135
L2C PREFETCH  ACCESS:    5629431  HIT:    5128223  MISS:     501208
L2C WRITEBACK ACCESS:     561164  HIT:     558102  MISS:       3062
L2C PREFETCH  REQUESTED:    3918011  ISSUED:    3914254  USEFUL:      15717  USELESS:     485075
L2C AVERAGE MISS LATENCY: 38.223 cycles
LLC TOTAL     ACCESS:    1991565  HIT:    1956210  MISS:      35355
LLC LOAD      ACCESS:     136566  HIT:     133077  MISS:       3489
LLC RFO       ACCESS:      85028  HIT:      70367  MISS:      14661
LLC PREFETCH  ACCESS:    1624522  HIT:    1607574  MISS:      16948
LLC WRITEBACK ACCESS:     145449  HIT:     145192  MISS:        257
LLC PREFETCH  REQUESTED:          0  ISSUED:          0  USEFUL:        927  USELESS:      15832
LLC AVERAGE MISS LATENCY: 188.793 cycles
Major fault: 0 Minor fault: 2165
CPU 0 L1D next line prefetcher final stats

DRAM Statistics
 CHANNEL 0
 RQ ROW_BUFFER_HIT:      12282  ROW_BUFFER_MISS:      22804
 DBUS_CONGESTED:      23207
 WQ ROW_BUFFER_HIT:       1572  ROW_BUFFER_MISS:      14431  FULL:          0

 AVG_CONGESTED_CYCLE: 6

CPU 0 Branch Prediction Accuracy: 99.822% MPKI: 0.32584 Average ROB Occupancy at Mispredict: 190.396

Branch types
NOT_BRANCH: 40848558 81.6971%
BRANCH_DIRECT_JUMP: 522045 1.04409%
BRANCH_INDIRECT: 204034 0.408068%
BRANCH_CONDITIONAL: 6212961 12.4259%
BRANCH_DIRECT_CALL: 932391 1.86478%
BRANCH_INDIRECT_CALL: 173764 0.347528%
BRANCH_RETURN: 1106152 2.2123%
BRANCH_OTHER: 0 0%

