Initialize SIGNATURE TABLE
ST_SET: 1
ST_WAY: 256
ST_TAG_BIT: 16
ST_TAG_MASK: ffff

Initialize PATTERN TABLE
PT_SET: 512
PT_WAY: 4
SIG_DELTA_BIT: 7
C_SIG_BIT: 4
C_DELTA_BIT: 4

Initialize PREFETCH FILTER
FILTER_SET: 1024

*** ChampSim Multicore Out-of-Order Simulator ***

Warmup Instructions: 50000000
Simulation Instructions: 50000000
Number of CPUs: 1
LLC sets: 2048
LLC ways: 16
Off-chip DRAM Size: 4096 MB Channels: 1 Width: 64-bit Data Rate: 3200 MT/s

CPU 0 runs /Users/gandhardeshpande/Desktop/CSE240C/HW1/ChampSim/ipc1_public/server_024.champsimtrace.xz
L1I Barca has been initializedCPU 0 L1D next line prefetcher
Heartbeat CPU 0 instructions: 10000000 cycles: 3501081 heartbeat IPC: 2.85626 cumulative IPC: 2.85626 (Simulation time: 0 hr 0 min 21 sec) 
Heartbeat CPU 0 instructions: 20000002 cycles: 6995014 heartbeat IPC: 2.8621 cumulative IPC: 2.85918 (Simulation time: 0 hr 0 min 43 sec) 
Heartbeat CPU 0 instructions: 30000000 cycles: 10499573 heartbeat IPC: 2.85343 cumulative IPC: 2.85726 (Simulation time: 0 hr 1 min 4 sec) 
Heartbeat CPU 0 instructions: 40000000 cycles: 14001324 heartbeat IPC: 2.85571 cumulative IPC: 2.85687 (Simulation time: 0 hr 1 min 26 sec) 
Heartbeat CPU 0 instructions: 50000001 cycles: 17492527 heartbeat IPC: 2.86434 cumulative IPC: 2.85836 (Simulation time: 0 hr 1 min 47 sec) 

Warmup complete CPU 0 instructions: 50000001 cycles: 17492527 (Simulation time: 0 hr 1 min 47 sec) 

Heartbeat CPU 0 instructions: 60000003 cycles: 24330385 heartbeat IPC: 1.46245 cumulative IPC: 1.46245 (Simulation time: 0 hr 2 min 8 sec) 
Heartbeat CPU 0 instructions: 70000000 cycles: 31199580 heartbeat IPC: 1.45577 cumulative IPC: 1.4591 (Simulation time: 0 hr 2 min 30 sec) 
*** Reached end of trace for Core: 0 Repeating trace: /Users/gandhardeshpande/Desktop/CSE240C/HW1/ChampSim/ipc1_public/server_024.champsimtrace.xz
Heartbeat CPU 0 instructions: 80000003 cycles: 38033767 heartbeat IPC: 1.46323 cumulative IPC: 1.46048 (Simulation time: 0 hr 2 min 52 sec) 
Heartbeat CPU 0 instructions: 90000003 cycles: 44921750 heartbeat IPC: 1.4518 cumulative IPC: 1.4583 (Simulation time: 0 hr 3 min 14 sec) 
Heartbeat CPU 0 instructions: 100000002 cycles: 51776222 heartbeat IPC: 1.4589 cumulative IPC: 1.45842 (Simulation time: 0 hr 3 min 36 sec) 
Finished CPU 0 instructions: 50000001 cycles: 34283695 cumulative IPC: 1.45842 (Simulation time: 0 hr 3 min 36 sec) 

ChampSim completed all CPUs

Region of Interest Statistics

CPU 0 cumulative IPC: 1.45842 instructions: 50000001 cycles: 34283695
L1D TOTAL     ACCESS:   19743542  HIT:   18225896  MISS:    1517646
L1D LOAD      ACCESS:    6959942  HIT:    6279100  MISS:     680842
L1D RFO       ACCESS:    6151222  HIT:    5877234  MISS:     273988
L1D PREFETCH  ACCESS:    6632378  HIT:    6069562  MISS:     562816
L1D WRITEBACK ACCESS:          0  HIT:          0  MISS:          0
L1D PREFETCH  REQUESTED:    7014676  ISSUED:    6895531  USEFUL:     135386  USELESS:     427435
L1D AVERAGE MISS LATENCY: 25.43 cycles
L1I TOTAL     ACCESS:   13148563  HIT:    9739901  MISS:    3408662
L1I LOAD      ACCESS:    9257697  HIT:    8983532  MISS:     274165
L1I RFO       ACCESS:          0  HIT:          0  MISS:          0
L1I PREFETCH  ACCESS:    3890866  HIT:     756369  MISS:    3134497
L1I WRITEBACK ACCESS:          0  HIT:          0  MISS:          0
L1I PREFETCH  REQUESTED:    4463689  ISSUED:    4463689  USEFUL:    2319283  USELESS:     815197
L1I AVERAGE MISS LATENCY: 16.8099 cycles
L2C TOTAL     ACCESS:    6632766  HIT:    5922530  MISS:     710236
L2C LOAD      ACCESS:     714919  HIT:     578823  MISS:     136096
L2C RFO       ACCESS:     272209  HIT:     184080  MISS:      88129
L2C PREFETCH  ACCESS:    5125476  HIT:    4645995  MISS:     479481
L2C WRITEBACK ACCESS:     520162  HIT:     513632  MISS:       6530
L2C PREFETCH  REQUESTED:    3554905  ISSUED:    3552718  USEFUL:      14446  USELESS:     464661
L2C AVERAGE MISS LATENCY: 42.4279 cycles
LLC TOTAL     ACCESS:    1862691  HIT:    1811436  MISS:      51255
LLC LOAD      ACCESS:     135922  HIT:     130446  MISS:       5476
LLC RFO       ACCESS:      88122  HIT:      65831  MISS:      22291
LLC PREFETCH  ACCESS:    1491877  HIT:    1468660  MISS:      23217
LLC WRITEBACK ACCESS:     146770  HIT:     146499  MISS:        271
LLC PREFETCH  REQUESTED:          0  ISSUED:          0  USEFUL:       1708  USELESS:      21367
LLC AVERAGE MISS LATENCY: 199.455 cycles
Major fault: 0 Minor fault: 2362
CPU 0 L1D next line prefetcher final stats

DRAM Statistics
 CHANNEL 0
 RQ ROW_BUFFER_HIT:      17365  ROW_BUFFER_MISS:      33603
 DBUS_CONGESTED:      36572
 WQ ROW_BUFFER_HIT:       2597  ROW_BUFFER_MISS:      22787  FULL:          0

 AVG_CONGESTED_CYCLE: 6

CPU 0 Branch Prediction Accuracy: 99.7477% MPKI: 0.46156 Average ROB Occupancy at Mispredict: 166.854

Branch types
NOT_BRANCH: 40853676 81.7074%
BRANCH_DIRECT_JUMP: 566819 1.13364%
BRANCH_INDIRECT: 197171 0.394342%
BRANCH_CONDITIONAL: 6308421 12.6168%
BRANCH_DIRECT_CALL: 876400 1.7528%
BRANCH_INDIRECT_CALL: 160491 0.320982%
BRANCH_RETURN: 1036885 2.07377%
BRANCH_OTHER: 0 0%

