Initialize SIGNATURE TABLE
ST_SET: 1
ST_WAY: 256
ST_TAG_BIT: 16
ST_TAG_MASK: ffff

Initialize PATTERN TABLE
PT_SET: 512
PT_WAY: 4
SIG_DELTA_BIT: 7
C_SIG_BIT: 4
C_DELTA_BIT: 4

Initialize PREFETCH FILTER
FILTER_SET: 1024

*** ChampSim Multicore Out-of-Order Simulator ***

Warmup Instructions: 50000000
Simulation Instructions: 50000000
Number of CPUs: 1
LLC sets: 2048
LLC ways: 16
Off-chip DRAM Size: 4096 MB Channels: 1 Width: 64-bit Data Rate: 3200 MT/s

CPU 0 runs /Users/gandhardeshpande/Desktop/CSE240C/HW1/ChampSim/ipc1_public/server_010.champsimtrace.xz
L1I Barca has been initializedCPU 0 L1D next line prefetcher
Heartbeat CPU 0 instructions: 10000000 cycles: 3197786 heartbeat IPC: 3.12716 cumulative IPC: 3.12716 (Simulation time: 0 hr 0 min 18 sec) 
Heartbeat CPU 0 instructions: 20000002 cycles: 6392246 heartbeat IPC: 3.13042 cumulative IPC: 3.12879 (Simulation time: 0 hr 0 min 37 sec) 
Heartbeat CPU 0 instructions: 30000001 cycles: 9589983 heartbeat IPC: 3.12721 cumulative IPC: 3.12826 (Simulation time: 0 hr 0 min 55 sec) 
Heartbeat CPU 0 instructions: 40000000 cycles: 12783024 heartbeat IPC: 3.13181 cumulative IPC: 3.12915 (Simulation time: 0 hr 1 min 14 sec) 
Heartbeat CPU 0 instructions: 50000003 cycles: 15982108 heartbeat IPC: 3.1259 cumulative IPC: 3.1285 (Simulation time: 0 hr 1 min 33 sec) 

Warmup complete CPU 0 instructions: 50000003 cycles: 15982108 (Simulation time: 0 hr 1 min 33 sec) 

Heartbeat CPU 0 instructions: 60000001 cycles: 23122280 heartbeat IPC: 1.40053 cumulative IPC: 1.40053 (Simulation time: 0 hr 1 min 50 sec) 
Heartbeat CPU 0 instructions: 70000003 cycles: 30293002 heartbeat IPC: 1.39456 cumulative IPC: 1.39754 (Simulation time: 0 hr 2 min 8 sec) 
Heartbeat CPU 0 instructions: 80000003 cycles: 37530480 heartbeat IPC: 1.3817 cumulative IPC: 1.39222 (Simulation time: 0 hr 2 min 25 sec) 
Heartbeat CPU 0 instructions: 90000002 cycles: 44532322 heartbeat IPC: 1.4282 cumulative IPC: 1.40104 (Simulation time: 0 hr 2 min 43 sec) 
Heartbeat CPU 0 instructions: 100000003 cycles: 65138326 heartbeat IPC: 0.485296 cumulative IPC: 1.01717 (Simulation time: 0 hr 3 min 10 sec) 
Finished CPU 0 instructions: 50000000 cycles: 49156218 cumulative IPC: 1.01717 (Simulation time: 0 hr 3 min 10 sec) 

ChampSim completed all CPUs

Region of Interest Statistics

CPU 0 cumulative IPC: 1.01717 instructions: 50000000 cycles: 49156218
L1D TOTAL     ACCESS:   19915779  HIT:   16690535  MISS:    3225244
L1D LOAD      ACCESS:    7712281  HIT:    6119197  MISS:    1593084
L1D RFO       ACCESS:    4713768  HIT:    4619446  MISS:      94322
L1D PREFETCH  ACCESS:    7489730  HIT:    5951892  MISS:    1537838
L1D WRITEBACK ACCESS:          0  HIT:          0  MISS:          0
L1D PREFETCH  REQUESTED:    7745485  ISSUED:    7648385  USEFUL:     117220  USELESS:    1420588
L1D AVERAGE MISS LATENCY: 22.3971 cycles
L1I TOTAL     ACCESS:   11660024  HIT:   10079515  MISS:    1580509
L1I LOAD      ACCESS:    9927620  HIT:    9763529  MISS:     164091
L1I RFO       ACCESS:          0  HIT:          0  MISS:          0
L1I PREFETCH  ACCESS:    1732404  HIT:     315986  MISS:    1416418
L1I WRITEBACK ACCESS:          0  HIT:          0  MISS:          0
L1I PREFETCH  REQUESTED:    2006062  ISSUED:    2006062  USEFUL:    1054393  USELESS:     361932
L1I AVERAGE MISS LATENCY: 28.3554 cycles
L2C TOTAL     ACCESS:    6148129  HIT:    5075592  MISS:    1072537
L2C LOAD      ACCESS:    1633223  HIT:    1396676  MISS:     236547
L2C RFO       ACCESS:      93303  HIT:      48919  MISS:      44384
L2C PREFETCH  ACCESS:    4156231  HIT:    3365923  MISS:     790308
L2C WRITEBACK ACCESS:     265372  HIT:     264074  MISS:       1298
L2C PREFETCH  REQUESTED:    5108871  ISSUED:    5106248  USEFUL:      22887  USELESS:     768408
L2C AVERAGE MISS LATENCY: 44.6575 cycles
LLC TOTAL     ACCESS:    2178407  HIT:    2066114  MISS:     112293
LLC LOAD      ACCESS:     236486  HIT:     221295  MISS:      15191
LLC RFO       ACCESS:      44380  HIT:      35865  MISS:       8515
LLC PREFETCH  ACCESS:    1750575  HIT:    1662161  MISS:      88414
LLC WRITEBACK ACCESS:     146966  HIT:     146793  MISS:        173
LLC PREFETCH  REQUESTED:          0  ISSUED:          0  USEFUL:       8394  USELESS:      80585
LLC AVERAGE MISS LATENCY: 174.714 cycles
Major fault: 0 Minor fault: 5593
CPU 0 L1D next line prefetcher final stats

DRAM Statistics
 CHANNEL 0
 RQ ROW_BUFFER_HIT:      17436  ROW_BUFFER_MISS:      94676
 DBUS_CONGESTED:      51832
 WQ ROW_BUFFER_HIT:       9393  ROW_BUFFER_MISS:      42740  FULL:          0

 AVG_CONGESTED_CYCLE: 5

CPU 0 Branch Prediction Accuracy: 99.5528% MPKI: 0.89798 Average ROB Occupancy at Mispredict: 125.098

Branch types
NOT_BRANCH: 39958791 79.9176%
BRANCH_DIRECT_JUMP: 449946 0.899892%
BRANCH_INDIRECT: 140210 0.28042%
BRANCH_CONDITIONAL: 7679677 15.3594%
BRANCH_DIRECT_CALL: 701578 1.40316%
BRANCH_INDIRECT_CALL: 168971 0.337942%
BRANCH_RETURN: 900560 1.80112%
BRANCH_OTHER: 0 0%

