Initialize SIGNATURE TABLE
ST_SET: 1
ST_WAY: 256
ST_TAG_BIT: 16
ST_TAG_MASK: ffff

Initialize PATTERN TABLE
PT_SET: 512
PT_WAY: 4
SIG_DELTA_BIT: 7
C_SIG_BIT: 4
C_DELTA_BIT: 4

Initialize PREFETCH FILTER
FILTER_SET: 1024

*** ChampSim Multicore Out-of-Order Simulator ***

Warmup Instructions: 50000000
Simulation Instructions: 50000000
Number of CPUs: 1
LLC sets: 2048
LLC ways: 16
Off-chip DRAM Size: 4096 MB Channels: 1 Width: 64-bit Data Rate: 3200 MT/s

CPU 0 runs /Users/gandhardeshpande/Desktop/CSE240C/HW1/ChampSim/ipc1_public/spec_gobmk_001.champsimtrace.xz
L1I Barca has been initializedCPU 0 L1D next line prefetcher
Heartbeat CPU 0 instructions: 10000003 cycles: 3510438 heartbeat IPC: 2.84865 cumulative IPC: 2.84865 (Simulation time: 0 hr 0 min 17 sec) 
Heartbeat CPU 0 instructions: 20000002 cycles: 6991985 heartbeat IPC: 2.87229 cumulative IPC: 2.86042 (Simulation time: 0 hr 0 min 35 sec) 
Heartbeat CPU 0 instructions: 30000002 cycles: 10511078 heartbeat IPC: 2.84164 cumulative IPC: 2.85413 (Simulation time: 0 hr 0 min 52 sec) 
Heartbeat CPU 0 instructions: 40000001 cycles: 14030231 heartbeat IPC: 2.84159 cumulative IPC: 2.85099 (Simulation time: 0 hr 1 min 9 sec) 
Heartbeat CPU 0 instructions: 50000001 cycles: 17570458 heartbeat IPC: 2.82468 cumulative IPC: 2.84569 (Simulation time: 0 hr 1 min 27 sec) 

Warmup complete CPU 0 instructions: 50000001 cycles: 17570458 (Simulation time: 0 hr 1 min 27 sec) 

Heartbeat CPU 0 instructions: 60000000 cycles: 26283041 heartbeat IPC: 1.14777 cumulative IPC: 1.14777 (Simulation time: 0 hr 1 min 43 sec) 
Heartbeat CPU 0 instructions: 70000002 cycles: 34631689 heartbeat IPC: 1.1978 cumulative IPC: 1.17225 (Simulation time: 0 hr 1 min 59 sec) 
Heartbeat CPU 0 instructions: 80000003 cycles: 43414019 heartbeat IPC: 1.13865 cumulative IPC: 1.16083 (Simulation time: 0 hr 2 min 14 sec) 
Heartbeat CPU 0 instructions: 90000001 cycles: 51873912 heartbeat IPC: 1.18205 cumulative IPC: 1.16606 (Simulation time: 0 hr 2 min 28 sec) 
Heartbeat CPU 0 instructions: 100000003 cycles: 60648415 heartbeat IPC: 1.13967 cumulative IPC: 1.16069 (Simulation time: 0 hr 2 min 43 sec) 
Finished CPU 0 instructions: 50000002 cycles: 43077957 cumulative IPC: 1.16069 (Simulation time: 0 hr 2 min 43 sec) 

ChampSim completed all CPUs

Region of Interest Statistics

CPU 0 cumulative IPC: 1.16069 instructions: 50000002 cycles: 43077957
L1D TOTAL     ACCESS:   17962686  HIT:   17583151  MISS:     379535
L1D LOAD      ACCESS:    7200594  HIT:    7064922  MISS:     135672
L1D RFO       ACCESS:    3701533  HIT:    3596945  MISS:     104588
L1D PREFETCH  ACCESS:    7060559  HIT:    6921284  MISS:     139275
L1D WRITEBACK ACCESS:          0  HIT:          0  MISS:          0
L1D PREFETCH  REQUESTED:    7206022  ISSUED:    7123226  USEFUL:      44573  USELESS:      94707
L1D AVERAGE MISS LATENCY: 32.8315 cycles
L1I TOTAL     ACCESS:   10368902  HIT:    9288684  MISS:    1080218
L1I LOAD      ACCESS:    8932697  HIT:    8881192  MISS:      51505
L1I RFO       ACCESS:          0  HIT:          0  MISS:          0
L1I PREFETCH  ACCESS:    1436205  HIT:     407492  MISS:    1028713
L1I WRITEBACK ACCESS:          0  HIT:          0  MISS:          0
L1I PREFETCH  REQUESTED:    1549609  ISSUED:    1549609  USEFUL:     609809  USELESS:     418878
L1I AVERAGE MISS LATENCY: 14.9096 cycles
L2C TOTAL     ACCESS:    2035206  HIT:    1908954  MISS:     126252
L2C LOAD      ACCESS:     137120  HIT:     102383  MISS:      34737
L2C RFO       ACCESS:     104238  HIT:      70711  MISS:      33527
L2C PREFETCH  ACCESS:    1654549  HIT:    1596573  MISS:      57976
L2C WRITEBACK ACCESS:     139299  HIT:     139287  MISS:         12
L2C PREFETCH  REQUESTED:     794999  ISSUED:     794974  USEFUL:       4167  USELESS:      54293
L2C AVERAGE MISS LATENCY: 62.3378 cycles
LLC TOTAL     ACCESS:     264953  HIT:     233087  MISS:      31866
LLC LOAD      ACCESS:      34733  HIT:      26638  MISS:       8095
LLC RFO       ACCESS:      33527  HIT:      28801  MISS:       4726
LLC PREFETCH  ACCESS:     152523  HIT:     133724  MISS:      18799
LLC WRITEBACK ACCESS:      44170  HIT:      43924  MISS:        246
LLC PREFETCH  REQUESTED:          0  ISSUED:          0  USEFUL:       1307  USELESS:      16196
LLC AVERAGE MISS LATENCY: 180.08 cycles
Major fault: 0 Minor fault: 4156
CPU 0 L1D next line prefetcher final stats

DRAM Statistics
 CHANNEL 0
 RQ ROW_BUFFER_HIT:       3352  ROW_BUFFER_MISS:      28268
 DBUS_CONGESTED:      17219
 WQ ROW_BUFFER_HIT:       1009  ROW_BUFFER_MISS:      13251  FULL:          0

 AVG_CONGESTED_CYCLE: 4

CPU 0 Branch Prediction Accuracy: 94.7729% MPKI: 9.72684 Average ROB Occupancy at Mispredict: 54.6958

Branch types
NOT_BRANCH: 40695383 81.3908%
BRANCH_DIRECT_JUMP: 422107 0.844214%
BRANCH_INDIRECT: 65 0.00013%
BRANCH_CONDITIONAL: 8105005 16.21%
BRANCH_DIRECT_CALL: 374913 0.749826%
BRANCH_INDIRECT_CALL: 13657 0.027314%
BRANCH_RETURN: 388556 0.777112%
BRANCH_OTHER: 0 0%

