
*** ChampSim Multicore Out-of-Order Simulator ***

Warmup Instructions: 10000000
Simulation Instructions: 100000000
Configuration: 2
Number of CPUs: 1
LLC sets: 2048
LLC ways: 16
Off-chip DRAM Channels: 1 Width: 64-bit Data Rate: 1600 MT/s

CPU 0 runs /datasets/cs240c-wi22-a00-public/data/Assignment2-gz/libquantum_1735B.trace.gz
CPU 0 L1D next line prefetcher
CPU 0 L2C IP-based stride prefetcher
Heartbeat CPU 0 instructions: 1000001 cycles: 333341 heartbeat IPC: 2.99993 cumulative IPC: 2.99993 (Simulation time: 0 hr 0 min 11 sec) 
Heartbeat CPU 0 instructions: 2000000 cycles: 666674 heartbeat IPC: 3 cumulative IPC: 2.99997 (Simulation time: 0 hr 0 min 22 sec) 
Heartbeat CPU 0 instructions: 3000000 cycles: 989045 heartbeat IPC: 3.10202 cumulative IPC: 3.03323 (Simulation time: 0 hr 0 min 33 sec) 
Heartbeat CPU 0 instructions: 4000000 cycles: 1290770 heartbeat IPC: 3.31428 cumulative IPC: 3.09893 (Simulation time: 0 hr 0 min 43 sec) 
Heartbeat CPU 0 instructions: 5000001 cycles: 1592495 heartbeat IPC: 3.31428 cumulative IPC: 3.13973 (Simulation time: 0 hr 0 min 55 sec) 
Heartbeat CPU 0 instructions: 6000001 cycles: 1894219 heartbeat IPC: 3.31429 cumulative IPC: 3.16753 (Simulation time: 0 hr 1 min 6 sec) 
Heartbeat CPU 0 instructions: 7000002 cycles: 2195942 heartbeat IPC: 3.3143 cumulative IPC: 3.1877 (Simulation time: 0 hr 1 min 17 sec) 
Heartbeat CPU 0 instructions: 8000000 cycles: 2501897 heartbeat IPC: 3.26845 cumulative IPC: 3.19757 (Simulation time: 0 hr 1 min 28 sec) 
Heartbeat CPU 0 instructions: 9000000 cycles: 2835230 heartbeat IPC: 3 cumulative IPC: 3.17435 (Simulation time: 0 hr 1 min 40 sec) 
Heartbeat CPU 0 instructions: 10000002 cycles: 3168564 heartbeat IPC: 3 cumulative IPC: 3.156 (Simulation time: 0 hr 1 min 50 sec) 

Warmup complete CPU 0 instructions: 10000002 cycles: 3168564 (Simulation time: 0 hr 1 min 50 sec) 

Heartbeat CPU 0 instructions: 11000001 cycles: 4593870 heartbeat IPC: 0.701603 cumulative IPC: 0.701603 (Simulation time: 0 hr 2 min 9 sec) 
Heartbeat CPU 0 instructions: 12000000 cycles: 6018722 heartbeat IPC: 0.701827 cumulative IPC: 0.701715 (Simulation time: 0 hr 2 min 31 sec) 
Heartbeat CPU 0 instructions: 13000001 cycles: 7840823 heartbeat IPC: 0.548818 cumulative IPC: 0.642087 (Simulation time: 0 hr 2 min 51 sec) 
Heartbeat CPU 0 instructions: 14000000 cycles: 10330355 heartbeat IPC: 0.401682 cumulative IPC: 0.558519 (Simulation time: 0 hr 3 min 8 sec) 
Heartbeat CPU 0 instructions: 15000000 cycles: 12812926 heartbeat IPC: 0.402808 cumulative IPC: 0.518437 (Simulation time: 0 hr 3 min 24 sec) 
Heartbeat CPU 0 instructions: 16000000 cycles: 15281685 heartbeat IPC: 0.405062 cumulative IPC: 0.49533 (Simulation time: 0 hr 3 min 42 sec) 
Heartbeat CPU 0 instructions: 17000002 cycles: 17766375 heartbeat IPC: 0.402465 cumulative IPC: 0.479524 (Simulation time: 0 hr 3 min 59 sec) 
Heartbeat CPU 0 instructions: 18000001 cycles: 19934459 heartbeat IPC: 0.461236 cumulative IPC: 0.477159 (Simulation time: 0 hr 4 min 17 sec) 
Heartbeat CPU 0 instructions: 19000000 cycles: 21434040 heartbeat IPC: 0.666852 cumulative IPC: 0.492733 (Simulation time: 0 hr 4 min 37 sec) 
Heartbeat CPU 0 instructions: 20000000 cycles: 22933542 heartbeat IPC: 0.666888 cumulative IPC: 0.505945 (Simulation time: 0 hr 4 min 58 sec) 
Heartbeat CPU 0 instructions: 21000001 cycles: 24433172 heartbeat IPC: 0.666832 cumulative IPC: 0.517291 (Simulation time: 0 hr 5 min 19 sec) 
Heartbeat CPU 0 instructions: 22000000 cycles: 25932678 heartbeat IPC: 0.666886 cumulative IPC: 0.527145 (Simulation time: 0 hr 5 min 39 sec) 
Heartbeat CPU 0 instructions: 23000000 cycles: 28137769 heartbeat IPC: 0.453496 cumulative IPC: 0.520641 (Simulation time: 0 hr 5 min 56 sec) 
Heartbeat CPU 0 instructions: 24000000 cycles: 30799521 heartbeat IPC: 0.375692 cumulative IPC: 0.506678 (Simulation time: 0 hr 6 min 12 sec) 
Heartbeat CPU 0 instructions: 25000000 cycles: 33468393 heartbeat IPC: 0.37469 cumulative IPC: 0.495052 (Simulation time: 0 hr 6 min 28 sec) 
Heartbeat CPU 0 instructions: 26000000 cycles: 36117145 heartbeat IPC: 0.377536 cumulative IPC: 0.485605 (Simulation time: 0 hr 6 min 44 sec) 
Heartbeat CPU 0 instructions: 27000001 cycles: 38783468 heartbeat IPC: 0.375049 cumulative IPC: 0.477328 (Simulation time: 0 hr 7 min 1 sec) 
Heartbeat CPU 0 instructions: 28000000 cycles: 40752027 heartbeat IPC: 0.507985 cumulative IPC: 0.478934 (Simulation time: 0 hr 7 min 19 sec) 
Heartbeat CPU 0 instructions: 29000000 cycles: 42170779 heartbeat IPC: 0.704845 cumulative IPC: 0.487152 (Simulation time: 0 hr 7 min 40 sec) 
Heartbeat CPU 0 instructions: 30000001 cycles: 43600202 heartbeat IPC: 0.699584 cumulative IPC: 0.494662 (Simulation time: 0 hr 8 min 0 sec) 
Heartbeat CPU 0 instructions: 31000000 cycles: 45022097 heartbeat IPC: 0.703286 cumulative IPC: 0.50175 (Simulation time: 0 hr 8 min 19 sec) 
Heartbeat CPU 0 instructions: 32000000 cycles: 46443913 heartbeat IPC: 0.703326 cumulative IPC: 0.508372 (Simulation time: 0 hr 8 min 39 sec) 
Heartbeat CPU 0 instructions: 33000002 cycles: 48478974 heartbeat IPC: 0.491387 cumulative IPC: 0.50761 (Simulation time: 0 hr 8 min 57 sec) 
Heartbeat CPU 0 instructions: 34000000 cycles: 50657199 heartbeat IPC: 0.459088 cumulative IPC: 0.505384 (Simulation time: 0 hr 9 min 14 sec) 
Heartbeat CPU 0 instructions: 35000000 cycles: 52818272 heartbeat IPC: 0.462733 cumulative IPC: 0.503528 (Simulation time: 0 hr 9 min 31 sec) 
Heartbeat CPU 0 instructions: 36000000 cycles: 54989924 heartbeat IPC: 0.460479 cumulative IPC: 0.501724 (Simulation time: 0 hr 9 min 48 sec) 
Heartbeat CPU 0 instructions: 37000002 cycles: 57162997 heartbeat IPC: 0.460179 cumulative IPC: 0.500052 (Simulation time: 0 hr 10 min 5 sec) 
Heartbeat CPU 0 instructions: 38000003 cycles: 58871665 heartbeat IPC: 0.585252 cumulative IPC: 0.502665 (Simulation time: 0 hr 10 min 25 sec) 
Heartbeat CPU 0 instructions: 39000000 cycles: 60283071 heartbeat IPC: 0.708511 cumulative IPC: 0.507752 (Simulation time: 0 hr 10 min 45 sec) 
Heartbeat CPU 0 instructions: 40000000 cycles: 61694543 heartbeat IPC: 0.70848 cumulative IPC: 0.512593 (Simulation time: 0 hr 11 min 5 sec) 
Heartbeat CPU 0 instructions: 41000000 cycles: 63106069 heartbeat IPC: 0.708453 cumulative IPC: 0.517205 (Simulation time: 0 hr 11 min 26 sec) 
Heartbeat CPU 0 instructions: 42000001 cycles: 64517474 heartbeat IPC: 0.708515 cumulative IPC: 0.521607 (Simulation time: 0 hr 11 min 46 sec) 
Heartbeat CPU 0 instructions: 43000000 cycles: 66587209 heartbeat IPC: 0.483153 cumulative IPC: 0.520352 (Simulation time: 0 hr 12 min 3 sec) 
Heartbeat CPU 0 instructions: 44000000 cycles: 68755987 heartbeat IPC: 0.461089 cumulative IPC: 0.518392 (Simulation time: 0 hr 12 min 22 sec) 
Heartbeat CPU 0 instructions: 45000001 cycles: 70919217 heartbeat IPC: 0.462272 cumulative IPC: 0.5166 (Simulation time: 0 hr 12 min 39 sec) 
Heartbeat CPU 0 instructions: 46000002 cycles: 73071346 heartbeat IPC: 0.464657 cumulative IPC: 0.515001 (Simulation time: 0 hr 12 min 56 sec) 
Heartbeat CPU 0 instructions: 47000000 cycles: 75238865 heartbeat IPC: 0.461356 cumulative IPC: 0.513388 (Simulation time: 0 hr 13 min 13 sec) 
Heartbeat CPU 0 instructions: 48000000 cycles: 76973829 heartbeat IPC: 0.576381 cumulative IPC: 0.514868 (Simulation time: 0 hr 13 min 32 sec) 
Heartbeat CPU 0 instructions: 49000002 cycles: 78463266 heartbeat IPC: 0.671396 cumulative IPC: 0.517965 (Simulation time: 0 hr 13 min 52 sec) 
Heartbeat CPU 0 instructions: 50000001 cycles: 79988907 heartbeat IPC: 0.655462 cumulative IPC: 0.520695 (Simulation time: 0 hr 14 min 12 sec) 
Heartbeat CPU 0 instructions: 51000000 cycles: 81508478 heartbeat IPC: 0.65808 cumulative IPC: 0.52336 (Simulation time: 0 hr 14 min 32 sec) 
Heartbeat CPU 0 instructions: 52000000 cycles: 83028152 heartbeat IPC: 0.658036 cumulative IPC: 0.525923 (Simulation time: 0 hr 14 min 53 sec) 
Heartbeat CPU 0 instructions: 53000002 cycles: 84553818 heartbeat IPC: 0.655453 cumulative IPC: 0.528351 (Simulation time: 0 hr 15 min 14 sec) 
Heartbeat CPU 0 instructions: 54000001 cycles: 86073236 heartbeat IPC: 0.658146 cumulative IPC: 0.53073 (Simulation time: 0 hr 15 min 35 sec) 
Heartbeat CPU 0 instructions: 55000000 cycles: 87584476 heartbeat IPC: 0.661708 cumulative IPC: 0.533075 (Simulation time: 0 hr 15 min 56 sec) 
Heartbeat CPU 0 instructions: 56000000 cycles: 89103663 heartbeat IPC: 0.658247 cumulative IPC: 0.535288 (Simulation time: 0 hr 16 min 17 sec) 
Heartbeat CPU 0 instructions: 57000000 cycles: 90623256 heartbeat IPC: 0.658071 cumulative IPC: 0.537421 (Simulation time: 0 hr 16 min 38 sec) 
Heartbeat CPU 0 instructions: 58000002 cycles: 92142727 heartbeat IPC: 0.658125 cumulative IPC: 0.539482 (Simulation time: 0 hr 16 min 58 sec) 
Heartbeat CPU 0 instructions: 59000001 cycles: 93662273 heartbeat IPC: 0.658091 cumulative IPC: 0.541474 (Simulation time: 0 hr 17 min 19 sec) 
Heartbeat CPU 0 instructions: 60000000 cycles: 95181737 heartbeat IPC: 0.658126 cumulative IPC: 0.5434 (Simulation time: 0 hr 17 min 39 sec) 
Heartbeat CPU 0 instructions: 61000003 cycles: 96701357 heartbeat IPC: 0.658061 cumulative IPC: 0.545263 (Simulation time: 0 hr 17 min 59 sec) 
Heartbeat CPU 0 instructions: 62000002 cycles: 98220829 heartbeat IPC: 0.658123 cumulative IPC: 0.547067 (Simulation time: 0 hr 18 min 18 sec) 
Heartbeat CPU 0 instructions: 63000001 cycles: 99737623 heartbeat IPC: 0.659285 cumulative IPC: 0.54883 (Simulation time: 0 hr 18 min 39 sec) 
Heartbeat CPU 0 instructions: 64000000 cycles: 101257000 heartbeat IPC: 0.658164 cumulative IPC: 0.550524 (Simulation time: 0 hr 18 min 59 sec) 
Heartbeat CPU 0 instructions: 65000001 cycles: 102776488 heartbeat IPC: 0.658117 cumulative IPC: 0.552165 (Simulation time: 0 hr 19 min 20 sec) 
Heartbeat CPU 0 instructions: 66000000 cycles: 104293395 heartbeat IPC: 0.659236 cumulative IPC: 0.553771 (Simulation time: 0 hr 19 min 39 sec) 
Heartbeat CPU 0 instructions: 67000001 cycles: 105779673 heartbeat IPC: 0.672822 cumulative IPC: 0.555495 (Simulation time: 0 hr 20 min 0 sec) 
Heartbeat CPU 0 instructions: 68000000 cycles: 107252186 heartbeat IPC: 0.67911 cumulative IPC: 0.557244 (Simulation time: 0 hr 20 min 20 sec) 
Heartbeat CPU 0 instructions: 69000002 cycles: 108753904 heartbeat IPC: 0.665905 cumulative IPC: 0.55879 (Simulation time: 0 hr 20 min 40 sec) 
Heartbeat CPU 0 instructions: 70000001 cycles: 110246390 heartbeat IPC: 0.670022 cumulative IPC: 0.56034 (Simulation time: 0 hr 21 min 0 sec) 
Heartbeat CPU 0 instructions: 71000003 cycles: 111798272 heartbeat IPC: 0.64438 cumulative IPC: 0.561541 (Simulation time: 0 hr 21 min 19 sec) 
Heartbeat CPU 0 instructions: 72000000 cycles: 113948467 heartbeat IPC: 0.465073 cumulative IPC: 0.559668 (Simulation time: 0 hr 21 min 37 sec) 
Heartbeat CPU 0 instructions: 73000000 cycles: 116109058 heartbeat IPC: 0.462836 cumulative IPC: 0.557816 (Simulation time: 0 hr 21 min 54 sec) 
Heartbeat CPU 0 instructions: 74000000 cycles: 118240705 heartbeat IPC: 0.469121 cumulative IPC: 0.556173 (Simulation time: 0 hr 22 min 12 sec) 
Heartbeat CPU 0 instructions: 75000000 cycles: 120390355 heartbeat IPC: 0.465192 cumulative IPC: 0.554504 (Simulation time: 0 hr 22 min 30 sec) 
Heartbeat CPU 0 instructions: 76000000 cycles: 122562710 heartbeat IPC: 0.46033 cumulative IPC: 0.552791 (Simulation time: 0 hr 22 min 49 sec) 
Heartbeat CPU 0 instructions: 77000001 cycles: 124154425 heartbeat IPC: 0.628254 cumulative IPC: 0.553784 (Simulation time: 0 hr 23 min 9 sec) 
Heartbeat CPU 0 instructions: 78000000 cycles: 125659575 heartbeat IPC: 0.664385 cumulative IPC: 0.555143 (Simulation time: 0 hr 23 min 29 sec) 
Heartbeat CPU 0 instructions: 79000001 cycles: 127164798 heartbeat IPC: 0.664354 cumulative IPC: 0.556468 (Simulation time: 0 hr 23 min 49 sec) 
Heartbeat CPU 0 instructions: 80000000 cycles: 128669941 heartbeat IPC: 0.664388 cumulative IPC: 0.557763 (Simulation time: 0 hr 24 min 9 sec) 
Heartbeat CPU 0 instructions: 81000002 cycles: 130272027 heartbeat IPC: 0.624187 cumulative IPC: 0.5586 (Simulation time: 0 hr 24 min 29 sec) 
Heartbeat CPU 0 instructions: 82000003 cycles: 132420439 heartbeat IPC: 0.465461 cumulative IPC: 0.557052 (Simulation time: 0 hr 24 min 46 sec) 
Heartbeat CPU 0 instructions: 83000000 cycles: 134580584 heartbeat IPC: 0.462931 cumulative IPC: 0.555505 (Simulation time: 0 hr 25 min 3 sec) 
Heartbeat CPU 0 instructions: 84000000 cycles: 136742948 heartbeat IPC: 0.462457 cumulative IPC: 0.553998 (Simulation time: 0 hr 25 min 21 sec) 
Heartbeat CPU 0 instructions: 85000002 cycles: 138896243 heartbeat IPC: 0.464405 cumulative IPC: 0.552577 (Simulation time: 0 hr 25 min 38 sec) 
Heartbeat CPU 0 instructions: 86000002 cycles: 141068084 heartbeat IPC: 0.460439 cumulative IPC: 0.551126 (Simulation time: 0 hr 25 min 56 sec) 
Heartbeat CPU 0 instructions: 87000002 cycles: 142714493 heartbeat IPC: 0.607382 cumulative IPC: 0.55179 (Simulation time: 0 hr 26 min 18 sec) 
Heartbeat CPU 0 instructions: 88000000 cycles: 144290735 heartbeat IPC: 0.634419 cumulative IPC: 0.552713 (Simulation time: 0 hr 26 min 40 sec) 
Heartbeat CPU 0 instructions: 89000000 cycles: 145868343 heartbeat IPC: 0.633871 cumulative IPC: 0.55361 (Simulation time: 0 hr 27 min 1 sec) 
Heartbeat CPU 0 instructions: 90000000 cycles: 147768556 heartbeat IPC: 0.526257 cumulative IPC: 0.55325 (Simulation time: 0 hr 27 min 22 sec) 
Heartbeat CPU 0 instructions: 91000001 cycles: 150505323 heartbeat IPC: 0.365395 cumulative IPC: 0.549761 (Simulation time: 0 hr 27 min 41 sec) 
Heartbeat CPU 0 instructions: 92000000 cycles: 153300628 heartbeat IPC: 0.357742 cumulative IPC: 0.546186 (Simulation time: 0 hr 28 min 0 sec) 
Heartbeat CPU 0 instructions: 93000001 cycles: 156193747 heartbeat IPC: 0.345648 cumulative IPC: 0.542394 (Simulation time: 0 hr 28 min 19 sec) 
Heartbeat CPU 0 instructions: 94000001 cycles: 158898930 heartbeat IPC: 0.369661 cumulative IPC: 0.539394 (Simulation time: 0 hr 28 min 39 sec) 
Heartbeat CPU 0 instructions: 95000000 cycles: 160470864 heartbeat IPC: 0.636158 cumulative IPC: 0.540361 (Simulation time: 0 hr 29 min 1 sec) 
Heartbeat CPU 0 instructions: 96000000 cycles: 162042846 heartbeat IPC: 0.63614 cumulative IPC: 0.541308 (Simulation time: 0 hr 29 min 23 sec) 
Heartbeat CPU 0 instructions: 97000002 cycles: 163614894 heartbeat IPC: 0.636114 cumulative IPC: 0.542237 (Simulation time: 0 hr 29 min 45 sec) 
Heartbeat CPU 0 instructions: 98000001 cycles: 165753229 heartbeat IPC: 0.467653 cumulative IPC: 0.541256 (Simulation time: 0 hr 30 min 4 sec) 
Heartbeat CPU 0 instructions: 99000003 cycles: 168446974 heartbeat IPC: 0.371231 cumulative IPC: 0.538485 (Simulation time: 0 hr 30 min 23 sec) 
Heartbeat CPU 0 instructions: 100000000 cycles: 171155235 heartbeat IPC: 0.36924 cumulative IPC: 0.535757 (Simulation time: 0 hr 30 min 41 sec) 
Heartbeat CPU 0 instructions: 101000000 cycles: 173848115 heartbeat IPC: 0.37135 cumulative IPC: 0.533163 (Simulation time: 0 hr 30 min 59 sec) 
Heartbeat CPU 0 instructions: 102000000 cycles: 176090327 heartbeat IPC: 0.445988 cumulative IPC: 0.532032 (Simulation time: 0 hr 31 min 19 sec) 
Heartbeat CPU 0 instructions: 103000002 cycles: 177561192 heartbeat IPC: 0.679873 cumulative IPC: 0.533279 (Simulation time: 0 hr 31 min 38 sec) 
Heartbeat CPU 0 instructions: 104000000 cycles: 179030478 heartbeat IPC: 0.680601 cumulative IPC: 0.53451 (Simulation time: 0 hr 31 min 57 sec) 
Heartbeat CPU 0 instructions: 105000000 cycles: 180501204 heartbeat IPC: 0.679936 cumulative IPC: 0.535716 (Simulation time: 0 hr 32 min 16 sec) 
Heartbeat CPU 0 instructions: 106000003 cycles: 181974499 heartbeat IPC: 0.678753 cumulative IPC: 0.536895 (Simulation time: 0 hr 32 min 35 sec) 
Heartbeat CPU 0 instructions: 107000000 cycles: 184103735 heartbeat IPC: 0.469651 cumulative IPC: 0.536104 (Simulation time: 0 hr 32 min 52 sec) 
Heartbeat CPU 0 instructions: 108000000 cycles: 186546031 heartbeat IPC: 0.409451 cumulative IPC: 0.534417 (Simulation time: 0 hr 33 min 7 sec) 
Heartbeat CPU 0 instructions: 109000002 cycles: 188916338 heartbeat IPC: 0.421887 cumulative IPC: 0.532981 (Simulation time: 0 hr 33 min 22 sec) 
Heartbeat CPU 0 instructions: 110000002 cycles: 191207248 heartbeat IPC: 0.436508 cumulative IPC: 0.531805 (Simulation time: 0 hr 33 min 38 sec) 
Finished CPU 0 instructions: 100000000 cycles: 188038684 cummulative IPC: 0.531805 (Simulation time: 0 hr 33 min 38 sec) 

ChampSim completed all CPUs

Region of Interest Statistics

CPU 0 cummulative IPC: 0.531805 instructions: 100000000 cycles: 188038684
LLC TOTAL     ACCESS:    3801551  HIT:     104849  MISS:    3696702
LLC LOAD      ACCESS:     657063  HIT:       6298  MISS:     650765
LLC RFO       ACCESS:         20  HIT:         15  MISS:          5
LLC PREFETCH  ACCESS:    2132363  HIT:      32778  MISS:    2099585
LLC WRITEBACK ACCESS:    1012105  HIT:      65758  MISS:     946347
