
*** ChampSim Multicore Out-of-Order Simulator ***

Warmup Instructions: 10000000
Simulation Instructions: 100000000
Configuration: 2
Number of CPUs: 1
LLC sets: 2048
LLC ways: 16
Off-chip DRAM Channels: 1 Width: 64-bit Data Rate: 1600 MT/s

CPU 0 runs /datasets/cs240c-wi22-a00-public/data/Assignment2-gz/leslie3d_1116B.trace.gz
CPU 0 L1D next line prefetcher
CPU 0 L2C IP-based stride prefetcher
Heartbeat CPU 0 instructions: 1000003 cycles: 535311 heartbeat IPC: 1.86808 cumulative IPC: 1.86808 (Simulation time: 0 hr 0 min 27 sec) 
Heartbeat CPU 0 instructions: 2000003 cycles: 1071188 heartbeat IPC: 1.8661 cumulative IPC: 1.86709 (Simulation time: 0 hr 0 min 52 sec) 
Heartbeat CPU 0 instructions: 3000003 cycles: 1607882 heartbeat IPC: 1.86326 cumulative IPC: 1.86581 (Simulation time: 0 hr 1 min 15 sec) 
Heartbeat CPU 0 instructions: 4000000 cycles: 2143232 heartbeat IPC: 1.86793 cumulative IPC: 1.86634 (Simulation time: 0 hr 1 min 38 sec) 
Heartbeat CPU 0 instructions: 5000001 cycles: 2678295 heartbeat IPC: 1.86894 cumulative IPC: 1.86686 (Simulation time: 0 hr 2 min 3 sec) 
Heartbeat CPU 0 instructions: 6000001 cycles: 3213679 heartbeat IPC: 1.86782 cumulative IPC: 1.86702 (Simulation time: 0 hr 2 min 28 sec) 
Heartbeat CPU 0 instructions: 7000001 cycles: 3749648 heartbeat IPC: 1.86578 cumulative IPC: 1.86684 (Simulation time: 0 hr 2 min 53 sec) 
Heartbeat CPU 0 instructions: 8000000 cycles: 4285644 heartbeat IPC: 1.86568 cumulative IPC: 1.8667 (Simulation time: 0 hr 3 min 18 sec) 
Heartbeat CPU 0 instructions: 9000003 cycles: 4820706 heartbeat IPC: 1.86895 cumulative IPC: 1.86695 (Simulation time: 0 hr 3 min 40 sec) 
Heartbeat CPU 0 instructions: 10000002 cycles: 5355653 heartbeat IPC: 1.86934 cumulative IPC: 1.86719 (Simulation time: 0 hr 4 min 3 sec) 

Warmup complete CPU 0 instructions: 10000002 cycles: 5355653 (Simulation time: 0 hr 4 min 3 sec) 

Heartbeat CPU 0 instructions: 11000001 cycles: 6455069 heartbeat IPC: 0.909573 cumulative IPC: 0.909573 (Simulation time: 0 hr 4 min 29 sec) 
Heartbeat CPU 0 instructions: 12000000 cycles: 7528462 heartbeat IPC: 0.931624 cumulative IPC: 0.920467 (Simulation time: 0 hr 4 min 58 sec) 
Heartbeat CPU 0 instructions: 13000002 cycles: 8610575 heartbeat IPC: 0.92412 cumulative IPC: 0.921681 (Simulation time: 0 hr 5 min 23 sec) 
Heartbeat CPU 0 instructions: 14000003 cycles: 9697248 heartbeat IPC: 0.920241 cumulative IPC: 0.921321 (Simulation time: 0 hr 5 min 50 sec) 
Heartbeat CPU 0 instructions: 15000000 cycles: 10799568 heartbeat IPC: 0.907175 cumulative IPC: 0.918456 (Simulation time: 0 hr 6 min 15 sec) 
Heartbeat CPU 0 instructions: 16000000 cycles: 11896276 heartbeat IPC: 0.91182 cumulative IPC: 0.917343 (Simulation time: 0 hr 6 min 42 sec) 
Heartbeat CPU 0 instructions: 17000003 cycles: 12987506 heartbeat IPC: 0.9164 cumulative IPC: 0.917209 (Simulation time: 0 hr 7 min 10 sec) 
Heartbeat CPU 0 instructions: 18000001 cycles: 14093164 heartbeat IPC: 0.904437 cumulative IPC: 0.915592 (Simulation time: 0 hr 7 min 35 sec) 
Heartbeat CPU 0 instructions: 19000001 cycles: 15196976 heartbeat IPC: 0.905951 cumulative IPC: 0.914511 (Simulation time: 0 hr 8 min 5 sec) 
Heartbeat CPU 0 instructions: 20000000 cycles: 16286928 heartbeat IPC: 0.917471 cumulative IPC: 0.914806 (Simulation time: 0 hr 8 min 28 sec) 
Heartbeat CPU 0 instructions: 21000000 cycles: 17394295 heartbeat IPC: 0.903043 cumulative IPC: 0.913724 (Simulation time: 0 hr 8 min 52 sec) 
Heartbeat CPU 0 instructions: 22000000 cycles: 18490950 heartbeat IPC: 0.911864 cumulative IPC: 0.913569 (Simulation time: 0 hr 9 min 19 sec) 
Heartbeat CPU 0 instructions: 23000003 cycles: 19587246 heartbeat IPC: 0.912165 cumulative IPC: 0.913461 (Simulation time: 0 hr 9 min 49 sec) 
Heartbeat CPU 0 instructions: 24000000 cycles: 20675339 heartbeat IPC: 0.919036 cumulative IPC: 0.913857 (Simulation time: 0 hr 10 min 21 sec) 
Heartbeat CPU 0 instructions: 25000001 cycles: 21765482 heartbeat IPC: 0.917312 cumulative IPC: 0.914086 (Simulation time: 0 hr 10 min 48 sec) 
Heartbeat CPU 0 instructions: 26000002 cycles: 22881315 heartbeat IPC: 0.896192 cumulative IPC: 0.912947 (Simulation time: 0 hr 11 min 15 sec) 
Heartbeat CPU 0 instructions: 27000001 cycles: 23981260 heartbeat IPC: 0.909135 cumulative IPC: 0.912722 (Simulation time: 0 hr 11 min 41 sec) 
Heartbeat CPU 0 instructions: 28000000 cycles: 25067056 heartbeat IPC: 0.920982 cumulative IPC: 0.913177 (Simulation time: 0 hr 12 min 8 sec) 
Heartbeat CPU 0 instructions: 29000003 cycles: 26157850 heartbeat IPC: 0.916766 cumulative IPC: 0.913365 (Simulation time: 0 hr 12 min 35 sec) 
Heartbeat CPU 0 instructions: 30000002 cycles: 27284852 heartbeat IPC: 0.887309 cumulative IPC: 0.912026 (Simulation time: 0 hr 13 min 2 sec) 
Heartbeat CPU 0 instructions: 31000001 cycles: 28381075 heartbeat IPC: 0.912222 cumulative IPC: 0.912035 (Simulation time: 0 hr 13 min 27 sec) 
Heartbeat CPU 0 instructions: 32000000 cycles: 29485048 heartbeat IPC: 0.905818 cumulative IPC: 0.911751 (Simulation time: 0 hr 13 min 53 sec) 
Heartbeat CPU 0 instructions: 33000002 cycles: 30588257 heartbeat IPC: 0.906448 cumulative IPC: 0.911519 (Simulation time: 0 hr 14 min 18 sec) 
Heartbeat CPU 0 instructions: 34000002 cycles: 31706370 heartbeat IPC: 0.894364 cumulative IPC: 0.910791 (Simulation time: 0 hr 14 min 45 sec) 
Heartbeat CPU 0 instructions: 35000000 cycles: 32820781 heartbeat IPC: 0.897333 cumulative IPC: 0.910245 (Simulation time: 0 hr 15 min 13 sec) 
Heartbeat CPU 0 instructions: 36000000 cycles: 33922752 heartbeat IPC: 0.907465 cumulative IPC: 0.910138 (Simulation time: 0 hr 15 min 41 sec) 
Heartbeat CPU 0 instructions: 37000003 cycles: 35496329 heartbeat IPC: 0.635497 cumulative IPC: 0.895799 (Simulation time: 0 hr 16 min 12 sec) 
Heartbeat CPU 0 instructions: 38000003 cycles: 37087473 heartbeat IPC: 0.628479 cumulative IPC: 0.882395 (Simulation time: 0 hr 16 min 41 sec) 
Heartbeat CPU 0 instructions: 39000003 cycles: 38682406 heartbeat IPC: 0.626986 cumulative IPC: 0.870172 (Simulation time: 0 hr 17 min 8 sec) 
Heartbeat CPU 0 instructions: 40000000 cycles: 40282681 heartbeat IPC: 0.624891 cumulative IPC: 0.858934 (Simulation time: 0 hr 17 min 34 sec) 
Heartbeat CPU 0 instructions: 41000002 cycles: 41860007 heartbeat IPC: 0.633986 cumulative IPC: 0.849214 (Simulation time: 0 hr 18 min 3 sec) 
Heartbeat CPU 0 instructions: 42000001 cycles: 43445036 heartbeat IPC: 0.630903 cumulative IPC: 0.840129 (Simulation time: 0 hr 18 min 29 sec) 
Heartbeat CPU 0 instructions: 43000003 cycles: 45018696 heartbeat IPC: 0.635463 cumulative IPC: 0.832009 (Simulation time: 0 hr 18 min 54 sec) 
Heartbeat CPU 0 instructions: 44000000 cycles: 46597126 heartbeat IPC: 0.633539 cumulative IPC: 0.824413 (Simulation time: 0 hr 19 min 25 sec) 
Heartbeat CPU 0 instructions: 45000002 cycles: 48174755 heartbeat IPC: 0.633864 cumulative IPC: 0.817392 (Simulation time: 0 hr 19 min 56 sec) 
Heartbeat CPU 0 instructions: 46000002 cycles: 49686591 heartbeat IPC: 0.661447 cumulative IPC: 0.812074 (Simulation time: 0 hr 20 min 27 sec) 
Heartbeat CPU 0 instructions: 47000001 cycles: 51155908 heartbeat IPC: 0.680588 cumulative IPC: 0.807856 (Simulation time: 0 hr 20 min 52 sec) 
Heartbeat CPU 0 instructions: 48000000 cycles: 52607508 heartbeat IPC: 0.688894 cumulative IPC: 0.804201 (Simulation time: 0 hr 21 min 17 sec) 
Heartbeat CPU 0 instructions: 49000000 cycles: 54785812 heartbeat IPC: 0.459073 cumulative IPC: 0.788992 (Simulation time: 0 hr 21 min 46 sec) 
Heartbeat CPU 0 instructions: 50000000 cycles: 57295913 heartbeat IPC: 0.39839 cumulative IPC: 0.770115 (Simulation time: 0 hr 22 min 19 sec) 
Heartbeat CPU 0 instructions: 51000003 cycles: 59771781 heartbeat IPC: 0.4039 cumulative IPC: 0.753453 (Simulation time: 0 hr 22 min 51 sec) 
Heartbeat CPU 0 instructions: 52000000 cycles: 62272425 heartbeat IPC: 0.399896 cumulative IPC: 0.73792 (Simulation time: 0 hr 23 min 23 sec) 
Heartbeat CPU 0 instructions: 53000003 cycles: 64768105 heartbeat IPC: 0.400694 cumulative IPC: 0.723754 (Simulation time: 0 hr 23 min 54 sec) 
Heartbeat CPU 0 instructions: 54000000 cycles: 67124255 heartbeat IPC: 0.42442 cumulative IPC: 0.712336 (Simulation time: 0 hr 24 min 33 sec) 
Heartbeat CPU 0 instructions: 55000002 cycles: 69461016 heartbeat IPC: 0.427944 cumulative IPC: 0.701969 (Simulation time: 0 hr 25 min 8 sec) 
Heartbeat CPU 0 instructions: 56000000 cycles: 71862186 heartbeat IPC: 0.416463 cumulative IPC: 0.691661 (Simulation time: 0 hr 25 min 44 sec) 
Heartbeat CPU 0 instructions: 57000001 cycles: 74220400 heartbeat IPC: 0.42405 cumulative IPC: 0.682497 (Simulation time: 0 hr 26 min 21 sec) 
Heartbeat CPU 0 instructions: 58000001 cycles: 76489527 heartbeat IPC: 0.440698 cumulative IPC: 0.674784 (Simulation time: 0 hr 26 min 59 sec) 
Heartbeat CPU 0 instructions: 59000000 cycles: 77798351 heartbeat IPC: 0.764044 cumulative IPC: 0.676397 (Simulation time: 0 hr 27 min 28 sec) 
Heartbeat CPU 0 instructions: 60000000 cycles: 79106655 heartbeat IPC: 0.764348 cumulative IPC: 0.677957 (Simulation time: 0 hr 27 min 57 sec) 
Heartbeat CPU 0 instructions: 61000003 cycles: 80472765 heartbeat IPC: 0.732008 cumulative IPC: 0.67894 (Simulation time: 0 hr 28 min 25 sec) 
Heartbeat CPU 0 instructions: 62000002 cycles: 81859346 heartbeat IPC: 0.721198 cumulative IPC: 0.679706 (Simulation time: 0 hr 28 min 53 sec) 
Heartbeat CPU 0 instructions: 63000003 cycles: 83108088 heartbeat IPC: 0.800807 cumulative IPC: 0.681651 (Simulation time: 0 hr 29 min 21 sec) 
Heartbeat CPU 0 instructions: 64000000 cycles: 84371350 heartbeat IPC: 0.791599 cumulative IPC: 0.683408 (Simulation time: 0 hr 29 min 52 sec) 
Heartbeat CPU 0 instructions: 65000001 cycles: 85826503 heartbeat IPC: 0.687214 cumulative IPC: 0.683477 (Simulation time: 0 hr 30 min 22 sec) 
Heartbeat CPU 0 instructions: 66000000 cycles: 87049371 heartbeat IPC: 0.817749 cumulative IPC: 0.685487 (Simulation time: 0 hr 30 min 50 sec) 
Heartbeat CPU 0 instructions: 67000001 cycles: 88293207 heartbeat IPC: 0.803965 cumulative IPC: 0.687264 (Simulation time: 0 hr 31 min 21 sec) 
Heartbeat CPU 0 instructions: 68000000 cycles: 89706586 heartbeat IPC: 0.707524 cumulative IPC: 0.687604 (Simulation time: 0 hr 31 min 47 sec) 
Heartbeat CPU 0 instructions: 69000002 cycles: 90988832 heartbeat IPC: 0.779883 cumulative IPC: 0.688985 (Simulation time: 0 hr 32 min 14 sec) 
Heartbeat CPU 0 instructions: 70000000 cycles: 92204595 heartbeat IPC: 0.822527 cumulative IPC: 0.690855 (Simulation time: 0 hr 32 min 41 sec) 
Heartbeat CPU 0 instructions: 71000002 cycles: 93439451 heartbeat IPC: 0.809813 cumulative IPC: 0.692522 (Simulation time: 0 hr 33 min 10 sec) 
Heartbeat CPU 0 instructions: 72000000 cycles: 94850418 heartbeat IPC: 0.708732 cumulative IPC: 0.692778 (Simulation time: 0 hr 33 min 36 sec) 
Heartbeat CPU 0 instructions: 73000000 cycles: 96076980 heartbeat IPC: 0.815287 cumulative IPC: 0.694434 (Simulation time: 0 hr 34 min 2 sec) 
Heartbeat CPU 0 instructions: 74000000 cycles: 97296155 heartbeat IPC: 0.820227 cumulative IPC: 0.696102 (Simulation time: 0 hr 34 min 26 sec) 
Heartbeat CPU 0 instructions: 75000002 cycles: 98716573 heartbeat IPC: 0.70402 cumulative IPC: 0.696223 (Simulation time: 0 hr 34 min 51 sec) 
Heartbeat CPU 0 instructions: 76000000 cycles: 99927759 heartbeat IPC: 0.825635 cumulative IPC: 0.69788 (Simulation time: 0 hr 35 min 14 sec) 
Heartbeat CPU 0 instructions: 77000001 cycles: 101131034 heartbeat IPC: 0.831066 cumulative IPC: 0.699553 (Simulation time: 0 hr 35 min 38 sec) 
Heartbeat CPU 0 instructions: 78000000 cycles: 102435230 heartbeat IPC: 0.766755 cumulative IPC: 0.700456 (Simulation time: 0 hr 35 min 59 sec) 
Heartbeat CPU 0 instructions: 79000001 cycles: 103752582 heartbeat IPC: 0.759099 cumulative IPC: 0.701241 (Simulation time: 0 hr 36 min 21 sec) 
Heartbeat CPU 0 instructions: 80000000 cycles: 104966756 heartbeat IPC: 0.823604 cumulative IPC: 0.702733 (Simulation time: 0 hr 36 min 43 sec) 
Heartbeat CPU 0 instructions: 81000003 cycles: 106179184 heartbeat IPC: 0.824794 cumulative IPC: 0.704201 (Simulation time: 0 hr 37 min 6 sec) 
Heartbeat CPU 0 instructions: 82000000 cycles: 107582183 heartbeat IPC: 0.712757 cumulative IPC: 0.704318 (Simulation time: 0 hr 37 min 29 sec) 
Heartbeat CPU 0 instructions: 83000001 cycles: 108796339 heartbeat IPC: 0.823618 cumulative IPC: 0.705718 (Simulation time: 0 hr 37 min 53 sec) 
Heartbeat CPU 0 instructions: 84000000 cycles: 110023125 heartbeat IPC: 0.815137 cumulative IPC: 0.707001 (Simulation time: 0 hr 38 min 15 sec) 
Heartbeat CPU 0 instructions: 85000003 cycles: 111414887 heartbeat IPC: 0.718516 cumulative IPC: 0.707152 (Simulation time: 0 hr 38 min 35 sec) 
Heartbeat CPU 0 instructions: 86000002 cycles: 112645508 heartbeat IPC: 0.812597 cumulative IPC: 0.708361 (Simulation time: 0 hr 38 min 54 sec) 
Heartbeat CPU 0 instructions: 87000001 cycles: 113857238 heartbeat IPC: 0.825266 cumulative IPC: 0.709667 (Simulation time: 0 hr 39 min 12 sec) 
Heartbeat CPU 0 instructions: 88000000 cycles: 115090950 heartbeat IPC: 0.810561 cumulative IPC: 0.710801 (Simulation time: 0 hr 39 min 29 sec) 
Heartbeat CPU 0 instructions: 89000001 cycles: 116467334 heartbeat IPC: 0.726542 cumulative IPC: 0.710996 (Simulation time: 0 hr 39 min 46 sec) 
Heartbeat CPU 0 instructions: 90000003 cycles: 117675476 heartbeat IPC: 0.827719 cumulative IPC: 0.712252 (Simulation time: 0 hr 40 min 2 sec) 
Heartbeat CPU 0 instructions: 91000000 cycles: 118892779 heartbeat IPC: 0.821486 cumulative IPC: 0.713423 (Simulation time: 0 hr 40 min 16 sec) 
Heartbeat CPU 0 instructions: 92000000 cycles: 120305474 heartbeat IPC: 0.707867 cumulative IPC: 0.713355 (Simulation time: 0 hr 40 min 30 sec) 
Heartbeat CPU 0 instructions: 93000002 cycles: 121508906 heartbeat IPC: 0.830958 cumulative IPC: 0.714573 (Simulation time: 0 hr 40 min 43 sec) 
Heartbeat CPU 0 instructions: 94000000 cycles: 122723565 heartbeat IPC: 0.823275 cumulative IPC: 0.715698 (Simulation time: 0 hr 40 min 57 sec) 
Heartbeat CPU 0 instructions: 95000003 cycles: 124058523 heartbeat IPC: 0.749089 cumulative IPC: 0.716074 (Simulation time: 0 hr 41 min 9 sec) 
Heartbeat CPU 0 instructions: 96000000 cycles: 125369220 heartbeat IPC: 0.762951 cumulative IPC: 0.716586 (Simulation time: 0 hr 41 min 22 sec) 
Heartbeat CPU 0 instructions: 97000000 cycles: 126566264 heartbeat IPC: 0.835391 cumulative IPC: 0.717759 (Simulation time: 0 hr 41 min 35 sec) 
Heartbeat CPU 0 instructions: 98000000 cycles: 127789927 heartbeat IPC: 0.817218 cumulative IPC: 0.718753 (Simulation time: 0 hr 41 min 47 sec) 
Heartbeat CPU 0 instructions: 99000003 cycles: 129197802 heartbeat IPC: 0.710292 cumulative IPC: 0.718657 (Simulation time: 0 hr 41 min 59 sec) 
Heartbeat CPU 0 instructions: 100000000 cycles: 130426373 heartbeat IPC: 0.813951 cumulative IPC: 0.719593 (Simulation time: 0 hr 42 min 12 sec) 
Heartbeat CPU 0 instructions: 101000001 cycles: 131657277 heartbeat IPC: 0.812412 cumulative IPC: 0.720497 (Simulation time: 0 hr 42 min 23 sec) 
Heartbeat CPU 0 instructions: 102000003 cycles: 133072049 heartbeat IPC: 0.706829 cumulative IPC: 0.720346 (Simulation time: 0 hr 42 min 34 sec) 
Heartbeat CPU 0 instructions: 103000002 cycles: 134299786 heartbeat IPC: 0.814506 cumulative IPC: 0.721243 (Simulation time: 0 hr 42 min 44 sec) 
Heartbeat CPU 0 instructions: 104000000 cycles: 135532715 heartbeat IPC: 0.811075 cumulative IPC: 0.722093 (Simulation time: 0 hr 42 min 54 sec) 
Heartbeat CPU 0 instructions: 105000000 cycles: 136781805 heartbeat IPC: 0.800583 cumulative IPC: 0.722839 (Simulation time: 0 hr 43 min 3 sec) 
Heartbeat CPU 0 instructions: 106000003 cycles: 138650357 heartbeat IPC: 0.535175 cumulative IPC: 0.720209 (Simulation time: 0 hr 43 min 12 sec) 
Heartbeat CPU 0 instructions: 107000002 cycles: 140655859 heartbeat IPC: 0.498628 cumulative IPC: 0.716924 (Simulation time: 0 hr 43 min 21 sec) 
Heartbeat CPU 0 instructions: 108000000 cycles: 142736960 heartbeat IPC: 0.480514 cumulative IPC: 0.713343 (Simulation time: 0 hr 43 min 29 sec) 
Heartbeat CPU 0 instructions: 109000003 cycles: 144830476 heartbeat IPC: 0.477667 cumulative IPC: 0.709806 (Simulation time: 0 hr 43 min 37 sec) 
Heartbeat CPU 0 instructions: 110000003 cycles: 146821065 heartbeat IPC: 0.502364 cumulative IPC: 0.706887 (Simulation time: 0 hr 43 min 45 sec) 
Finished CPU 0 instructions: 100000001 cycles: 141465412 cummulative IPC: 0.706887 (Simulation time: 0 hr 43 min 45 sec) 

ChampSim completed all CPUs

Region of Interest Statistics

CPU 0 cummulative IPC: 0.706887 instructions: 100000001 cycles: 141465412
LLC TOTAL     ACCESS:    3584154  HIT:     810521  MISS:    2773633
LLC LOAD      ACCESS:     299021  HIT:      43357  MISS:     255664
LLC RFO       ACCESS:     622458  HIT:     117243  MISS:     505215
LLC PREFETCH  ACCESS:    1899491  HIT:     131687  MISS:    1767804
LLC WRITEBACK ACCESS:     763184  HIT:     518234  MISS:     244950
