
*** ChampSim Multicore Out-of-Order Simulator ***

Warmup Instructions: 10000000
Simulation Instructions: 100000000
Configuration: 1
Number of CPUs: 1
LLC sets: 2048
LLC ways: 16
Off-chip DRAM Channels: 1 Width: 64-bit Data Rate: 1600 MT/s

CPU 0 runs /datasets/cs240c-wi22-a00-public/data/Assignment2-gz/astar_23B.trace.gz
Initialize SRRIP state
Heartbeat CPU 0 instructions: 1000000 cycles: 360102 heartbeat IPC: 2.77699 cumulative IPC: 2.77699 (Simulation time: 0 hr 0 min 22 sec) 
Heartbeat CPU 0 instructions: 2000001 cycles: 720981 heartbeat IPC: 2.77101 cumulative IPC: 2.774 (Simulation time: 0 hr 0 min 44 sec) 
Heartbeat CPU 0 instructions: 3000000 cycles: 1079922 heartbeat IPC: 2.78597 cumulative IPC: 2.77798 (Simulation time: 0 hr 1 min 4 sec) 
Heartbeat CPU 0 instructions: 4000000 cycles: 1441383 heartbeat IPC: 2.76655 cumulative IPC: 2.77511 (Simulation time: 0 hr 1 min 25 sec) 
Heartbeat CPU 0 instructions: 5000000 cycles: 1803468 heartbeat IPC: 2.76178 cumulative IPC: 2.77244 (Simulation time: 0 hr 1 min 48 sec) 
Heartbeat CPU 0 instructions: 6000002 cycles: 2165148 heartbeat IPC: 2.76488 cumulative IPC: 2.77117 (Simulation time: 0 hr 2 min 10 sec) 
Heartbeat CPU 0 instructions: 7000002 cycles: 2526741 heartbeat IPC: 2.76554 cumulative IPC: 2.77037 (Simulation time: 0 hr 2 min 31 sec) 
Heartbeat CPU 0 instructions: 8000000 cycles: 2889650 heartbeat IPC: 2.75551 cumulative IPC: 2.7685 (Simulation time: 0 hr 2 min 53 sec) 
Heartbeat CPU 0 instructions: 9000000 cycles: 3252672 heartbeat IPC: 2.75465 cumulative IPC: 2.76696 (Simulation time: 0 hr 3 min 16 sec) 
Heartbeat CPU 0 instructions: 10000003 cycles: 3617571 heartbeat IPC: 2.74049 cumulative IPC: 2.76429 (Simulation time: 0 hr 3 min 38 sec) 

Warmup complete CPU 0 instructions: 10000003 cycles: 3617571 (Simulation time: 0 hr 3 min 38 sec) 

Heartbeat CPU 0 instructions: 11000000 cycles: 6794517 heartbeat IPC: 0.314767 cumulative IPC: 0.314767 (Simulation time: 0 hr 4 min 0 sec) 
Heartbeat CPU 0 instructions: 12000000 cycles: 9657957 heartbeat IPC: 0.34923 cumulative IPC: 0.331104 (Simulation time: 0 hr 4 min 21 sec) 
Heartbeat CPU 0 instructions: 13000002 cycles: 12379744 heartbeat IPC: 0.367406 cumulative IPC: 0.342381 (Simulation time: 0 hr 4 min 42 sec) 
Heartbeat CPU 0 instructions: 14000001 cycles: 15378379 heartbeat IPC: 0.333485 cumulative IPC: 0.340113 (Simulation time: 0 hr 5 min 5 sec) 
Heartbeat CPU 0 instructions: 15000000 cycles: 18674146 heartbeat IPC: 0.303419 cumulative IPC: 0.332081 (Simulation time: 0 hr 5 min 25 sec) 
Heartbeat CPU 0 instructions: 16000000 cycles: 21605880 heartbeat IPC: 0.341095 cumulative IPC: 0.33355 (Simulation time: 0 hr 5 min 45 sec) 
Heartbeat CPU 0 instructions: 17000002 cycles: 24334227 heartbeat IPC: 0.366523 cumulative IPC: 0.337892 (Simulation time: 0 hr 6 min 6 sec) 
Heartbeat CPU 0 instructions: 18000000 cycles: 27139181 heartbeat IPC: 0.356511 cumulative IPC: 0.340113 (Simulation time: 0 hr 6 min 26 sec) 
Heartbeat CPU 0 instructions: 19000000 cycles: 30058774 heartbeat IPC: 0.342514 cumulative IPC: 0.340378 (Simulation time: 0 hr 6 min 46 sec) 
Heartbeat CPU 0 instructions: 20000000 cycles: 33031696 heartbeat IPC: 0.336369 cumulative IPC: 0.339973 (Simulation time: 0 hr 7 min 6 sec) 
Heartbeat CPU 0 instructions: 21000001 cycles: 36068051 heartbeat IPC: 0.329343 cumulative IPC: 0.338978 (Simulation time: 0 hr 7 min 30 sec) 
Heartbeat CPU 0 instructions: 22000002 cycles: 39149123 heartbeat IPC: 0.324563 cumulative IPC: 0.337728 (Simulation time: 0 hr 7 min 51 sec) 
Heartbeat CPU 0 instructions: 23000003 cycles: 42475449 heartbeat IPC: 0.300632 cumulative IPC: 0.334552 (Simulation time: 0 hr 8 min 13 sec) 
Heartbeat CPU 0 instructions: 24000000 cycles: 45971142 heartbeat IPC: 0.286065 cumulative IPC: 0.330551 (Simulation time: 0 hr 8 min 37 sec) 
Heartbeat CPU 0 instructions: 25000000 cycles: 49828385 heartbeat IPC: 0.259253 cumulative IPC: 0.324599 (Simulation time: 0 hr 8 min 59 sec) 
Heartbeat CPU 0 instructions: 26000000 cycles: 53963510 heartbeat IPC: 0.241831 cumulative IPC: 0.317801 (Simulation time: 0 hr 9 min 20 sec) 
Heartbeat CPU 0 instructions: 27000000 cycles: 57923354 heartbeat IPC: 0.252535 cumulative IPC: 0.313042 (Simulation time: 0 hr 9 min 43 sec) 
Heartbeat CPU 0 instructions: 28000000 cycles: 61748251 heartbeat IPC: 0.261445 cumulative IPC: 0.309647 (Simulation time: 0 hr 10 min 4 sec) 
Heartbeat CPU 0 instructions: 29000000 cycles: 65269667 heartbeat IPC: 0.283977 cumulative IPC: 0.308181 (Simulation time: 0 hr 10 min 25 sec) 
Heartbeat CPU 0 instructions: 30000000 cycles: 68870287 heartbeat IPC: 0.27773 cumulative IPC: 0.306501 (Simulation time: 0 hr 10 min 50 sec) 
Heartbeat CPU 0 instructions: 31000001 cycles: 72526345 heartbeat IPC: 0.273519 cumulative IPC: 0.304751 (Simulation time: 0 hr 11 min 11 sec) 
Heartbeat CPU 0 instructions: 32000000 cycles: 76339468 heartbeat IPC: 0.262252 cumulative IPC: 0.302522 (Simulation time: 0 hr 11 min 31 sec) 
Heartbeat CPU 0 instructions: 33000001 cycles: 80369352 heartbeat IPC: 0.248146 cumulative IPC: 0.299667 (Simulation time: 0 hr 11 min 59 sec) 
Heartbeat CPU 0 instructions: 34000003 cycles: 84429078 heartbeat IPC: 0.246323 cumulative IPC: 0.296987 (Simulation time: 0 hr 12 min 19 sec) 
Heartbeat CPU 0 instructions: 35000003 cycles: 88351737 heartbeat IPC: 0.254929 cumulative IPC: 0.29504 (Simulation time: 0 hr 12 min 41 sec) 
Heartbeat CPU 0 instructions: 36000000 cycles: 92488201 heartbeat IPC: 0.241752 cumulative IPC: 0.29256 (Simulation time: 0 hr 13 min 5 sec) 
Heartbeat CPU 0 instructions: 37000000 cycles: 96770928 heartbeat IPC: 0.233496 cumulative IPC: 0.289845 (Simulation time: 0 hr 13 min 31 sec) 
Heartbeat CPU 0 instructions: 38000003 cycles: 100850416 heartbeat IPC: 0.24513 cumulative IPC: 0.287969 (Simulation time: 0 hr 13 min 56 sec) 
Heartbeat CPU 0 instructions: 39000000 cycles: 104800405 heartbeat IPC: 0.253164 cumulative IPC: 0.28661 (Simulation time: 0 hr 14 min 21 sec) 
Heartbeat CPU 0 instructions: 40000000 cycles: 108663105 heartbeat IPC: 0.258886 cumulative IPC: 0.28559 (Simulation time: 0 hr 14 min 44 sec) 
Heartbeat CPU 0 instructions: 41000003 cycles: 112418911 heartbeat IPC: 0.266255 cumulative IPC: 0.284923 (Simulation time: 0 hr 15 min 7 sec) 
Heartbeat CPU 0 instructions: 42000000 cycles: 116144792 heartbeat IPC: 0.268392 cumulative IPC: 0.284376 (Simulation time: 0 hr 15 min 30 sec) 
Heartbeat CPU 0 instructions: 43000000 cycles: 119494578 heartbeat IPC: 0.298527 cumulative IPC: 0.284785 (Simulation time: 0 hr 15 min 52 sec) 
Heartbeat CPU 0 instructions: 44000000 cycles: 122728637 heartbeat IPC: 0.309209 cumulative IPC: 0.285448 (Simulation time: 0 hr 16 min 15 sec) 
Heartbeat CPU 0 instructions: 45000001 cycles: 126091209 heartbeat IPC: 0.297392 cumulative IPC: 0.285776 (Simulation time: 0 hr 16 min 37 sec) 
Heartbeat CPU 0 instructions: 46000003 cycles: 129262848 heartbeat IPC: 0.315295 cumulative IPC: 0.286521 (Simulation time: 0 hr 16 min 59 sec) 
Heartbeat CPU 0 instructions: 47000002 cycles: 132517301 heartbeat IPC: 0.307271 cumulative IPC: 0.287045 (Simulation time: 0 hr 17 min 21 sec) 
Heartbeat CPU 0 instructions: 48000000 cycles: 135786255 heartbeat IPC: 0.305908 cumulative IPC: 0.287511 (Simulation time: 0 hr 17 min 42 sec) 
Heartbeat CPU 0 instructions: 49000003 cycles: 139168184 heartbeat IPC: 0.29569 cumulative IPC: 0.287715 (Simulation time: 0 hr 18 min 3 sec) 
Heartbeat CPU 0 instructions: 50000000 cycles: 142434072 heartbeat IPC: 0.306195 cumulative IPC: 0.28815 (Simulation time: 0 hr 18 min 24 sec) 
Heartbeat CPU 0 instructions: 51000001 cycles: 146321858 heartbeat IPC: 0.257216 cumulative IPC: 0.287307 (Simulation time: 0 hr 18 min 45 sec) 
Heartbeat CPU 0 instructions: 52000000 cycles: 150386097 heartbeat IPC: 0.246048 cumulative IPC: 0.286165 (Simulation time: 0 hr 19 min 6 sec) 
Heartbeat CPU 0 instructions: 53000000 cycles: 153309237 heartbeat IPC: 0.342098 cumulative IPC: 0.287257 (Simulation time: 0 hr 19 min 29 sec) 
Heartbeat CPU 0 instructions: 54000002 cycles: 156268096 heartbeat IPC: 0.337969 cumulative IPC: 0.28824 (Simulation time: 0 hr 19 min 52 sec) 
Heartbeat CPU 0 instructions: 55000002 cycles: 159272488 heartbeat IPC: 0.332846 cumulative IPC: 0.289101 (Simulation time: 0 hr 20 min 18 sec) 
Heartbeat CPU 0 instructions: 56000000 cycles: 162283839 heartbeat IPC: 0.332076 cumulative IPC: 0.289917 (Simulation time: 0 hr 20 min 50 sec) 
Heartbeat CPU 0 instructions: 57000000 cycles: 165139002 heartbeat IPC: 0.350243 cumulative IPC: 0.290983 (Simulation time: 0 hr 21 min 12 sec) 
Heartbeat CPU 0 instructions: 58000001 cycles: 167924380 heartbeat IPC: 0.359018 cumulative IPC: 0.292136 (Simulation time: 0 hr 21 min 33 sec) 
Heartbeat CPU 0 instructions: 59000000 cycles: 170821636 heartbeat IPC: 0.345154 cumulative IPC: 0.293055 (Simulation time: 0 hr 21 min 56 sec) 
Heartbeat CPU 0 instructions: 60000000 cycles: 173595720 heartbeat IPC: 0.360479 cumulative IPC: 0.294155 (Simulation time: 0 hr 22 min 18 sec) 
Heartbeat CPU 0 instructions: 61000000 cycles: 176270882 heartbeat IPC: 0.373809 cumulative IPC: 0.29539 (Simulation time: 0 hr 22 min 40 sec) 
Heartbeat CPU 0 instructions: 62000003 cycles: 178912381 heartbeat IPC: 0.378574 cumulative IPC: 0.296643 (Simulation time: 0 hr 23 min 1 sec) 
Heartbeat CPU 0 instructions: 63000000 cycles: 181718305 heartbeat IPC: 0.356388 cumulative IPC: 0.297584 (Simulation time: 0 hr 23 min 22 sec) 
Heartbeat CPU 0 instructions: 64000000 cycles: 184429999 heartbeat IPC: 0.368773 cumulative IPC: 0.298652 (Simulation time: 0 hr 23 min 48 sec) 
Heartbeat CPU 0 instructions: 65000000 cycles: 187031739 heartbeat IPC: 0.384358 cumulative IPC: 0.299868 (Simulation time: 0 hr 24 min 9 sec) 
Heartbeat CPU 0 instructions: 66000000 cycles: 189670825 heartbeat IPC: 0.378919 cumulative IPC: 0.300989 (Simulation time: 0 hr 24 min 31 sec) 
Heartbeat CPU 0 instructions: 67000000 cycles: 192334966 heartbeat IPC: 0.375356 cumulative IPC: 0.302039 (Simulation time: 0 hr 24 min 55 sec) 
Heartbeat CPU 0 instructions: 68000000 cycles: 194914784 heartbeat IPC: 0.387624 cumulative IPC: 0.303193 (Simulation time: 0 hr 25 min 17 sec) 
Heartbeat CPU 0 instructions: 69000000 cycles: 197680885 heartbeat IPC: 0.36152 cumulative IPC: 0.304024 (Simulation time: 0 hr 25 min 39 sec) 
Heartbeat CPU 0 instructions: 70000000 cycles: 200499317 heartbeat IPC: 0.354807 cumulative IPC: 0.304751 (Simulation time: 0 hr 26 min 1 sec) 
Heartbeat CPU 0 instructions: 71000001 cycles: 203363228 heartbeat IPC: 0.349173 cumulative IPC: 0.305388 (Simulation time: 0 hr 26 min 23 sec) 
Heartbeat CPU 0 instructions: 72000000 cycles: 206305956 heartbeat IPC: 0.33982 cumulative IPC: 0.305888 (Simulation time: 0 hr 26 min 44 sec) 
Heartbeat CPU 0 instructions: 73000001 cycles: 209133376 heartbeat IPC: 0.35368 cumulative IPC: 0.306546 (Simulation time: 0 hr 27 min 6 sec) 
Heartbeat CPU 0 instructions: 74000002 cycles: 211684301 heartbeat IPC: 0.392015 cumulative IPC: 0.307594 (Simulation time: 0 hr 27 min 28 sec) 
Heartbeat CPU 0 instructions: 75000002 cycles: 214483842 heartbeat IPC: 0.357201 cumulative IPC: 0.308252 (Simulation time: 0 hr 27 min 52 sec) 
Heartbeat CPU 0 instructions: 76000000 cycles: 217244511 heartbeat IPC: 0.36223 cumulative IPC: 0.30895 (Simulation time: 0 hr 28 min 15 sec) 
Heartbeat CPU 0 instructions: 77000000 cycles: 220639426 heartbeat IPC: 0.294558 cumulative IPC: 0.308725 (Simulation time: 0 hr 28 min 35 sec) 
Heartbeat CPU 0 instructions: 78000003 cycles: 223938865 heartbeat IPC: 0.303083 cumulative IPC: 0.30864 (Simulation time: 0 hr 28 min 55 sec) 
Heartbeat CPU 0 instructions: 79000001 cycles: 226732134 heartbeat IPC: 0.358003 cumulative IPC: 0.309258 (Simulation time: 0 hr 29 min 16 sec) 
Heartbeat CPU 0 instructions: 80000000 cycles: 229665349 heartbeat IPC: 0.340923 cumulative IPC: 0.309669 (Simulation time: 0 hr 29 min 40 sec) 
Heartbeat CPU 0 instructions: 81000001 cycles: 232575708 heartbeat IPC: 0.343601 cumulative IPC: 0.3101 (Simulation time: 0 hr 30 min 3 sec) 
Heartbeat CPU 0 instructions: 82000002 cycles: 235471913 heartbeat IPC: 0.34528 cumulative IPC: 0.31054 (Simulation time: 0 hr 30 min 27 sec) 
Heartbeat CPU 0 instructions: 83000002 cycles: 238251910 heartbeat IPC: 0.359713 cumulative IPC: 0.311122 (Simulation time: 0 hr 30 min 49 sec) 
Heartbeat CPU 0 instructions: 84000000 cycles: 241083621 heartbeat IPC: 0.353143 cumulative IPC: 0.311623 (Simulation time: 0 hr 31 min 10 sec) 
Heartbeat CPU 0 instructions: 85000000 cycles: 243951446 heartbeat IPC: 0.348696 cumulative IPC: 0.312066 (Simulation time: 0 hr 31 min 34 sec) 
Heartbeat CPU 0 instructions: 86000001 cycles: 246710029 heartbeat IPC: 0.362505 cumulative IPC: 0.312638 (Simulation time: 0 hr 31 min 55 sec) 
Heartbeat CPU 0 instructions: 87000000 cycles: 249459033 heartbeat IPC: 0.363768 cumulative IPC: 0.31321 (Simulation time: 0 hr 32 min 15 sec) 
Heartbeat CPU 0 instructions: 88000000 cycles: 252336739 heartbeat IPC: 0.347499 cumulative IPC: 0.313607 (Simulation time: 0 hr 32 min 35 sec) 
Heartbeat CPU 0 instructions: 89000000 cycles: 255181408 heartbeat IPC: 0.351535 cumulative IPC: 0.314036 (Simulation time: 0 hr 32 min 57 sec) 
Heartbeat CPU 0 instructions: 90000001 cycles: 258023375 heartbeat IPC: 0.351869 cumulative IPC: 0.314458 (Simulation time: 0 hr 33 min 19 sec) 
Heartbeat CPU 0 instructions: 91000000 cycles: 260780694 heartbeat IPC: 0.362671 cumulative IPC: 0.314975 (Simulation time: 0 hr 33 min 41 sec) 
Heartbeat CPU 0 instructions: 92000000 cycles: 264000119 heartbeat IPC: 0.310614 cumulative IPC: 0.314921 (Simulation time: 0 hr 34 min 2 sec) 
Heartbeat CPU 0 instructions: 93000000 cycles: 266831825 heartbeat IPC: 0.353144 cumulative IPC: 0.315332 (Simulation time: 0 hr 34 min 24 sec) 
Heartbeat CPU 0 instructions: 94000003 cycles: 269633243 heartbeat IPC: 0.356963 cumulative IPC: 0.315771 (Simulation time: 0 hr 34 min 44 sec) 
Heartbeat CPU 0 instructions: 95000000 cycles: 272346204 heartbeat IPC: 0.3686 cumulative IPC: 0.316304 (Simulation time: 0 hr 35 min 10 sec) 
Heartbeat CPU 0 instructions: 96000000 cycles: 275116892 heartbeat IPC: 0.360921 cumulative IPC: 0.31676 (Simulation time: 0 hr 35 min 38 sec) 
Heartbeat CPU 0 instructions: 97000000 cycles: 277833504 heartbeat IPC: 0.368106 cumulative IPC: 0.317268 (Simulation time: 0 hr 36 min 8 sec) 
Heartbeat CPU 0 instructions: 98000000 cycles: 280633526 heartbeat IPC: 0.35714 cumulative IPC: 0.317671 (Simulation time: 0 hr 36 min 29 sec) 
Heartbeat CPU 0 instructions: 99000002 cycles: 283886014 heartbeat IPC: 0.307458 cumulative IPC: 0.317553 (Simulation time: 0 hr 36 min 49 sec) 
Heartbeat CPU 0 instructions: 100000000 cycles: 286875668 heartbeat IPC: 0.334486 cumulative IPC: 0.317731 (Simulation time: 0 hr 37 min 8 sec) 
Heartbeat CPU 0 instructions: 101000000 cycles: 290071056 heartbeat IPC: 0.312951 cumulative IPC: 0.317678 (Simulation time: 0 hr 37 min 31 sec) 
Heartbeat CPU 0 instructions: 102000001 cycles: 293785904 heartbeat IPC: 0.26919 cumulative IPC: 0.317057 (Simulation time: 0 hr 37 min 52 sec) 
Heartbeat CPU 0 instructions: 103000002 cycles: 297506889 heartbeat IPC: 0.268746 cumulative IPC: 0.316446 (Simulation time: 0 hr 38 min 19 sec) 
Heartbeat CPU 0 instructions: 104000000 cycles: 300834457 heartbeat IPC: 0.300519 cumulative IPC: 0.316267 (Simulation time: 0 hr 38 min 46 sec) 
Heartbeat CPU 0 instructions: 105000001 cycles: 303880670 heartbeat IPC: 0.328277 cumulative IPC: 0.316389 (Simulation time: 0 hr 39 min 13 sec) 
Heartbeat CPU 0 instructions: 106000001 cycles: 306740335 heartbeat IPC: 0.349691 cumulative IPC: 0.316703 (Simulation time: 0 hr 39 min 34 sec) 
Heartbeat CPU 0 instructions: 107000002 cycles: 309809742 heartbeat IPC: 0.325796 cumulative IPC: 0.316795 (Simulation time: 0 hr 39 min 54 sec) 
Heartbeat CPU 0 instructions: 108000000 cycles: 313014574 heartbeat IPC: 0.312028 cumulative IPC: 0.316745 (Simulation time: 0 hr 40 min 17 sec) 
Heartbeat CPU 0 instructions: 109000003 cycles: 316344515 heartbeat IPC: 0.300307 cumulative IPC: 0.31657 (Simulation time: 0 hr 40 min 34 sec) 
Heartbeat CPU 0 instructions: 110000003 cycles: 319562389 heartbeat IPC: 0.310764 cumulative IPC: 0.316511 (Simulation time: 0 hr 40 min 56 sec) 
Finished CPU 0 instructions: 100000000 cycles: 315944818 cummulative IPC: 0.316511 (Simulation time: 0 hr 40 min 56 sec) 

ChampSim completed all CPUs

Region of Interest Statistics

CPU 0 cummulative IPC: 0.316511 instructions: 100000000 cycles: 315944818
LLC TOTAL     ACCESS:    2825481  HIT:    2583118  MISS:     242363
LLC LOAD      ACCESS:    2094627  HIT:    1859958  MISS:     234669
LLC RFO       ACCESS:      16394  HIT:      16020  MISS:        374
LLC PREFETCH  ACCESS:          0  HIT:          0  MISS:          0
LLC WRITEBACK ACCESS:     714460  HIT:     707140  MISS:       7320
Insertion Distribution: 
	LOAD 165756 0 86942 7905 
	RFO 1 0 414 13 
	PREF 0 0 0 0 
	WRITEBACK 0 0 0 7787 
Total Prefetch Downgrades: 0
