
*** ChampSim Multicore Out-of-Order Simulator ***

Warmup Instructions: 10000000
Simulation Instructions: 100000000
Configuration: 1
Number of CPUs: 1
LLC sets: 2048
LLC ways: 16
Off-chip DRAM Channels: 1 Width: 64-bit Data Rate: 1600 MT/s

CPU 0 runs /datasets/cs240c-wi22-a00-public/data/Assignment2-gz/zeusmp_600B.trace.gz
Initialize SRRIP state
Heartbeat CPU 0 instructions: 1000000 cycles: 407507 heartbeat IPC: 2.45395 cumulative IPC: 2.45395 (Simulation time: 0 hr 0 min 19 sec) 
Heartbeat CPU 0 instructions: 2000001 cycles: 814374 heartbeat IPC: 2.45781 cumulative IPC: 2.45588 (Simulation time: 0 hr 0 min 38 sec) 
Heartbeat CPU 0 instructions: 3000003 cycles: 1221893 heartbeat IPC: 2.45388 cumulative IPC: 2.45521 (Simulation time: 0 hr 0 min 55 sec) 
Heartbeat CPU 0 instructions: 4000000 cycles: 1629601 heartbeat IPC: 2.45273 cumulative IPC: 2.45459 (Simulation time: 0 hr 1 min 12 sec) 
Heartbeat CPU 0 instructions: 5000001 cycles: 2037319 heartbeat IPC: 2.45268 cumulative IPC: 2.45421 (Simulation time: 0 hr 1 min 30 sec) 
Heartbeat CPU 0 instructions: 6000000 cycles: 2444583 heartbeat IPC: 2.45541 cumulative IPC: 2.45441 (Simulation time: 0 hr 1 min 50 sec) 
Heartbeat CPU 0 instructions: 7000000 cycles: 2852187 heartbeat IPC: 2.45336 cumulative IPC: 2.45426 (Simulation time: 0 hr 2 min 10 sec) 
Heartbeat CPU 0 instructions: 8000000 cycles: 3259757 heartbeat IPC: 2.45357 cumulative IPC: 2.45417 (Simulation time: 0 hr 2 min 29 sec) 
Heartbeat CPU 0 instructions: 9000003 cycles: 3666904 heartbeat IPC: 2.45612 cumulative IPC: 2.45439 (Simulation time: 0 hr 2 min 47 sec) 
Heartbeat CPU 0 instructions: 10000001 cycles: 4074512 heartbeat IPC: 2.45333 cumulative IPC: 2.45428 (Simulation time: 0 hr 3 min 5 sec) 

Warmup complete CPU 0 instructions: 10000001 cycles: 4074512 (Simulation time: 0 hr 3 min 5 sec) 

Heartbeat CPU 0 instructions: 11000000 cycles: 4947355 heartbeat IPC: 1.14568 cumulative IPC: 1.14568 (Simulation time: 0 hr 3 min 30 sec) 
Heartbeat CPU 0 instructions: 12000000 cycles: 5815661 heartbeat IPC: 1.15167 cumulative IPC: 1.14867 (Simulation time: 0 hr 3 min 54 sec) 
Heartbeat CPU 0 instructions: 13000001 cycles: 6689255 heartbeat IPC: 1.1447 cumulative IPC: 1.14734 (Simulation time: 0 hr 4 min 18 sec) 
Heartbeat CPU 0 instructions: 14000001 cycles: 7565178 heartbeat IPC: 1.14165 cumulative IPC: 1.14591 (Simulation time: 0 hr 4 min 41 sec) 
Heartbeat CPU 0 instructions: 15000003 cycles: 8439203 heartbeat IPC: 1.14413 cumulative IPC: 1.14556 (Simulation time: 0 hr 5 min 5 sec) 
Heartbeat CPU 0 instructions: 16000000 cycles: 9375309 heartbeat IPC: 1.06825 cumulative IPC: 1.13191 (Simulation time: 0 hr 5 min 26 sec) 
Heartbeat CPU 0 instructions: 17000001 cycles: 10366193 heartbeat IPC: 1.0092 cumulative IPC: 1.11258 (Simulation time: 0 hr 5 min 47 sec) 
Heartbeat CPU 0 instructions: 18000003 cycles: 11350085 heartbeat IPC: 1.01637 cumulative IPC: 1.09957 (Simulation time: 0 hr 6 min 9 sec) 
Heartbeat CPU 0 instructions: 19000000 cycles: 12320769 heartbeat IPC: 1.0302 cumulative IPC: 1.0914 (Simulation time: 0 hr 6 min 35 sec) 
Heartbeat CPU 0 instructions: 20000000 cycles: 13284948 heartbeat IPC: 1.03715 cumulative IPC: 1.08572 (Simulation time: 0 hr 6 min 58 sec) 
Heartbeat CPU 0 instructions: 21000002 cycles: 14257354 heartbeat IPC: 1.02838 cumulative IPC: 1.08025 (Simulation time: 0 hr 7 min 18 sec) 
Heartbeat CPU 0 instructions: 22000000 cycles: 15221850 heartbeat IPC: 1.03681 cumulative IPC: 1.07649 (Simulation time: 0 hr 7 min 39 sec) 
Heartbeat CPU 0 instructions: 23000000 cycles: 16198295 heartbeat IPC: 1.02412 cumulative IPC: 1.07227 (Simulation time: 0 hr 8 min 2 sec) 
Heartbeat CPU 0 instructions: 24000000 cycles: 17177302 heartbeat IPC: 1.02144 cumulative IPC: 1.06847 (Simulation time: 0 hr 8 min 24 sec) 
Heartbeat CPU 0 instructions: 25000000 cycles: 18137756 heartbeat IPC: 1.04117 cumulative IPC: 1.06661 (Simulation time: 0 hr 8 min 47 sec) 
Heartbeat CPU 0 instructions: 26000000 cycles: 19101039 heartbeat IPC: 1.03812 cumulative IPC: 1.06478 (Simulation time: 0 hr 9 min 6 sec) 
Heartbeat CPU 0 instructions: 27000003 cycles: 20075458 heartbeat IPC: 1.02626 cumulative IPC: 1.06244 (Simulation time: 0 hr 9 min 27 sec) 
Heartbeat CPU 0 instructions: 28000000 cycles: 21066290 heartbeat IPC: 1.00925 cumulative IPC: 1.05934 (Simulation time: 0 hr 9 min 50 sec) 
Heartbeat CPU 0 instructions: 29000000 cycles: 22031954 heartbeat IPC: 1.03556 cumulative IPC: 1.05806 (Simulation time: 0 hr 10 min 11 sec) 
Heartbeat CPU 0 instructions: 30000003 cycles: 23014148 heartbeat IPC: 1.01813 cumulative IPC: 1.05599 (Simulation time: 0 hr 10 min 33 sec) 
Heartbeat CPU 0 instructions: 31000002 cycles: 24013820 heartbeat IPC: 1.00033 cumulative IPC: 1.0532 (Simulation time: 0 hr 10 min 55 sec) 
Heartbeat CPU 0 instructions: 32000000 cycles: 24985096 heartbeat IPC: 1.02957 cumulative IPC: 1.0521 (Simulation time: 0 hr 11 min 18 sec) 
Heartbeat CPU 0 instructions: 33000001 cycles: 25972678 heartbeat IPC: 1.01258 cumulative IPC: 1.05032 (Simulation time: 0 hr 11 min 39 sec) 
Heartbeat CPU 0 instructions: 34000000 cycles: 26956274 heartbeat IPC: 1.01668 cumulative IPC: 1.04887 (Simulation time: 0 hr 11 min 59 sec) 
Heartbeat CPU 0 instructions: 35000003 cycles: 27933157 heartbeat IPC: 1.02367 cumulative IPC: 1.04784 (Simulation time: 0 hr 12 min 22 sec) 
Heartbeat CPU 0 instructions: 36000000 cycles: 28907495 heartbeat IPC: 1.02633 cumulative IPC: 1.04699 (Simulation time: 0 hr 12 min 44 sec) 
Heartbeat CPU 0 instructions: 37000001 cycles: 29895384 heartbeat IPC: 1.01226 cumulative IPC: 1.04567 (Simulation time: 0 hr 13 min 8 sec) 
Heartbeat CPU 0 instructions: 38000000 cycles: 30893063 heartbeat IPC: 1.00233 cumulative IPC: 1.04405 (Simulation time: 0 hr 13 min 32 sec) 
Heartbeat CPU 0 instructions: 39000002 cycles: 31865743 heartbeat IPC: 1.02809 cumulative IPC: 1.04349 (Simulation time: 0 hr 14 min 0 sec) 
Heartbeat CPU 0 instructions: 40000000 cycles: 32846211 heartbeat IPC: 1.01992 cumulative IPC: 1.04269 (Simulation time: 0 hr 14 min 25 sec) 
Heartbeat CPU 0 instructions: 41000000 cycles: 33826395 heartbeat IPC: 1.02022 cumulative IPC: 1.04195 (Simulation time: 0 hr 14 min 46 sec) 
Heartbeat CPU 0 instructions: 42000000 cycles: 34798721 heartbeat IPC: 1.02846 cumulative IPC: 1.04152 (Simulation time: 0 hr 15 min 9 sec) 
Heartbeat CPU 0 instructions: 43000002 cycles: 35789254 heartbeat IPC: 1.00956 cumulative IPC: 1.04053 (Simulation time: 0 hr 15 min 32 sec) 
Heartbeat CPU 0 instructions: 44000000 cycles: 36766410 heartbeat IPC: 1.02338 cumulative IPC: 1.04001 (Simulation time: 0 hr 15 min 53 sec) 
Heartbeat CPU 0 instructions: 45000000 cycles: 37738703 heartbeat IPC: 1.0285 cumulative IPC: 1.03968 (Simulation time: 0 hr 16 min 14 sec) 
Heartbeat CPU 0 instructions: 46000000 cycles: 38709167 heartbeat IPC: 1.03043 cumulative IPC: 1.03942 (Simulation time: 0 hr 16 min 37 sec) 
Heartbeat CPU 0 instructions: 47000003 cycles: 39700740 heartbeat IPC: 1.0085 cumulative IPC: 1.03856 (Simulation time: 0 hr 17 min 4 sec) 
Heartbeat CPU 0 instructions: 48000000 cycles: 40682617 heartbeat IPC: 1.01845 cumulative IPC: 1.03802 (Simulation time: 0 hr 17 min 31 sec) 
Heartbeat CPU 0 instructions: 49000000 cycles: 41662615 heartbeat IPC: 1.02041 cumulative IPC: 1.03756 (Simulation time: 0 hr 17 min 54 sec) 
Heartbeat CPU 0 instructions: 50000001 cycles: 42638408 heartbeat IPC: 1.02481 cumulative IPC: 1.03724 (Simulation time: 0 hr 18 min 15 sec) 
Heartbeat CPU 0 instructions: 51000001 cycles: 43626007 heartbeat IPC: 1.01256 cumulative IPC: 1.03662 (Simulation time: 0 hr 18 min 36 sec) 
Heartbeat CPU 0 instructions: 52000000 cycles: 44578246 heartbeat IPC: 1.05016 cumulative IPC: 1.03694 (Simulation time: 0 hr 18 min 59 sec) 
Heartbeat CPU 0 instructions: 53000000 cycles: 45567401 heartbeat IPC: 1.01096 cumulative IPC: 1.03632 (Simulation time: 0 hr 19 min 24 sec) 
Heartbeat CPU 0 instructions: 54000000 cycles: 46554039 heartbeat IPC: 1.01354 cumulative IPC: 1.03579 (Simulation time: 0 hr 19 min 54 sec) 
Heartbeat CPU 0 instructions: 55000001 cycles: 47523330 heartbeat IPC: 1.03168 cumulative IPC: 1.0357 (Simulation time: 0 hr 20 min 15 sec) 
Heartbeat CPU 0 instructions: 56000000 cycles: 48495171 heartbeat IPC: 1.02897 cumulative IPC: 1.03555 (Simulation time: 0 hr 20 min 38 sec) 
Heartbeat CPU 0 instructions: 57000003 cycles: 49493039 heartbeat IPC: 1.00214 cumulative IPC: 1.03482 (Simulation time: 0 hr 21 min 0 sec) 
Heartbeat CPU 0 instructions: 58000001 cycles: 50460625 heartbeat IPC: 1.0335 cumulative IPC: 1.03479 (Simulation time: 0 hr 21 min 23 sec) 
Heartbeat CPU 0 instructions: 59000000 cycles: 51433846 heartbeat IPC: 1.02751 cumulative IPC: 1.03464 (Simulation time: 0 hr 21 min 46 sec) 
Heartbeat CPU 0 instructions: 60000000 cycles: 52411388 heartbeat IPC: 1.02297 cumulative IPC: 1.03441 (Simulation time: 0 hr 22 min 7 sec) 
Heartbeat CPU 0 instructions: 61000003 cycles: 53393565 heartbeat IPC: 1.01815 cumulative IPC: 1.03408 (Simulation time: 0 hr 22 min 28 sec) 
Heartbeat CPU 0 instructions: 62000001 cycles: 54366542 heartbeat IPC: 1.02777 cumulative IPC: 1.03396 (Simulation time: 0 hr 22 min 49 sec) 
Heartbeat CPU 0 instructions: 63000000 cycles: 55338188 heartbeat IPC: 1.02918 cumulative IPC: 1.03387 (Simulation time: 0 hr 23 min 10 sec) 
Heartbeat CPU 0 instructions: 64000000 cycles: 56317265 heartbeat IPC: 1.02137 cumulative IPC: 1.03364 (Simulation time: 0 hr 23 min 32 sec) 
Heartbeat CPU 0 instructions: 65000001 cycles: 57308648 heartbeat IPC: 1.00869 cumulative IPC: 1.03317 (Simulation time: 0 hr 23 min 55 sec) 
Heartbeat CPU 0 instructions: 66000000 cycles: 58302384 heartbeat IPC: 1.0063 cumulative IPC: 1.03268 (Simulation time: 0 hr 24 min 17 sec) 
Heartbeat CPU 0 instructions: 67000001 cycles: 59299620 heartbeat IPC: 1.00277 cumulative IPC: 1.03214 (Simulation time: 0 hr 24 min 39 sec) 
Heartbeat CPU 0 instructions: 68000000 cycles: 60275971 heartbeat IPC: 1.02422 cumulative IPC: 1.032 (Simulation time: 0 hr 25 min 3 sec) 
Heartbeat CPU 0 instructions: 69000002 cycles: 61269476 heartbeat IPC: 1.00654 cumulative IPC: 1.03156 (Simulation time: 0 hr 25 min 26 sec) 
Heartbeat CPU 0 instructions: 70000000 cycles: 62249785 heartbeat IPC: 1.02008 cumulative IPC: 1.03137 (Simulation time: 0 hr 25 min 47 sec) 
Heartbeat CPU 0 instructions: 71000001 cycles: 63244280 heartbeat IPC: 1.00554 cumulative IPC: 1.03093 (Simulation time: 0 hr 26 min 7 sec) 
Heartbeat CPU 0 instructions: 72000000 cycles: 64222299 heartbeat IPC: 1.02247 cumulative IPC: 1.03079 (Simulation time: 0 hr 26 min 30 sec) 
Heartbeat CPU 0 instructions: 73000003 cycles: 65193042 heartbeat IPC: 1.03014 cumulative IPC: 1.03078 (Simulation time: 0 hr 26 min 53 sec) 
Heartbeat CPU 0 instructions: 74000002 cycles: 66175426 heartbeat IPC: 1.01793 cumulative IPC: 1.03058 (Simulation time: 0 hr 27 min 13 sec) 
Heartbeat CPU 0 instructions: 75000003 cycles: 67158636 heartbeat IPC: 1.01708 cumulative IPC: 1.03037 (Simulation time: 0 hr 27 min 35 sec) 
Heartbeat CPU 0 instructions: 76000000 cycles: 68156040 heartbeat IPC: 1.0026 cumulative IPC: 1.02994 (Simulation time: 0 hr 27 min 56 sec) 
Heartbeat CPU 0 instructions: 77000000 cycles: 69131332 heartbeat IPC: 1.02533 cumulative IPC: 1.02987 (Simulation time: 0 hr 28 min 18 sec) 
Heartbeat CPU 0 instructions: 78000003 cycles: 70107862 heartbeat IPC: 1.02404 cumulative IPC: 1.02978 (Simulation time: 0 hr 28 min 39 sec) 
Heartbeat CPU 0 instructions: 79000000 cycles: 71091495 heartbeat IPC: 1.01664 cumulative IPC: 1.02959 (Simulation time: 0 hr 29 min 2 sec) 
Heartbeat CPU 0 instructions: 80000000 cycles: 72082149 heartbeat IPC: 1.00943 cumulative IPC: 1.0293 (Simulation time: 0 hr 29 min 24 sec) 
Heartbeat CPU 0 instructions: 81000002 cycles: 73057635 heartbeat IPC: 1.02513 cumulative IPC: 1.02924 (Simulation time: 0 hr 29 min 46 sec) 
Heartbeat CPU 0 instructions: 82000002 cycles: 74034636 heartbeat IPC: 1.02354 cumulative IPC: 1.02916 (Simulation time: 0 hr 30 min 10 sec) 
Heartbeat CPU 0 instructions: 83000001 cycles: 75008691 heartbeat IPC: 1.02664 cumulative IPC: 1.02912 (Simulation time: 0 hr 30 min 39 sec) 
Heartbeat CPU 0 instructions: 84000000 cycles: 76000620 heartbeat IPC: 1.00814 cumulative IPC: 1.02883 (Simulation time: 0 hr 31 min 4 sec) 
Heartbeat CPU 0 instructions: 85000000 cycles: 76977218 heartbeat IPC: 1.02396 cumulative IPC: 1.02877 (Simulation time: 0 hr 31 min 26 sec) 
Heartbeat CPU 0 instructions: 86000002 cycles: 77949446 heartbeat IPC: 1.02857 cumulative IPC: 1.02877 (Simulation time: 0 hr 31 min 47 sec) 
Heartbeat CPU 0 instructions: 87000000 cycles: 78937304 heartbeat IPC: 1.01229 cumulative IPC: 1.02855 (Simulation time: 0 hr 32 min 11 sec) 
Heartbeat CPU 0 instructions: 88000000 cycles: 79924978 heartbeat IPC: 1.01248 cumulative IPC: 1.02834 (Simulation time: 0 hr 32 min 33 sec) 
Heartbeat CPU 0 instructions: 89000002 cycles: 80902129 heartbeat IPC: 1.02339 cumulative IPC: 1.02828 (Simulation time: 0 hr 32 min 54 sec) 
Heartbeat CPU 0 instructions: 90000002 cycles: 81878023 heartbeat IPC: 1.0247 cumulative IPC: 1.02823 (Simulation time: 0 hr 33 min 15 sec) 
Heartbeat CPU 0 instructions: 91000001 cycles: 82857992 heartbeat IPC: 1.02044 cumulative IPC: 1.02813 (Simulation time: 0 hr 33 min 36 sec) 
Heartbeat CPU 0 instructions: 92000000 cycles: 83850256 heartbeat IPC: 1.0078 cumulative IPC: 1.02788 (Simulation time: 0 hr 33 min 56 sec) 
Heartbeat CPU 0 instructions: 93000000 cycles: 84820216 heartbeat IPC: 1.03097 cumulative IPC: 1.02792 (Simulation time: 0 hr 34 min 18 sec) 
Heartbeat CPU 0 instructions: 94000002 cycles: 85800000 heartbeat IPC: 1.02064 cumulative IPC: 1.02783 (Simulation time: 0 hr 34 min 44 sec) 
Heartbeat CPU 0 instructions: 95000001 cycles: 86776275 heartbeat IPC: 1.0243 cumulative IPC: 1.02779 (Simulation time: 0 hr 35 min 10 sec) 
Heartbeat CPU 0 instructions: 96000000 cycles: 87755274 heartbeat IPC: 1.02145 cumulative IPC: 1.02772 (Simulation time: 0 hr 35 min 32 sec) 
Heartbeat CPU 0 instructions: 97000003 cycles: 88721652 heartbeat IPC: 1.03479 cumulative IPC: 1.0278 (Simulation time: 0 hr 35 min 53 sec) 
Heartbeat CPU 0 instructions: 98000002 cycles: 89688414 heartbeat IPC: 1.03438 cumulative IPC: 1.02787 (Simulation time: 0 hr 36 min 13 sec) 
Heartbeat CPU 0 instructions: 99000000 cycles: 90683463 heartbeat IPC: 1.00497 cumulative IPC: 1.02761 (Simulation time: 0 hr 36 min 35 sec) 
Heartbeat CPU 0 instructions: 100000000 cycles: 91662483 heartbeat IPC: 1.02143 cumulative IPC: 1.02754 (Simulation time: 0 hr 36 min 54 sec) 
Heartbeat CPU 0 instructions: 101000002 cycles: 92624661 heartbeat IPC: 1.03931 cumulative IPC: 1.02767 (Simulation time: 0 hr 37 min 17 sec) 
Heartbeat CPU 0 instructions: 102000002 cycles: 93616396 heartbeat IPC: 1.00833 cumulative IPC: 1.02745 (Simulation time: 0 hr 37 min 38 sec) 
Heartbeat CPU 0 instructions: 103000001 cycles: 94600035 heartbeat IPC: 1.01663 cumulative IPC: 1.02733 (Simulation time: 0 hr 37 min 56 sec) 
Heartbeat CPU 0 instructions: 104000000 cycles: 95588289 heartbeat IPC: 1.01188 cumulative IPC: 1.02717 (Simulation time: 0 hr 38 min 18 sec) 
Heartbeat CPU 0 instructions: 105000001 cycles: 96565693 heartbeat IPC: 1.02312 cumulative IPC: 1.02713 (Simulation time: 0 hr 38 min 39 sec) 
Heartbeat CPU 0 instructions: 106000000 cycles: 97548243 heartbeat IPC: 1.01776 cumulative IPC: 1.02703 (Simulation time: 0 hr 38 min 59 sec) 
Heartbeat CPU 0 instructions: 107000000 cycles: 98533072 heartbeat IPC: 1.0154 cumulative IPC: 1.02691 (Simulation time: 0 hr 39 min 18 sec) 
Heartbeat CPU 0 instructions: 108000000 cycles: 99508669 heartbeat IPC: 1.02501 cumulative IPC: 1.02689 (Simulation time: 0 hr 39 min 37 sec) 
Heartbeat CPU 0 instructions: 109000000 cycles: 100501185 heartbeat IPC: 1.00754 cumulative IPC: 1.02669 (Simulation time: 0 hr 39 min 56 sec) 
Heartbeat CPU 0 instructions: 110000002 cycles: 101496006 heartbeat IPC: 1.00521 cumulative IPC: 1.02647 (Simulation time: 0 hr 40 min 15 sec) 
Finished CPU 0 instructions: 100000001 cycles: 97421494 cummulative IPC: 1.02647 (Simulation time: 0 hr 40 min 15 sec) 

ChampSim completed all CPUs

Region of Interest Statistics

CPU 0 cummulative IPC: 1.02647 instructions: 100000001 cycles: 97421494
LLC TOTAL     ACCESS:     381990  HIT:      15290  MISS:     366700
LLC LOAD      ACCESS:     315489  HIT:       5749  MISS:     309740
LLC RFO       ACCESS:       3447  HIT:          1  MISS:       3446
LLC PREFETCH  ACCESS:          0  HIT:          0  MISS:          0
LLC WRITEBACK ACCESS:      63054  HIT:       9540  MISS:      53514
Insertion Distribution: 
	LOAD 7941 0 34716 293469 
	RFO 0 0 5087 4355 
	PREF 0 0 0 0 
	WRITEBACK 0 0 0 54113 
Total Prefetch Downgrades: 0
