
*** ChampSim Multicore Out-of-Order Simulator ***

Warmup Instructions: 10000000
Simulation Instructions: 100000000
Configuration: 1
Number of CPUs: 1
LLC sets: 2048
LLC ways: 16
Off-chip DRAM Channels: 1 Width: 64-bit Data Rate: 1600 MT/s

CPU 0 runs /datasets/cs240c-wi22-a00-public/data/Assignment2-gz/GemsFDTD_109B.trace.gz
Initialize SRRIP state
Heartbeat CPU 0 instructions: 1000002 cycles: 577063 heartbeat IPC: 1.73292 cumulative IPC: 1.73292 (Simulation time: 0 hr 0 min 26 sec) 
Heartbeat CPU 0 instructions: 2000003 cycles: 1154104 heartbeat IPC: 1.73298 cumulative IPC: 1.73295 (Simulation time: 0 hr 0 min 53 sec) 
Heartbeat CPU 0 instructions: 3000000 cycles: 1730453 heartbeat IPC: 1.73505 cumulative IPC: 1.73365 (Simulation time: 0 hr 1 min 19 sec) 
Heartbeat CPU 0 instructions: 4000000 cycles: 2306749 heartbeat IPC: 1.73522 cumulative IPC: 1.73404 (Simulation time: 0 hr 1 min 46 sec) 
Heartbeat CPU 0 instructions: 5000000 cycles: 2883704 heartbeat IPC: 1.73324 cumulative IPC: 1.73388 (Simulation time: 0 hr 2 min 13 sec) 
Heartbeat CPU 0 instructions: 6000002 cycles: 3460346 heartbeat IPC: 1.73418 cumulative IPC: 1.73393 (Simulation time: 0 hr 2 min 40 sec) 
Heartbeat CPU 0 instructions: 7000001 cycles: 4037001 heartbeat IPC: 1.73414 cumulative IPC: 1.73396 (Simulation time: 0 hr 3 min 7 sec) 
Heartbeat CPU 0 instructions: 8000000 cycles: 4613044 heartbeat IPC: 1.73598 cumulative IPC: 1.73421 (Simulation time: 0 hr 3 min 33 sec) 
Heartbeat CPU 0 instructions: 9000002 cycles: 5189084 heartbeat IPC: 1.73599 cumulative IPC: 1.73441 (Simulation time: 0 hr 3 min 58 sec) 
Heartbeat CPU 0 instructions: 10000001 cycles: 5765326 heartbeat IPC: 1.73538 cumulative IPC: 1.73451 (Simulation time: 0 hr 4 min 23 sec) 

Warmup complete CPU 0 instructions: 10000001 cycles: 5765326 (Simulation time: 0 hr 4 min 23 sec) 

Heartbeat CPU 0 instructions: 11000001 cycles: 8268533 heartbeat IPC: 0.399488 cumulative IPC: 0.399488 (Simulation time: 0 hr 4 min 56 sec) 
Heartbeat CPU 0 instructions: 12000000 cycles: 10748764 heartbeat IPC: 0.403188 cumulative IPC: 0.401329 (Simulation time: 0 hr 5 min 31 sec) 
Heartbeat CPU 0 instructions: 13000001 cycles: 13330334 heartbeat IPC: 0.387362 cumulative IPC: 0.396563 (Simulation time: 0 hr 6 min 8 sec) 
Heartbeat CPU 0 instructions: 14000001 cycles: 15831456 heartbeat IPC: 0.399821 cumulative IPC: 0.397372 (Simulation time: 0 hr 6 min 44 sec) 
Heartbeat CPU 0 instructions: 15000000 cycles: 18337181 heartbeat IPC: 0.399086 cumulative IPC: 0.397714 (Simulation time: 0 hr 7 min 21 sec) 
Heartbeat CPU 0 instructions: 16000000 cycles: 20862232 heartbeat IPC: 0.396032 cumulative IPC: 0.397432 (Simulation time: 0 hr 7 min 59 sec) 
Heartbeat CPU 0 instructions: 17000000 cycles: 23420045 heartbeat IPC: 0.390959 cumulative IPC: 0.396495 (Simulation time: 0 hr 8 min 35 sec) 
Heartbeat CPU 0 instructions: 18000001 cycles: 25925857 heartbeat IPC: 0.399073 cumulative IPC: 0.396815 (Simulation time: 0 hr 9 min 9 sec) 
Heartbeat CPU 0 instructions: 19000001 cycles: 28449866 heartbeat IPC: 0.396195 cumulative IPC: 0.396746 (Simulation time: 0 hr 9 min 48 sec) 
Heartbeat CPU 0 instructions: 20000000 cycles: 30433251 heartbeat IPC: 0.504188 cumulative IPC: 0.405385 (Simulation time: 0 hr 10 min 20 sec) 
Heartbeat CPU 0 instructions: 21000001 cycles: 31835906 heartbeat IPC: 0.712934 cumulative IPC: 0.421932 (Simulation time: 0 hr 10 min 52 sec) 
Heartbeat CPU 0 instructions: 22000001 cycles: 35436465 heartbeat IPC: 0.277735 cumulative IPC: 0.404433 (Simulation time: 0 hr 11 min 24 sec) 
Heartbeat CPU 0 instructions: 23000001 cycles: 36793739 heartbeat IPC: 0.736771 cumulative IPC: 0.418971 (Simulation time: 0 hr 11 min 56 sec) 
Heartbeat CPU 0 instructions: 24000000 cycles: 40327491 heartbeat IPC: 0.282985 cumulative IPC: 0.405067 (Simulation time: 0 hr 12 min 26 sec) 
Heartbeat CPU 0 instructions: 25000003 cycles: 41606624 heartbeat IPC: 0.781782 cumulative IPC: 0.418512 (Simulation time: 0 hr 12 min 56 sec) 
Heartbeat CPU 0 instructions: 26000000 cycles: 45041684 heartbeat IPC: 0.291115 cumulative IPC: 0.40737 (Simulation time: 0 hr 13 min 31 sec) 
Heartbeat CPU 0 instructions: 27000000 cycles: 46295863 heartbeat IPC: 0.797334 cumulative IPC: 0.419437 (Simulation time: 0 hr 14 min 3 sec) 
Heartbeat CPU 0 instructions: 28000000 cycles: 49755582 heartbeat IPC: 0.289041 cumulative IPC: 0.409182 (Simulation time: 0 hr 14 min 36 sec) 
Heartbeat CPU 0 instructions: 29000000 cycles: 51012672 heartbeat IPC: 0.795488 cumulative IPC: 0.419914 (Simulation time: 0 hr 15 min 14 sec) 
Heartbeat CPU 0 instructions: 30000003 cycles: 52563076 heartbeat IPC: 0.644995 cumulative IPC: 0.427371 (Simulation time: 0 hr 15 min 40 sec) 
Heartbeat CPU 0 instructions: 31000002 cycles: 53778178 heartbeat IPC: 0.822975 cumulative IPC: 0.437383 (Simulation time: 0 hr 16 min 16 sec) 
Heartbeat CPU 0 instructions: 32000000 cycles: 55240827 heartbeat IPC: 0.68369 cumulative IPC: 0.444665 (Simulation time: 0 hr 16 min 43 sec) 
Heartbeat CPU 0 instructions: 33000003 cycles: 56459549 heartbeat IPC: 0.820534 cumulative IPC: 0.453701 (Simulation time: 0 hr 17 min 10 sec) 
Heartbeat CPU 0 instructions: 34000002 cycles: 57928076 heartbeat IPC: 0.680954 cumulative IPC: 0.460098 (Simulation time: 0 hr 17 min 35 sec) 
Heartbeat CPU 0 instructions: 35000003 cycles: 59204078 heartbeat IPC: 0.783699 cumulative IPC: 0.467825 (Simulation time: 0 hr 18 min 2 sec) 
Heartbeat CPU 0 instructions: 36000000 cycles: 60741838 heartbeat IPC: 0.650295 cumulative IPC: 0.472929 (Simulation time: 0 hr 18 min 32 sec) 
Heartbeat CPU 0 instructions: 37000000 cycles: 62089913 heartbeat IPC: 0.741799 cumulative IPC: 0.479364 (Simulation time: 0 hr 19 min 10 sec) 
Heartbeat CPU 0 instructions: 38000001 cycles: 63437915 heartbeat IPC: 0.741839 cumulative IPC: 0.485499 (Simulation time: 0 hr 19 min 41 sec) 
Heartbeat CPU 0 instructions: 39000000 cycles: 64785810 heartbeat IPC: 0.741897 cumulative IPC: 0.491355 (Simulation time: 0 hr 20 min 20 sec) 
Heartbeat CPU 0 instructions: 40000000 cycles: 66133825 heartbeat IPC: 0.741831 cumulative IPC: 0.496948 (Simulation time: 0 hr 20 min 53 sec) 
Heartbeat CPU 0 instructions: 41000000 cycles: 67559911 heartbeat IPC: 0.70122 cumulative IPC: 0.501662 (Simulation time: 0 hr 21 min 19 sec) 
Heartbeat CPU 0 instructions: 42000000 cycles: 68908475 heartbeat IPC: 0.74153 cumulative IPC: 0.506785 (Simulation time: 0 hr 21 min 48 sec) 
Heartbeat CPU 0 instructions: 43000002 cycles: 70257173 heartbeat IPC: 0.741457 cumulative IPC: 0.511693 (Simulation time: 0 hr 22 min 19 sec) 
Heartbeat CPU 0 instructions: 44000000 cycles: 71605695 heartbeat IPC: 0.741551 cumulative IPC: 0.516401 (Simulation time: 0 hr 22 min 49 sec) 
Heartbeat CPU 0 instructions: 45000001 cycles: 72954058 heartbeat IPC: 0.741641 cumulative IPC: 0.520921 (Simulation time: 0 hr 23 min 18 sec) 
Heartbeat CPU 0 instructions: 46000002 cycles: 74502563 heartbeat IPC: 0.645785 cumulative IPC: 0.523734 (Simulation time: 0 hr 23 min 45 sec) 
Heartbeat CPU 0 instructions: 47000001 cycles: 75934260 heartbeat IPC: 0.698471 cumulative IPC: 0.527299 (Simulation time: 0 hr 24 min 7 sec) 
Heartbeat CPU 0 instructions: 48000000 cycles: 77496164 heartbeat IPC: 0.640244 cumulative IPC: 0.529758 (Simulation time: 0 hr 24 min 29 sec) 
Heartbeat CPU 0 instructions: 49000003 cycles: 87328703 heartbeat IPC: 0.101703 cumulative IPC: 0.478156 (Simulation time: 0 hr 25 min 13 sec) 
Heartbeat CPU 0 instructions: 50000002 cycles: 90731866 heartbeat IPC: 0.293844 cumulative IPC: 0.470774 (Simulation time: 0 hr 25 min 50 sec) 
Heartbeat CPU 0 instructions: 51000003 cycles: 93984658 heartbeat IPC: 0.307429 cumulative IPC: 0.464751 (Simulation time: 0 hr 26 min 28 sec) 
Heartbeat CPU 0 instructions: 52000000 cycles: 97444238 heartbeat IPC: 0.289052 cumulative IPC: 0.458121 (Simulation time: 0 hr 27 min 15 sec) 
Heartbeat CPU 0 instructions: 53000000 cycles: 100643027 heartbeat IPC: 0.312618 cumulative IPC: 0.453215 (Simulation time: 0 hr 27 min 52 sec) 
Heartbeat CPU 0 instructions: 54000000 cycles: 103779133 heartbeat IPC: 0.318867 cumulative IPC: 0.448916 (Simulation time: 0 hr 28 min 27 sec) 
Heartbeat CPU 0 instructions: 55000002 cycles: 106949997 heartbeat IPC: 0.315372 cumulative IPC: 0.444731 (Simulation time: 0 hr 29 min 8 sec) 
Heartbeat CPU 0 instructions: 56000000 cycles: 110057370 heartbeat IPC: 0.321815 cumulative IPC: 0.441069 (Simulation time: 0 hr 29 min 45 sec) 
Heartbeat CPU 0 instructions: 57000002 cycles: 113199078 heartbeat IPC: 0.318299 cumulative IPC: 0.437479 (Simulation time: 0 hr 30 min 22 sec) 
Heartbeat CPU 0 instructions: 58000002 cycles: 116284176 heartbeat IPC: 0.324139 cumulative IPC: 0.434315 (Simulation time: 0 hr 30 min 58 sec) 
Heartbeat CPU 0 instructions: 59000002 cycles: 119388267 heartbeat IPC: 0.322156 cumulative IPC: 0.431251 (Simulation time: 0 hr 31 min 36 sec) 
Heartbeat CPU 0 instructions: 60000000 cycles: 122482863 heartbeat IPC: 0.323143 cumulative IPC: 0.428385 (Simulation time: 0 hr 32 min 12 sec) 
Heartbeat CPU 0 instructions: 61000001 cycles: 125469838 heartbeat IPC: 0.334787 cumulative IPC: 0.426049 (Simulation time: 0 hr 32 min 48 sec) 
Heartbeat CPU 0 instructions: 62000003 cycles: 128498634 heartbeat IPC: 0.330165 cumulative IPC: 0.423683 (Simulation time: 0 hr 33 min 31 sec) 
Heartbeat CPU 0 instructions: 63000002 cycles: 131541378 heartbeat IPC: 0.32865 cumulative IPC: 0.421384 (Simulation time: 0 hr 34 min 24 sec) 
Heartbeat CPU 0 instructions: 64000000 cycles: 134635165 heartbeat IPC: 0.323228 cumulative IPC: 0.419027 (Simulation time: 0 hr 35 min 15 sec) 
Heartbeat CPU 0 instructions: 65000003 cycles: 137729238 heartbeat IPC: 0.3232 cumulative IPC: 0.416781 (Simulation time: 0 hr 35 min 57 sec) 
Heartbeat CPU 0 instructions: 66000002 cycles: 140833338 heartbeat IPC: 0.322154 cumulative IPC: 0.414606 (Simulation time: 0 hr 36 min 30 sec) 
Heartbeat CPU 0 instructions: 67000000 cycles: 143914330 heartbeat IPC: 0.32457 cumulative IPC: 0.412598 (Simulation time: 0 hr 37 min 3 sec) 
Heartbeat CPU 0 instructions: 68000000 cycles: 147002023 heartbeat IPC: 0.323866 cumulative IPC: 0.410658 (Simulation time: 0 hr 37 min 34 sec) 
Heartbeat CPU 0 instructions: 69000003 cycles: 150125328 heartbeat IPC: 0.320175 cumulative IPC: 0.4087 (Simulation time: 0 hr 38 min 6 sec) 
Heartbeat CPU 0 instructions: 70000003 cycles: 153144857 heartbeat IPC: 0.331177 cumulative IPC: 0.407112 (Simulation time: 0 hr 38 min 40 sec) 
Heartbeat CPU 0 instructions: 71000000 cycles: 156227994 heartbeat IPC: 0.324344 cumulative IPC: 0.405416 (Simulation time: 0 hr 39 min 10 sec) 
Heartbeat CPU 0 instructions: 72000000 cycles: 159258771 heartbeat IPC: 0.329948 cumulative IPC: 0.403926 (Simulation time: 0 hr 39 min 38 sec) 
Heartbeat CPU 0 instructions: 73000002 cycles: 162328495 heartbeat IPC: 0.325763 cumulative IPC: 0.402393 (Simulation time: 0 hr 40 min 6 sec) 
Heartbeat CPU 0 instructions: 74000000 cycles: 165378438 heartbeat IPC: 0.327874 cumulative IPC: 0.40097 (Simulation time: 0 hr 40 min 33 sec) 
Heartbeat CPU 0 instructions: 75000001 cycles: 168446999 heartbeat IPC: 0.325886 cumulative IPC: 0.399553 (Simulation time: 0 hr 41 min 10 sec) 
Heartbeat CPU 0 instructions: 76000000 cycles: 171483587 heartbeat IPC: 0.329317 cumulative IPC: 0.398266 (Simulation time: 0 hr 41 min 50 sec) 
Heartbeat CPU 0 instructions: 77000002 cycles: 174631467 heartbeat IPC: 0.317675 cumulative IPC: 0.396764 (Simulation time: 0 hr 42 min 27 sec) 
Heartbeat CPU 0 instructions: 78000000 cycles: 177690696 heartbeat IPC: 0.326879 cumulative IPC: 0.39552 (Simulation time: 0 hr 43 min 1 sec) 
Heartbeat CPU 0 instructions: 79000001 cycles: 180691391 heartbeat IPC: 0.333256 cumulative IPC: 0.394452 (Simulation time: 0 hr 43 min 33 sec) 
Heartbeat CPU 0 instructions: 80000000 cycles: 183735906 heartbeat IPC: 0.328459 cumulative IPC: 0.393323 (Simulation time: 0 hr 43 min 55 sec) 
Heartbeat CPU 0 instructions: 81000001 cycles: 186788715 heartbeat IPC: 0.327567 cumulative IPC: 0.392215 (Simulation time: 0 hr 44 min 15 sec) 
Heartbeat CPU 0 instructions: 82000000 cycles: 189839337 heartbeat IPC: 0.327802 cumulative IPC: 0.391147 (Simulation time: 0 hr 44 min 35 sec) 
Heartbeat CPU 0 instructions: 83000003 cycles: 192861335 heartbeat IPC: 0.330908 cumulative IPC: 0.390174 (Simulation time: 0 hr 44 min 54 sec) 
Heartbeat CPU 0 instructions: 84000000 cycles: 195878442 heartbeat IPC: 0.331442 cumulative IPC: 0.389242 (Simulation time: 0 hr 45 min 13 sec) 
Heartbeat CPU 0 instructions: 85000001 cycles: 198962133 heartbeat IPC: 0.324287 cumulative IPC: 0.388205 (Simulation time: 0 hr 45 min 31 sec) 
Heartbeat CPU 0 instructions: 86000002 cycles: 202015739 heartbeat IPC: 0.327482 cumulative IPC: 0.38726 (Simulation time: 0 hr 45 min 50 sec) 
Heartbeat CPU 0 instructions: 87000000 cycles: 205089761 heartbeat IPC: 0.325306 cumulative IPC: 0.386305 (Simulation time: 0 hr 46 min 9 sec) 
Heartbeat CPU 0 instructions: 88000000 cycles: 208197812 heartbeat IPC: 0.321745 cumulative IPC: 0.385314 (Simulation time: 0 hr 46 min 27 sec) 
Heartbeat CPU 0 instructions: 89000000 cycles: 211292844 heartbeat IPC: 0.323098 cumulative IPC: 0.384377 (Simulation time: 0 hr 46 min 43 sec) 
Heartbeat CPU 0 instructions: 90000002 cycles: 214442956 heartbeat IPC: 0.31745 cumulative IPC: 0.383366 (Simulation time: 0 hr 46 min 59 sec) 
Heartbeat CPU 0 instructions: 91000000 cycles: 217553208 heartbeat IPC: 0.321517 cumulative IPC: 0.382458 (Simulation time: 0 hr 47 min 14 sec) 
Heartbeat CPU 0 instructions: 92000000 cycles: 220657550 heartbeat IPC: 0.322129 cumulative IPC: 0.381587 (Simulation time: 0 hr 47 min 28 sec) 
Heartbeat CPU 0 instructions: 93000002 cycles: 223755443 heartbeat IPC: 0.322801 cumulative IPC: 0.380751 (Simulation time: 0 hr 47 min 43 sec) 
Heartbeat CPU 0 instructions: 94000000 cycles: 226789097 heartbeat IPC: 0.329635 cumulative IPC: 0.38005 (Simulation time: 0 hr 47 min 57 sec) 
Heartbeat CPU 0 instructions: 95000001 cycles: 229844962 heartbeat IPC: 0.32724 cumulative IPC: 0.379329 (Simulation time: 0 hr 48 min 9 sec) 
Heartbeat CPU 0 instructions: 96000000 cycles: 232941978 heartbeat IPC: 0.322891 cumulative IPC: 0.37856 (Simulation time: 0 hr 48 min 20 sec) 
Heartbeat CPU 0 instructions: 97000002 cycles: 236014080 heartbeat IPC: 0.325511 cumulative IPC: 0.377852 (Simulation time: 0 hr 48 min 29 sec) 
Heartbeat CPU 0 instructions: 98000000 cycles: 239145883 heartbeat IPC: 0.319304 cumulative IPC: 0.377067 (Simulation time: 0 hr 48 min 38 sec) 
Heartbeat CPU 0 instructions: 99000000 cycles: 242147129 heartbeat IPC: 0.333195 cumulative IPC: 0.37651 (Simulation time: 0 hr 48 min 44 sec) 
Heartbeat CPU 0 instructions: 100000000 cycles: 245253282 heartbeat IPC: 0.321942 cumulative IPC: 0.375802 (Simulation time: 0 hr 48 min 50 sec) 
Heartbeat CPU 0 instructions: 101000001 cycles: 248369589 heartbeat IPC: 0.320893 cumulative IPC: 0.375096 (Simulation time: 0 hr 48 min 56 sec) 
Heartbeat CPU 0 instructions: 102000003 cycles: 251484813 heartbeat IPC: 0.321005 cumulative IPC: 0.374411 (Simulation time: 0 hr 49 min 2 sec) 
Heartbeat CPU 0 instructions: 103000000 cycles: 254535654 heartbeat IPC: 0.327777 cumulative IPC: 0.373839 (Simulation time: 0 hr 49 min 7 sec) 
Heartbeat CPU 0 instructions: 104000000 cycles: 257653738 heartbeat IPC: 0.32071 cumulative IPC: 0.373181 (Simulation time: 0 hr 49 min 12 sec) 
Heartbeat CPU 0 instructions: 105000000 cycles: 260755191 heartbeat IPC: 0.32243 cumulative IPC: 0.372564 (Simulation time: 0 hr 49 min 17 sec) 
Heartbeat CPU 0 instructions: 106000001 cycles: 263838322 heartbeat IPC: 0.324346 cumulative IPC: 0.371988 (Simulation time: 0 hr 49 min 21 sec) 
Heartbeat CPU 0 instructions: 107000003 cycles: 266968228 heartbeat IPC: 0.319499 cumulative IPC: 0.371359 (Simulation time: 0 hr 49 min 26 sec) 
Heartbeat CPU 0 instructions: 108000000 cycles: 270063153 heartbeat IPC: 0.323109 cumulative IPC: 0.370794 (Simulation time: 0 hr 49 min 30 sec) 
Heartbeat CPU 0 instructions: 109000003 cycles: 273123761 heartbeat IPC: 0.326733 cumulative IPC: 0.370289 (Simulation time: 0 hr 49 min 34 sec) 
Heartbeat CPU 0 instructions: 110000002 cycles: 276236922 heartbeat IPC: 0.321217 cumulative IPC: 0.369725 (Simulation time: 0 hr 49 min 38 sec) 
Finished CPU 0 instructions: 100000001 cycles: 270471596 cummulative IPC: 0.369725 (Simulation time: 0 hr 49 min 38 sec) 

ChampSim completed all CPUs

Region of Interest Statistics

CPU 0 cummulative IPC: 0.369725 instructions: 100000001 cycles: 270471596
LLC TOTAL     ACCESS:    4564553  HIT:    1033332  MISS:    3531221
LLC LOAD      ACCESS:    3073733  HIT:     650353  MISS:    2423380
LLC RFO       ACCESS:     126461  HIT:     111587  MISS:      14874
LLC PREFETCH  ACCESS:          0  HIT:          0  MISS:          0
LLC WRITEBACK ACCESS:    1364359  HIT:     271392  MISS:    1092967
Insertion Distribution: 
	LOAD 593795 0 229637 1824499 
	RFO 2659 0 3361 8856 
	PREF 0 0 0 0 
	WRITEBACK 0 0 0 1207139 
Total Prefetch Downgrades: 0
