
*** ChampSim Multicore Out-of-Order Simulator ***

Warmup Instructions: 10000000
Simulation Instructions: 100000000
Configuration: 1
Number of CPUs: 1
LLC sets: 2048
LLC ways: 16
Off-chip DRAM Channels: 1 Width: 64-bit Data Rate: 1600 MT/s

CPU 0 runs /datasets/cs240c-wi22-a00-public/data/Assignment2-gz/soplex_66B.trace.gz
Initialize SRRIP state
Heartbeat CPU 0 instructions: 1000003 cycles: 416343 heartbeat IPC: 2.40187 cumulative IPC: 2.40187 (Simulation time: 0 hr 0 min 19 sec) 
Heartbeat CPU 0 instructions: 2000002 cycles: 842758 heartbeat IPC: 2.34513 cumulative IPC: 2.37316 (Simulation time: 0 hr 0 min 45 sec) 
Heartbeat CPU 0 instructions: 3000003 cycles: 1252449 heartbeat IPC: 2.44087 cumulative IPC: 2.39531 (Simulation time: 0 hr 1 min 6 sec) 
Heartbeat CPU 0 instructions: 4000000 cycles: 1637611 heartbeat IPC: 2.5963 cumulative IPC: 2.44258 (Simulation time: 0 hr 1 min 26 sec) 
Heartbeat CPU 0 instructions: 5000000 cycles: 2038910 heartbeat IPC: 2.49191 cumulative IPC: 2.45229 (Simulation time: 0 hr 1 min 45 sec) 
Heartbeat CPU 0 instructions: 6000000 cycles: 2499290 heartbeat IPC: 2.17212 cumulative IPC: 2.40068 (Simulation time: 0 hr 2 min 4 sec) 
Heartbeat CPU 0 instructions: 7000002 cycles: 2871641 heartbeat IPC: 2.68564 cumulative IPC: 2.43763 (Simulation time: 0 hr 2 min 24 sec) 
Heartbeat CPU 0 instructions: 8000000 cycles: 3298304 heartbeat IPC: 2.34377 cumulative IPC: 2.42549 (Simulation time: 0 hr 2 min 45 sec) 
Heartbeat CPU 0 instructions: 9000003 cycles: 3738046 heartbeat IPC: 2.27407 cumulative IPC: 2.40768 (Simulation time: 0 hr 3 min 7 sec) 
Heartbeat CPU 0 instructions: 10000001 cycles: 4151895 heartbeat IPC: 2.41634 cumulative IPC: 2.40854 (Simulation time: 0 hr 3 min 26 sec) 

Warmup complete CPU 0 instructions: 10000001 cycles: 4151895 (Simulation time: 0 hr 3 min 26 sec) 

Heartbeat CPU 0 instructions: 11000001 cycles: 8044772 heartbeat IPC: 0.256879 cumulative IPC: 0.256879 (Simulation time: 0 hr 3 min 53 sec) 
Heartbeat CPU 0 instructions: 12000000 cycles: 9793996 heartbeat IPC: 0.571681 cumulative IPC: 0.354478 (Simulation time: 0 hr 4 min 12 sec) 
Heartbeat CPU 0 instructions: 13000001 cycles: 13073965 heartbeat IPC: 0.304881 cumulative IPC: 0.336245 (Simulation time: 0 hr 4 min 37 sec) 
Heartbeat CPU 0 instructions: 14000002 cycles: 16241372 heartbeat IPC: 0.315716 cumulative IPC: 0.330866 (Simulation time: 0 hr 5 min 2 sec) 
Heartbeat CPU 0 instructions: 15000002 cycles: 18889419 heartbeat IPC: 0.377637 cumulative IPC: 0.33927 (Simulation time: 0 hr 5 min 23 sec) 
Heartbeat CPU 0 instructions: 16000000 cycles: 22207654 heartbeat IPC: 0.301364 cumulative IPC: 0.332304 (Simulation time: 0 hr 5 min 50 sec) 
Heartbeat CPU 0 instructions: 17000001 cycles: 25164084 heartbeat IPC: 0.338246 cumulative IPC: 0.33314 (Simulation time: 0 hr 6 min 19 sec) 
Heartbeat CPU 0 instructions: 18000000 cycles: 27794512 heartbeat IPC: 0.380166 cumulative IPC: 0.338372 (Simulation time: 0 hr 6 min 46 sec) 
Heartbeat CPU 0 instructions: 19000002 cycles: 32154918 heartbeat IPC: 0.229337 cumulative IPC: 0.321394 (Simulation time: 0 hr 7 min 17 sec) 
Heartbeat CPU 0 instructions: 20000000 cycles: 33868416 heartbeat IPC: 0.5836 cumulative IPC: 0.336513 (Simulation time: 0 hr 7 min 35 sec) 
Heartbeat CPU 0 instructions: 21000000 cycles: 36703865 heartbeat IPC: 0.352678 cumulative IPC: 0.337921 (Simulation time: 0 hr 7 min 58 sec) 
Heartbeat CPU 0 instructions: 22000000 cycles: 40166343 heartbeat IPC: 0.28881 cumulative IPC: 0.3332 (Simulation time: 0 hr 8 min 28 sec) 
Heartbeat CPU 0 instructions: 23000000 cycles: 42850888 heartbeat IPC: 0.372503 cumulative IPC: 0.335926 (Simulation time: 0 hr 8 min 50 sec) 
Heartbeat CPU 0 instructions: 24000000 cycles: 45798079 heartbeat IPC: 0.339306 cumulative IPC: 0.336165 (Simulation time: 0 hr 9 min 11 sec) 
Heartbeat CPU 0 instructions: 25000003 cycles: 48592853 heartbeat IPC: 0.357812 cumulative IPC: 0.337527 (Simulation time: 0 hr 9 min 43 sec) 
Heartbeat CPU 0 instructions: 26000001 cycles: 51756116 heartbeat IPC: 0.316129 cumulative IPC: 0.336105 (Simulation time: 0 hr 10 min 11 sec) 
Heartbeat CPU 0 instructions: 27000002 cycles: 56093082 heartbeat IPC: 0.230576 cumulative IPC: 0.327293 (Simulation time: 0 hr 10 min 44 sec) 
Heartbeat CPU 0 instructions: 28000000 cycles: 57808723 heartbeat IPC: 0.582871 cumulative IPC: 0.335465 (Simulation time: 0 hr 11 min 3 sec) 
Heartbeat CPU 0 instructions: 29000002 cycles: 60176793 heartbeat IPC: 0.422286 cumulative IPC: 0.339135 (Simulation time: 0 hr 11 min 24 sec) 
Heartbeat CPU 0 instructions: 30000000 cycles: 63920268 heartbeat IPC: 0.267131 cumulative IPC: 0.334625 (Simulation time: 0 hr 11 min 52 sec) 
Heartbeat CPU 0 instructions: 31000001 cycles: 66641001 heartbeat IPC: 0.367548 cumulative IPC: 0.336059 (Simulation time: 0 hr 12 min 13 sec) 
Heartbeat CPU 0 instructions: 32000000 cycles: 69411804 heartbeat IPC: 0.360906 cumulative IPC: 0.337114 (Simulation time: 0 hr 12 min 37 sec) 
Heartbeat CPU 0 instructions: 33000001 cycles: 73647496 heartbeat IPC: 0.236089 cumulative IPC: 0.330956 (Simulation time: 0 hr 13 min 12 sec) 
Heartbeat CPU 0 instructions: 34000003 cycles: 76222906 heartbeat IPC: 0.388288 cumulative IPC: 0.333005 (Simulation time: 0 hr 13 min 46 sec) 
Heartbeat CPU 0 instructions: 35000003 cycles: 79965611 heartbeat IPC: 0.267186 cumulative IPC: 0.329756 (Simulation time: 0 hr 14 min 14 sec) 
Heartbeat CPU 0 instructions: 36000000 cycles: 81688024 heartbeat IPC: 0.580579 cumulative IPC: 0.335328 (Simulation time: 0 hr 14 min 33 sec) 
Heartbeat CPU 0 instructions: 37000000 cycles: 84970857 heartbeat IPC: 0.304615 cumulative IPC: 0.33408 (Simulation time: 0 hr 14 min 59 sec) 
Heartbeat CPU 0 instructions: 38000001 cycles: 88066787 heartbeat IPC: 0.323005 cumulative IPC: 0.333671 (Simulation time: 0 hr 15 min 26 sec) 
Heartbeat CPU 0 instructions: 39000003 cycles: 90758862 heartbeat IPC: 0.371461 cumulative IPC: 0.334846 (Simulation time: 0 hr 15 min 48 sec) 
Heartbeat CPU 0 instructions: 40000000 cycles: 93948211 heartbeat IPC: 0.313543 cumulative IPC: 0.334089 (Simulation time: 0 hr 16 min 20 sec) 
Heartbeat CPU 0 instructions: 41000001 cycles: 96778140 heartbeat IPC: 0.353366 cumulative IPC: 0.334678 (Simulation time: 0 hr 16 min 52 sec) 
Heartbeat CPU 0 instructions: 42000003 cycles: 99403033 heartbeat IPC: 0.380969 cumulative IPC: 0.335954 (Simulation time: 0 hr 17 min 23 sec) 
Heartbeat CPU 0 instructions: 43000000 cycles: 103717909 heartbeat IPC: 0.231756 cumulative IPC: 0.331438 (Simulation time: 0 hr 18 min 4 sec) 
Heartbeat CPU 0 instructions: 44000000 cycles: 105432793 heartbeat IPC: 0.58313 cumulative IPC: 0.3357 (Simulation time: 0 hr 18 min 22 sec) 
Heartbeat CPU 0 instructions: 45000003 cycles: 108248712 heartbeat IPC: 0.355125 cumulative IPC: 0.336225 (Simulation time: 0 hr 18 min 48 sec) 
Heartbeat CPU 0 instructions: 46000003 cycles: 111712829 heartbeat IPC: 0.288674 cumulative IPC: 0.334694 (Simulation time: 0 hr 19 min 15 sec) 
Heartbeat CPU 0 instructions: 47000001 cycles: 114349684 heartbeat IPC: 0.379239 cumulative IPC: 0.33576 (Simulation time: 0 hr 19 min 41 sec) 
Heartbeat CPU 0 instructions: 48000000 cycles: 117227600 heartbeat IPC: 0.347473 cumulative IPC: 0.336058 (Simulation time: 0 hr 20 min 11 sec) 
Heartbeat CPU 0 instructions: 49000000 cycles: 121176677 heartbeat IPC: 0.253224 cumulative IPC: 0.333263 (Simulation time: 0 hr 20 min 50 sec) 
Heartbeat CPU 0 instructions: 50000003 cycles: 128161962 heartbeat IPC: 0.143159 cumulative IPC: 0.322554 (Simulation time: 0 hr 21 min 31 sec) 
Heartbeat CPU 0 instructions: 51000002 cycles: 130845526 heartbeat IPC: 0.372638 cumulative IPC: 0.323615 (Simulation time: 0 hr 22 min 14 sec) 
Heartbeat CPU 0 instructions: 52000000 cycles: 135848314 heartbeat IPC: 0.199888 cumulative IPC: 0.318915 (Simulation time: 0 hr 22 min 53 sec) 
Heartbeat CPU 0 instructions: 53000003 cycles: 139834260 heartbeat IPC: 0.250882 cumulative IPC: 0.316917 (Simulation time: 0 hr 23 min 33 sec) 
Heartbeat CPU 0 instructions: 54000000 cycles: 143429084 heartbeat IPC: 0.278177 cumulative IPC: 0.315917 (Simulation time: 0 hr 24 min 11 sec) 
Heartbeat CPU 0 instructions: 55000002 cycles: 147880213 heartbeat IPC: 0.224663 cumulative IPC: 0.313091 (Simulation time: 0 hr 24 min 46 sec) 
Heartbeat CPU 0 instructions: 56000000 cycles: 151500970 heartbeat IPC: 0.276185 cumulative IPC: 0.312184 (Simulation time: 0 hr 25 min 20 sec) 
Heartbeat CPU 0 instructions: 57000003 cycles: 154359298 heartbeat IPC: 0.349856 cumulative IPC: 0.312901 (Simulation time: 0 hr 25 min 48 sec) 
Heartbeat CPU 0 instructions: 58000002 cycles: 156718582 heartbeat IPC: 0.423857 cumulative IPC: 0.314617 (Simulation time: 0 hr 26 min 20 sec) 
Heartbeat CPU 0 instructions: 59000002 cycles: 158526211 heartbeat IPC: 0.553211 cumulative IPC: 0.31741 (Simulation time: 0 hr 26 min 50 sec) 
Heartbeat CPU 0 instructions: 60000000 cycles: 160738498 heartbeat IPC: 0.45202 cumulative IPC: 0.319312 (Simulation time: 0 hr 27 min 15 sec) 
Heartbeat CPU 0 instructions: 61000002 cycles: 164639054 heartbeat IPC: 0.256374 cumulative IPC: 0.317782 (Simulation time: 0 hr 27 min 48 sec) 
Heartbeat CPU 0 instructions: 62000000 cycles: 168050665 heartbeat IPC: 0.293116 cumulative IPC: 0.317269 (Simulation time: 0 hr 28 min 24 sec) 
Heartbeat CPU 0 instructions: 63000002 cycles: 171163557 heartbeat IPC: 0.321245 cumulative IPC: 0.317343 (Simulation time: 0 hr 28 min 55 sec) 
Heartbeat CPU 0 instructions: 64000000 cycles: 174817955 heartbeat IPC: 0.273642 cumulative IPC: 0.316407 (Simulation time: 0 hr 29 min 26 sec) 
Heartbeat CPU 0 instructions: 65000000 cycles: 179103191 heartbeat IPC: 0.233359 cumulative IPC: 0.314373 (Simulation time: 0 hr 29 min 59 sec) 
Heartbeat CPU 0 instructions: 66000001 cycles: 180828149 heartbeat IPC: 0.579725 cumulative IPC: 0.316964 (Simulation time: 0 hr 30 min 18 sec) 
Heartbeat CPU 0 instructions: 67000000 cycles: 182587278 heartbeat IPC: 0.568463 cumulative IPC: 0.319443 (Simulation time: 0 hr 30 min 44 sec) 
Heartbeat CPU 0 instructions: 68000000 cycles: 186805812 heartbeat IPC: 0.237049 cumulative IPC: 0.31754 (Simulation time: 0 hr 31 min 20 sec) 
Heartbeat CPU 0 instructions: 69000000 cycles: 189694715 heartbeat IPC: 0.346152 cumulative IPC: 0.317986 (Simulation time: 0 hr 31 min 42 sec) 
Heartbeat CPU 0 instructions: 70000003 cycles: 192393639 heartbeat IPC: 0.370519 cumulative IPC: 0.318739 (Simulation time: 0 hr 32 min 5 sec) 
Heartbeat CPU 0 instructions: 71000000 cycles: 195277115 heartbeat IPC: 0.346803 cumulative IPC: 0.319162 (Simulation time: 0 hr 32 min 41 sec) 
Heartbeat CPU 0 instructions: 72000000 cycles: 199093802 heartbeat IPC: 0.262007 cumulative IPC: 0.318043 (Simulation time: 0 hr 33 min 8 sec) 
Heartbeat CPU 0 instructions: 73000002 cycles: 202652863 heartbeat IPC: 0.280974 cumulative IPC: 0.317379 (Simulation time: 0 hr 33 min 41 sec) 
Heartbeat CPU 0 instructions: 74000000 cycles: 205154855 heartbeat IPC: 0.399681 cumulative IPC: 0.318403 (Simulation time: 0 hr 34 min 2 sec) 
Heartbeat CPU 0 instructions: 75000002 cycles: 206894538 heartbeat IPC: 0.574818 cumulative IPC: 0.320603 (Simulation time: 0 hr 34 min 22 sec) 
Heartbeat CPU 0 instructions: 76000000 cycles: 210888788 heartbeat IPC: 0.250359 cumulative IPC: 0.319246 (Simulation time: 0 hr 34 min 50 sec) 
Heartbeat CPU 0 instructions: 77000000 cycles: 213752100 heartbeat IPC: 0.349246 cumulative IPC: 0.319656 (Simulation time: 0 hr 35 min 14 sec) 
Heartbeat CPU 0 instructions: 78000003 cycles: 216434956 heartbeat IPC: 0.372738 cumulative IPC: 0.320327 (Simulation time: 0 hr 35 min 35 sec) 
Heartbeat CPU 0 instructions: 79000001 cycles: 219965582 heartbeat IPC: 0.283235 cumulative IPC: 0.31972 (Simulation time: 0 hr 36 min 12 sec) 
Heartbeat CPU 0 instructions: 80000000 cycles: 223652884 heartbeat IPC: 0.271201 cumulative IPC: 0.318905 (Simulation time: 0 hr 36 min 40 sec) 
Heartbeat CPU 0 instructions: 81000003 cycles: 227356124 heartbeat IPC: 0.270035 cumulative IPC: 0.318094 (Simulation time: 0 hr 37 min 10 sec) 
Heartbeat CPU 0 instructions: 82000000 cycles: 229537850 heartbeat IPC: 0.458351 cumulative IPC: 0.319452 (Simulation time: 0 hr 37 min 29 sec) 
Heartbeat CPU 0 instructions: 83000001 cycles: 231271079 heartbeat IPC: 0.576958 cumulative IPC: 0.321417 (Simulation time: 0 hr 37 min 55 sec) 
Heartbeat CPU 0 instructions: 84000000 cycles: 235346930 heartbeat IPC: 0.245347 cumulative IPC: 0.320076 (Simulation time: 0 hr 38 min 34 sec) 
Heartbeat CPU 0 instructions: 85000000 cycles: 238094759 heartbeat IPC: 0.363924 cumulative IPC: 0.320591 (Simulation time: 0 hr 38 min 57 sec) 
Heartbeat CPU 0 instructions: 86000000 cycles: 240851887 heartbeat IPC: 0.362696 cumulative IPC: 0.321082 (Simulation time: 0 hr 39 min 20 sec) 
Heartbeat CPU 0 instructions: 87000000 cycles: 244131373 heartbeat IPC: 0.304926 cumulative IPC: 0.320861 (Simulation time: 0 hr 39 min 56 sec) 
Heartbeat CPU 0 instructions: 88000000 cycles: 247510490 heartbeat IPC: 0.295935 cumulative IPC: 0.320515 (Simulation time: 0 hr 40 min 23 sec) 
Heartbeat CPU 0 instructions: 89000001 cycles: 251714145 heartbeat IPC: 0.237888 cumulative IPC: 0.319112 (Simulation time: 0 hr 40 min 59 sec) 
Heartbeat CPU 0 instructions: 90000002 cycles: 253433665 heartbeat IPC: 0.581558 cumulative IPC: 0.320922 (Simulation time: 0 hr 41 min 14 sec) 
Heartbeat CPU 0 instructions: 91000000 cycles: 255275194 heartbeat IPC: 0.543026 cumulative IPC: 0.322551 (Simulation time: 0 hr 41 min 29 sec) 
Heartbeat CPU 0 instructions: 92000000 cycles: 259330537 heartbeat IPC: 0.246588 cumulative IPC: 0.321344 (Simulation time: 0 hr 41 min 50 sec) 
Heartbeat CPU 0 instructions: 93000000 cycles: 262182943 heartbeat IPC: 0.350581 cumulative IPC: 0.321667 (Simulation time: 0 hr 42 min 5 sec) 
Heartbeat CPU 0 instructions: 94000001 cycles: 264941876 heartbeat IPC: 0.362459 cumulative IPC: 0.322098 (Simulation time: 0 hr 42 min 20 sec) 
Heartbeat CPU 0 instructions: 95000003 cycles: 268844619 heartbeat IPC: 0.256231 cumulative IPC: 0.321127 (Simulation time: 0 hr 42 min 40 sec) 
Heartbeat CPU 0 instructions: 96000000 cycles: 271401938 heartbeat IPC: 0.391033 cumulative IPC: 0.321796 (Simulation time: 0 hr 42 min 57 sec) 
Heartbeat CPU 0 instructions: 97000003 cycles: 275483473 heartbeat IPC: 0.245007 cumulative IPC: 0.320641 (Simulation time: 0 hr 43 min 24 sec) 
Heartbeat CPU 0 instructions: 98000003 cycles: 277195933 heartbeat IPC: 0.583955 cumulative IPC: 0.322292 (Simulation time: 0 hr 43 min 39 sec) 
Heartbeat CPU 0 instructions: 99000000 cycles: 280220314 heartbeat IPC: 0.330645 cumulative IPC: 0.322384 (Simulation time: 0 hr 43 min 53 sec) 
Heartbeat CPU 0 instructions: 100000000 cycles: 283526680 heartbeat IPC: 0.302447 cumulative IPC: 0.322148 (Simulation time: 0 hr 44 min 8 sec) 
Heartbeat CPU 0 instructions: 101000001 cycles: 286183055 heartbeat IPC: 0.376453 cumulative IPC: 0.322659 (Simulation time: 0 hr 44 min 20 sec) 
Heartbeat CPU 0 instructions: 102000000 cycles: 289181169 heartbeat IPC: 0.333543 cumulative IPC: 0.322774 (Simulation time: 0 hr 44 min 34 sec) 
Heartbeat CPU 0 instructions: 103000002 cycles: 293229745 heartbeat IPC: 0.247001 cumulative IPC: 0.321713 (Simulation time: 0 hr 44 min 50 sec) 
Heartbeat CPU 0 instructions: 104000000 cycles: 296153716 heartbeat IPC: 0.342 cumulative IPC: 0.321916 (Simulation time: 0 hr 45 min 7 sec) 
Heartbeat CPU 0 instructions: 105000000 cycles: 299227302 heartbeat IPC: 0.325353 cumulative IPC: 0.321952 (Simulation time: 0 hr 45 min 20 sec) 
Heartbeat CPU 0 instructions: 106000001 cycles: 300951026 heartbeat IPC: 0.58014 cumulative IPC: 0.323451 (Simulation time: 0 hr 45 min 31 sec) 
Heartbeat CPU 0 instructions: 107000001 cycles: 304686337 heartbeat IPC: 0.267715 cumulative IPC: 0.322758 (Simulation time: 0 hr 45 min 46 sec) 
Heartbeat CPU 0 instructions: 108000000 cycles: 307484023 heartbeat IPC: 0.357438 cumulative IPC: 0.323078 (Simulation time: 0 hr 45 min 59 sec) 
Heartbeat CPU 0 instructions: 109000003 cycles: 310179108 heartbeat IPC: 0.371047 cumulative IPC: 0.323501 (Simulation time: 0 hr 46 min 10 sec) 
Heartbeat CPU 0 instructions: 110000003 cycles: 313552018 heartbeat IPC: 0.29648 cumulative IPC: 0.323206 (Simulation time: 0 hr 46 min 25 sec) 
Finished CPU 0 instructions: 100000002 cycles: 309400123 cummulative IPC: 0.323206 (Simulation time: 0 hr 46 min 25 sec) 

ChampSim completed all CPUs

Region of Interest Statistics

CPU 0 cummulative IPC: 0.323206 instructions: 100000002 cycles: 309400123
LLC TOTAL     ACCESS:    5290170  HIT:    2802245  MISS:    2487925
LLC LOAD      ACCESS:    3127302  HIT:    1397329  MISS:    1729973
LLC RFO       ACCESS:     652046  HIT:     259667  MISS:     392379
LLC PREFETCH  ACCESS:          0  HIT:          0  MISS:          0
LLC WRITEBACK ACCESS:    1510822  HIT:    1145249  MISS:     365573
Insertion Distribution: 
	LOAD 278727 0 248008 1402914 
	RFO 133376 0 131036 184976 
	PREF 0 0 0 0 
	WRITEBACK 0 0 0 389188 
Total Prefetch Downgrades: 0
