
*** ChampSim Multicore Out-of-Order Simulator ***

Warmup Instructions: 10000000
Simulation Instructions: 100000000
Configuration: 1
Number of CPUs: 1
LLC sets: 2048
LLC ways: 16
Off-chip DRAM Channels: 1 Width: 64-bit Data Rate: 1600 MT/s

CPU 0 runs /datasets/cs240c-wi22-a00-public/data/Assignment2-gz/milc_360B.trace.gz
Initialize SRRIP state
Heartbeat CPU 0 instructions: 1000001 cycles: 549889 heartbeat IPC: 1.81855 cumulative IPC: 1.81855 (Simulation time: 0 hr 0 min 25 sec) 
Heartbeat CPU 0 instructions: 2000003 cycles: 1099779 heartbeat IPC: 1.81855 cumulative IPC: 1.81855 (Simulation time: 0 hr 0 min 49 sec) 
Heartbeat CPU 0 instructions: 3000001 cycles: 1649612 heartbeat IPC: 1.81873 cumulative IPC: 1.81861 (Simulation time: 0 hr 1 min 18 sec) 
Heartbeat CPU 0 instructions: 4000000 cycles: 2199464 heartbeat IPC: 1.81867 cumulative IPC: 1.81862 (Simulation time: 0 hr 1 min 41 sec) 
Heartbeat CPU 0 instructions: 5000002 cycles: 2749347 heartbeat IPC: 1.81857 cumulative IPC: 1.81861 (Simulation time: 0 hr 2 min 4 sec) 
Heartbeat CPU 0 instructions: 6000001 cycles: 3299240 heartbeat IPC: 1.81853 cumulative IPC: 1.8186 (Simulation time: 0 hr 2 min 28 sec) 
Heartbeat CPU 0 instructions: 7000000 cycles: 3849091 heartbeat IPC: 1.81867 cumulative IPC: 1.81861 (Simulation time: 0 hr 2 min 50 sec) 
Heartbeat CPU 0 instructions: 8000000 cycles: 4398930 heartbeat IPC: 1.81871 cumulative IPC: 1.81862 (Simulation time: 0 hr 3 min 12 sec) 
Heartbeat CPU 0 instructions: 9000001 cycles: 4948828 heartbeat IPC: 1.81852 cumulative IPC: 1.81861 (Simulation time: 0 hr 3 min 34 sec) 
Heartbeat CPU 0 instructions: 10000001 cycles: 5498685 heartbeat IPC: 1.81865 cumulative IPC: 1.81862 (Simulation time: 0 hr 3 min 57 sec) 

Warmup complete CPU 0 instructions: 10000001 cycles: 5498685 (Simulation time: 0 hr 3 min 57 sec) 

Heartbeat CPU 0 instructions: 11000001 cycles: 7437274 heartbeat IPC: 0.515839 cumulative IPC: 0.515839 (Simulation time: 0 hr 4 min 24 sec) 
Heartbeat CPU 0 instructions: 12000000 cycles: 9393034 heartbeat IPC: 0.51131 cumulative IPC: 0.513564 (Simulation time: 0 hr 4 min 52 sec) 
Heartbeat CPU 0 instructions: 13000001 cycles: 11325811 heartbeat IPC: 0.517391 cumulative IPC: 0.514834 (Simulation time: 0 hr 5 min 20 sec) 
Heartbeat CPU 0 instructions: 14000001 cycles: 13277470 heartbeat IPC: 0.512385 cumulative IPC: 0.514219 (Simulation time: 0 hr 5 min 47 sec) 
Heartbeat CPU 0 instructions: 15000003 cycles: 15208253 heartbeat IPC: 0.517926 cumulative IPC: 0.514956 (Simulation time: 0 hr 6 min 14 sec) 
Heartbeat CPU 0 instructions: 16000000 cycles: 17146615 heartbeat IPC: 0.515898 cumulative IPC: 0.515113 (Simulation time: 0 hr 6 min 40 sec) 
Heartbeat CPU 0 instructions: 17000003 cycles: 19093786 heartbeat IPC: 0.513567 cumulative IPC: 0.514892 (Simulation time: 0 hr 7 min 6 sec) 
Heartbeat CPU 0 instructions: 18000002 cycles: 21044749 heartbeat IPC: 0.512567 cumulative IPC: 0.5146 (Simulation time: 0 hr 7 min 34 sec) 
Heartbeat CPU 0 instructions: 19000000 cycles: 23010110 heartbeat IPC: 0.508811 cumulative IPC: 0.51395 (Simulation time: 0 hr 8 min 2 sec) 
Heartbeat CPU 0 instructions: 20000000 cycles: 24986971 heartbeat IPC: 0.505852 cumulative IPC: 0.513129 (Simulation time: 0 hr 8 min 31 sec) 
Heartbeat CPU 0 instructions: 21000002 cycles: 26900879 heartbeat IPC: 0.522492 cumulative IPC: 0.513966 (Simulation time: 0 hr 9 min 1 sec) 
Heartbeat CPU 0 instructions: 22000003 cycles: 28859727 heartbeat IPC: 0.510505 cumulative IPC: 0.513676 (Simulation time: 0 hr 9 min 27 sec) 
Heartbeat CPU 0 instructions: 23000001 cycles: 30796642 heartbeat IPC: 0.516284 cumulative IPC: 0.513875 (Simulation time: 0 hr 9 min 57 sec) 
Heartbeat CPU 0 instructions: 24000000 cycles: 32761993 heartbeat IPC: 0.508814 cumulative IPC: 0.513511 (Simulation time: 0 hr 10 min 23 sec) 
Heartbeat CPU 0 instructions: 25000003 cycles: 34706032 heartbeat IPC: 0.514395 cumulative IPC: 0.513569 (Simulation time: 0 hr 10 min 56 sec) 
Heartbeat CPU 0 instructions: 26000003 cycles: 36630924 heartbeat IPC: 0.51951 cumulative IPC: 0.513937 (Simulation time: 0 hr 11 min 23 sec) 
Heartbeat CPU 0 instructions: 27000001 cycles: 38560169 heartbeat IPC: 0.518336 cumulative IPC: 0.514193 (Simulation time: 0 hr 11 min 53 sec) 
Heartbeat CPU 0 instructions: 28000000 cycles: 40474606 heartbeat IPC: 0.522346 cumulative IPC: 0.51464 (Simulation time: 0 hr 12 min 20 sec) 
Heartbeat CPU 0 instructions: 29000003 cycles: 42426501 heartbeat IPC: 0.512324 cumulative IPC: 0.514517 (Simulation time: 0 hr 12 min 49 sec) 
Heartbeat CPU 0 instructions: 30000000 cycles: 44344672 heartbeat IPC: 0.521328 cumulative IPC: 0.514854 (Simulation time: 0 hr 13 min 17 sec) 
Heartbeat CPU 0 instructions: 31000000 cycles: 46283590 heartbeat IPC: 0.515752 cumulative IPC: 0.514896 (Simulation time: 0 hr 13 min 45 sec) 
Heartbeat CPU 0 instructions: 32000000 cycles: 48195467 heartbeat IPC: 0.523046 cumulative IPC: 0.515261 (Simulation time: 0 hr 14 min 20 sec) 
Heartbeat CPU 0 instructions: 33000000 cycles: 50125253 heartbeat IPC: 0.518192 cumulative IPC: 0.515388 (Simulation time: 0 hr 14 min 53 sec) 
Heartbeat CPU 0 instructions: 34000002 cycles: 52038139 heartbeat IPC: 0.522771 cumulative IPC: 0.515692 (Simulation time: 0 hr 15 min 24 sec) 
Heartbeat CPU 0 instructions: 35000001 cycles: 53973770 heartbeat IPC: 0.516627 cumulative IPC: 0.515729 (Simulation time: 0 hr 15 min 53 sec) 
Heartbeat CPU 0 instructions: 36000000 cycles: 55890304 heartbeat IPC: 0.521775 cumulative IPC: 0.515959 (Simulation time: 0 hr 16 min 22 sec) 
Heartbeat CPU 0 instructions: 37000000 cycles: 57823074 heartbeat IPC: 0.517392 cumulative IPC: 0.516012 (Simulation time: 0 hr 16 min 49 sec) 
Heartbeat CPU 0 instructions: 38000001 cycles: 59760284 heartbeat IPC: 0.516207 cumulative IPC: 0.516019 (Simulation time: 0 hr 17 min 19 sec) 
Heartbeat CPU 0 instructions: 39000000 cycles: 61695643 heartbeat IPC: 0.516699 cumulative IPC: 0.516042 (Simulation time: 0 hr 17 min 47 sec) 
Heartbeat CPU 0 instructions: 40000000 cycles: 63626868 heartbeat IPC: 0.517806 cumulative IPC: 0.516101 (Simulation time: 0 hr 18 min 14 sec) 
Heartbeat CPU 0 instructions: 41000002 cycles: 65569829 heartbeat IPC: 0.514679 cumulative IPC: 0.516055 (Simulation time: 0 hr 18 min 42 sec) 
Heartbeat CPU 0 instructions: 42000001 cycles: 67493837 heartbeat IPC: 0.519748 cumulative IPC: 0.516169 (Simulation time: 0 hr 19 min 9 sec) 
Heartbeat CPU 0 instructions: 43000000 cycles: 69414253 heartbeat IPC: 0.52072 cumulative IPC: 0.516306 (Simulation time: 0 hr 19 min 35 sec) 
Heartbeat CPU 0 instructions: 44000000 cycles: 72223509 heartbeat IPC: 0.355966 cumulative IPC: 0.509555 (Simulation time: 0 hr 20 min 9 sec) 
Heartbeat CPU 0 instructions: 45000002 cycles: 75674999 heartbeat IPC: 0.289731 cumulative IPC: 0.498744 (Simulation time: 0 hr 20 min 44 sec) 
Heartbeat CPU 0 instructions: 46000001 cycles: 79120610 heartbeat IPC: 0.290224 cumulative IPC: 0.488985 (Simulation time: 0 hr 21 min 20 sec) 
Heartbeat CPU 0 instructions: 47000000 cycles: 82621069 heartbeat IPC: 0.285677 cumulative IPC: 0.479757 (Simulation time: 0 hr 22 min 1 sec) 
Heartbeat CPU 0 instructions: 48000000 cycles: 86057660 heartbeat IPC: 0.290986 cumulative IPC: 0.471704 (Simulation time: 0 hr 22 min 36 sec) 
Heartbeat CPU 0 instructions: 49000003 cycles: 89443864 heartbeat IPC: 0.295317 cumulative IPC: 0.464589 (Simulation time: 0 hr 23 min 10 sec) 
Heartbeat CPU 0 instructions: 50000002 cycles: 92561616 heartbeat IPC: 0.320744 cumulative IPC: 0.459438 (Simulation time: 0 hr 23 min 41 sec) 
Heartbeat CPU 0 instructions: 51000002 cycles: 94463929 heartbeat IPC: 0.525676 cumulative IPC: 0.460854 (Simulation time: 0 hr 24 min 10 sec) 
Heartbeat CPU 0 instructions: 52000000 cycles: 97014315 heartbeat IPC: 0.392097 cumulative IPC: 0.458938 (Simulation time: 0 hr 24 min 43 sec) 
Heartbeat CPU 0 instructions: 53000001 cycles: 99922027 heartbeat IPC: 0.343913 cumulative IPC: 0.455396 (Simulation time: 0 hr 25 min 11 sec) 
Heartbeat CPU 0 instructions: 54000003 cycles: 102853663 heartbeat IPC: 0.341107 cumulative IPC: 0.451954 (Simulation time: 0 hr 25 min 48 sec) 
Heartbeat CPU 0 instructions: 55000003 cycles: 105766145 heartbeat IPC: 0.34335 cumulative IPC: 0.4488 (Simulation time: 0 hr 26 min 18 sec) 
Heartbeat CPU 0 instructions: 56000000 cycles: 108688938 heartbeat IPC: 0.342137 cumulative IPC: 0.445779 (Simulation time: 0 hr 26 min 46 sec) 
Heartbeat CPU 0 instructions: 57000000 cycles: 111601135 heartbeat IPC: 0.343383 cumulative IPC: 0.442968 (Simulation time: 0 hr 27 min 14 sec) 
Heartbeat CPU 0 instructions: 58000001 cycles: 114487920 heartbeat IPC: 0.346406 cumulative IPC: 0.44041 (Simulation time: 0 hr 27 min 45 sec) 
Heartbeat CPU 0 instructions: 59000001 cycles: 117400335 heartbeat IPC: 0.343358 cumulative IPC: 0.437885 (Simulation time: 0 hr 28 min 20 sec) 
Heartbeat CPU 0 instructions: 60000000 cycles: 120304808 heartbeat IPC: 0.344296 cumulative IPC: 0.435517 (Simulation time: 0 hr 28 min 47 sec) 
Heartbeat CPU 0 instructions: 61000002 cycles: 123194549 heartbeat IPC: 0.346052 cumulative IPC: 0.43332 (Simulation time: 0 hr 29 min 18 sec) 
Heartbeat CPU 0 instructions: 62000003 cycles: 126074877 heartbeat IPC: 0.347183 cumulative IPC: 0.431263 (Simulation time: 0 hr 29 min 46 sec) 
Heartbeat CPU 0 instructions: 63000000 cycles: 128980648 heartbeat IPC: 0.344142 cumulative IPC: 0.429212 (Simulation time: 0 hr 30 min 18 sec) 
Heartbeat CPU 0 instructions: 64000000 cycles: 131863730 heartbeat IPC: 0.346851 cumulative IPC: 0.427333 (Simulation time: 0 hr 30 min 47 sec) 
Heartbeat CPU 0 instructions: 65000000 cycles: 134731893 heartbeat IPC: 0.348655 cumulative IPC: 0.425587 (Simulation time: 0 hr 31 min 20 sec) 
Heartbeat CPU 0 instructions: 66000001 cycles: 137605769 heartbeat IPC: 0.347962 cumulative IPC: 0.423899 (Simulation time: 0 hr 31 min 59 sec) 
Heartbeat CPU 0 instructions: 67000002 cycles: 140464074 heartbeat IPC: 0.349858 cumulative IPC: 0.42233 (Simulation time: 0 hr 32 min 29 sec) 
Heartbeat CPU 0 instructions: 68000000 cycles: 143374735 heartbeat IPC: 0.343564 cumulative IPC: 0.420668 (Simulation time: 0 hr 33 min 1 sec) 
Heartbeat CPU 0 instructions: 69000003 cycles: 146285338 heartbeat IPC: 0.343572 cumulative IPC: 0.419074 (Simulation time: 0 hr 33 min 29 sec) 
Heartbeat CPU 0 instructions: 70000000 cycles: 149206138 heartbeat IPC: 0.342371 cumulative IPC: 0.417515 (Simulation time: 0 hr 33 min 57 sec) 
Heartbeat CPU 0 instructions: 71000000 cycles: 152135999 heartbeat IPC: 0.341313 cumulative IPC: 0.415992 (Simulation time: 0 hr 34 min 24 sec) 
Heartbeat CPU 0 instructions: 72000000 cycles: 155044015 heartbeat IPC: 0.343877 cumulative IPC: 0.41459 (Simulation time: 0 hr 34 min 51 sec) 
Heartbeat CPU 0 instructions: 73000001 cycles: 157942964 heartbeat IPC: 0.344953 cumulative IPC: 0.413266 (Simulation time: 0 hr 35 min 20 sec) 
Heartbeat CPU 0 instructions: 74000002 cycles: 159950763 heartbeat IPC: 0.498058 cumulative IPC: 0.414368 (Simulation time: 0 hr 36 min 0 sec) 
Heartbeat CPU 0 instructions: 75000002 cycles: 161938433 heartbeat IPC: 0.503102 cumulative IPC: 0.415495 (Simulation time: 0 hr 36 min 25 sec) 
Heartbeat CPU 0 instructions: 76000000 cycles: 163890956 heartbeat IPC: 0.512157 cumulative IPC: 0.416687 (Simulation time: 0 hr 36 min 48 sec) 
Heartbeat CPU 0 instructions: 77000000 cycles: 165873148 heartbeat IPC: 0.504492 cumulative IPC: 0.417772 (Simulation time: 0 hr 37 min 12 sec) 
Heartbeat CPU 0 instructions: 78000002 cycles: 167901066 heartbeat IPC: 0.493118 cumulative IPC: 0.418713 (Simulation time: 0 hr 37 min 38 sec) 
Heartbeat CPU 0 instructions: 79000000 cycles: 169928620 heartbeat IPC: 0.493204 cumulative IPC: 0.419632 (Simulation time: 0 hr 38 min 3 sec) 
Heartbeat CPU 0 instructions: 80000000 cycles: 171967916 heartbeat IPC: 0.490365 cumulative IPC: 0.420498 (Simulation time: 0 hr 38 min 27 sec) 
Heartbeat CPU 0 instructions: 81000003 cycles: 173987961 heartbeat IPC: 0.49504 cumulative IPC: 0.421392 (Simulation time: 0 hr 38 min 53 sec) 
Heartbeat CPU 0 instructions: 82000000 cycles: 176003125 heartbeat IPC: 0.496236 cumulative IPC: 0.422276 (Simulation time: 0 hr 39 min 17 sec) 
Heartbeat CPU 0 instructions: 83000002 cycles: 178041674 heartbeat IPC: 0.490546 cumulative IPC: 0.423083 (Simulation time: 0 hr 39 min 40 sec) 
Heartbeat CPU 0 instructions: 84000000 cycles: 180077062 heartbeat IPC: 0.491306 cumulative IPC: 0.423878 (Simulation time: 0 hr 40 min 3 sec) 
Heartbeat CPU 0 instructions: 85000001 cycles: 182091380 heartbeat IPC: 0.496446 cumulative IPC: 0.424706 (Simulation time: 0 hr 40 min 25 sec) 
Heartbeat CPU 0 instructions: 86000000 cycles: 184125692 heartbeat IPC: 0.491566 cumulative IPC: 0.425468 (Simulation time: 0 hr 40 min 46 sec) 
Heartbeat CPU 0 instructions: 87000000 cycles: 186139959 heartbeat IPC: 0.496459 cumulative IPC: 0.426259 (Simulation time: 0 hr 41 min 7 sec) 
Heartbeat CPU 0 instructions: 88000000 cycles: 188171035 heartbeat IPC: 0.49235 cumulative IPC: 0.426994 (Simulation time: 0 hr 41 min 27 sec) 
Heartbeat CPU 0 instructions: 89000002 cycles: 190221331 heartbeat IPC: 0.487735 cumulative IPC: 0.427668 (Simulation time: 0 hr 41 min 47 sec) 
Heartbeat CPU 0 instructions: 90000002 cycles: 192255125 heartbeat IPC: 0.491692 cumulative IPC: 0.428365 (Simulation time: 0 hr 42 min 7 sec) 
Heartbeat CPU 0 instructions: 91000003 cycles: 194291886 heartbeat IPC: 0.490976 cumulative IPC: 0.429041 (Simulation time: 0 hr 42 min 26 sec) 
Heartbeat CPU 0 instructions: 92000000 cycles: 196326754 heartbeat IPC: 0.491431 cumulative IPC: 0.429706 (Simulation time: 0 hr 42 min 44 sec) 
Heartbeat CPU 0 instructions: 93000003 cycles: 198355665 heartbeat IPC: 0.492877 cumulative IPC: 0.430371 (Simulation time: 0 hr 43 min 1 sec) 
Heartbeat CPU 0 instructions: 94000001 cycles: 200378037 heartbeat IPC: 0.494468 cumulative IPC: 0.431036 (Simulation time: 0 hr 43 min 17 sec) 
Heartbeat CPU 0 instructions: 95000000 cycles: 202397132 heartbeat IPC: 0.495271 cumulative IPC: 0.431695 (Simulation time: 0 hr 43 min 33 sec) 
Heartbeat CPU 0 instructions: 96000000 cycles: 204422612 heartbeat IPC: 0.49371 cumulative IPC: 0.432326 (Simulation time: 0 hr 43 min 48 sec) 
Heartbeat CPU 0 instructions: 97000002 cycles: 206449007 heartbeat IPC: 0.493488 cumulative IPC: 0.432943 (Simulation time: 0 hr 44 min 4 sec) 
Heartbeat CPU 0 instructions: 98000003 cycles: 208485067 heartbeat IPC: 0.491145 cumulative IPC: 0.433527 (Simulation time: 0 hr 44 min 20 sec) 
Heartbeat CPU 0 instructions: 99000000 cycles: 210515727 heartbeat IPC: 0.492449 cumulative IPC: 0.43411 (Simulation time: 0 hr 44 min 35 sec) 
Heartbeat CPU 0 instructions: 100000000 cycles: 212555909 heartbeat IPC: 0.490152 cumulative IPC: 0.434662 (Simulation time: 0 hr 44 min 50 sec) 
Heartbeat CPU 0 instructions: 101000000 cycles: 214578405 heartbeat IPC: 0.494439 cumulative IPC: 0.435241 (Simulation time: 0 hr 45 min 5 sec) 
Heartbeat CPU 0 instructions: 102000000 cycles: 216597953 heartbeat IPC: 0.49516 cumulative IPC: 0.435814 (Simulation time: 0 hr 45 min 20 sec) 
Heartbeat CPU 0 instructions: 103000002 cycles: 218622256 heartbeat IPC: 0.493998 cumulative IPC: 0.436367 (Simulation time: 0 hr 45 min 36 sec) 
Heartbeat CPU 0 instructions: 104000000 cycles: 220662713 heartbeat IPC: 0.490085 cumulative IPC: 0.436876 (Simulation time: 0 hr 45 min 51 sec) 
Heartbeat CPU 0 instructions: 105000003 cycles: 222711782 heartbeat IPC: 0.488028 cumulative IPC: 0.437359 (Simulation time: 0 hr 46 min 6 sec) 
Heartbeat CPU 0 instructions: 106000002 cycles: 224743126 heartbeat IPC: 0.492284 cumulative IPC: 0.437867 (Simulation time: 0 hr 46 min 21 sec) 
Heartbeat CPU 0 instructions: 107000000 cycles: 226788717 heartbeat IPC: 0.488855 cumulative IPC: 0.438339 (Simulation time: 0 hr 46 min 34 sec) 
Heartbeat CPU 0 instructions: 108000000 cycles: 228811564 heartbeat IPC: 0.494353 cumulative IPC: 0.438846 (Simulation time: 0 hr 46 min 47 sec) 
Heartbeat CPU 0 instructions: 109000002 cycles: 230826552 heartbeat IPC: 0.496282 cumulative IPC: 0.43936 (Simulation time: 0 hr 47 min 0 sec) 
Heartbeat CPU 0 instructions: 110000000 cycles: 232846071 heartbeat IPC: 0.495166 cumulative IPC: 0.439856 (Simulation time: 0 hr 47 min 12 sec) 
Finished CPU 0 instructions: 100000003 cycles: 227347387 cummulative IPC: 0.439855 (Simulation time: 0 hr 47 min 12 sec) 

ChampSim completed all CPUs

Region of Interest Statistics

CPU 0 cummulative IPC: 0.439855 instructions: 100000003 cycles: 227347387
LLC TOTAL     ACCESS:    2838711  HIT:      65423  MISS:    2773288
LLC LOAD      ACCESS:    1956031  HIT:      11744  MISS:    1944287
LLC RFO       ACCESS:     140009  HIT:          0  MISS:     140009
LLC PREFETCH  ACCESS:          0  HIT:          0  MISS:          0
LLC WRITEBACK ACCESS:     742671  HIT:      53679  MISS:     688992
Insertion Distribution: 
	LOAD 0 0 83038 2016463 
	RFO 0 0 23718 116293 
	PREF 0 0 0 0 
	WRITEBACK 0 0 0 755100 
Total Prefetch Downgrades: 0
