
*** ChampSim Multicore Out-of-Order Simulator ***

Warmup Instructions: 10000000
Simulation Instructions: 100000000
Configuration: 1
Number of CPUs: 1
LLC sets: 2048
LLC ways: 16
Off-chip DRAM Channels: 1 Width: 64-bit Data Rate: 1600 MT/s

CPU 0 runs /datasets/cs240c-wi22-a00-public/data/Assignment2-gz/gcc_13B.trace.gz
Initialize SRRIP state
Heartbeat CPU 0 instructions: 1000000 cycles: 644728 heartbeat IPC: 1.55104 cumulative IPC: 1.55104 (Simulation time: 0 hr 0 min 25 sec) 
Heartbeat CPU 0 instructions: 2000001 cycles: 1257179 heartbeat IPC: 1.63279 cumulative IPC: 1.59086 (Simulation time: 0 hr 0 min 50 sec) 
Heartbeat CPU 0 instructions: 3000000 cycles: 1735099 heartbeat IPC: 2.0924 cumulative IPC: 1.72901 (Simulation time: 0 hr 1 min 12 sec) 
Heartbeat CPU 0 instructions: 4000000 cycles: 2212752 heartbeat IPC: 2.09357 cumulative IPC: 1.8077 (Simulation time: 0 hr 1 min 34 sec) 
Heartbeat CPU 0 instructions: 5000002 cycles: 2690786 heartbeat IPC: 2.09191 cumulative IPC: 1.85819 (Simulation time: 0 hr 1 min 56 sec) 
Heartbeat CPU 0 instructions: 6000001 cycles: 3168644 heartbeat IPC: 2.09267 cumulative IPC: 1.89355 (Simulation time: 0 hr 2 min 19 sec) 
Heartbeat CPU 0 instructions: 7000003 cycles: 3648244 heartbeat IPC: 2.08508 cumulative IPC: 1.91873 (Simulation time: 0 hr 2 min 41 sec) 
Heartbeat CPU 0 instructions: 8000000 cycles: 4128549 heartbeat IPC: 2.082 cumulative IPC: 1.93773 (Simulation time: 0 hr 3 min 3 sec) 
Heartbeat CPU 0 instructions: 9000001 cycles: 4868588 heartbeat IPC: 1.35128 cumulative IPC: 1.84859 (Simulation time: 0 hr 3 min 30 sec) 
Heartbeat CPU 0 instructions: 10000001 cycles: 5575937 heartbeat IPC: 1.41373 cumulative IPC: 1.79342 (Simulation time: 0 hr 3 min 55 sec) 

Warmup complete CPU 0 instructions: 10000001 cycles: 5575937 (Simulation time: 0 hr 3 min 55 sec) 

Heartbeat CPU 0 instructions: 11000000 cycles: 13539861 heartbeat IPC: 0.125566 cumulative IPC: 0.125566 (Simulation time: 0 hr 4 min 33 sec) 
Heartbeat CPU 0 instructions: 12000000 cycles: 21206600 heartbeat IPC: 0.130434 cumulative IPC: 0.127954 (Simulation time: 0 hr 5 min 11 sec) 
Heartbeat CPU 0 instructions: 13000000 cycles: 28468236 heartbeat IPC: 0.13771 cumulative IPC: 0.131048 (Simulation time: 0 hr 5 min 48 sec) 
Heartbeat CPU 0 instructions: 14000000 cycles: 35162829 heartbeat IPC: 0.149374 cumulative IPC: 0.135195 (Simulation time: 0 hr 6 min 26 sec) 
Heartbeat CPU 0 instructions: 15000000 cycles: 38956754 heartbeat IPC: 0.263579 cumulative IPC: 0.149787 (Simulation time: 0 hr 7 min 2 sec) 
Heartbeat CPU 0 instructions: 16000000 cycles: 43127472 heartbeat IPC: 0.239767 cumulative IPC: 0.15978 (Simulation time: 0 hr 7 min 35 sec) 
Heartbeat CPU 0 instructions: 17000000 cycles: 47283680 heartbeat IPC: 0.240604 cumulative IPC: 0.167835 (Simulation time: 0 hr 8 min 9 sec) 
Heartbeat CPU 0 instructions: 18000002 cycles: 51405827 heartbeat IPC: 0.242593 cumulative IPC: 0.174559 (Simulation time: 0 hr 8 min 44 sec) 
Heartbeat CPU 0 instructions: 19000002 cycles: 55565920 heartbeat IPC: 0.240379 cumulative IPC: 0.180036 (Simulation time: 0 hr 9 min 18 sec) 
Heartbeat CPU 0 instructions: 20000000 cycles: 59847879 heartbeat IPC: 0.233537 cumulative IPC: 0.184257 (Simulation time: 0 hr 9 min 56 sec) 
Heartbeat CPU 0 instructions: 21000001 cycles: 63875159 heartbeat IPC: 0.248307 cumulative IPC: 0.188682 (Simulation time: 0 hr 10 min 31 sec) 
Heartbeat CPU 0 instructions: 22000001 cycles: 68084986 heartbeat IPC: 0.237539 cumulative IPC: 0.191972 (Simulation time: 0 hr 11 min 10 sec) 
Heartbeat CPU 0 instructions: 23000002 cycles: 75781408 heartbeat IPC: 0.129931 cumulative IPC: 0.185171 (Simulation time: 0 hr 11 min 56 sec) 
Heartbeat CPU 0 instructions: 24000000 cycles: 83655913 heartbeat IPC: 0.126992 cumulative IPC: 0.179303 (Simulation time: 0 hr 12 min 38 sec) 
Heartbeat CPU 0 instructions: 25000000 cycles: 91315917 heartbeat IPC: 0.130548 cumulative IPC: 0.174948 (Simulation time: 0 hr 13 min 23 sec) 
Heartbeat CPU 0 instructions: 26000001 cycles: 98355390 heartbeat IPC: 0.142056 cumulative IPC: 0.172452 (Simulation time: 0 hr 14 min 4 sec) 
Heartbeat CPU 0 instructions: 27000001 cycles: 104731797 heartbeat IPC: 0.156828 cumulative IPC: 0.171447 (Simulation time: 0 hr 14 min 48 sec) 
Heartbeat CPU 0 instructions: 28000000 cycles: 108415394 heartbeat IPC: 0.271473 cumulative IPC: 0.17503 (Simulation time: 0 hr 15 min 27 sec) 
Heartbeat CPU 0 instructions: 29000000 cycles: 112656314 heartbeat IPC: 0.235798 cumulative IPC: 0.177437 (Simulation time: 0 hr 16 min 3 sec) 
Heartbeat CPU 0 instructions: 30000001 cycles: 116864646 heartbeat IPC: 0.237624 cumulative IPC: 0.179713 (Simulation time: 0 hr 16 min 42 sec) 
Heartbeat CPU 0 instructions: 31000000 cycles: 121096233 heartbeat IPC: 0.236318 cumulative IPC: 0.181786 (Simulation time: 0 hr 17 min 25 sec) 
Heartbeat CPU 0 instructions: 32000000 cycles: 125354204 heartbeat IPC: 0.234854 cumulative IPC: 0.183673 (Simulation time: 0 hr 18 min 6 sec) 
Heartbeat CPU 0 instructions: 33000000 cycles: 129661758 heartbeat IPC: 0.23215 cumulative IPC: 0.185356 (Simulation time: 0 hr 18 min 55 sec) 
Heartbeat CPU 0 instructions: 34000000 cycles: 134038403 heartbeat IPC: 0.228486 cumulative IPC: 0.186825 (Simulation time: 0 hr 19 min 35 sec) 
Heartbeat CPU 0 instructions: 35000000 cycles: 149385218 heartbeat IPC: 0.0651601 cumulative IPC: 0.173841 (Simulation time: 0 hr 21 min 3 sec) 
Heartbeat CPU 0 instructions: 36000000 cycles: 153296462 heartbeat IPC: 0.255673 cumulative IPC: 0.176008 (Simulation time: 0 hr 21 min 32 sec) 
Heartbeat CPU 0 instructions: 37000003 cycles: 157164902 heartbeat IPC: 0.258503 cumulative IPC: 0.178113 (Simulation time: 0 hr 22 min 2 sec) 
Heartbeat CPU 0 instructions: 38000000 cycles: 161052474 heartbeat IPC: 0.257229 cumulative IPC: 0.180091 (Simulation time: 0 hr 22 min 41 sec) 
Heartbeat CPU 0 instructions: 39000000 cycles: 164855387 heartbeat IPC: 0.262956 cumulative IPC: 0.18207 (Simulation time: 0 hr 23 min 11 sec) 
Heartbeat CPU 0 instructions: 40000000 cycles: 168565281 heartbeat IPC: 0.269549 cumulative IPC: 0.184061 (Simulation time: 0 hr 23 min 44 sec) 
Heartbeat CPU 0 instructions: 41000000 cycles: 172264456 heartbeat IPC: 0.270331 cumulative IPC: 0.185976 (Simulation time: 0 hr 24 min 14 sec) 
Heartbeat CPU 0 instructions: 42000000 cycles: 175982739 heartbeat IPC: 0.268941 cumulative IPC: 0.187786 (Simulation time: 0 hr 24 min 50 sec) 
Heartbeat CPU 0 instructions: 43000002 cycles: 179701379 heartbeat IPC: 0.268916 cumulative IPC: 0.189519 (Simulation time: 0 hr 25 min 23 sec) 
Heartbeat CPU 0 instructions: 44000000 cycles: 183425013 heartbeat IPC: 0.268554 cumulative IPC: 0.191173 (Simulation time: 0 hr 25 min 52 sec) 
Heartbeat CPU 0 instructions: 45000001 cycles: 187119830 heartbeat IPC: 0.27065 cumulative IPC: 0.192791 (Simulation time: 0 hr 26 min 20 sec) 
Heartbeat CPU 0 instructions: 46000001 cycles: 190788688 heartbeat IPC: 0.272564 cumulative IPC: 0.194371 (Simulation time: 0 hr 26 min 50 sec) 
Heartbeat CPU 0 instructions: 47000001 cycles: 194462536 heartbeat IPC: 0.272194 cumulative IPC: 0.195885 (Simulation time: 0 hr 27 min 18 sec) 
Heartbeat CPU 0 instructions: 48000000 cycles: 198117835 heartbeat IPC: 0.273575 cumulative IPC: 0.19736 (Simulation time: 0 hr 27 min 47 sec) 
Heartbeat CPU 0 instructions: 49000000 cycles: 201798979 heartbeat IPC: 0.271655 cumulative IPC: 0.198753 (Simulation time: 0 hr 28 min 17 sec) 
Heartbeat CPU 0 instructions: 50000003 cycles: 205474258 heartbeat IPC: 0.272089 cumulative IPC: 0.200102 (Simulation time: 0 hr 28 min 45 sec) 
Heartbeat CPU 0 instructions: 51000001 cycles: 209151459 heartbeat IPC: 0.271945 cumulative IPC: 0.201399 (Simulation time: 0 hr 29 min 16 sec) 
Heartbeat CPU 0 instructions: 52000000 cycles: 212802027 heartbeat IPC: 0.27393 cumulative IPC: 0.202677 (Simulation time: 0 hr 29 min 53 sec) 
Heartbeat CPU 0 instructions: 53000001 cycles: 216469865 heartbeat IPC: 0.27264 cumulative IPC: 0.203894 (Simulation time: 0 hr 30 min 26 sec) 
Heartbeat CPU 0 instructions: 54000000 cycles: 220128814 heartbeat IPC: 0.273302 cumulative IPC: 0.205078 (Simulation time: 0 hr 30 min 56 sec) 
Heartbeat CPU 0 instructions: 55000000 cycles: 223803560 heartbeat IPC: 0.272128 cumulative IPC: 0.206207 (Simulation time: 0 hr 31 min 24 sec) 
Heartbeat CPU 0 instructions: 56000000 cycles: 227471157 heartbeat IPC: 0.272658 cumulative IPC: 0.207305 (Simulation time: 0 hr 31 min 54 sec) 
Heartbeat CPU 0 instructions: 57000002 cycles: 231092437 heartbeat IPC: 0.276146 cumulative IPC: 0.20841 (Simulation time: 0 hr 32 min 27 sec) 
Heartbeat CPU 0 instructions: 58000001 cycles: 234712261 heartbeat IPC: 0.276256 cumulative IPC: 0.209482 (Simulation time: 0 hr 33 min 3 sec) 
Heartbeat CPU 0 instructions: 59000003 cycles: 238303303 heartbeat IPC: 0.278471 cumulative IPC: 0.210547 (Simulation time: 0 hr 33 min 30 sec) 
Heartbeat CPU 0 instructions: 60000000 cycles: 241891805 heartbeat IPC: 0.278667 cumulative IPC: 0.211581 (Simulation time: 0 hr 33 min 59 sec) 
Heartbeat CPU 0 instructions: 61000000 cycles: 245473800 heartbeat IPC: 0.279174 cumulative IPC: 0.21259 (Simulation time: 0 hr 34 min 28 sec) 
Heartbeat CPU 0 instructions: 62000003 cycles: 249042688 heartbeat IPC: 0.2802 cumulative IPC: 0.213582 (Simulation time: 0 hr 35 min 0 sec) 
Heartbeat CPU 0 instructions: 63000001 cycles: 252633588 heartbeat IPC: 0.278481 cumulative IPC: 0.214525 (Simulation time: 0 hr 35 min 33 sec) 
Heartbeat CPU 0 instructions: 64000000 cycles: 256245539 heartbeat IPC: 0.276858 cumulative IPC: 0.215423 (Simulation time: 0 hr 36 min 4 sec) 
Heartbeat CPU 0 instructions: 65000000 cycles: 259906980 heartbeat IPC: 0.273116 cumulative IPC: 0.216254 (Simulation time: 0 hr 36 min 34 sec) 
Heartbeat CPU 0 instructions: 66000000 cycles: 263521621 heartbeat IPC: 0.276653 cumulative IPC: 0.2171 (Simulation time: 0 hr 37 min 1 sec) 
Heartbeat CPU 0 instructions: 67000001 cycles: 267384034 heartbeat IPC: 0.258906 cumulative IPC: 0.217717 (Simulation time: 0 hr 37 min 32 sec) 
Heartbeat CPU 0 instructions: 68000000 cycles: 271262126 heartbeat IPC: 0.257859 cumulative IPC: 0.218303 (Simulation time: 0 hr 37 min 59 sec) 
Heartbeat CPU 0 instructions: 69000003 cycles: 275133367 heartbeat IPC: 0.258316 cumulative IPC: 0.218877 (Simulation time: 0 hr 38 min 25 sec) 
Heartbeat CPU 0 instructions: 70000000 cycles: 279043972 heartbeat IPC: 0.255714 cumulative IPC: 0.219404 (Simulation time: 0 hr 38 min 50 sec) 
Heartbeat CPU 0 instructions: 71000002 cycles: 282748344 heartbeat IPC: 0.269952 cumulative IPC: 0.22008 (Simulation time: 0 hr 39 min 16 sec) 
Heartbeat CPU 0 instructions: 72000000 cycles: 286423798 heartbeat IPC: 0.272075 cumulative IPC: 0.22076 (Simulation time: 0 hr 39 min 41 sec) 
Heartbeat CPU 0 instructions: 73000003 cycles: 290104126 heartbeat IPC: 0.271716 cumulative IPC: 0.221419 (Simulation time: 0 hr 40 min 5 sec) 
Heartbeat CPU 0 instructions: 74000000 cycles: 293801524 heartbeat IPC: 0.27046 cumulative IPC: 0.222048 (Simulation time: 0 hr 40 min 29 sec) 
Heartbeat CPU 0 instructions: 75000000 cycles: 297498194 heartbeat IPC: 0.270514 cumulative IPC: 0.222662 (Simulation time: 0 hr 40 min 53 sec) 
Heartbeat CPU 0 instructions: 76000000 cycles: 301212058 heartbeat IPC: 0.269261 cumulative IPC: 0.223247 (Simulation time: 0 hr 41 min 16 sec) 
Heartbeat CPU 0 instructions: 77000000 cycles: 304901039 heartbeat IPC: 0.271078 cumulative IPC: 0.223837 (Simulation time: 0 hr 41 min 38 sec) 
Heartbeat CPU 0 instructions: 78000003 cycles: 308540647 heartbeat IPC: 0.274756 cumulative IPC: 0.224449 (Simulation time: 0 hr 42 min 0 sec) 
Heartbeat CPU 0 instructions: 79000000 cycles: 312204652 heartbeat IPC: 0.272925 cumulative IPC: 0.225028 (Simulation time: 0 hr 42 min 21 sec) 
Heartbeat CPU 0 instructions: 80000000 cycles: 315854608 heartbeat IPC: 0.273976 cumulative IPC: 0.225604 (Simulation time: 0 hr 42 min 49 sec) 
Heartbeat CPU 0 instructions: 81000001 cycles: 319498193 heartbeat IPC: 0.274455 cumulative IPC: 0.226171 (Simulation time: 0 hr 43 min 18 sec) 
Heartbeat CPU 0 instructions: 82000000 cycles: 323146420 heartbeat IPC: 0.274105 cumulative IPC: 0.226721 (Simulation time: 0 hr 43 min 46 sec) 
Heartbeat CPU 0 instructions: 83000003 cycles: 326823284 heartbeat IPC: 0.271972 cumulative IPC: 0.227239 (Simulation time: 0 hr 44 min 8 sec) 
Heartbeat CPU 0 instructions: 84000000 cycles: 330477636 heartbeat IPC: 0.273646 cumulative IPC: 0.227761 (Simulation time: 0 hr 44 min 26 sec) 
Heartbeat CPU 0 instructions: 85000000 cycles: 334122105 heartbeat IPC: 0.274388 cumulative IPC: 0.228278 (Simulation time: 0 hr 44 min 43 sec) 
Heartbeat CPU 0 instructions: 86000001 cycles: 337773428 heartbeat IPC: 0.273874 cumulative IPC: 0.22878 (Simulation time: 0 hr 45 min 0 sec) 
Heartbeat CPU 0 instructions: 87000001 cycles: 341434755 heartbeat IPC: 0.273125 cumulative IPC: 0.229263 (Simulation time: 0 hr 45 min 16 sec) 
Heartbeat CPU 0 instructions: 88000000 cycles: 345079257 heartbeat IPC: 0.274386 cumulative IPC: 0.229747 (Simulation time: 0 hr 45 min 33 sec) 
Heartbeat CPU 0 instructions: 89000003 cycles: 348727787 heartbeat IPC: 0.274084 cumulative IPC: 0.230219 (Simulation time: 0 hr 45 min 49 sec) 
Heartbeat CPU 0 instructions: 90000000 cycles: 352376767 heartbeat IPC: 0.274048 cumulative IPC: 0.23068 (Simulation time: 0 hr 46 min 6 sec) 
Heartbeat CPU 0 instructions: 91000000 cycles: 356013278 heartbeat IPC: 0.274989 cumulative IPC: 0.23114 (Simulation time: 0 hr 46 min 22 sec) 
Heartbeat CPU 0 instructions: 92000000 cycles: 359618856 heartbeat IPC: 0.277348 cumulative IPC: 0.23161 (Simulation time: 0 hr 46 min 37 sec) 
Heartbeat CPU 0 instructions: 93000001 cycles: 363218148 heartbeat IPC: 0.277833 cumulative IPC: 0.232076 (Simulation time: 0 hr 46 min 52 sec) 
Heartbeat CPU 0 instructions: 94000003 cycles: 366815433 heartbeat IPC: 0.277988 cumulative IPC: 0.232533 (Simulation time: 0 hr 47 min 6 sec) 
Heartbeat CPU 0 instructions: 95000002 cycles: 370417556 heartbeat IPC: 0.277614 cumulative IPC: 0.232978 (Simulation time: 0 hr 47 min 20 sec) 
Heartbeat CPU 0 instructions: 96000000 cycles: 374001682 heartbeat IPC: 0.279007 cumulative IPC: 0.233426 (Simulation time: 0 hr 47 min 33 sec) 
Heartbeat CPU 0 instructions: 97000000 cycles: 377575886 heartbeat IPC: 0.279783 cumulative IPC: 0.233871 (Simulation time: 0 hr 47 min 45 sec) 
Heartbeat CPU 0 instructions: 98000000 cycles: 381157555 heartbeat IPC: 0.279199 cumulative IPC: 0.234303 (Simulation time: 0 hr 47 min 58 sec) 
Heartbeat CPU 0 instructions: 99000000 cycles: 384754003 heartbeat IPC: 0.278052 cumulative IPC: 0.234718 (Simulation time: 0 hr 48 min 9 sec) 
Heartbeat CPU 0 instructions: 100000000 cycles: 388408497 heartbeat IPC: 0.273636 cumulative IPC: 0.23509 (Simulation time: 0 hr 48 min 18 sec) 
Heartbeat CPU 0 instructions: 101000000 cycles: 392020762 heartbeat IPC: 0.276835 cumulative IPC: 0.23548 (Simulation time: 0 hr 48 min 27 sec) 
Heartbeat CPU 0 instructions: 102000000 cycles: 396082634 heartbeat IPC: 0.246192 cumulative IPC: 0.235591 (Simulation time: 0 hr 48 min 35 sec) 
Heartbeat CPU 0 instructions: 103000002 cycles: 400654317 heartbeat IPC: 0.218738 cumulative IPC: 0.235396 (Simulation time: 0 hr 48 min 41 sec) 
Heartbeat CPU 0 instructions: 104000000 cycles: 404982505 heartbeat IPC: 0.231043 cumulative IPC: 0.235349 (Simulation time: 0 hr 48 min 47 sec) 
Heartbeat CPU 0 instructions: 105000000 cycles: 409186256 heartbeat IPC: 0.237883 cumulative IPC: 0.235376 (Simulation time: 0 hr 48 min 52 sec) 
Heartbeat CPU 0 instructions: 106000002 cycles: 413367898 heartbeat IPC: 0.239141 cumulative IPC: 0.235414 (Simulation time: 0 hr 48 min 57 sec) 
Heartbeat CPU 0 instructions: 107000000 cycles: 417587187 heartbeat IPC: 0.237006 cumulative IPC: 0.23543 (Simulation time: 0 hr 49 min 2 sec) 
Heartbeat CPU 0 instructions: 108000000 cycles: 421701214 heartbeat IPC: 0.243071 cumulative IPC: 0.235506 (Simulation time: 0 hr 49 min 7 sec) 
Heartbeat CPU 0 instructions: 109000000 cycles: 425800761 heartbeat IPC: 0.243929 cumulative IPC: 0.235588 (Simulation time: 0 hr 49 min 11 sec) 
Heartbeat CPU 0 instructions: 110000002 cycles: 429911388 heartbeat IPC: 0.243272 cumulative IPC: 0.235663 (Simulation time: 0 hr 49 min 16 sec) 
Finished CPU 0 instructions: 100000001 cycles: 424335451 cummulative IPC: 0.235663 (Simulation time: 0 hr 49 min 16 sec) 

ChampSim completed all CPUs

Region of Interest Statistics

CPU 0 cummulative IPC: 0.235663 instructions: 100000001 cycles: 424335451
LLC TOTAL     ACCESS:    1984662  HIT:     257900  MISS:    1726762
LLC LOAD      ACCESS:    1160896  HIT:     107602  MISS:    1053294
LLC RFO       ACCESS:     340270  HIT:      37853  MISS:     302417
LLC PREFETCH  ACCESS:          0  HIT:          0  MISS:          0
LLC WRITEBACK ACCESS:     483496  HIT:     112445  MISS:     371051
Insertion Distribution: 
	LOAD 36549 0 115953 1169318 
	RFO 3924 0 66720 396622 
	PREF 0 0 0 0 
	WRITEBACK 0 0 0 529253 
Total Prefetch Downgrades: 0
