
*** ChampSim Multicore Out-of-Order Simulator ***

Warmup Instructions: 10000000
Simulation Instructions: 100000000
Configuration: 1
Number of CPUs: 1
LLC sets: 2048
LLC ways: 16
Off-chip DRAM Channels: 1 Width: 64-bit Data Rate: 1600 MT/s

CPU 0 runs /datasets/cs240c-wi22-a00-public/data/Assignment2-gz/calculix_2655B.trace.gz
Initialize SRRIP state
Heartbeat CPU 0 instructions: 1000003 cycles: 371402 heartbeat IPC: 2.69251 cumulative IPC: 2.69251 (Simulation time: 0 hr 0 min 17 sec) 
Heartbeat CPU 0 instructions: 2000001 cycles: 746536 heartbeat IPC: 2.66571 cumulative IPC: 2.67904 (Simulation time: 0 hr 0 min 35 sec) 
Heartbeat CPU 0 instructions: 3000002 cycles: 1121180 heartbeat IPC: 2.6692 cumulative IPC: 2.67575 (Simulation time: 0 hr 0 min 52 sec) 
Heartbeat CPU 0 instructions: 4000000 cycles: 1487470 heartbeat IPC: 2.73007 cumulative IPC: 2.68913 (Simulation time: 0 hr 1 min 6 sec) 
Heartbeat CPU 0 instructions: 5000003 cycles: 1860159 heartbeat IPC: 2.68321 cumulative IPC: 2.68794 (Simulation time: 0 hr 1 min 22 sec) 
Heartbeat CPU 0 instructions: 6000003 cycles: 2234456 heartbeat IPC: 2.67168 cumulative IPC: 2.68522 (Simulation time: 0 hr 1 min 37 sec) 
Heartbeat CPU 0 instructions: 7000002 cycles: 2609638 heartbeat IPC: 2.66537 cumulative IPC: 2.68237 (Simulation time: 0 hr 1 min 54 sec) 
Heartbeat CPU 0 instructions: 8000000 cycles: 2984442 heartbeat IPC: 2.66806 cumulative IPC: 2.68057 (Simulation time: 0 hr 2 min 9 sec) 
Heartbeat CPU 0 instructions: 9000001 cycles: 3359277 heartbeat IPC: 2.66784 cumulative IPC: 2.67915 (Simulation time: 0 hr 2 min 23 sec) 
Heartbeat CPU 0 instructions: 10000000 cycles: 3724711 heartbeat IPC: 2.73647 cumulative IPC: 2.68477 (Simulation time: 0 hr 2 min 37 sec) 

Warmup complete CPU 0 instructions: 10000004 cycles: 3724712 (Simulation time: 0 hr 2 min 37 sec) 

Heartbeat CPU 0 instructions: 11000001 cycles: 4305660 heartbeat IPC: 1.72132 cumulative IPC: 1.72132 (Simulation time: 0 hr 2 min 55 sec) 
Heartbeat CPU 0 instructions: 12000000 cycles: 4878353 heartbeat IPC: 1.74613 cumulative IPC: 1.73364 (Simulation time: 0 hr 3 min 14 sec) 
Heartbeat CPU 0 instructions: 13000000 cycles: 5457065 heartbeat IPC: 1.72798 cumulative IPC: 1.73175 (Simulation time: 0 hr 3 min 32 sec) 
Heartbeat CPU 0 instructions: 14000001 cycles: 6025452 heartbeat IPC: 1.75937 cumulative IPC: 1.73857 (Simulation time: 0 hr 3 min 51 sec) 
Heartbeat CPU 0 instructions: 15000000 cycles: 6587327 heartbeat IPC: 1.77975 cumulative IPC: 1.74665 (Simulation time: 0 hr 4 min 10 sec) 
Heartbeat CPU 0 instructions: 16000000 cycles: 7537772 heartbeat IPC: 1.05214 cumulative IPC: 1.57354 (Simulation time: 0 hr 4 min 31 sec) 
Heartbeat CPU 0 instructions: 17000002 cycles: 8105236 heartbeat IPC: 1.76223 cumulative IPC: 1.59798 (Simulation time: 0 hr 4 min 50 sec) 
Heartbeat CPU 0 instructions: 18000000 cycles: 8668666 heartbeat IPC: 1.77484 cumulative IPC: 1.61814 (Simulation time: 0 hr 5 min 9 sec) 
Heartbeat CPU 0 instructions: 19000000 cycles: 9230296 heartbeat IPC: 1.78053 cumulative IPC: 1.6347 (Simulation time: 0 hr 5 min 28 sec) 
Heartbeat CPU 0 instructions: 20000000 cycles: 9794780 heartbeat IPC: 1.77153 cumulative IPC: 1.64743 (Simulation time: 0 hr 5 min 47 sec) 
Heartbeat CPU 0 instructions: 21000000 cycles: 10354928 heartbeat IPC: 1.78524 cumulative IPC: 1.65907 (Simulation time: 0 hr 6 min 6 sec) 
Heartbeat CPU 0 instructions: 22000003 cycles: 11300946 heartbeat IPC: 1.05707 cumulative IPC: 1.5839 (Simulation time: 0 hr 6 min 26 sec) 
Heartbeat CPU 0 instructions: 23000000 cycles: 11872318 heartbeat IPC: 1.75017 cumulative IPC: 1.59556 (Simulation time: 0 hr 6 min 46 sec) 
Heartbeat CPU 0 instructions: 24000000 cycles: 12444877 heartbeat IPC: 1.74654 cumulative IPC: 1.60547 (Simulation time: 0 hr 7 min 5 sec) 
Heartbeat CPU 0 instructions: 25000003 cycles: 13017478 heartbeat IPC: 1.74642 cumulative IPC: 1.61416 (Simulation time: 0 hr 7 min 23 sec) 
Heartbeat CPU 0 instructions: 26000001 cycles: 13583306 heartbeat IPC: 1.76732 cumulative IPC: 1.62295 (Simulation time: 0 hr 7 min 42 sec) 
Heartbeat CPU 0 instructions: 27000000 cycles: 14200307 heartbeat IPC: 1.62074 cumulative IPC: 1.62282 (Simulation time: 0 hr 8 min 2 sec) 
Heartbeat CPU 0 instructions: 28000000 cycles: 15105981 heartbeat IPC: 1.10415 cumulative IPC: 1.58155 (Simulation time: 0 hr 8 min 21 sec) 
Heartbeat CPU 0 instructions: 29000003 cycles: 15662532 heartbeat IPC: 1.79679 cumulative IPC: 1.59158 (Simulation time: 0 hr 8 min 41 sec) 
Heartbeat CPU 0 instructions: 30000001 cycles: 16237765 heartbeat IPC: 1.73842 cumulative IPC: 1.59833 (Simulation time: 0 hr 9 min 0 sec) 
Heartbeat CPU 0 instructions: 31000000 cycles: 16804425 heartbeat IPC: 1.76472 cumulative IPC: 1.60554 (Simulation time: 0 hr 9 min 19 sec) 
Heartbeat CPU 0 instructions: 32000000 cycles: 17366084 heartbeat IPC: 1.78044 cumulative IPC: 1.61274 (Simulation time: 0 hr 9 min 38 sec) 
Heartbeat CPU 0 instructions: 33000003 cycles: 18070582 heartbeat IPC: 1.41945 cumulative IPC: 1.60325 (Simulation time: 0 hr 10 min 0 sec) 
Heartbeat CPU 0 instructions: 34000002 cycles: 18922719 heartbeat IPC: 1.17352 cumulative IPC: 1.57915 (Simulation time: 0 hr 10 min 19 sec) 
Heartbeat CPU 0 instructions: 35000002 cycles: 19501986 heartbeat IPC: 1.72632 cumulative IPC: 1.58456 (Simulation time: 0 hr 10 min 39 sec) 
Heartbeat CPU 0 instructions: 36000000 cycles: 20076506 heartbeat IPC: 1.74058 cumulative IPC: 1.59004 (Simulation time: 0 hr 10 min 59 sec) 
Heartbeat CPU 0 instructions: 37000002 cycles: 20663048 heartbeat IPC: 1.70491 cumulative IPC: 1.59402 (Simulation time: 0 hr 11 min 18 sec) 
Heartbeat CPU 0 instructions: 38000003 cycles: 21232792 heartbeat IPC: 1.75518 cumulative IPC: 1.59926 (Simulation time: 0 hr 11 min 37 sec) 
Heartbeat CPU 0 instructions: 39000002 cycles: 21955273 heartbeat IPC: 1.38412 cumulative IPC: 1.59074 (Simulation time: 0 hr 11 min 58 sec) 
Heartbeat CPU 0 instructions: 40000000 cycles: 22640464 heartbeat IPC: 1.45944 cumulative IPC: 1.58598 (Simulation time: 0 hr 12 min 18 sec) 
Heartbeat CPU 0 instructions: 41000001 cycles: 23317613 heartbeat IPC: 1.47678 cumulative IPC: 1.58221 (Simulation time: 0 hr 12 min 38 sec) 
Heartbeat CPU 0 instructions: 42000003 cycles: 24034465 heartbeat IPC: 1.39499 cumulative IPC: 1.5756 (Simulation time: 0 hr 12 min 58 sec) 
Heartbeat CPU 0 instructions: 43000001 cycles: 24699682 heartbeat IPC: 1.50327 cumulative IPC: 1.5733 (Simulation time: 0 hr 13 min 18 sec) 
Heartbeat CPU 0 instructions: 44000000 cycles: 25658600 heartbeat IPC: 1.04284 cumulative IPC: 1.55011 (Simulation time: 0 hr 13 min 42 sec) 
Heartbeat CPU 0 instructions: 45000002 cycles: 26161572 heartbeat IPC: 1.98819 cumulative IPC: 1.55993 (Simulation time: 0 hr 14 min 2 sec) 
Heartbeat CPU 0 instructions: 46000003 cycles: 26860747 heartbeat IPC: 1.43026 cumulative IPC: 1.55601 (Simulation time: 0 hr 14 min 22 sec) 
Heartbeat CPU 0 instructions: 47000001 cycles: 27419225 heartbeat IPC: 1.79058 cumulative IPC: 1.56154 (Simulation time: 0 hr 14 min 45 sec) 
Heartbeat CPU 0 instructions: 48000000 cycles: 28143837 heartbeat IPC: 1.38005 cumulative IPC: 1.55616 (Simulation time: 0 hr 15 min 7 sec) 
Heartbeat CPU 0 instructions: 49000000 cycles: 28640746 heartbeat IPC: 2.01244 cumulative IPC: 1.56526 (Simulation time: 0 hr 15 min 26 sec) 
Heartbeat CPU 0 instructions: 50000002 cycles: 29222655 heartbeat IPC: 1.71849 cumulative IPC: 1.56875 (Simulation time: 0 hr 15 min 46 sec) 
Heartbeat CPU 0 instructions: 51000000 cycles: 29806117 heartbeat IPC: 1.7139 cumulative IPC: 1.572 (Simulation time: 0 hr 16 min 8 sec) 
Heartbeat CPU 0 instructions: 52000000 cycles: 30270074 heartbeat IPC: 2.15537 cumulative IPC: 1.5822 (Simulation time: 0 hr 16 min 29 sec) 
Heartbeat CPU 0 instructions: 53000002 cycles: 30972043 heartbeat IPC: 1.42457 cumulative IPC: 1.57814 (Simulation time: 0 hr 16 min 48 sec) 
Heartbeat CPU 0 instructions: 54000002 cycles: 32083065 heartbeat IPC: 0.900072 cumulative IPC: 1.55157 (Simulation time: 0 hr 17 min 14 sec) 
Heartbeat CPU 0 instructions: 55000002 cycles: 32803273 heartbeat IPC: 1.38849 cumulative IPC: 1.54753 (Simulation time: 0 hr 17 min 34 sec) 
Heartbeat CPU 0 instructions: 56000000 cycles: 33337915 heartbeat IPC: 1.87041 cumulative IPC: 1.55336 (Simulation time: 0 hr 17 min 53 sec) 
Heartbeat CPU 0 instructions: 57000000 cycles: 34073139 heartbeat IPC: 1.36013 cumulative IPC: 1.54868 (Simulation time: 0 hr 18 min 12 sec) 
Heartbeat CPU 0 instructions: 58000001 cycles: 34567691 heartbeat IPC: 2.02203 cumulative IPC: 1.55627 (Simulation time: 0 hr 18 min 33 sec) 
Heartbeat CPU 0 instructions: 59000000 cycles: 35297561 heartbeat IPC: 1.37011 cumulative IPC: 1.55197 (Simulation time: 0 hr 18 min 55 sec) 
Heartbeat CPU 0 instructions: 60000000 cycles: 35864809 heartbeat IPC: 1.7629 cumulative IPC: 1.55569 (Simulation time: 0 hr 19 min 23 sec) 
Heartbeat CPU 0 instructions: 61000002 cycles: 36474180 heartbeat IPC: 1.64104 cumulative IPC: 1.55728 (Simulation time: 0 hr 19 min 41 sec) 
Heartbeat CPU 0 instructions: 62000003 cycles: 37105332 heartbeat IPC: 1.58441 cumulative IPC: 1.55779 (Simulation time: 0 hr 20 min 2 sec) 
Heartbeat CPU 0 instructions: 63000002 cycles: 37995335 heartbeat IPC: 1.12359 cumulative IPC: 1.54651 (Simulation time: 0 hr 20 min 26 sec) 
Heartbeat CPU 0 instructions: 64000000 cycles: 38594837 heartbeat IPC: 1.66805 cumulative IPC: 1.5486 (Simulation time: 0 hr 20 min 46 sec) 
Heartbeat CPU 0 instructions: 65000001 cycles: 39222050 heartbeat IPC: 1.59436 cumulative IPC: 1.54941 (Simulation time: 0 hr 21 min 5 sec) 
Heartbeat CPU 0 instructions: 66000001 cycles: 40192852 heartbeat IPC: 1.03008 cumulative IPC: 1.53559 (Simulation time: 0 hr 21 min 25 sec) 
Heartbeat CPU 0 instructions: 67000001 cycles: 41208065 heartbeat IPC: 0.985015 cumulative IPC: 1.52067 (Simulation time: 0 hr 21 min 50 sec) 
Heartbeat CPU 0 instructions: 68000000 cycles: 42209135 heartbeat IPC: 0.99893 cumulative IPC: 1.5071 (Simulation time: 0 hr 22 min 13 sec) 
Heartbeat CPU 0 instructions: 69000001 cycles: 43189768 heartbeat IPC: 1.01975 cumulative IPC: 1.49499 (Simulation time: 0 hr 22 min 34 sec) 
Heartbeat CPU 0 instructions: 70000002 cycles: 44204076 heartbeat IPC: 0.985895 cumulative IPC: 1.48224 (Simulation time: 0 hr 22 min 54 sec) 
Heartbeat CPU 0 instructions: 71000003 cycles: 45213309 heartbeat IPC: 0.990852 cumulative IPC: 1.47028 (Simulation time: 0 hr 23 min 16 sec) 
Heartbeat CPU 0 instructions: 72000000 cycles: 46203447 heartbeat IPC: 1.00996 cumulative IPC: 1.45955 (Simulation time: 0 hr 23 min 37 sec) 
Heartbeat CPU 0 instructions: 73000000 cycles: 47126734 heartbeat IPC: 1.08309 cumulative IPC: 1.45155 (Simulation time: 0 hr 23 min 56 sec) 
Heartbeat CPU 0 instructions: 74000000 cycles: 47983118 heartbeat IPC: 1.1677 cumulative IPC: 1.44605 (Simulation time: 0 hr 24 min 22 sec) 
Heartbeat CPU 0 instructions: 75000000 cycles: 48957853 heartbeat IPC: 1.02592 cumulative IPC: 1.437 (Simulation time: 0 hr 24 min 42 sec) 
Heartbeat CPU 0 instructions: 76000000 cycles: 49933803 heartbeat IPC: 1.02464 cumulative IPC: 1.42829 (Simulation time: 0 hr 25 min 2 sec) 
Heartbeat CPU 0 instructions: 77000003 cycles: 50591973 heartbeat IPC: 1.51937 cumulative IPC: 1.42957 (Simulation time: 0 hr 25 min 22 sec) 
Heartbeat CPU 0 instructions: 78000002 cycles: 51168527 heartbeat IPC: 1.73444 cumulative IPC: 1.43327 (Simulation time: 0 hr 25 min 44 sec) 
Heartbeat CPU 0 instructions: 79000003 cycles: 51742090 heartbeat IPC: 1.74349 cumulative IPC: 1.43698 (Simulation time: 0 hr 26 min 7 sec) 
Heartbeat CPU 0 instructions: 80000000 cycles: 52317517 heartbeat IPC: 1.73783 cumulative IPC: 1.44054 (Simulation time: 0 hr 26 min 24 sec) 
Heartbeat CPU 0 instructions: 81000001 cycles: 52888255 heartbeat IPC: 1.75212 cumulative IPC: 1.44416 (Simulation time: 0 hr 26 min 44 sec) 
Heartbeat CPU 0 instructions: 82000001 cycles: 53456403 heartbeat IPC: 1.7601 cumulative IPC: 1.44777 (Simulation time: 0 hr 27 min 4 sec) 
Heartbeat CPU 0 instructions: 83000001 cycles: 54023970 heartbeat IPC: 1.76191 cumulative IPC: 1.45131 (Simulation time: 0 hr 27 min 23 sec) 
Heartbeat CPU 0 instructions: 84000000 cycles: 54731407 heartbeat IPC: 1.41355 cumulative IPC: 1.45079 (Simulation time: 0 hr 27 min 42 sec) 
Heartbeat CPU 0 instructions: 85000002 cycles: 55427336 heartbeat IPC: 1.43693 cumulative IPC: 1.4506 (Simulation time: 0 hr 28 min 3 sec) 
Heartbeat CPU 0 instructions: 86000000 cycles: 56267749 heartbeat IPC: 1.18989 cumulative IPC: 1.44643 (Simulation time: 0 hr 28 min 22 sec) 
Heartbeat CPU 0 instructions: 87000003 cycles: 57134930 heartbeat IPC: 1.15317 cumulative IPC: 1.44167 (Simulation time: 0 hr 28 min 42 sec) 
Heartbeat CPU 0 instructions: 88000000 cycles: 57763245 heartbeat IPC: 1.59155 cumulative IPC: 1.44341 (Simulation time: 0 hr 29 min 1 sec) 
Heartbeat CPU 0 instructions: 89000001 cycles: 58314800 heartbeat IPC: 1.81306 cumulative IPC: 1.44715 (Simulation time: 0 hr 29 min 24 sec) 
Heartbeat CPU 0 instructions: 90000001 cycles: 58833960 heartbeat IPC: 1.92619 cumulative IPC: 1.45166 (Simulation time: 0 hr 29 min 44 sec) 
Heartbeat CPU 0 instructions: 91000002 cycles: 59693428 heartbeat IPC: 1.16351 cumulative IPC: 1.44724 (Simulation time: 0 hr 30 min 3 sec) 
Heartbeat CPU 0 instructions: 92000000 cycles: 60375944 heartbeat IPC: 1.46516 cumulative IPC: 1.44745 (Simulation time: 0 hr 30 min 25 sec) 
Heartbeat CPU 0 instructions: 93000000 cycles: 60960900 heartbeat IPC: 1.70953 cumulative IPC: 1.45013 (Simulation time: 0 hr 30 min 42 sec) 
Heartbeat CPU 0 instructions: 94000003 cycles: 61523434 heartbeat IPC: 1.77768 cumulative IPC: 1.45332 (Simulation time: 0 hr 31 min 0 sec) 
Heartbeat CPU 0 instructions: 95000001 cycles: 62314346 heartbeat IPC: 1.26436 cumulative IPC: 1.45077 (Simulation time: 0 hr 31 min 19 sec) 
Heartbeat CPU 0 instructions: 96000000 cycles: 62889059 heartbeat IPC: 1.74 cumulative IPC: 1.45358 (Simulation time: 0 hr 31 min 37 sec) 
Heartbeat CPU 0 instructions: 97000002 cycles: 63445135 heartbeat IPC: 1.79832 cumulative IPC: 1.45679 (Simulation time: 0 hr 31 min 57 sec) 
Heartbeat CPU 0 instructions: 98000001 cycles: 63972906 heartbeat IPC: 1.89476 cumulative IPC: 1.46062 (Simulation time: 0 hr 32 min 18 sec) 
Heartbeat CPU 0 instructions: 99000003 cycles: 64743047 heartbeat IPC: 1.29847 cumulative IPC: 1.45858 (Simulation time: 0 hr 32 min 38 sec) 
Heartbeat CPU 0 instructions: 100000000 cycles: 65316552 heartbeat IPC: 1.74366 cumulative IPC: 1.46123 (Simulation time: 0 hr 32 min 59 sec) 
Heartbeat CPU 0 instructions: 101000002 cycles: 65859605 heartbeat IPC: 1.84144 cumulative IPC: 1.46456 (Simulation time: 0 hr 33 min 27 sec) 
Heartbeat CPU 0 instructions: 102000003 cycles: 66382881 heartbeat IPC: 1.91104 cumulative IPC: 1.46828 (Simulation time: 0 hr 33 min 48 sec) 
Heartbeat CPU 0 instructions: 103000003 cycles: 66984163 heartbeat IPC: 1.66311 cumulative IPC: 1.47014 (Simulation time: 0 hr 34 min 7 sec) 
Heartbeat CPU 0 instructions: 104000000 cycles: 67720354 heartbeat IPC: 1.35834 cumulative IPC: 1.46885 (Simulation time: 0 hr 34 min 26 sec) 
Heartbeat CPU 0 instructions: 105000001 cycles: 68190382 heartbeat IPC: 2.12753 cumulative IPC: 1.47365 (Simulation time: 0 hr 34 min 44 sec) 
Heartbeat CPU 0 instructions: 106000001 cycles: 68737268 heartbeat IPC: 1.82853 cumulative IPC: 1.47664 (Simulation time: 0 hr 35 min 2 sec) 
Heartbeat CPU 0 instructions: 107000002 cycles: 69318360 heartbeat IPC: 1.7209 cumulative IPC: 1.4788 (Simulation time: 0 hr 35 min 20 sec) 
Heartbeat CPU 0 instructions: 108000000 cycles: 69788009 heartbeat IPC: 2.12925 cumulative IPC: 1.48343 (Simulation time: 0 hr 35 min 36 sec) 
Heartbeat CPU 0 instructions: 109000002 cycles: 70442217 heartbeat IPC: 1.52857 cumulative IPC: 1.48387 (Simulation time: 0 hr 35 min 55 sec) 
Heartbeat CPU 0 instructions: 110000003 cycles: 70911188 heartbeat IPC: 2.13233 cumulative IPC: 1.48839 (Simulation time: 0 hr 36 min 12 sec) 
Finished CPU 0 instructions: 100000003 cycles: 67186477 cummulative IPC: 1.48839 (Simulation time: 0 hr 36 min 12 sec) 

ChampSim completed all CPUs

Region of Interest Statistics

CPU 0 cummulative IPC: 1.48839 instructions: 100000003 cycles: 67186477
LLC TOTAL     ACCESS:     827374  HIT:     635569  MISS:     191805
LLC LOAD      ACCESS:     730855  HIT:     539655  MISS:     191200
LLC RFO       ACCESS:        414  HIT:        393  MISS:         21
LLC PREFETCH  ACCESS:          0  HIT:          0  MISS:          0
LLC WRITEBACK ACCESS:      96105  HIT:      95521  MISS:        584
Insertion Distribution: 
	LOAD 58626 0 47148 105415 
	RFO 0 0 25 5 
	PREF 0 0 0 0 
	WRITEBACK 0 0 0 614 
Total Prefetch Downgrades: 0
