
*** ChampSim Multicore Out-of-Order Simulator ***

Warmup Instructions: 10000000
Simulation Instructions: 100000000
Configuration: 1
Number of CPUs: 1
LLC sets: 2048
LLC ways: 16
Off-chip DRAM Channels: 1 Width: 64-bit Data Rate: 1600 MT/s

CPU 0 runs /datasets/cs240c-wi22-a00-public/data/Assignment2-gz/cactusADM_734B.trace.gz
Initialize SRRIP state
Heartbeat CPU 0 instructions: 1000003 cycles: 592365 heartbeat IPC: 1.68815 cumulative IPC: 1.68815 (Simulation time: 0 hr 0 min 25 sec) 
Heartbeat CPU 0 instructions: 2000001 cycles: 1185295 heartbeat IPC: 1.68654 cumulative IPC: 1.68734 (Simulation time: 0 hr 0 min 53 sec) 
Heartbeat CPU 0 instructions: 3000003 cycles: 1778084 heartbeat IPC: 1.68694 cumulative IPC: 1.68721 (Simulation time: 0 hr 1 min 20 sec) 
Heartbeat CPU 0 instructions: 4000000 cycles: 2370621 heartbeat IPC: 1.68765 cumulative IPC: 1.68732 (Simulation time: 0 hr 1 min 47 sec) 
Heartbeat CPU 0 instructions: 5000000 cycles: 2963700 heartbeat IPC: 1.68612 cumulative IPC: 1.68708 (Simulation time: 0 hr 2 min 14 sec) 
Heartbeat CPU 0 instructions: 6000002 cycles: 3556615 heartbeat IPC: 1.68659 cumulative IPC: 1.687 (Simulation time: 0 hr 2 min 40 sec) 
Heartbeat CPU 0 instructions: 7000000 cycles: 4149221 heartbeat IPC: 1.68746 cumulative IPC: 1.68706 (Simulation time: 0 hr 3 min 5 sec) 
Heartbeat CPU 0 instructions: 8000000 cycles: 4741904 heartbeat IPC: 1.68724 cumulative IPC: 1.68709 (Simulation time: 0 hr 3 min 30 sec) 
Heartbeat CPU 0 instructions: 9000001 cycles: 5334751 heartbeat IPC: 1.68678 cumulative IPC: 1.68705 (Simulation time: 0 hr 3 min 55 sec) 
Heartbeat CPU 0 instructions: 10000003 cycles: 5955540 heartbeat IPC: 1.61086 cumulative IPC: 1.67911 (Simulation time: 0 hr 4 min 21 sec) 

Warmup complete CPU 0 instructions: 10000003 cycles: 5955540 (Simulation time: 0 hr 4 min 21 sec) 

Heartbeat CPU 0 instructions: 11000003 cycles: 12961191 heartbeat IPC: 0.142742 cumulative IPC: 0.142742 (Simulation time: 0 hr 4 min 53 sec) 
Heartbeat CPU 0 instructions: 12000000 cycles: 15062561 heartbeat IPC: 0.475879 cumulative IPC: 0.21961 (Simulation time: 0 hr 5 min 22 sec) 
Heartbeat CPU 0 instructions: 13000002 cycles: 17103309 heartbeat IPC: 0.490017 cumulative IPC: 0.269112 (Simulation time: 0 hr 5 min 50 sec) 
Heartbeat CPU 0 instructions: 14000000 cycles: 19136059 heartbeat IPC: 0.491943 cumulative IPC: 0.303478 (Simulation time: 0 hr 6 min 21 sec) 
Heartbeat CPU 0 instructions: 15000003 cycles: 21229839 heartbeat IPC: 0.477607 cumulative IPC: 0.327347 (Simulation time: 0 hr 6 min 51 sec) 
Heartbeat CPU 0 instructions: 16000000 cycles: 23326033 heartbeat IPC: 0.477054 cumulative IPC: 0.345413 (Simulation time: 0 hr 7 min 21 sec) 
Heartbeat CPU 0 instructions: 17000002 cycles: 25406567 heartbeat IPC: 0.480647 cumulative IPC: 0.359878 (Simulation time: 0 hr 7 min 52 sec) 
Heartbeat CPU 0 instructions: 18000001 cycles: 27415911 heartbeat IPC: 0.497674 cumulative IPC: 0.37278 (Simulation time: 0 hr 8 min 20 sec) 
Heartbeat CPU 0 instructions: 19000000 cycles: 29485616 heartbeat IPC: 0.48316 cumulative IPC: 0.382489 (Simulation time: 0 hr 8 min 49 sec) 
Heartbeat CPU 0 instructions: 20000000 cycles: 31593806 heartbeat IPC: 0.474341 cumulative IPC: 0.390042 (Simulation time: 0 hr 9 min 19 sec) 
Heartbeat CPU 0 instructions: 21000002 cycles: 33710726 heartbeat IPC: 0.472385 cumulative IPC: 0.396322 (Simulation time: 0 hr 9 min 56 sec) 
Heartbeat CPU 0 instructions: 22000000 cycles: 35806729 heartbeat IPC: 0.477098 cumulative IPC: 0.401994 (Simulation time: 0 hr 10 min 29 sec) 
Heartbeat CPU 0 instructions: 23000001 cycles: 37841040 heartbeat IPC: 0.491567 cumulative IPC: 0.407709 (Simulation time: 0 hr 10 min 57 sec) 
Heartbeat CPU 0 instructions: 24000000 cycles: 45744901 heartbeat IPC: 0.12652 cumulative IPC: 0.351853 (Simulation time: 0 hr 11 min 35 sec) 
Heartbeat CPU 0 instructions: 25000000 cycles: 47754337 heartbeat IPC: 0.497652 cumulative IPC: 0.358862 (Simulation time: 0 hr 12 min 7 sec) 
Heartbeat CPU 0 instructions: 26000002 cycles: 49740028 heartbeat IPC: 0.503604 cumulative IPC: 0.365426 (Simulation time: 0 hr 12 min 36 sec) 
Heartbeat CPU 0 instructions: 27000002 cycles: 51667754 heartbeat IPC: 0.518746 cumulative IPC: 0.371892 (Simulation time: 0 hr 13 min 6 sec) 
Heartbeat CPU 0 instructions: 28000000 cycles: 53645910 heartbeat IPC: 0.50552 cumulative IPC: 0.377435 (Simulation time: 0 hr 13 min 33 sec) 
Heartbeat CPU 0 instructions: 29000001 cycles: 55638256 heartbeat IPC: 0.501921 cumulative IPC: 0.382427 (Simulation time: 0 hr 14 min 3 sec) 
Heartbeat CPU 0 instructions: 30000001 cycles: 57637622 heartbeat IPC: 0.500159 cumulative IPC: 0.386981 (Simulation time: 0 hr 14 min 34 sec) 
Heartbeat CPU 0 instructions: 31000003 cycles: 59640799 heartbeat IPC: 0.499208 cumulative IPC: 0.391169 (Simulation time: 0 hr 15 min 6 sec) 
Heartbeat CPU 0 instructions: 32000000 cycles: 61596618 heartbeat IPC: 0.511293 cumulative IPC: 0.395391 (Simulation time: 0 hr 15 min 41 sec) 
Heartbeat CPU 0 instructions: 33000000 cycles: 63630343 heartbeat IPC: 0.491709 cumulative IPC: 0.398788 (Simulation time: 0 hr 16 min 11 sec) 
Heartbeat CPU 0 instructions: 34000001 cycles: 65702887 heartbeat IPC: 0.482499 cumulative IPC: 0.401691 (Simulation time: 0 hr 16 min 39 sec) 
Heartbeat CPU 0 instructions: 35000000 cycles: 67785945 heartbeat IPC: 0.480063 cumulative IPC: 0.404332 (Simulation time: 0 hr 17 min 11 sec) 
Heartbeat CPU 0 instructions: 36000000 cycles: 69816583 heartbeat IPC: 0.492456 cumulative IPC: 0.407134 (Simulation time: 0 hr 17 min 42 sec) 
Heartbeat CPU 0 instructions: 37000003 cycles: 77802538 heartbeat IPC: 0.12522 cumulative IPC: 0.375799 (Simulation time: 0 hr 18 min 18 sec) 
Heartbeat CPU 0 instructions: 38000001 cycles: 79852567 heartbeat IPC: 0.487797 cumulative IPC: 0.378906 (Simulation time: 0 hr 18 min 47 sec) 
Heartbeat CPU 0 instructions: 39000001 cycles: 81905745 heartbeat IPC: 0.48705 cumulative IPC: 0.381829 (Simulation time: 0 hr 19 min 16 sec) 
Heartbeat CPU 0 instructions: 40000000 cycles: 83899593 heartbeat IPC: 0.501542 cumulative IPC: 0.384891 (Simulation time: 0 hr 19 min 48 sec) 
Heartbeat CPU 0 instructions: 41000001 cycles: 85859492 heartbeat IPC: 0.510231 cumulative IPC: 0.387966 (Simulation time: 0 hr 20 min 18 sec) 
Heartbeat CPU 0 instructions: 42000002 cycles: 87893377 heartbeat IPC: 0.49167 cumulative IPC: 0.39054 (Simulation time: 0 hr 20 min 48 sec) 
Heartbeat CPU 0 instructions: 43000000 cycles: 89948443 heartbeat IPC: 0.486601 cumulative IPC: 0.39289 (Simulation time: 0 hr 21 min 17 sec) 
Heartbeat CPU 0 instructions: 44000000 cycles: 91978993 heartbeat IPC: 0.492477 cumulative IPC: 0.395241 (Simulation time: 0 hr 21 min 52 sec) 
Heartbeat CPU 0 instructions: 45000000 cycles: 93980964 heartbeat IPC: 0.499508 cumulative IPC: 0.397612 (Simulation time: 0 hr 22 min 22 sec) 
Heartbeat CPU 0 instructions: 46000003 cycles: 95959580 heartbeat IPC: 0.505405 cumulative IPC: 0.399982 (Simulation time: 0 hr 22 min 52 sec) 
Heartbeat CPU 0 instructions: 47000001 cycles: 98008344 heartbeat IPC: 0.488098 cumulative IPC: 0.401943 (Simulation time: 0 hr 23 min 23 sec) 
Heartbeat CPU 0 instructions: 48000000 cycles: 100077022 heartbeat IPC: 0.4834 cumulative IPC: 0.403734 (Simulation time: 0 hr 23 min 58 sec) 
Heartbeat CPU 0 instructions: 49000001 cycles: 102140866 heartbeat IPC: 0.484533 cumulative IPC: 0.405467 (Simulation time: 0 hr 24 min 29 sec) 
Heartbeat CPU 0 instructions: 50000003 cycles: 109970725 heartbeat IPC: 0.127716 cumulative IPC: 0.384559 (Simulation time: 0 hr 25 min 14 sec) 
Heartbeat CPU 0 instructions: 51000002 cycles: 111918482 heartbeat IPC: 0.513411 cumulative IPC: 0.386928 (Simulation time: 0 hr 25 min 43 sec) 
Heartbeat CPU 0 instructions: 52000000 cycles: 113858352 heartbeat IPC: 0.515497 cumulative IPC: 0.389239 (Simulation time: 0 hr 26 min 14 sec) 
Heartbeat CPU 0 instructions: 53000003 cycles: 115813145 heartbeat IPC: 0.511565 cumulative IPC: 0.391416 (Simulation time: 0 hr 26 min 44 sec) 
Heartbeat CPU 0 instructions: 54000000 cycles: 117694367 heartbeat IPC: 0.531568 cumulative IPC: 0.393775 (Simulation time: 0 hr 27 min 13 sec) 
Heartbeat CPU 0 instructions: 55000001 cycles: 119600976 heartbeat IPC: 0.524492 cumulative IPC: 0.395968 (Simulation time: 0 hr 27 min 41 sec) 
Heartbeat CPU 0 instructions: 56000000 cycles: 121607593 heartbeat IPC: 0.498351 cumulative IPC: 0.397745 (Simulation time: 0 hr 28 min 10 sec) 
Heartbeat CPU 0 instructions: 57000000 cycles: 123605859 heartbeat IPC: 0.500434 cumulative IPC: 0.399489 (Simulation time: 0 hr 28 min 39 sec) 
Heartbeat CPU 0 instructions: 58000001 cycles: 125611082 heartbeat IPC: 0.498698 cumulative IPC: 0.401151 (Simulation time: 0 hr 29 min 11 sec) 
Heartbeat CPU 0 instructions: 59000000 cycles: 127538167 heartbeat IPC: 0.518918 cumulative IPC: 0.403018 (Simulation time: 0 hr 29 min 40 sec) 
Heartbeat CPU 0 instructions: 60000000 cycles: 129524857 heartbeat IPC: 0.50335 cumulative IPC: 0.404631 (Simulation time: 0 hr 30 min 8 sec) 
Heartbeat CPU 0 instructions: 61000002 cycles: 131510940 heartbeat IPC: 0.503505 cumulative IPC: 0.406195 (Simulation time: 0 hr 30 min 41 sec) 
Heartbeat CPU 0 instructions: 62000000 cycles: 133559306 heartbeat IPC: 0.488193 cumulative IPC: 0.407511 (Simulation time: 0 hr 31 min 20 sec) 
Heartbeat CPU 0 instructions: 63000002 cycles: 141305677 heartbeat IPC: 0.129093 cumulative IPC: 0.391577 (Simulation time: 0 hr 31 min 58 sec) 
Heartbeat CPU 0 instructions: 64000000 cycles: 143564131 heartbeat IPC: 0.44278 cumulative IPC: 0.392417 (Simulation time: 0 hr 32 min 29 sec) 
Heartbeat CPU 0 instructions: 65000003 cycles: 145559224 heartbeat IPC: 0.501231 cumulative IPC: 0.393972 (Simulation time: 0 hr 32 min 59 sec) 
Heartbeat CPU 0 instructions: 66000000 cycles: 147548638 heartbeat IPC: 0.502659 cumulative IPC: 0.395499 (Simulation time: 0 hr 33 min 34 sec) 
Heartbeat CPU 0 instructions: 67000000 cycles: 149531491 heartbeat IPC: 0.504324 cumulative IPC: 0.397002 (Simulation time: 0 hr 34 min 5 sec) 
Heartbeat CPU 0 instructions: 68000000 cycles: 151411984 heartbeat IPC: 0.531775 cumulative IPC: 0.398745 (Simulation time: 0 hr 34 min 33 sec) 
Heartbeat CPU 0 instructions: 69000000 cycles: 153328407 heartbeat IPC: 0.521805 cumulative IPC: 0.400345 (Simulation time: 0 hr 35 min 2 sec) 
Heartbeat CPU 0 instructions: 70000001 cycles: 155306005 heartbeat IPC: 0.505664 cumulative IPC: 0.40174 (Simulation time: 0 hr 35 min 31 sec) 
Heartbeat CPU 0 instructions: 71000001 cycles: 157265879 heartbeat IPC: 0.510237 cumulative IPC: 0.403145 (Simulation time: 0 hr 36 min 0 sec) 
Heartbeat CPU 0 instructions: 72000000 cycles: 159223918 heartbeat IPC: 0.510715 cumulative IPC: 0.404519 (Simulation time: 0 hr 36 min 28 sec) 
Heartbeat CPU 0 instructions: 73000003 cycles: 161172399 heartbeat IPC: 0.513222 cumulative IPC: 0.405884 (Simulation time: 0 hr 36 min 56 sec) 
Heartbeat CPU 0 instructions: 74000003 cycles: 163191827 heartbeat IPC: 0.49519 cumulative IPC: 0.407031 (Simulation time: 0 hr 37 min 24 sec) 
Heartbeat CPU 0 instructions: 75000002 cycles: 165226803 heartbeat IPC: 0.491406 cumulative IPC: 0.408109 (Simulation time: 0 hr 37 min 51 sec) 
Heartbeat CPU 0 instructions: 76000000 cycles: 171745469 heartbeat IPC: 0.153405 cumulative IPC: 0.398094 (Simulation time: 0 hr 38 min 20 sec) 
Heartbeat CPU 0 instructions: 77000000 cycles: 175191197 heartbeat IPC: 0.290214 cumulative IPC: 0.395898 (Simulation time: 0 hr 38 min 45 sec) 
Heartbeat CPU 0 instructions: 78000002 cycles: 177092394 heartbeat IPC: 0.525985 cumulative IPC: 0.397343 (Simulation time: 0 hr 39 min 9 sec) 
Heartbeat CPU 0 instructions: 79000002 cycles: 179064812 heartbeat IPC: 0.506992 cumulative IPC: 0.398592 (Simulation time: 0 hr 39 min 33 sec) 
Heartbeat CPU 0 instructions: 80000000 cycles: 181012021 heartbeat IPC: 0.513555 cumulative IPC: 0.399871 (Simulation time: 0 hr 39 min 57 sec) 
Heartbeat CPU 0 instructions: 81000000 cycles: 182944581 heartbeat IPC: 0.517448 cumulative IPC: 0.401155 (Simulation time: 0 hr 40 min 21 sec) 
Heartbeat CPU 0 instructions: 82000003 cycles: 184805016 heartbeat IPC: 0.53751 cumulative IPC: 0.402573 (Simulation time: 0 hr 40 min 44 sec) 
Heartbeat CPU 0 instructions: 83000003 cycles: 186743177 heartbeat IPC: 0.515953 cumulative IPC: 0.403789 (Simulation time: 0 hr 41 min 10 sec) 
Heartbeat CPU 0 instructions: 84000000 cycles: 188719099 heartbeat IPC: 0.506091 cumulative IPC: 0.404895 (Simulation time: 0 hr 41 min 32 sec) 
Heartbeat CPU 0 instructions: 85000003 cycles: 190704046 heartbeat IPC: 0.503793 cumulative IPC: 0.405957 (Simulation time: 0 hr 41 min 54 sec) 
Heartbeat CPU 0 instructions: 86000000 cycles: 192621765 heartbeat IPC: 0.521451 cumulative IPC: 0.407144 (Simulation time: 0 hr 42 min 15 sec) 
Heartbeat CPU 0 instructions: 87000000 cycles: 194566645 heartbeat IPC: 0.514171 cumulative IPC: 0.408247 (Simulation time: 0 hr 42 min 37 sec) 
Heartbeat CPU 0 instructions: 88000000 cycles: 196619704 heartbeat IPC: 0.487078 cumulative IPC: 0.409096 (Simulation time: 0 hr 42 min 56 sec) 
Heartbeat CPU 0 instructions: 89000002 cycles: 202050606 heartbeat IPC: 0.184132 cumulative IPC: 0.402866 (Simulation time: 0 hr 43 min 17 sec) 
Heartbeat CPU 0 instructions: 90000002 cycles: 206611600 heartbeat IPC: 0.21925 cumulative IPC: 0.398692 (Simulation time: 0 hr 43 min 36 sec) 
Heartbeat CPU 0 instructions: 91000003 cycles: 208474586 heartbeat IPC: 0.536773 cumulative IPC: 0.399962 (Simulation time: 0 hr 43 min 54 sec) 
Heartbeat CPU 0 instructions: 92000000 cycles: 210459228 heartbeat IPC: 0.503868 cumulative IPC: 0.400971 (Simulation time: 0 hr 44 min 10 sec) 
Heartbeat CPU 0 instructions: 93000000 cycles: 212392989 heartbeat IPC: 0.517127 cumulative IPC: 0.402059 (Simulation time: 0 hr 44 min 28 sec) 
Heartbeat CPU 0 instructions: 94000003 cycles: 214344080 heartbeat IPC: 0.512535 cumulative IPC: 0.403093 (Simulation time: 0 hr 44 min 44 sec) 
Heartbeat CPU 0 instructions: 95000000 cycles: 216248150 heartbeat IPC: 0.525189 cumulative IPC: 0.404199 (Simulation time: 0 hr 45 min 1 sec) 
Heartbeat CPU 0 instructions: 96000000 cycles: 218148309 heartbeat IPC: 0.526272 cumulative IPC: 0.405292 (Simulation time: 0 hr 45 min 17 sec) 
Heartbeat CPU 0 instructions: 97000001 cycles: 220120154 heartbeat IPC: 0.50714 cumulative IPC: 0.40623 (Simulation time: 0 hr 45 min 33 sec) 
Heartbeat CPU 0 instructions: 98000000 cycles: 222109552 heartbeat IPC: 0.502664 cumulative IPC: 0.407117 (Simulation time: 0 hr 45 min 49 sec) 
Heartbeat CPU 0 instructions: 99000001 cycles: 224092962 heartbeat IPC: 0.504183 cumulative IPC: 0.408 (Simulation time: 0 hr 46 min 5 sec) 
Heartbeat CPU 0 instructions: 100000000 cycles: 226015931 heartbeat IPC: 0.520029 cumulative IPC: 0.408979 (Simulation time: 0 hr 46 min 20 sec) 
Heartbeat CPU 0 instructions: 101000000 cycles: 227979186 heartbeat IPC: 0.509358 cumulative IPC: 0.409866 (Simulation time: 0 hr 46 min 33 sec) 
Heartbeat CPU 0 instructions: 102000000 cycles: 232339794 heartbeat IPC: 0.229326 cumulative IPC: 0.406389 (Simulation time: 0 hr 46 min 47 sec) 
Heartbeat CPU 0 instructions: 103000000 cycles: 237994799 heartbeat IPC: 0.176835 cumulative IPC: 0.400794 (Simulation time: 0 hr 47 min 2 sec) 
Heartbeat CPU 0 instructions: 104000000 cycles: 239907918 heartbeat IPC: 0.522707 cumulative IPC: 0.401791 (Simulation time: 0 hr 47 min 15 sec) 
Heartbeat CPU 0 instructions: 105000000 cycles: 241818046 heartbeat IPC: 0.523525 cumulative IPC: 0.402777 (Simulation time: 0 hr 47 min 27 sec) 
Heartbeat CPU 0 instructions: 106000002 cycles: 243755950 heartbeat IPC: 0.516022 cumulative IPC: 0.4037 (Simulation time: 0 hr 47 min 38 sec) 
Heartbeat CPU 0 instructions: 107000001 cycles: 245716278 heartbeat IPC: 0.510118 cumulative IPC: 0.40457 (Simulation time: 0 hr 47 min 50 sec) 
Heartbeat CPU 0 instructions: 108000000 cycles: 247645991 heartbeat IPC: 0.518211 cumulative IPC: 0.405477 (Simulation time: 0 hr 48 min 1 sec) 
Heartbeat CPU 0 instructions: 109000001 cycles: 249509114 heartbeat IPC: 0.536734 cumulative IPC: 0.406481 (Simulation time: 0 hr 48 min 11 sec) 
Heartbeat CPU 0 instructions: 110000003 cycles: 251405260 heartbeat IPC: 0.527387 cumulative IPC: 0.407415 (Simulation time: 0 hr 48 min 20 sec) 
Finished CPU 0 instructions: 100000000 cycles: 245449720 cummulative IPC: 0.407415 (Simulation time: 0 hr 48 min 20 sec) 

ChampSim completed all CPUs

Region of Interest Statistics

CPU 0 cummulative IPC: 0.407415 instructions: 100000000 cycles: 245449720
LLC TOTAL     ACCESS:    1162156  HIT:     362187  MISS:     799969
LLC LOAD      ACCESS:     632027  HIT:     155728  MISS:     476299
LLC RFO       ACCESS:     264148  HIT:      78025  MISS:     186123
LLC PREFETCH  ACCESS:          0  HIT:          0  MISS:          0
LLC WRITEBACK ACCESS:     265981  HIT:     128434  MISS:     137547
Insertion Distribution: 
	LOAD 66518 0 65538 395431 
	RFO 10925 0 20544 167147 
	PREF 0 0 0 0 
	WRITEBACK 0 0 0 140046 
Total Prefetch Downgrades: 0
