
*** ChampSim Multicore Out-of-Order Simulator ***

Warmup Instructions: 10000000
Simulation Instructions: 100000000
Configuration: 1
Number of CPUs: 1
LLC sets: 2048
LLC ways: 16
Off-chip DRAM Channels: 1 Width: 64-bit Data Rate: 1600 MT/s

CPU 0 runs /datasets/cs240c-wi22-a00-public/data/Assignment2-gz/libquantum_1210B.trace.gz
Initialize SRRIP state
Heartbeat CPU 0 instructions: 1000003 cycles: 314916 heartbeat IPC: 3.17546 cumulative IPC: 3.17546 (Simulation time: 0 hr 0 min 14 sec) 
Heartbeat CPU 0 instructions: 2000000 cycles: 630173 heartbeat IPC: 3.17201 cumulative IPC: 3.17373 (Simulation time: 0 hr 0 min 27 sec) 
Heartbeat CPU 0 instructions: 3000003 cycles: 945982 heartbeat IPC: 3.16648 cumulative IPC: 3.17131 (Simulation time: 0 hr 0 min 41 sec) 
Heartbeat CPU 0 instructions: 4000000 cycles: 1260334 heartbeat IPC: 3.18114 cumulative IPC: 3.17376 (Simulation time: 0 hr 0 min 54 sec) 
Heartbeat CPU 0 instructions: 5000000 cycles: 1576820 heartbeat IPC: 3.1597 cumulative IPC: 3.17094 (Simulation time: 0 hr 1 min 7 sec) 
Heartbeat CPU 0 instructions: 6000000 cycles: 1891319 heartbeat IPC: 3.17966 cumulative IPC: 3.17239 (Simulation time: 0 hr 1 min 21 sec) 
Heartbeat CPU 0 instructions: 7000000 cycles: 2206983 heartbeat IPC: 3.16793 cumulative IPC: 3.17175 (Simulation time: 0 hr 1 min 36 sec) 
Heartbeat CPU 0 instructions: 8000000 cycles: 2522387 heartbeat IPC: 3.17054 cumulative IPC: 3.1716 (Simulation time: 0 hr 1 min 49 sec) 
Heartbeat CPU 0 instructions: 9000000 cycles: 2837146 heartbeat IPC: 3.17703 cumulative IPC: 3.1722 (Simulation time: 0 hr 2 min 4 sec) 
Heartbeat CPU 0 instructions: 10000001 cycles: 3153454 heartbeat IPC: 3.16148 cumulative IPC: 3.17113 (Simulation time: 0 hr 2 min 17 sec) 

Warmup complete CPU 0 instructions: 10000001 cycles: 3153454 (Simulation time: 0 hr 2 min 17 sec) 

Heartbeat CPU 0 instructions: 11000001 cycles: 6367497 heartbeat IPC: 0.311135 cumulative IPC: 0.311135 (Simulation time: 0 hr 2 min 41 sec) 
Heartbeat CPU 0 instructions: 12000000 cycles: 9479538 heartbeat IPC: 0.321332 cumulative IPC: 0.316151 (Simulation time: 0 hr 3 min 4 sec) 
Heartbeat CPU 0 instructions: 13000003 cycles: 13184643 heartbeat IPC: 0.269899 cumulative IPC: 0.299067 (Simulation time: 0 hr 3 min 30 sec) 
Heartbeat CPU 0 instructions: 14000001 cycles: 17040812 heartbeat IPC: 0.259324 cumulative IPC: 0.288032 (Simulation time: 0 hr 3 min 56 sec) 
Heartbeat CPU 0 instructions: 15000001 cycles: 20885538 heartbeat IPC: 0.260097 cumulative IPC: 0.281975 (Simulation time: 0 hr 4 min 22 sec) 
Heartbeat CPU 0 instructions: 16000000 cycles: 24754734 heartbeat IPC: 0.258451 cumulative IPC: 0.277761 (Simulation time: 0 hr 4 min 48 sec) 
Heartbeat CPU 0 instructions: 17000000 cycles: 28626157 heartbeat IPC: 0.258303 cumulative IPC: 0.274804 (Simulation time: 0 hr 5 min 14 sec) 
Heartbeat CPU 0 instructions: 18000000 cycles: 32524239 heartbeat IPC: 0.256536 cumulative IPC: 0.272379 (Simulation time: 0 hr 5 min 39 sec) 
Heartbeat CPU 0 instructions: 19000000 cycles: 35706606 heartbeat IPC: 0.314232 cumulative IPC: 0.276471 (Simulation time: 0 hr 6 min 3 sec) 
Heartbeat CPU 0 instructions: 20000000 cycles: 39525253 heartbeat IPC: 0.261873 cumulative IPC: 0.274938 (Simulation time: 0 hr 6 min 29 sec) 
Heartbeat CPU 0 instructions: 21000001 cycles: 43352382 heartbeat IPC: 0.261293 cumulative IPC: 0.273639 (Simulation time: 0 hr 6 min 54 sec) 
Heartbeat CPU 0 instructions: 22000001 cycles: 47170017 heartbeat IPC: 0.261942 cumulative IPC: 0.272625 (Simulation time: 0 hr 7 min 21 sec) 
Heartbeat CPU 0 instructions: 23000000 cycles: 51031549 heartbeat IPC: 0.258964 cumulative IPC: 0.271523 (Simulation time: 0 hr 7 min 50 sec) 
Heartbeat CPU 0 instructions: 24000000 cycles: 54923265 heartbeat IPC: 0.256956 cumulative IPC: 0.270428 (Simulation time: 0 hr 8 min 16 sec) 
Heartbeat CPU 0 instructions: 25000000 cycles: 58813961 heartbeat IPC: 0.257023 cumulative IPC: 0.269491 (Simulation time: 0 hr 8 min 40 sec) 
Heartbeat CPU 0 instructions: 26000000 cycles: 62703187 heartbeat IPC: 0.257121 cumulative IPC: 0.268683 (Simulation time: 0 hr 9 min 5 sec) 
Heartbeat CPU 0 instructions: 27000003 cycles: 66589526 heartbeat IPC: 0.257312 cumulative IPC: 0.267986 (Simulation time: 0 hr 9 min 32 sec) 
Heartbeat CPU 0 instructions: 28000000 cycles: 70059919 heartbeat IPC: 0.288151 cumulative IPC: 0.269032 (Simulation time: 0 hr 10 min 2 sec) 
Heartbeat CPU 0 instructions: 29000002 cycles: 71498595 heartbeat IPC: 0.695085 cumulative IPC: 0.278001 (Simulation time: 0 hr 10 min 27 sec) 
Heartbeat CPU 0 instructions: 30000001 cycles: 73426336 heartbeat IPC: 0.518741 cumulative IPC: 0.284605 (Simulation time: 0 hr 10 min 53 sec) 
Heartbeat CPU 0 instructions: 31000000 cycles: 75342235 heartbeat IPC: 0.521948 cumulative IPC: 0.290904 (Simulation time: 0 hr 11 min 18 sec) 
Heartbeat CPU 0 instructions: 32000000 cycles: 77257955 heartbeat IPC: 0.521997 cumulative IPC: 0.296878 (Simulation time: 0 hr 11 min 44 sec) 
Heartbeat CPU 0 instructions: 33000000 cycles: 79173902 heartbeat IPC: 0.521935 cumulative IPC: 0.30255 (Simulation time: 0 hr 12 min 8 sec) 
Heartbeat CPU 0 instructions: 34000002 cycles: 81089617 heartbeat IPC: 0.521999 cumulative IPC: 0.307944 (Simulation time: 0 hr 12 min 32 sec) 
Heartbeat CPU 0 instructions: 35000001 cycles: 83005523 heartbeat IPC: 0.521946 cumulative IPC: 0.313079 (Simulation time: 0 hr 12 min 56 sec) 
Heartbeat CPU 0 instructions: 36000000 cycles: 84586031 heartbeat IPC: 0.632707 cumulative IPC: 0.319283 (Simulation time: 0 hr 13 min 26 sec) 
Heartbeat CPU 0 instructions: 37000003 cycles: 86498917 heartbeat IPC: 0.522772 cumulative IPC: 0.323953 (Simulation time: 0 hr 13 min 51 sec) 
Heartbeat CPU 0 instructions: 38000002 cycles: 88414633 heartbeat IPC: 0.521998 cumulative IPC: 0.328403 (Simulation time: 0 hr 14 min 15 sec) 
Heartbeat CPU 0 instructions: 39000001 cycles: 90330430 heartbeat IPC: 0.521975 cumulative IPC: 0.332657 (Simulation time: 0 hr 14 min 40 sec) 
Heartbeat CPU 0 instructions: 40000000 cycles: 92246230 heartbeat IPC: 0.521975 cumulative IPC: 0.336728 (Simulation time: 0 hr 15 min 4 sec) 
Heartbeat CPU 0 instructions: 41000001 cycles: 94162069 heartbeat IPC: 0.521965 cumulative IPC: 0.340627 (Simulation time: 0 hr 15 min 30 sec) 
Heartbeat CPU 0 instructions: 42000000 cycles: 96077785 heartbeat IPC: 0.521998 cumulative IPC: 0.344366 (Simulation time: 0 hr 15 min 56 sec) 
Heartbeat CPU 0 instructions: 43000002 cycles: 97993583 heartbeat IPC: 0.521977 cumulative IPC: 0.347954 (Simulation time: 0 hr 16 min 21 sec) 
Heartbeat CPU 0 instructions: 44000000 cycles: 99909383 heartbeat IPC: 0.521974 cumulative IPC: 0.3514 (Simulation time: 0 hr 16 min 48 sec) 
Heartbeat CPU 0 instructions: 45000000 cycles: 101825225 heartbeat IPC: 0.521964 cumulative IPC: 0.354711 (Simulation time: 0 hr 17 min 20 sec) 
Heartbeat CPU 0 instructions: 46000001 cycles: 103740943 heartbeat IPC: 0.521998 cumulative IPC: 0.357897 (Simulation time: 0 hr 17 min 46 sec) 
Heartbeat CPU 0 instructions: 47000002 cycles: 105588264 heartbeat IPC: 0.541325 cumulative IPC: 0.361205 (Simulation time: 0 hr 18 min 10 sec) 
Heartbeat CPU 0 instructions: 48000000 cycles: 108224217 heartbeat IPC: 0.379369 cumulative IPC: 0.361661 (Simulation time: 0 hr 18 min 35 sec) 
Heartbeat CPU 0 instructions: 49000003 cycles: 111419954 heartbeat IPC: 0.312918 cumulative IPC: 0.360222 (Simulation time: 0 hr 19 min 0 sec) 
Heartbeat CPU 0 instructions: 50000003 cycles: 114647219 heartbeat IPC: 0.30986 cumulative IPC: 0.358764 (Simulation time: 0 hr 19 min 22 sec) 
Heartbeat CPU 0 instructions: 51000000 cycles: 117887441 heartbeat IPC: 0.30862 cumulative IPC: 0.357348 (Simulation time: 0 hr 19 min 51 sec) 
Heartbeat CPU 0 instructions: 52000000 cycles: 121144347 heartbeat IPC: 0.30704 cumulative IPC: 0.35596 (Simulation time: 0 hr 20 min 30 sec) 
Heartbeat CPU 0 instructions: 53000003 cycles: 124326079 heartbeat IPC: 0.314295 cumulative IPC: 0.354866 (Simulation time: 0 hr 21 min 0 sec) 
Heartbeat CPU 0 instructions: 54000003 cycles: 127050152 heartbeat IPC: 0.367097 cumulative IPC: 0.355135 (Simulation time: 0 hr 21 min 25 sec) 
Heartbeat CPU 0 instructions: 55000002 cycles: 130262159 heartbeat IPC: 0.311332 cumulative IPC: 0.354028 (Simulation time: 0 hr 21 min 54 sec) 
Heartbeat CPU 0 instructions: 56000000 cycles: 133498890 heartbeat IPC: 0.308953 cumulative IPC: 0.352908 (Simulation time: 0 hr 22 min 21 sec) 
Heartbeat CPU 0 instructions: 57000001 cycles: 136735175 heartbeat IPC: 0.308997 cumulative IPC: 0.351845 (Simulation time: 0 hr 22 min 45 sec) 
Heartbeat CPU 0 instructions: 58000000 cycles: 139975159 heartbeat IPC: 0.308643 cumulative IPC: 0.350822 (Simulation time: 0 hr 23 min 10 sec) 
Heartbeat CPU 0 instructions: 59000000 cycles: 143191335 heartbeat IPC: 0.310928 cumulative IPC: 0.349905 (Simulation time: 0 hr 23 min 35 sec) 
Heartbeat CPU 0 instructions: 60000000 cycles: 146389954 heartbeat IPC: 0.312635 cumulative IPC: 0.349073 (Simulation time: 0 hr 24 min 2 sec) 
Heartbeat CPU 0 instructions: 61000001 cycles: 149614276 heartbeat IPC: 0.310143 cumulative IPC: 0.348216 (Simulation time: 0 hr 24 min 27 sec) 
Heartbeat CPU 0 instructions: 62000000 cycles: 152853573 heartbeat IPC: 0.308709 cumulative IPC: 0.347361 (Simulation time: 0 hr 24 min 53 sec) 
Heartbeat CPU 0 instructions: 63000001 cycles: 155130414 heartbeat IPC: 0.439205 cumulative IPC: 0.348737 (Simulation time: 0 hr 25 min 18 sec) 
Heartbeat CPU 0 instructions: 64000000 cycles: 157956018 heartbeat IPC: 0.353906 cumulative IPC: 0.348831 (Simulation time: 0 hr 25 min 43 sec) 
Heartbeat CPU 0 instructions: 65000000 cycles: 161065246 heartbeat IPC: 0.321623 cumulative IPC: 0.348296 (Simulation time: 0 hr 26 min 13 sec) 
Heartbeat CPU 0 instructions: 66000001 cycles: 164246629 heartbeat IPC: 0.314329 cumulative IPC: 0.347625 (Simulation time: 0 hr 26 min 37 sec) 
Heartbeat CPU 0 instructions: 67000000 cycles: 167323166 heartbeat IPC: 0.32504 cumulative IPC: 0.347202 (Simulation time: 0 hr 27 min 1 sec) 
Heartbeat CPU 0 instructions: 68000000 cycles: 170517221 heartbeat IPC: 0.313082 cumulative IPC: 0.346551 (Simulation time: 0 hr 27 min 26 sec) 
Heartbeat CPU 0 instructions: 69000002 cycles: 173653262 heartbeat IPC: 0.318874 cumulative IPC: 0.346041 (Simulation time: 0 hr 27 min 49 sec) 
Heartbeat CPU 0 instructions: 70000000 cycles: 176800237 heartbeat IPC: 0.317765 cumulative IPC: 0.345529 (Simulation time: 0 hr 28 min 15 sec) 
Heartbeat CPU 0 instructions: 71000000 cycles: 179399491 heartbeat IPC: 0.384726 cumulative IPC: 0.346107 (Simulation time: 0 hr 28 min 48 sec) 
Heartbeat CPU 0 instructions: 72000000 cycles: 182478162 heartbeat IPC: 0.324815 cumulative IPC: 0.345742 (Simulation time: 0 hr 29 min 11 sec) 
Heartbeat CPU 0 instructions: 73000002 cycles: 185675987 heartbeat IPC: 0.312713 cumulative IPC: 0.345163 (Simulation time: 0 hr 29 min 36 sec) 
Heartbeat CPU 0 instructions: 74000002 cycles: 188763478 heartbeat IPC: 0.323888 cumulative IPC: 0.344809 (Simulation time: 0 hr 30 min 3 sec) 
Heartbeat CPU 0 instructions: 75000001 cycles: 191922092 heartbeat IPC: 0.316594 cumulative IPC: 0.344337 (Simulation time: 0 hr 30 min 27 sec) 
Heartbeat CPU 0 instructions: 76000000 cycles: 195070878 heartbeat IPC: 0.317582 cumulative IPC: 0.343898 (Simulation time: 0 hr 30 min 54 sec) 
Heartbeat CPU 0 instructions: 77000002 cycles: 198209751 heartbeat IPC: 0.318586 cumulative IPC: 0.343491 (Simulation time: 0 hr 31 min 20 sec) 
Heartbeat CPU 0 instructions: 78000002 cycles: 201415480 heartbeat IPC: 0.311942 cumulative IPC: 0.34298 (Simulation time: 0 hr 31 min 45 sec) 
Heartbeat CPU 0 instructions: 79000001 cycles: 204492949 heartbeat IPC: 0.324942 cumulative IPC: 0.342705 (Simulation time: 0 hr 32 min 8 sec) 
Heartbeat CPU 0 instructions: 80000000 cycles: 207700625 heartbeat IPC: 0.311752 cumulative IPC: 0.342219 (Simulation time: 0 hr 32 min 36 sec) 
Heartbeat CPU 0 instructions: 81000001 cycles: 210831795 heartbeat IPC: 0.31937 cumulative IPC: 0.341875 (Simulation time: 0 hr 33 min 2 sec) 
Heartbeat CPU 0 instructions: 82000000 cycles: 213989115 heartbeat IPC: 0.316724 cumulative IPC: 0.341498 (Simulation time: 0 hr 33 min 25 sec) 
Heartbeat CPU 0 instructions: 83000001 cycles: 216288771 heartbeat IPC: 0.434848 cumulative IPC: 0.342505 (Simulation time: 0 hr 33 min 47 sec) 
Heartbeat CPU 0 instructions: 84000000 cycles: 219703441 heartbeat IPC: 0.292854 cumulative IPC: 0.341722 (Simulation time: 0 hr 34 min 14 sec) 
Heartbeat CPU 0 instructions: 85000001 cycles: 223183507 heartbeat IPC: 0.287351 cumulative IPC: 0.340863 (Simulation time: 0 hr 34 min 42 sec) 
Heartbeat CPU 0 instructions: 86000000 cycles: 226680946 heartbeat IPC: 0.285923 cumulative IPC: 0.340003 (Simulation time: 0 hr 35 min 7 sec) 
Heartbeat CPU 0 instructions: 87000003 cycles: 230190450 heartbeat IPC: 0.284941 cumulative IPC: 0.339152 (Simulation time: 0 hr 35 min 35 sec) 
Heartbeat CPU 0 instructions: 88000000 cycles: 233714554 heartbeat IPC: 0.283759 cumulative IPC: 0.338305 (Simulation time: 0 hr 36 min 0 sec) 
Heartbeat CPU 0 instructions: 89000001 cycles: 236926887 heartbeat IPC: 0.311301 cumulative IPC: 0.337934 (Simulation time: 0 hr 36 min 25 sec) 
Heartbeat CPU 0 instructions: 90000000 cycles: 240187494 heartbeat IPC: 0.306691 cumulative IPC: 0.337504 (Simulation time: 0 hr 36 min 48 sec) 
Heartbeat CPU 0 instructions: 91000002 cycles: 243667557 heartbeat IPC: 0.287352 cumulative IPC: 0.336779 (Simulation time: 0 hr 37 min 11 sec) 
Heartbeat CPU 0 instructions: 92000000 cycles: 247127311 heartbeat IPC: 0.289037 cumulative IPC: 0.336102 (Simulation time: 0 hr 37 min 34 sec) 
Heartbeat CPU 0 instructions: 93000003 cycles: 250610911 heartbeat IPC: 0.28706 cumulative IPC: 0.335411 (Simulation time: 0 hr 37 min 57 sec) 
Heartbeat CPU 0 instructions: 94000000 cycles: 254126802 heartbeat IPC: 0.284422 cumulative IPC: 0.334697 (Simulation time: 0 hr 38 min 19 sec) 
Heartbeat CPU 0 instructions: 95000002 cycles: 257646246 heartbeat IPC: 0.284136 cumulative IPC: 0.333998 (Simulation time: 0 hr 38 min 41 sec) 
Heartbeat CPU 0 instructions: 96000000 cycles: 261168651 heartbeat IPC: 0.283896 cumulative IPC: 0.333314 (Simulation time: 0 hr 39 min 2 sec) 
Heartbeat CPU 0 instructions: 97000001 cycles: 264695232 heartbeat IPC: 0.283561 cumulative IPC: 0.332643 (Simulation time: 0 hr 39 min 23 sec) 
Heartbeat CPU 0 instructions: 98000002 cycles: 268200233 heartbeat IPC: 0.285307 cumulative IPC: 0.332017 (Simulation time: 0 hr 39 min 44 sec) 
Heartbeat CPU 0 instructions: 99000002 cycles: 269642668 heartbeat IPC: 0.693272 cumulative IPC: 0.333972 (Simulation time: 0 hr 40 min 3 sec) 
Heartbeat CPU 0 instructions: 100000000 cycles: 271611564 heartbeat IPC: 0.507898 cumulative IPC: 0.335248 (Simulation time: 0 hr 40 min 24 sec) 
Heartbeat CPU 0 instructions: 101000000 cycles: 273610300 heartbeat IPC: 0.500316 cumulative IPC: 0.336468 (Simulation time: 0 hr 40 min 43 sec) 
Heartbeat CPU 0 instructions: 102000001 cycles: 275608912 heartbeat IPC: 0.500348 cumulative IPC: 0.33767 (Simulation time: 0 hr 41 min 3 sec) 
Heartbeat CPU 0 instructions: 103000002 cycles: 277607601 heartbeat IPC: 0.500328 cumulative IPC: 0.338854 (Simulation time: 0 hr 41 min 22 sec) 
Heartbeat CPU 0 instructions: 104000000 cycles: 279606295 heartbeat IPC: 0.500326 cumulative IPC: 0.340022 (Simulation time: 0 hr 41 min 40 sec) 
Heartbeat CPU 0 instructions: 105000000 cycles: 281605031 heartbeat IPC: 0.500316 cumulative IPC: 0.341172 (Simulation time: 0 hr 41 min 58 sec) 
Heartbeat CPU 0 instructions: 106000000 cycles: 283453528 heartbeat IPC: 0.54098 cumulative IPC: 0.34249 (Simulation time: 0 hr 42 min 14 sec) 
Heartbeat CPU 0 instructions: 107000000 cycles: 285236652 heartbeat IPC: 0.560813 cumulative IPC: 0.34387 (Simulation time: 0 hr 42 min 37 sec) 
Heartbeat CPU 0 instructions: 108000000 cycles: 287235347 heartbeat IPC: 0.500326 cumulative IPC: 0.344971 (Simulation time: 0 hr 43 min 0 sec) 
Heartbeat CPU 0 instructions: 109000001 cycles: 289234085 heartbeat IPC: 0.500316 cumulative IPC: 0.346056 (Simulation time: 0 hr 43 min 23 sec) 
Heartbeat CPU 0 instructions: 110000000 cycles: 291232782 heartbeat IPC: 0.500325 cumulative IPC: 0.347127 (Simulation time: 0 hr 43 min 44 sec) 
Finished CPU 0 instructions: 100000003 cycles: 288079330 cummulative IPC: 0.347127 (Simulation time: 0 hr 43 min 44 sec) 

ChampSim completed all CPUs

Region of Interest Statistics

CPU 0 cummulative IPC: 0.347127 instructions: 100000003 cycles: 288079330
LLC TOTAL     ACCESS:    4047234  HIT:     256747  MISS:    3790487
LLC LOAD      ACCESS:    3006773  HIT:     159025  MISS:    2847748
LLC RFO       ACCESS:         24  HIT:         18  MISS:          6
LLC PREFETCH  ACCESS:          0  HIT:          0  MISS:          0
LLC WRITEBACK ACCESS:    1040437  HIT:      97704  MISS:     942733
Insertion Distribution: 
	LOAD 5311 0 44808 3060418 
	RFO 0 0 6 0 
	PREF 0 0 0 0 
	WRITEBACK 0 0 0 1054423 
Total Prefetch Downgrades: 0
