
*** ChampSim Multicore Out-of-Order Simulator ***

Warmup Instructions: 10000000
Simulation Instructions: 100000000
Configuration: 1
Number of CPUs: 1
LLC sets: 2048
LLC ways: 16
Off-chip DRAM Channels: 1 Width: 64-bit Data Rate: 1600 MT/s

CPU 0 runs /datasets/cs240c-wi22-a00-public/data/Assignment2-gz/mcf_158B.trace.gz
Initialize SRRIP state
Heartbeat CPU 0 instructions: 1000002 cycles: 496434 heartbeat IPC: 2.01437 cumulative IPC: 2.01437 (Simulation time: 0 hr 0 min 27 sec) 
Heartbeat CPU 0 instructions: 2000002 cycles: 992023 heartbeat IPC: 2.0178 cumulative IPC: 2.01608 (Simulation time: 0 hr 0 min 56 sec) 
Heartbeat CPU 0 instructions: 3000000 cycles: 1488316 heartbeat IPC: 2.01493 cumulative IPC: 2.0157 (Simulation time: 0 hr 1 min 22 sec) 
Heartbeat CPU 0 instructions: 4000000 cycles: 1983331 heartbeat IPC: 2.02014 cumulative IPC: 2.01681 (Simulation time: 0 hr 1 min 48 sec) 
Heartbeat CPU 0 instructions: 5000002 cycles: 2476990 heartbeat IPC: 2.02569 cumulative IPC: 2.01858 (Simulation time: 0 hr 2 min 13 sec) 
Heartbeat CPU 0 instructions: 6000001 cycles: 2976111 heartbeat IPC: 2.00352 cumulative IPC: 2.01605 (Simulation time: 0 hr 2 min 37 sec) 
Heartbeat CPU 0 instructions: 7000001 cycles: 3470983 heartbeat IPC: 2.02072 cumulative IPC: 2.01672 (Simulation time: 0 hr 3 min 1 sec) 
Heartbeat CPU 0 instructions: 8000000 cycles: 3966997 heartbeat IPC: 2.01607 cumulative IPC: 2.01664 (Simulation time: 0 hr 3 min 26 sec) 
Heartbeat CPU 0 instructions: 9000000 cycles: 4473695 heartbeat IPC: 1.97356 cumulative IPC: 2.01176 (Simulation time: 0 hr 3 min 51 sec) 
Heartbeat CPU 0 instructions: 10000001 cycles: 4998350 heartbeat IPC: 1.90602 cumulative IPC: 2.00066 (Simulation time: 0 hr 4 min 16 sec) 

Warmup complete CPU 0 instructions: 10000001 cycles: 4998350 (Simulation time: 0 hr 4 min 16 sec) 

Heartbeat CPU 0 instructions: 11000001 cycles: 17488889 heartbeat IPC: 0.0800606 cumulative IPC: 0.0800606 (Simulation time: 0 hr 4 min 57 sec) 
Heartbeat CPU 0 instructions: 12000000 cycles: 29046838 heartbeat IPC: 0.0865205 cumulative IPC: 0.0831653 (Simulation time: 0 hr 5 min 35 sec) 
Heartbeat CPU 0 instructions: 13000001 cycles: 40827938 heartbeat IPC: 0.0848818 cumulative IPC: 0.0837297 (Simulation time: 0 hr 6 min 13 sec) 
Heartbeat CPU 0 instructions: 14000001 cycles: 51610293 heartbeat IPC: 0.0927441 cumulative IPC: 0.0858149 (Simulation time: 0 hr 6 min 50 sec) 
Heartbeat CPU 0 instructions: 15000000 cycles: 63359203 heartbeat IPC: 0.0851142 cumulative IPC: 0.0856739 (Simulation time: 0 hr 7 min 29 sec) 
Heartbeat CPU 0 instructions: 16000000 cycles: 79176500 heartbeat IPC: 0.0632219 cumulative IPC: 0.0808863 (Simulation time: 0 hr 8 min 17 sec) 
Heartbeat CPU 0 instructions: 17000001 cycles: 91723638 heartbeat IPC: 0.0796995 cumulative IPC: 0.0807146 (Simulation time: 0 hr 9 min 2 sec) 
Heartbeat CPU 0 instructions: 18000000 cycles: 103501787 heartbeat IPC: 0.0849029 cumulative IPC: 0.0812154 (Simulation time: 0 hr 9 min 44 sec) 
Heartbeat CPU 0 instructions: 19000000 cycles: 116161857 heartbeat IPC: 0.0789885 cumulative IPC: 0.0809618 (Simulation time: 0 hr 10 min 30 sec) 
Heartbeat CPU 0 instructions: 20000000 cycles: 128407442 heartbeat IPC: 0.0816621 cumulative IPC: 0.0810313 (Simulation time: 0 hr 11 min 9 sec) 
Heartbeat CPU 0 instructions: 21000000 cycles: 140521763 heartbeat IPC: 0.0825469 cumulative IPC: 0.0811668 (Simulation time: 0 hr 11 min 46 sec) 
Heartbeat CPU 0 instructions: 22000002 cycles: 152973439 heartbeat IPC: 0.0803106 cumulative IPC: 0.0810947 (Simulation time: 0 hr 12 min 26 sec) 
Heartbeat CPU 0 instructions: 23000002 cycles: 166254568 heartbeat IPC: 0.0752948 cumulative IPC: 0.0806171 (Simulation time: 0 hr 13 min 12 sec) 
Heartbeat CPU 0 instructions: 24000000 cycles: 181575343 heartbeat IPC: 0.0652707 cumulative IPC: 0.0792855 (Simulation time: 0 hr 14 min 6 sec) 
Heartbeat CPU 0 instructions: 25000000 cycles: 192767050 heartbeat IPC: 0.0893519 cumulative IPC: 0.0798855 (Simulation time: 0 hr 14 min 43 sec) 
Heartbeat CPU 0 instructions: 26000000 cycles: 202152722 heartbeat IPC: 0.106545 cumulative IPC: 0.0811547 (Simulation time: 0 hr 15 min 19 sec) 
Heartbeat CPU 0 instructions: 27000002 cycles: 211771591 heartbeat IPC: 0.103963 cumulative IPC: 0.0822157 (Simulation time: 0 hr 15 min 54 sec) 
Heartbeat CPU 0 instructions: 28000000 cycles: 226997206 heartbeat IPC: 0.0656787 cumulative IPC: 0.0810815 (Simulation time: 0 hr 16 min 56 sec) 
Heartbeat CPU 0 instructions: 29000003 cycles: 236970843 heartbeat IPC: 0.100265 cumulative IPC: 0.0819063 (Simulation time: 0 hr 17 min 44 sec) 
Heartbeat CPU 0 instructions: 30000003 cycles: 245486260 heartbeat IPC: 0.117434 cumulative IPC: 0.0831643 (Simulation time: 0 hr 18 min 19 sec) 
Heartbeat CPU 0 instructions: 31000003 cycles: 255058984 heartbeat IPC: 0.104463 cumulative IPC: 0.0839796 (Simulation time: 0 hr 18 min 57 sec) 
Heartbeat CPU 0 instructions: 32000000 cycles: 269925052 heartbeat IPC: 0.0672671 cumulative IPC: 0.0830418 (Simulation time: 0 hr 19 min 52 sec) 
Heartbeat CPU 0 instructions: 33000000 cycles: 279078346 heartbeat IPC: 0.10925 cumulative IPC: 0.0839171 (Simulation time: 0 hr 20 min 34 sec) 
Heartbeat CPU 0 instructions: 34000000 cycles: 288945004 heartbeat IPC: 0.101351 cumulative IPC: 0.0845229 (Simulation time: 0 hr 21 min 13 sec) 
Heartbeat CPU 0 instructions: 35000001 cycles: 299498508 heartbeat IPC: 0.0947554 cumulative IPC: 0.0848896 (Simulation time: 0 hr 21 min 53 sec) 
Heartbeat CPU 0 instructions: 36000000 cycles: 315245853 heartbeat IPC: 0.0635027 cumulative IPC: 0.0838041 (Simulation time: 0 hr 22 min 49 sec) 
Heartbeat CPU 0 instructions: 37000001 cycles: 325880250 heartbeat IPC: 0.0940346 cumulative IPC: 0.0841431 (Simulation time: 0 hr 23 min 47 sec) 
Heartbeat CPU 0 instructions: 38000000 cycles: 336433687 heartbeat IPC: 0.0947558 cumulative IPC: 0.084481 (Simulation time: 0 hr 24 min 28 sec) 
Heartbeat CPU 0 instructions: 39000000 cycles: 345267441 heartbeat IPC: 0.113202 cumulative IPC: 0.0852267 (Simulation time: 0 hr 25 min 5 sec) 
Heartbeat CPU 0 instructions: 40000000 cycles: 360025404 heartbeat IPC: 0.06776 cumulative IPC: 0.0845006 (Simulation time: 0 hr 25 min 58 sec) 
Heartbeat CPU 0 instructions: 41000003 cycles: 369821159 heartbeat IPC: 0.102085 cumulative IPC: 0.0849728 (Simulation time: 0 hr 26 min 40 sec) 
Heartbeat CPU 0 instructions: 42000000 cycles: 378403022 heartbeat IPC: 0.116524 cumulative IPC: 0.0856979 (Simulation time: 0 hr 27 min 25 sec) 
Heartbeat CPU 0 instructions: 43000001 cycles: 389855637 heartbeat IPC: 0.0873164 cumulative IPC: 0.0857461 (Simulation time: 0 hr 28 min 13 sec) 
Heartbeat CPU 0 instructions: 44000000 cycles: 402357238 heartbeat IPC: 0.0799897 cumulative IPC: 0.085565 (Simulation time: 0 hr 29 min 3 sec) 
Heartbeat CPU 0 instructions: 45000000 cycles: 409840301 heartbeat IPC: 0.133635 cumulative IPC: 0.0864535 (Simulation time: 0 hr 29 min 38 sec) 
Heartbeat CPU 0 instructions: 46000002 cycles: 420803391 heartbeat IPC: 0.0912153 cumulative IPC: 0.086579 (Simulation time: 0 hr 30 min 28 sec) 
Heartbeat CPU 0 instructions: 47000002 cycles: 433520236 heartbeat IPC: 0.0786359 cumulative IPC: 0.0863433 (Simulation time: 0 hr 31 min 13 sec) 
Heartbeat CPU 0 instructions: 48000000 cycles: 441314510 heartbeat IPC: 0.128299 cumulative IPC: 0.0870928 (Simulation time: 0 hr 31 min 46 sec) 
Heartbeat CPU 0 instructions: 49000003 cycles: 452287256 heartbeat IPC: 0.0911352 cumulative IPC: 0.087192 (Simulation time: 0 hr 32 min 26 sec) 
Heartbeat CPU 0 instructions: 50000000 cycles: 465146127 heartbeat IPC: 0.0777671 cumulative IPC: 0.0869286 (Simulation time: 0 hr 33 min 12 sec) 
Heartbeat CPU 0 instructions: 51000000 cycles: 472648822 heartbeat IPC: 0.133285 cumulative IPC: 0.0876723 (Simulation time: 0 hr 33 min 44 sec) 
Heartbeat CPU 0 instructions: 52000000 cycles: 482990780 heartbeat IPC: 0.0966935 cumulative IPC: 0.0878675 (Simulation time: 0 hr 34 min 22 sec) 
Heartbeat CPU 0 instructions: 53000000 cycles: 496691277 heartbeat IPC: 0.0729901 cumulative IPC: 0.087453 (Simulation time: 0 hr 35 min 7 sec) 
Heartbeat CPU 0 instructions: 54000000 cycles: 504446038 heartbeat IPC: 0.128953 cumulative IPC: 0.0880973 (Simulation time: 0 hr 35 min 40 sec) 
Heartbeat CPU 0 instructions: 55000000 cycles: 513561007 heartbeat IPC: 0.10971 cumulative IPC: 0.0884847 (Simulation time: 0 hr 36 min 16 sec) 
Heartbeat CPU 0 instructions: 56000000 cycles: 528296482 heartbeat IPC: 0.0678634 cumulative IPC: 0.087904 (Simulation time: 0 hr 37 min 10 sec) 
Heartbeat CPU 0 instructions: 57000001 cycles: 535803951 heartbeat IPC: 0.133201 cumulative IPC: 0.0885447 (Simulation time: 0 hr 37 min 40 sec) 
Heartbeat CPU 0 instructions: 58000000 cycles: 543358052 heartbeat IPC: 0.132378 cumulative IPC: 0.0891597 (Simulation time: 0 hr 38 min 9 sec) 
Heartbeat CPU 0 instructions: 59000000 cycles: 559097858 heartbeat IPC: 0.0635332 cumulative IPC: 0.0884318 (Simulation time: 0 hr 38 min 52 sec) 
Heartbeat CPU 0 instructions: 60000000 cycles: 566848705 heartbeat IPC: 0.129018 cumulative IPC: 0.0889917 (Simulation time: 0 hr 39 min 20 sec) 
Heartbeat CPU 0 instructions: 61000000 cycles: 574969538 heartbeat IPC: 0.12314 cumulative IPC: 0.0894782 (Simulation time: 0 hr 39 min 47 sec) 
Heartbeat CPU 0 instructions: 62000001 cycles: 587801329 heartbeat IPC: 0.0779315 cumulative IPC: 0.089224 (Simulation time: 0 hr 40 min 36 sec) 
Heartbeat CPU 0 instructions: 63000001 cycles: 598469741 heartbeat IPC: 0.0937347 cumulative IPC: 0.0893051 (Simulation time: 0 hr 41 min 21 sec) 
Heartbeat CPU 0 instructions: 64000000 cycles: 605774474 heartbeat IPC: 0.136897 cumulative IPC: 0.0898837 (Simulation time: 0 hr 41 min 47 sec) 
Heartbeat CPU 0 instructions: 65000000 cycles: 614053696 heartbeat IPC: 0.120784 cumulative IPC: 0.0903038 (Simulation time: 0 hr 42 min 12 sec) 
Heartbeat CPU 0 instructions: 66000000 cycles: 628978795 heartbeat IPC: 0.0670012 cumulative IPC: 0.0897464 (Simulation time: 0 hr 42 min 45 sec) 
Heartbeat CPU 0 instructions: 67000002 cycles: 636049350 heartbeat IPC: 0.141432 cumulative IPC: 0.0903255 (Simulation time: 0 hr 43 min 6 sec) 
Heartbeat CPU 0 instructions: 68000000 cycles: 643150501 heartbeat IPC: 0.140822 cumulative IPC: 0.0908874 (Simulation time: 0 hr 43 min 26 sec) 
Heartbeat CPU 0 instructions: 69000000 cycles: 656578487 heartbeat IPC: 0.0744713 cumulative IPC: 0.0905491 (Simulation time: 0 hr 43 min 54 sec) 
Heartbeat CPU 0 instructions: 70000000 cycles: 666311629 heartbeat IPC: 0.102742 cumulative IPC: 0.0907286 (Simulation time: 0 hr 44 min 19 sec) 
Heartbeat CPU 0 instructions: 71000002 cycles: 673411003 heartbeat IPC: 0.140858 cumulative IPC: 0.091261 (Simulation time: 0 hr 44 min 41 sec) 
Heartbeat CPU 0 instructions: 72000000 cycles: 682228943 heartbeat IPC: 0.113405 cumulative IPC: 0.0915493 (Simulation time: 0 hr 45 min 1 sec) 
Heartbeat CPU 0 instructions: 73000000 cycles: 696683918 heartbeat IPC: 0.0691803 cumulative IPC: 0.0910819 (Simulation time: 0 hr 45 min 27 sec) 
Heartbeat CPU 0 instructions: 74000000 cycles: 704042984 heartbeat IPC: 0.135887 cumulative IPC: 0.0915535 (Simulation time: 0 hr 45 min 46 sec) 
Heartbeat CPU 0 instructions: 75000001 cycles: 711638033 heartbeat IPC: 0.131665 cumulative IPC: 0.0919846 (Simulation time: 0 hr 46 min 5 sec) 
Heartbeat CPU 0 instructions: 76000000 cycles: 724318708 heartbeat IPC: 0.0788601 cumulative IPC: 0.0917533 (Simulation time: 0 hr 46 min 28 sec) 
Heartbeat CPU 0 instructions: 77000000 cycles: 735571635 heartbeat IPC: 0.0888658 cumulative IPC: 0.0917088 (Simulation time: 0 hr 46 min 46 sec) 
Heartbeat CPU 0 instructions: 78000000 cycles: 743871718 heartbeat IPC: 0.120481 cumulative IPC: 0.092032 (Simulation time: 0 hr 47 min 2 sec) 
Heartbeat CPU 0 instructions: 79000003 cycles: 752396049 heartbeat IPC: 0.117312 cumulative IPC: 0.0923203 (Simulation time: 0 hr 47 min 17 sec) 
Heartbeat CPU 0 instructions: 80000000 cycles: 767764838 heartbeat IPC: 0.0650667 cumulative IPC: 0.0917712 (Simulation time: 0 hr 47 min 37 sec) 
Heartbeat CPU 0 instructions: 81000001 cycles: 776405523 heartbeat IPC: 0.115732 cumulative IPC: 0.0920396 (Simulation time: 0 hr 47 min 51 sec) 
Heartbeat CPU 0 instructions: 82000001 cycles: 785023693 heartbeat IPC: 0.116034 cumulative IPC: 0.0923047 (Simulation time: 0 hr 48 min 5 sec) 
Heartbeat CPU 0 instructions: 83000001 cycles: 798286112 heartbeat IPC: 0.075401 cumulative IPC: 0.0920221 (Simulation time: 0 hr 48 min 19 sec) 
Heartbeat CPU 0 instructions: 84000000 cycles: 810116018 heartbeat IPC: 0.0845314 cumulative IPC: 0.091912 (Simulation time: 0 hr 48 min 30 sec) 
Heartbeat CPU 0 instructions: 85000000 cycles: 817864566 heartbeat IPC: 0.129056 cumulative IPC: 0.0922661 (Simulation time: 0 hr 48 min 38 sec) 
Heartbeat CPU 0 instructions: 86000000 cycles: 826780604 heartbeat IPC: 0.112157 cumulative IPC: 0.0924819 (Simulation time: 0 hr 48 min 45 sec) 
Heartbeat CPU 0 instructions: 87000000 cycles: 841803962 heartbeat IPC: 0.066563 cumulative IPC: 0.0920166 (Simulation time: 0 hr 48 min 53 sec) 
Heartbeat CPU 0 instructions: 88000000 cycles: 849985394 heartbeat IPC: 0.122228 cumulative IPC: 0.0923091 (Simulation time: 0 hr 48 min 59 sec) 
Heartbeat CPU 0 instructions: 89000000 cycles: 858616302 heartbeat IPC: 0.115863 cumulative IPC: 0.0925473 (Simulation time: 0 hr 49 min 5 sec) 
Heartbeat CPU 0 instructions: 90000002 cycles: 872749873 heartbeat IPC: 0.0707537 cumulative IPC: 0.0921923 (Simulation time: 0 hr 49 min 12 sec) 
Heartbeat CPU 0 instructions: 91000000 cycles: 882663950 heartbeat IPC: 0.100866 cumulative IPC: 0.0922903 (Simulation time: 0 hr 49 min 17 sec) 
Heartbeat CPU 0 instructions: 92000000 cycles: 890785557 heartbeat IPC: 0.123128 cumulative IPC: 0.092573 (Simulation time: 0 hr 49 min 21 sec) 
Heartbeat CPU 0 instructions: 93000003 cycles: 902648603 heartbeat IPC: 0.0842956 cumulative IPC: 0.0924636 (Simulation time: 0 hr 49 min 26 sec) 
Heartbeat CPU 0 instructions: 94000000 cycles: 915072359 heartbeat IPC: 0.0804907 cumulative IPC: 0.0923002 (Simulation time: 0 hr 49 min 31 sec) 
Heartbeat CPU 0 instructions: 95000000 cycles: 923398122 heartbeat IPC: 0.120109 cumulative IPC: 0.0925523 (Simulation time: 0 hr 49 min 35 sec) 
Heartbeat CPU 0 instructions: 96000000 cycles: 932247913 heartbeat IPC: 0.112997 cumulative IPC: 0.0927474 (Simulation time: 0 hr 49 min 40 sec) 
Heartbeat CPU 0 instructions: 97000003 cycles: 947883861 heartbeat IPC: 0.0639554 cumulative IPC: 0.0922699 (Simulation time: 0 hr 49 min 46 sec) 
Heartbeat CPU 0 instructions: 98000002 cycles: 956379662 heartbeat IPC: 0.117705 cumulative IPC: 0.0924971 (Simulation time: 0 hr 49 min 50 sec) 
Heartbeat CPU 0 instructions: 99000000 cycles: 965096351 heartbeat IPC: 0.114722 cumulative IPC: 0.0926989 (Simulation time: 0 hr 49 min 54 sec) 
Heartbeat CPU 0 instructions: 100000000 cycles: 979081241 heartbeat IPC: 0.0715057 cumulative IPC: 0.0923946 (Simulation time: 0 hr 50 min 0 sec) 
Heartbeat CPU 0 instructions: 101000000 cycles: 990374473 heartbeat IPC: 0.0885486 cumulative IPC: 0.0923505 (Simulation time: 0 hr 50 min 5 sec) 
Heartbeat CPU 0 instructions: 102000000 cycles: 999577974 heartbeat IPC: 0.108654 cumulative IPC: 0.0925014 (Simulation time: 0 hr 50 min 9 sec) 
Heartbeat CPU 0 instructions: 103000001 cycles: 1008385775 heartbeat IPC: 0.113536 cumulative IPC: 0.092686 (Simulation time: 0 hr 50 min 13 sec) 
Heartbeat CPU 0 instructions: 104000000 cycles: 1024283704 heartbeat IPC: 0.0629012 cumulative IPC: 0.0922215 (Simulation time: 0 hr 50 min 19 sec) 
Heartbeat CPU 0 instructions: 105000000 cycles: 1033955432 heartbeat IPC: 0.103394 cumulative IPC: 0.0923265 (Simulation time: 0 hr 50 min 24 sec) 
Heartbeat CPU 0 instructions: 106000000 cycles: 1043182552 heartbeat IPC: 0.108376 cumulative IPC: 0.0924691 (Simulation time: 0 hr 50 min 28 sec) 
Heartbeat CPU 0 instructions: 107000000 cycles: 1054653567 heartbeat IPC: 0.0871762 cumulative IPC: 0.0924113 (Simulation time: 0 hr 50 min 33 sec) 
Heartbeat CPU 0 instructions: 108000000 cycles: 1068601354 heartbeat IPC: 0.071696 cumulative IPC: 0.0921396 (Simulation time: 0 hr 50 min 39 sec) 
Heartbeat CPU 0 instructions: 109000001 cycles: 1077559426 heartbeat IPC: 0.111631 cumulative IPC: 0.0923024 (Simulation time: 0 hr 50 min 43 sec) 
Heartbeat CPU 0 instructions: 110000000 cycles: 1087519492 heartbeat IPC: 0.100401 cumulative IPC: 0.0923769 (Simulation time: 0 hr 50 min 47 sec) 
Finished CPU 0 instructions: 100000002 cycles: 1082521144 cummulative IPC: 0.092377 (Simulation time: 0 hr 50 min 47 sec) 

ChampSim completed all CPUs

Region of Interest Statistics

CPU 0 cummulative IPC: 0.092377 instructions: 100000002 cycles: 1082521144
LLC TOTAL     ACCESS:   12167943  HIT:    5942250  MISS:    6225693
LLC LOAD      ACCESS:   10389074  HIT:    4743298  MISS:    5645776
LLC RFO       ACCESS:     150272  HIT:      89356  MISS:      60916
LLC PREFETCH  ACCESS:          0  HIT:          0  MISS:          0
LLC WRITEBACK ACCESS:    1628597  HIT:    1109596  MISS:     519001
Insertion Distribution: 
	LOAD 216965 0 100066 6014413 
	RFO 9663 0 3266 50658 
	PREF 0 0 0 0 
	WRITEBACK 0 0 0 539625 
Total Prefetch Downgrades: 0
