
*** ChampSim Multicore Out-of-Order Simulator ***

Warmup Instructions: 10000000
Simulation Instructions: 100000000
Configuration: 1
Number of CPUs: 1
LLC sets: 2048
LLC ways: 16
Off-chip DRAM Channels: 1 Width: 64-bit Data Rate: 1600 MT/s

CPU 0 runs /datasets/cs240c-wi22-a00-public/data/Assignment2-gz/gcc_56B.trace.gz
Initialize SRRIP state
Heartbeat CPU 0 instructions: 1000003 cycles: 954224 heartbeat IPC: 1.04798 cumulative IPC: 1.04798 (Simulation time: 0 hr 0 min 27 sec) 
Heartbeat CPU 0 instructions: 2000001 cycles: 1898520 heartbeat IPC: 1.05899 cumulative IPC: 1.05345 (Simulation time: 0 hr 0 min 54 sec) 
Heartbeat CPU 0 instructions: 3000001 cycles: 2885884 heartbeat IPC: 1.0128 cumulative IPC: 1.03954 (Simulation time: 0 hr 1 min 23 sec) 
Heartbeat CPU 0 instructions: 4000000 cycles: 3848630 heartbeat IPC: 1.03869 cumulative IPC: 1.03933 (Simulation time: 0 hr 1 min 50 sec) 
Heartbeat CPU 0 instructions: 5000002 cycles: 4738254 heartbeat IPC: 1.12407 cumulative IPC: 1.05524 (Simulation time: 0 hr 2 min 16 sec) 
Heartbeat CPU 0 instructions: 6000000 cycles: 5686317 heartbeat IPC: 1.05478 cumulative IPC: 1.05516 (Simulation time: 0 hr 2 min 42 sec) 
Heartbeat CPU 0 instructions: 7000000 cycles: 6650678 heartbeat IPC: 1.03696 cumulative IPC: 1.05252 (Simulation time: 0 hr 3 min 8 sec) 
Heartbeat CPU 0 instructions: 8000000 cycles: 7612019 heartbeat IPC: 1.04021 cumulative IPC: 1.05097 (Simulation time: 0 hr 3 min 34 sec) 
Heartbeat CPU 0 instructions: 9000000 cycles: 8623623 heartbeat IPC: 0.988529 cumulative IPC: 1.04364 (Simulation time: 0 hr 4 min 1 sec) 
Heartbeat CPU 0 instructions: 10000002 cycles: 9584265 heartbeat IPC: 1.04097 cumulative IPC: 1.04338 (Simulation time: 0 hr 4 min 27 sec) 

Warmup complete CPU 0 instructions: 10000002 cycles: 9584265 (Simulation time: 0 hr 4 min 27 sec) 

Heartbeat CPU 0 instructions: 11000000 cycles: 10947676 heartbeat IPC: 0.733453 cumulative IPC: 0.733453 (Simulation time: 0 hr 4 min 55 sec) 
Heartbeat CPU 0 instructions: 12000000 cycles: 12387082 heartbeat IPC: 0.694731 cumulative IPC: 0.713567 (Simulation time: 0 hr 5 min 23 sec) 
Heartbeat CPU 0 instructions: 13000001 cycles: 13782835 heartbeat IPC: 0.71646 cumulative IPC: 0.714529 (Simulation time: 0 hr 5 min 51 sec) 
Heartbeat CPU 0 instructions: 14000000 cycles: 15121636 heartbeat IPC: 0.746936 cumulative IPC: 0.722364 (Simulation time: 0 hr 6 min 22 sec) 
Heartbeat CPU 0 instructions: 15000003 cycles: 16506906 heartbeat IPC: 0.721883 cumulative IPC: 0.722268 (Simulation time: 0 hr 6 min 50 sec) 
Heartbeat CPU 0 instructions: 16000000 cycles: 17838697 heartbeat IPC: 0.750866 cumulative IPC: 0.726882 (Simulation time: 0 hr 7 min 18 sec) 
Heartbeat CPU 0 instructions: 17000001 cycles: 19168852 heartbeat IPC: 0.751793 cumulative IPC: 0.730339 (Simulation time: 0 hr 7 min 46 sec) 
Heartbeat CPU 0 instructions: 18000000 cycles: 20567776 heartbeat IPC: 0.714834 cumulative IPC: 0.728364 (Simulation time: 0 hr 8 min 15 sec) 
Heartbeat CPU 0 instructions: 19000000 cycles: 21951308 heartbeat IPC: 0.722788 cumulative IPC: 0.72774 (Simulation time: 0 hr 8 min 42 sec) 
Heartbeat CPU 0 instructions: 20000000 cycles: 23322988 heartbeat IPC: 0.729033 cumulative IPC: 0.72787 (Simulation time: 0 hr 9 min 11 sec) 
Heartbeat CPU 0 instructions: 21000000 cycles: 24674003 heartbeat IPC: 0.740184 cumulative IPC: 0.728972 (Simulation time: 0 hr 9 min 43 sec) 
Heartbeat CPU 0 instructions: 22000000 cycles: 26006911 heartbeat IPC: 0.750239 cumulative IPC: 0.730698 (Simulation time: 0 hr 10 min 19 sec) 
Heartbeat CPU 0 instructions: 23000000 cycles: 27346947 heartbeat IPC: 0.746249 cumulative IPC: 0.731871 (Simulation time: 0 hr 10 min 51 sec) 
Heartbeat CPU 0 instructions: 24000000 cycles: 28718358 heartbeat IPC: 0.729176 cumulative IPC: 0.731678 (Simulation time: 0 hr 11 min 17 sec) 
Heartbeat CPU 0 instructions: 25000000 cycles: 30098281 heartbeat IPC: 0.724678 cumulative IPC: 0.731207 (Simulation time: 0 hr 11 min 43 sec) 
Heartbeat CPU 0 instructions: 26000002 cycles: 31516900 heartbeat IPC: 0.704912 cumulative IPC: 0.729506 (Simulation time: 0 hr 12 min 11 sec) 
Heartbeat CPU 0 instructions: 27000000 cycles: 32909163 heartbeat IPC: 0.718254 cumulative IPC: 0.728835 (Simulation time: 0 hr 12 min 42 sec) 
Heartbeat CPU 0 instructions: 28000000 cycles: 34251756 heartbeat IPC: 0.744827 cumulative IPC: 0.729705 (Simulation time: 0 hr 13 min 17 sec) 
Heartbeat CPU 0 instructions: 29000000 cycles: 35600560 heartbeat IPC: 0.741398 cumulative IPC: 0.730311 (Simulation time: 0 hr 13 min 50 sec) 
Heartbeat CPU 0 instructions: 30000000 cycles: 36955011 heartbeat IPC: 0.738307 cumulative IPC: 0.730707 (Simulation time: 0 hr 14 min 21 sec) 
Heartbeat CPU 0 instructions: 31000000 cycles: 38319431 heartbeat IPC: 0.732912 cumulative IPC: 0.730812 (Simulation time: 0 hr 14 min 55 sec) 
Heartbeat CPU 0 instructions: 32000000 cycles: 39708525 heartbeat IPC: 0.719894 cumulative IPC: 0.730308 (Simulation time: 0 hr 15 min 25 sec) 
Heartbeat CPU 0 instructions: 33000002 cycles: 41126166 heartbeat IPC: 0.705399 cumulative IPC: 0.729189 (Simulation time: 0 hr 15 min 59 sec) 
Heartbeat CPU 0 instructions: 34000002 cycles: 42499029 heartbeat IPC: 0.728405 cumulative IPC: 0.729156 (Simulation time: 0 hr 16 min 30 sec) 
Heartbeat CPU 0 instructions: 35000002 cycles: 43856415 heartbeat IPC: 0.73671 cumulative IPC: 0.729455 (Simulation time: 0 hr 16 min 58 sec) 
Heartbeat CPU 0 instructions: 36000000 cycles: 45193878 heartbeat IPC: 0.747683 cumulative IPC: 0.73014 (Simulation time: 0 hr 17 min 31 sec) 
Heartbeat CPU 0 instructions: 37000000 cycles: 46516286 heartbeat IPC: 0.756196 cumulative IPC: 0.731073 (Simulation time: 0 hr 17 min 59 sec) 
Heartbeat CPU 0 instructions: 38000002 cycles: 47861061 heartbeat IPC: 0.74362 cumulative IPC: 0.731514 (Simulation time: 0 hr 18 min 27 sec) 
Heartbeat CPU 0 instructions: 39000000 cycles: 49276922 heartbeat IPC: 0.706283 cumulative IPC: 0.730614 (Simulation time: 0 hr 18 min 59 sec) 
Heartbeat CPU 0 instructions: 40000000 cycles: 50651426 heartbeat IPC: 0.727535 cumulative IPC: 0.730511 (Simulation time: 0 hr 19 min 30 sec) 
Heartbeat CPU 0 instructions: 41000001 cycles: 52003351 heartbeat IPC: 0.739687 cumulative IPC: 0.730803 (Simulation time: 0 hr 19 min 59 sec) 
Heartbeat CPU 0 instructions: 42000003 cycles: 53346578 heartbeat IPC: 0.744477 cumulative IPC: 0.731223 (Simulation time: 0 hr 20 min 26 sec) 
Heartbeat CPU 0 instructions: 43000001 cycles: 54696202 heartbeat IPC: 0.740946 cumulative IPC: 0.731514 (Simulation time: 0 hr 20 min 53 sec) 
Heartbeat CPU 0 instructions: 44000000 cycles: 56036060 heartbeat IPC: 0.746347 cumulative IPC: 0.731942 (Simulation time: 0 hr 21 min 27 sec) 
Heartbeat CPU 0 instructions: 45000000 cycles: 57421558 heartbeat IPC: 0.721762 cumulative IPC: 0.731647 (Simulation time: 0 hr 21 min 58 sec) 
Heartbeat CPU 0 instructions: 46000000 cycles: 58826014 heartbeat IPC: 0.712019 cumulative IPC: 0.731087 (Simulation time: 0 hr 22 min 27 sec) 
Heartbeat CPU 0 instructions: 47000002 cycles: 60214236 heartbeat IPC: 0.720347 cumulative IPC: 0.730792 (Simulation time: 0 hr 22 min 57 sec) 
Heartbeat CPU 0 instructions: 48000000 cycles: 61575279 heartbeat IPC: 0.734729 cumulative IPC: 0.730896 (Simulation time: 0 hr 23 min 27 sec) 
Heartbeat CPU 0 instructions: 49000002 cycles: 62912220 heartbeat IPC: 0.747978 cumulative IPC: 0.731324 (Simulation time: 0 hr 24 min 1 sec) 
Heartbeat CPU 0 instructions: 50000000 cycles: 64248925 heartbeat IPC: 0.748107 cumulative IPC: 0.731734 (Simulation time: 0 hr 24 min 30 sec) 
Heartbeat CPU 0 instructions: 51000000 cycles: 65620646 heartbeat IPC: 0.729011 cumulative IPC: 0.731667 (Simulation time: 0 hr 24 min 58 sec) 
Heartbeat CPU 0 instructions: 52000000 cycles: 67029441 heartbeat IPC: 0.709826 cumulative IPC: 0.731132 (Simulation time: 0 hr 25 min 27 sec) 
Heartbeat CPU 0 instructions: 53000001 cycles: 68380446 heartbeat IPC: 0.74019 cumulative IPC: 0.73134 (Simulation time: 0 hr 26 min 8 sec) 
Heartbeat CPU 0 instructions: 54000000 cycles: 69706598 heartbeat IPC: 0.754061 cumulative IPC: 0.731841 (Simulation time: 0 hr 26 min 36 sec) 
Heartbeat CPU 0 instructions: 55000001 cycles: 71026713 heartbeat IPC: 0.757511 cumulative IPC: 0.732393 (Simulation time: 0 hr 27 min 7 sec) 
Heartbeat CPU 0 instructions: 56000000 cycles: 72365079 heartbeat IPC: 0.747179 cumulative IPC: 0.732708 (Simulation time: 0 hr 27 min 39 sec) 
Heartbeat CPU 0 instructions: 57000001 cycles: 73713096 heartbeat IPC: 0.741831 cumulative IPC: 0.7329 (Simulation time: 0 hr 28 min 5 sec) 
Heartbeat CPU 0 instructions: 58000000 cycles: 75107057 heartbeat IPC: 0.717379 cumulative IPC: 0.732569 (Simulation time: 0 hr 28 min 33 sec) 
Heartbeat CPU 0 instructions: 59000000 cycles: 76517724 heartbeat IPC: 0.708885 cumulative IPC: 0.73207 (Simulation time: 0 hr 29 min 0 sec) 
Heartbeat CPU 0 instructions: 60000000 cycles: 77907485 heartbeat IPC: 0.719548 cumulative IPC: 0.731816 (Simulation time: 0 hr 29 min 26 sec) 
Heartbeat CPU 0 instructions: 61000000 cycles: 79250356 heartbeat IPC: 0.744673 cumulative IPC: 0.732063 (Simulation time: 0 hr 29 min 54 sec) 
Heartbeat CPU 0 instructions: 62000002 cycles: 80626716 heartbeat IPC: 0.726556 cumulative IPC: 0.731957 (Simulation time: 0 hr 30 min 25 sec) 
Heartbeat CPU 0 instructions: 63000003 cycles: 81955071 heartbeat IPC: 0.752812 cumulative IPC: 0.73234 (Simulation time: 0 hr 30 min 55 sec) 
Heartbeat CPU 0 instructions: 64000000 cycles: 83288693 heartbeat IPC: 0.749835 cumulative IPC: 0.732656 (Simulation time: 0 hr 31 min 25 sec) 
Heartbeat CPU 0 instructions: 65000000 cycles: 84650791 heartbeat IPC: 0.734162 cumulative IPC: 0.732683 (Simulation time: 0 hr 31 min 55 sec) 
Heartbeat CPU 0 instructions: 66000002 cycles: 86059633 heartbeat IPC: 0.709804 cumulative IPC: 0.732262 (Simulation time: 0 hr 32 min 23 sec) 
Heartbeat CPU 0 instructions: 67000002 cycles: 87462995 heartbeat IPC: 0.712575 cumulative IPC: 0.731907 (Simulation time: 0 hr 32 min 55 sec) 
Heartbeat CPU 0 instructions: 68000000 cycles: 88828633 heartbeat IPC: 0.732257 cumulative IPC: 0.731913 (Simulation time: 0 hr 33 min 32 sec) 
Heartbeat CPU 0 instructions: 69000000 cycles: 90168460 heartbeat IPC: 0.746365 cumulative IPC: 0.732153 (Simulation time: 0 hr 34 min 3 sec) 
Heartbeat CPU 0 instructions: 70000000 cycles: 91508305 heartbeat IPC: 0.746355 cumulative IPC: 0.732386 (Simulation time: 0 hr 34 min 30 sec) 
Heartbeat CPU 0 instructions: 71000003 cycles: 92864841 heartbeat IPC: 0.737174 cumulative IPC: 0.732464 (Simulation time: 0 hr 34 min 58 sec) 
Heartbeat CPU 0 instructions: 72000000 cycles: 94218952 heartbeat IPC: 0.73849 cumulative IPC: 0.73256 (Simulation time: 0 hr 35 min 26 sec) 
Heartbeat CPU 0 instructions: 73000003 cycles: 95604594 heartbeat IPC: 0.721689 cumulative IPC: 0.732385 (Simulation time: 0 hr 35 min 52 sec) 
Heartbeat CPU 0 instructions: 74000001 cycles: 97019726 heartbeat IPC: 0.706646 cumulative IPC: 0.731968 (Simulation time: 0 hr 36 min 21 sec) 
Heartbeat CPU 0 instructions: 75000003 cycles: 98408130 heartbeat IPC: 0.720253 cumulative IPC: 0.731785 (Simulation time: 0 hr 36 min 46 sec) 
Heartbeat CPU 0 instructions: 76000000 cycles: 99763018 heartbeat IPC: 0.738066 cumulative IPC: 0.73188 (Simulation time: 0 hr 37 min 13 sec) 
Heartbeat CPU 0 instructions: 77000003 cycles: 101111928 heartbeat IPC: 0.741342 cumulative IPC: 0.732019 (Simulation time: 0 hr 37 min 41 sec) 
Heartbeat CPU 0 instructions: 78000001 cycles: 102458928 heartbeat IPC: 0.742389 cumulative IPC: 0.73217 (Simulation time: 0 hr 38 min 12 sec) 
Heartbeat CPU 0 instructions: 79000000 cycles: 103833026 heartbeat IPC: 0.727749 cumulative IPC: 0.732105 (Simulation time: 0 hr 38 min 36 sec) 
Heartbeat CPU 0 instructions: 80000000 cycles: 105195121 heartbeat IPC: 0.734163 cumulative IPC: 0.732134 (Simulation time: 0 hr 39 min 6 sec) 
Heartbeat CPU 0 instructions: 81000002 cycles: 106589850 heartbeat IPC: 0.716987 cumulative IPC: 0.731917 (Simulation time: 0 hr 39 min 40 sec) 
Heartbeat CPU 0 instructions: 82000000 cycles: 107975345 heartbeat IPC: 0.721762 cumulative IPC: 0.731774 (Simulation time: 0 hr 40 min 11 sec) 
Heartbeat CPU 0 instructions: 83000003 cycles: 109321530 heartbeat IPC: 0.742842 cumulative IPC: 0.731923 (Simulation time: 0 hr 40 min 34 sec) 
Heartbeat CPU 0 instructions: 84000000 cycles: 110680634 heartbeat IPC: 0.735777 cumulative IPC: 0.731975 (Simulation time: 0 hr 40 min 57 sec) 
Heartbeat CPU 0 instructions: 85000002 cycles: 112007107 heartbeat IPC: 0.75388 cumulative IPC: 0.732259 (Simulation time: 0 hr 41 min 20 sec) 
Heartbeat CPU 0 instructions: 86000003 cycles: 113322095 heartbeat IPC: 0.760464 cumulative IPC: 0.732616 (Simulation time: 0 hr 41 min 49 sec) 
Heartbeat CPU 0 instructions: 87000000 cycles: 114723377 heartbeat IPC: 0.71363 cumulative IPC: 0.732363 (Simulation time: 0 hr 42 min 9 sec) 
Heartbeat CPU 0 instructions: 88000000 cycles: 116085960 heartbeat IPC: 0.7339 cumulative IPC: 0.732383 (Simulation time: 0 hr 42 min 28 sec) 
Heartbeat CPU 0 instructions: 89000000 cycles: 117460871 heartbeat IPC: 0.72732 cumulative IPC: 0.732318 (Simulation time: 0 hr 42 min 46 sec) 
Heartbeat CPU 0 instructions: 90000000 cycles: 118791368 heartbeat IPC: 0.751599 cumulative IPC: 0.732553 (Simulation time: 0 hr 43 min 4 sec) 
Heartbeat CPU 0 instructions: 91000001 cycles: 120111890 heartbeat IPC: 0.757277 cumulative IPC: 0.732848 (Simulation time: 0 hr 43 min 22 sec) 
Heartbeat CPU 0 instructions: 92000000 cycles: 121446928 heartbeat IPC: 0.749042 cumulative IPC: 0.733042 (Simulation time: 0 hr 43 min 39 sec) 
Heartbeat CPU 0 instructions: 93000003 cycles: 122848319 heartbeat IPC: 0.713579 cumulative IPC: 0.732801 (Simulation time: 0 hr 43 min 55 sec) 
Heartbeat CPU 0 instructions: 94000000 cycles: 124205113 heartbeat IPC: 0.737029 cumulative IPC: 0.732851 (Simulation time: 0 hr 44 min 11 sec) 
Heartbeat CPU 0 instructions: 95000000 cycles: 125572444 heartbeat IPC: 0.731352 cumulative IPC: 0.732833 (Simulation time: 0 hr 44 min 27 sec) 
Heartbeat CPU 0 instructions: 96000000 cycles: 126918998 heartbeat IPC: 0.742636 cumulative IPC: 0.732946 (Simulation time: 0 hr 44 min 42 sec) 
Heartbeat CPU 0 instructions: 97000000 cycles: 128241743 heartbeat IPC: 0.756004 cumulative IPC: 0.733203 (Simulation time: 0 hr 44 min 57 sec) 
Heartbeat CPU 0 instructions: 98000003 cycles: 129567130 heartbeat IPC: 0.754499 cumulative IPC: 0.733438 (Simulation time: 0 hr 45 min 13 sec) 
Heartbeat CPU 0 instructions: 99000000 cycles: 130974081 heartbeat IPC: 0.710755 cumulative IPC: 0.733175 (Simulation time: 0 hr 45 min 27 sec) 
Heartbeat CPU 0 instructions: 100000000 cycles: 132332991 heartbeat IPC: 0.735884 cumulative IPC: 0.733205 (Simulation time: 0 hr 45 min 43 sec) 
Heartbeat CPU 0 instructions: 101000000 cycles: 133697806 heartbeat IPC: 0.7327 cumulative IPC: 0.7332 (Simulation time: 0 hr 46 min 5 sec) 
Heartbeat CPU 0 instructions: 102000001 cycles: 135024175 heartbeat IPC: 0.753939 cumulative IPC: 0.733419 (Simulation time: 0 hr 46 min 27 sec) 
Heartbeat CPU 0 instructions: 103000001 cycles: 136339425 heartbeat IPC: 0.760312 cumulative IPC: 0.733698 (Simulation time: 0 hr 46 min 40 sec) 
Heartbeat CPU 0 instructions: 104000000 cycles: 137656731 heartbeat IPC: 0.759124 cumulative IPC: 0.733959 (Simulation time: 0 hr 46 min 53 sec) 
Heartbeat CPU 0 instructions: 105000002 cycles: 139053715 heartbeat IPC: 0.715829 cumulative IPC: 0.733764 (Simulation time: 0 hr 47 min 6 sec) 
Heartbeat CPU 0 instructions: 106000000 cycles: 140477978 heartbeat IPC: 0.702116 cumulative IPC: 0.733419 (Simulation time: 0 hr 47 min 18 sec) 
Heartbeat CPU 0 instructions: 107000002 cycles: 141883926 heartbeat IPC: 0.711265 cumulative IPC: 0.733184 (Simulation time: 0 hr 47 min 30 sec) 
Heartbeat CPU 0 instructions: 108000000 cycles: 143254327 heartbeat IPC: 0.729712 cumulative IPC: 0.733148 (Simulation time: 0 hr 47 min 42 sec) 
Heartbeat CPU 0 instructions: 109000000 cycles: 144602951 heartbeat IPC: 0.741497 cumulative IPC: 0.733232 (Simulation time: 0 hr 47 min 53 sec) 
Heartbeat CPU 0 instructions: 110000000 cycles: 145946989 heartbeat IPC: 0.744027 cumulative IPC: 0.733338 (Simulation time: 0 hr 48 min 5 sec) 
Finished CPU 0 instructions: 100000003 cycles: 136362726 cummulative IPC: 0.733338 (Simulation time: 0 hr 48 min 5 sec) 

ChampSim completed all CPUs

Region of Interest Statistics

CPU 0 cummulative IPC: 0.733338 instructions: 100000003 cycles: 136362726
LLC TOTAL     ACCESS:   21200174  HIT:   21146043  MISS:      54131
LLC LOAD      ACCESS:     194764  HIT:     150674  MISS:      44090
LLC RFO       ACCESS:   10471722  HIT:   10461785  MISS:       9937
LLC PREFETCH  ACCESS:          0  HIT:          0  MISS:          0
LLC WRITEBACK ACCESS:   10533688  HIT:   10533584  MISS:        104
Insertion Distribution: 
	LOAD 6819 0 20286 21575 
	RFO 0 0 12864 5532 
	PREF 0 0 0 0 
	WRITEBACK 0 0 0 104 
Total Prefetch Downgrades: 0
