
*** ChampSim Multicore Out-of-Order Simulator ***

Warmup Instructions: 10000000
Simulation Instructions: 100000000
Configuration: 1
Number of CPUs: 1
LLC sets: 2048
LLC ways: 16
Off-chip DRAM Channels: 1 Width: 64-bit Data Rate: 1600 MT/s

CPU 0 runs /datasets/cs240c-wi22-a00-public/data/Assignment2-gz/bzip2_259B.trace.gz
Initialize SRRIP state
Heartbeat CPU 0 instructions: 1000002 cycles: 428954 heartbeat IPC: 2.33126 cumulative IPC: 2.33126 (Simulation time: 0 hr 0 min 25 sec) 
Heartbeat CPU 0 instructions: 2000003 cycles: 861405 heartbeat IPC: 2.3124 cumulative IPC: 2.32179 (Simulation time: 0 hr 0 min 47 sec) 
Heartbeat CPU 0 instructions: 3000001 cycles: 1287146 heartbeat IPC: 2.34884 cumulative IPC: 2.33074 (Simulation time: 0 hr 1 min 8 sec) 
Heartbeat CPU 0 instructions: 4000000 cycles: 1685678 heartbeat IPC: 2.50921 cumulative IPC: 2.37293 (Simulation time: 0 hr 1 min 28 sec) 
Heartbeat CPU 0 instructions: 5000001 cycles: 2104126 heartbeat IPC: 2.38979 cumulative IPC: 2.37628 (Simulation time: 0 hr 1 min 48 sec) 
Heartbeat CPU 0 instructions: 6000001 cycles: 2533723 heartbeat IPC: 2.32776 cumulative IPC: 2.36806 (Simulation time: 0 hr 2 min 10 sec) 
Heartbeat CPU 0 instructions: 7000003 cycles: 2962777 heartbeat IPC: 2.33071 cumulative IPC: 2.36265 (Simulation time: 0 hr 2 min 33 sec) 
Heartbeat CPU 0 instructions: 8000000 cycles: 3392826 heartbeat IPC: 2.32531 cumulative IPC: 2.35792 (Simulation time: 0 hr 2 min 55 sec) 
Heartbeat CPU 0 instructions: 9000000 cycles: 3820958 heartbeat IPC: 2.33573 cumulative IPC: 2.35543 (Simulation time: 0 hr 3 min 17 sec) 
Heartbeat CPU 0 instructions: 10000002 cycles: 4195054 heartbeat IPC: 2.67312 cumulative IPC: 2.38376 (Simulation time: 0 hr 3 min 35 sec) 

Warmup complete CPU 0 instructions: 10000002 cycles: 4195054 (Simulation time: 0 hr 3 min 35 sec) 

Heartbeat CPU 0 instructions: 11000002 cycles: 5196207 heartbeat IPC: 0.998848 cumulative IPC: 0.998848 (Simulation time: 0 hr 3 min 59 sec) 
Heartbeat CPU 0 instructions: 12000000 cycles: 6835803 heartbeat IPC: 0.609905 cumulative IPC: 0.75736 (Simulation time: 0 hr 4 min 27 sec) 
Heartbeat CPU 0 instructions: 13000002 cycles: 8484972 heartbeat IPC: 0.606367 cumulative IPC: 0.699314 (Simulation time: 0 hr 4 min 56 sec) 
Heartbeat CPU 0 instructions: 14000002 cycles: 9807221 heartbeat IPC: 0.756287 cumulative IPC: 0.712737 (Simulation time: 0 hr 5 min 23 sec) 
Heartbeat CPU 0 instructions: 15000002 cycles: 11243092 heartbeat IPC: 0.696441 cumulative IPC: 0.709417 (Simulation time: 0 hr 5 min 51 sec) 
Heartbeat CPU 0 instructions: 16000000 cycles: 12744530 heartbeat IPC: 0.666027 cumulative IPC: 0.701797 (Simulation time: 0 hr 6 min 19 sec) 
Heartbeat CPU 0 instructions: 17000002 cycles: 14347194 heartbeat IPC: 0.623962 cumulative IPC: 0.68951 (Simulation time: 0 hr 6 min 50 sec) 
Heartbeat CPU 0 instructions: 18000001 cycles: 15859240 heartbeat IPC: 0.661355 cumulative IPC: 0.68586 (Simulation time: 0 hr 7 min 18 sec) 
Heartbeat CPU 0 instructions: 19000003 cycles: 17103708 heartbeat IPC: 0.803558 cumulative IPC: 0.697207 (Simulation time: 0 hr 7 min 41 sec) 
Heartbeat CPU 0 instructions: 20000000 cycles: 18280415 heartbeat IPC: 0.849827 cumulative IPC: 0.709957 (Simulation time: 0 hr 8 min 7 sec) 
Heartbeat CPU 0 instructions: 21000000 cycles: 19409688 heartbeat IPC: 0.885525 cumulative IPC: 0.722988 (Simulation time: 0 hr 8 min 30 sec) 
Heartbeat CPU 0 instructions: 22000001 cycles: 20521912 heartbeat IPC: 0.8991 cumulative IPC: 0.734985 (Simulation time: 0 hr 8 min 52 sec) 
Heartbeat CPU 0 instructions: 23000002 cycles: 21600326 heartbeat IPC: 0.927289 cumulative IPC: 0.7469 (Simulation time: 0 hr 9 min 13 sec) 
Heartbeat CPU 0 instructions: 24000000 cycles: 22645113 heartbeat IPC: 0.957131 cumulative IPC: 0.758805 (Simulation time: 0 hr 9 min 37 sec) 
Heartbeat CPU 0 instructions: 25000000 cycles: 23636413 heartbeat IPC: 1.00878 cumulative IPC: 0.771551 (Simulation time: 0 hr 10 min 1 sec) 
Heartbeat CPU 0 instructions: 26000000 cycles: 24711769 heartbeat IPC: 0.929925 cumulative IPC: 0.779852 (Simulation time: 0 hr 10 min 24 sec) 
Heartbeat CPU 0 instructions: 27000003 cycles: 25840693 heartbeat IPC: 0.885802 cumulative IPC: 0.785378 (Simulation time: 0 hr 10 min 52 sec) 
Heartbeat CPU 0 instructions: 28000000 cycles: 26900930 heartbeat IPC: 0.943183 cumulative IPC: 0.792746 (Simulation time: 0 hr 11 min 14 sec) 
Heartbeat CPU 0 instructions: 29000000 cycles: 27948761 heartbeat IPC: 0.954352 cumulative IPC: 0.799875 (Simulation time: 0 hr 11 min 37 sec) 
Heartbeat CPU 0 instructions: 30000001 cycles: 29041906 heartbeat IPC: 0.914793 cumulative IPC: 0.804931 (Simulation time: 0 hr 11 min 59 sec) 
Heartbeat CPU 0 instructions: 31000001 cycles: 30118194 heartbeat IPC: 0.929119 cumulative IPC: 0.810087 (Simulation time: 0 hr 12 min 22 sec) 
Heartbeat CPU 0 instructions: 32000000 cycles: 31202635 heartbeat IPC: 0.922133 cumulative IPC: 0.814586 (Simulation time: 0 hr 12 min 45 sec) 
Heartbeat CPU 0 instructions: 33000002 cycles: 32438838 heartbeat IPC: 0.80893 cumulative IPC: 0.814338 (Simulation time: 0 hr 13 min 17 sec) 
Heartbeat CPU 0 instructions: 34000003 cycles: 33855891 heartbeat IPC: 0.705691 cumulative IPC: 0.809148 (Simulation time: 0 hr 13 min 42 sec) 
Heartbeat CPU 0 instructions: 35000003 cycles: 35125490 heartbeat IPC: 0.78765 cumulative IPC: 0.808265 (Simulation time: 0 hr 14 min 11 sec) 
Heartbeat CPU 0 instructions: 36000000 cycles: 36401622 heartbeat IPC: 0.783616 cumulative IPC: 0.807289 (Simulation time: 0 hr 14 min 32 sec) 
Heartbeat CPU 0 instructions: 37000002 cycles: 37445719 heartbeat IPC: 0.957767 cumulative IPC: 0.812014 (Simulation time: 0 hr 14 min 53 sec) 
Heartbeat CPU 0 instructions: 38000003 cycles: 38573777 heartbeat IPC: 0.88648 cumulative IPC: 0.814457 (Simulation time: 0 hr 15 min 16 sec) 
Heartbeat CPU 0 instructions: 39000001 cycles: 39718309 heartbeat IPC: 0.873718 cumulative IPC: 0.816367 (Simulation time: 0 hr 15 min 37 sec) 
Heartbeat CPU 0 instructions: 40000000 cycles: 40798870 heartbeat IPC: 0.925444 cumulative IPC: 0.819587 (Simulation time: 0 hr 15 min 59 sec) 
Heartbeat CPU 0 instructions: 41000001 cycles: 41990834 heartbeat IPC: 0.838952 cumulative IPC: 0.820197 (Simulation time: 0 hr 16 min 20 sec) 
Heartbeat CPU 0 instructions: 42000000 cycles: 43210613 heartbeat IPC: 0.81982 cumulative IPC: 0.820186 (Simulation time: 0 hr 16 min 39 sec) 
Heartbeat CPU 0 instructions: 43000003 cycles: 44428066 heartbeat IPC: 0.821389 cumulative IPC: 0.820222 (Simulation time: 0 hr 16 min 58 sec) 
Heartbeat CPU 0 instructions: 44000000 cycles: 45652082 heartbeat IPC: 0.81698 cumulative IPC: 0.820126 (Simulation time: 0 hr 17 min 15 sec) 
Heartbeat CPU 0 instructions: 45000000 cycles: 46874810 heartbeat IPC: 0.817843 cumulative IPC: 0.820061 (Simulation time: 0 hr 17 min 33 sec) 
Heartbeat CPU 0 instructions: 46000002 cycles: 48125463 heartbeat IPC: 0.799584 cumulative IPC: 0.819478 (Simulation time: 0 hr 17 min 53 sec) 
Heartbeat CPU 0 instructions: 47000000 cycles: 49366604 heartbeat IPC: 0.805709 cumulative IPC: 0.8191 (Simulation time: 0 hr 18 min 13 sec) 
Heartbeat CPU 0 instructions: 48000000 cycles: 50605791 heartbeat IPC: 0.806981 cumulative IPC: 0.818776 (Simulation time: 0 hr 18 min 33 sec) 
Heartbeat CPU 0 instructions: 49000003 cycles: 51885817 heartbeat IPC: 0.781236 cumulative IPC: 0.817768 (Simulation time: 0 hr 18 min 53 sec) 
Heartbeat CPU 0 instructions: 50000001 cycles: 52925854 heartbeat IPC: 0.961502 cumulative IPC: 0.820836 (Simulation time: 0 hr 19 min 17 sec) 
Heartbeat CPU 0 instructions: 51000002 cycles: 54100381 heartbeat IPC: 0.851407 cumulative IPC: 0.821556 (Simulation time: 0 hr 19 min 37 sec) 
Heartbeat CPU 0 instructions: 52000000 cycles: 55218921 heartbeat IPC: 0.894021 cumulative IPC: 0.823144 (Simulation time: 0 hr 19 min 57 sec) 
Heartbeat CPU 0 instructions: 53000001 cycles: 56425722 heartbeat IPC: 0.828638 cumulative IPC: 0.823271 (Simulation time: 0 hr 20 min 17 sec) 
Heartbeat CPU 0 instructions: 54000000 cycles: 57661996 heartbeat IPC: 0.808881 cumulative IPC: 0.822938 (Simulation time: 0 hr 20 min 38 sec) 
Heartbeat CPU 0 instructions: 55000000 cycles: 58814368 heartbeat IPC: 0.867775 cumulative IPC: 0.823884 (Simulation time: 0 hr 21 min 1 sec) 
Heartbeat CPU 0 instructions: 56000000 cycles: 60048733 heartbeat IPC: 0.810133 cumulative IPC: 0.82358 (Simulation time: 0 hr 21 min 24 sec) 
Heartbeat CPU 0 instructions: 57000000 cycles: 61270740 heartbeat IPC: 0.818326 cumulative IPC: 0.823468 (Simulation time: 0 hr 21 min 47 sec) 
Heartbeat CPU 0 instructions: 58000002 cycles: 62315598 heartbeat IPC: 0.95707 cumulative IPC: 0.82587 (Simulation time: 0 hr 22 min 12 sec) 
Heartbeat CPU 0 instructions: 59000000 cycles: 63418431 heartbeat IPC: 0.906754 cumulative IPC: 0.827376 (Simulation time: 0 hr 22 min 33 sec) 
Heartbeat CPU 0 instructions: 60000000 cycles: 64610116 heartbeat IPC: 0.839148 cumulative IPC: 0.827608 (Simulation time: 0 hr 22 min 52 sec) 
Heartbeat CPU 0 instructions: 61000000 cycles: 65755263 heartbeat IPC: 0.87325 cumulative IPC: 0.828457 (Simulation time: 0 hr 23 min 12 sec) 
Heartbeat CPU 0 instructions: 62000002 cycles: 66612636 heartbeat IPC: 1.16636 cumulative IPC: 0.833099 (Simulation time: 0 hr 23 min 33 sec) 
Heartbeat CPU 0 instructions: 63000001 cycles: 67645404 heartbeat IPC: 0.968271 cumulative IPC: 0.835299 (Simulation time: 0 hr 24 min 5 sec) 
Heartbeat CPU 0 instructions: 64000000 cycles: 68961767 heartbeat IPC: 0.759668 cumulative IPC: 0.833762 (Simulation time: 0 hr 24 min 31 sec) 
Heartbeat CPU 0 instructions: 65000003 cycles: 70311215 heartbeat IPC: 0.741046 cumulative IPC: 0.831869 (Simulation time: 0 hr 25 min 0 sec) 
Heartbeat CPU 0 instructions: 66000003 cycles: 71584140 heartbeat IPC: 0.785592 cumulative IPC: 0.830995 (Simulation time: 0 hr 25 min 31 sec) 
Heartbeat CPU 0 instructions: 67000003 cycles: 72958444 heartbeat IPC: 0.727641 cumulative IPC: 0.828929 (Simulation time: 0 hr 25 min 58 sec) 
Heartbeat CPU 0 instructions: 68000000 cycles: 74553453 heartbeat IPC: 0.626954 cumulative IPC: 0.824351 (Simulation time: 0 hr 26 min 26 sec) 
Heartbeat CPU 0 instructions: 69000003 cycles: 76030502 heartbeat IPC: 0.677028 cumulative IPC: 0.821322 (Simulation time: 0 hr 26 min 53 sec) 
Heartbeat CPU 0 instructions: 70000003 cycles: 77584596 heartbeat IPC: 0.643462 cumulative IPC: 0.817555 (Simulation time: 0 hr 27 min 23 sec) 
Heartbeat CPU 0 instructions: 71000000 cycles: 79060143 heartbeat IPC: 0.677713 cumulative IPC: 0.814799 (Simulation time: 0 hr 27 min 49 sec) 
Heartbeat CPU 0 instructions: 72000000 cycles: 80473686 heartbeat IPC: 0.707442 cumulative IPC: 0.81281 (Simulation time: 0 hr 28 min 20 sec) 
Heartbeat CPU 0 instructions: 73000003 cycles: 82019656 heartbeat IPC: 0.646845 cumulative IPC: 0.809513 (Simulation time: 0 hr 28 min 49 sec) 
Heartbeat CPU 0 instructions: 74000001 cycles: 83477385 heartbeat IPC: 0.685997 cumulative IPC: 0.807242 (Simulation time: 0 hr 29 min 14 sec) 
Heartbeat CPU 0 instructions: 75000000 cycles: 84834425 heartbeat IPC: 0.736897 cumulative IPC: 0.806058 (Simulation time: 0 hr 29 min 38 sec) 
Heartbeat CPU 0 instructions: 76000000 cycles: 86113951 heartbeat IPC: 0.781539 cumulative IPC: 0.805675 (Simulation time: 0 hr 30 min 4 sec) 
Heartbeat CPU 0 instructions: 77000002 cycles: 87265508 heartbeat IPC: 0.868391 cumulative IPC: 0.806544 (Simulation time: 0 hr 30 min 29 sec) 
Heartbeat CPU 0 instructions: 78000000 cycles: 88440184 heartbeat IPC: 0.851297 cumulative IPC: 0.807168 (Simulation time: 0 hr 30 min 52 sec) 
Heartbeat CPU 0 instructions: 79000003 cycles: 89807303 heartbeat IPC: 0.731467 cumulative IPC: 0.805959 (Simulation time: 0 hr 31 min 17 sec) 
Heartbeat CPU 0 instructions: 80000000 cycles: 91306065 heartbeat IPC: 0.667215 cumulative IPC: 0.803572 (Simulation time: 0 hr 31 min 40 sec) 
Heartbeat CPU 0 instructions: 81000001 cycles: 92671751 heartbeat IPC: 0.732233 cumulative IPC: 0.802471 (Simulation time: 0 hr 32 min 6 sec) 
Heartbeat CPU 0 instructions: 82000000 cycles: 93968204 heartbeat IPC: 0.771335 cumulative IPC: 0.802022 (Simulation time: 0 hr 32 min 33 sec) 
Heartbeat CPU 0 instructions: 83000002 cycles: 95188852 heartbeat IPC: 0.819239 cumulative IPC: 0.802252 (Simulation time: 0 hr 33 min 0 sec) 
Heartbeat CPU 0 instructions: 84000000 cycles: 96312830 heartbeat IPC: 0.889695 cumulative IPC: 0.803319 (Simulation time: 0 hr 33 min 24 sec) 
Heartbeat CPU 0 instructions: 85000003 cycles: 97447843 heartbeat IPC: 0.88105 cumulative IPC: 0.804265 (Simulation time: 0 hr 33 min 47 sec) 
Heartbeat CPU 0 instructions: 86000001 cycles: 98767930 heartbeat IPC: 0.757524 cumulative IPC: 0.803613 (Simulation time: 0 hr 34 min 13 sec) 
Heartbeat CPU 0 instructions: 87000000 cycles: 100175167 heartbeat IPC: 0.710612 cumulative IPC: 0.802249 (Simulation time: 0 hr 34 min 34 sec) 
Heartbeat CPU 0 instructions: 88000000 cycles: 101385138 heartbeat IPC: 0.826466 cumulative IPC: 0.802551 (Simulation time: 0 hr 34 min 53 sec) 
Heartbeat CPU 0 instructions: 89000002 cycles: 102397894 heartbeat IPC: 0.987407 cumulative IPC: 0.804457 (Simulation time: 0 hr 35 min 12 sec) 
Heartbeat CPU 0 instructions: 90000001 cycles: 103534528 heartbeat IPC: 0.87979 cumulative IPC: 0.805319 (Simulation time: 0 hr 35 min 39 sec) 
Heartbeat CPU 0 instructions: 91000002 cycles: 104658460 heartbeat IPC: 0.889734 cumulative IPC: 0.806264 (Simulation time: 0 hr 35 min 57 sec) 
Heartbeat CPU 0 instructions: 92000000 cycles: 105699795 heartbeat IPC: 0.960304 cumulative IPC: 0.807844 (Simulation time: 0 hr 36 min 15 sec) 
Heartbeat CPU 0 instructions: 93000000 cycles: 106898421 heartbeat IPC: 0.834289 cumulative IPC: 0.808153 (Simulation time: 0 hr 36 min 33 sec) 
Heartbeat CPU 0 instructions: 94000003 cycles: 108075210 heartbeat IPC: 0.849773 cumulative IPC: 0.808624 (Simulation time: 0 hr 36 min 50 sec) 
Heartbeat CPU 0 instructions: 95000002 cycles: 109270330 heartbeat IPC: 0.836735 cumulative IPC: 0.808944 (Simulation time: 0 hr 37 min 7 sec) 
Heartbeat CPU 0 instructions: 96000000 cycles: 110450493 heartbeat IPC: 0.847339 cumulative IPC: 0.80937 (Simulation time: 0 hr 37 min 24 sec) 
Heartbeat CPU 0 instructions: 97000002 cycles: 111668501 heartbeat IPC: 0.821014 cumulative IPC: 0.809502 (Simulation time: 0 hr 37 min 43 sec) 
Heartbeat CPU 0 instructions: 98000000 cycles: 112912419 heartbeat IPC: 0.80391 cumulative IPC: 0.809438 (Simulation time: 0 hr 38 min 1 sec) 
Heartbeat CPU 0 instructions: 99000000 cycles: 114162189 heartbeat IPC: 0.800147 cumulative IPC: 0.809333 (Simulation time: 0 hr 38 min 19 sec) 
Heartbeat CPU 0 instructions: 100000000 cycles: 115405290 heartbeat IPC: 0.80444 cumulative IPC: 0.809278 (Simulation time: 0 hr 38 min 38 sec) 
Heartbeat CPU 0 instructions: 101000003 cycles: 116563138 heartbeat IPC: 0.863674 cumulative IPC: 0.809839 (Simulation time: 0 hr 38 min 55 sec) 
Heartbeat CPU 0 instructions: 102000000 cycles: 117692992 heartbeat IPC: 0.885067 cumulative IPC: 0.810587 (Simulation time: 0 hr 39 min 13 sec) 
Heartbeat CPU 0 instructions: 103000000 cycles: 118794925 heartbeat IPC: 0.907496 cumulative IPC: 0.811519 (Simulation time: 0 hr 39 min 30 sec) 
Heartbeat CPU 0 instructions: 104000000 cycles: 119959228 heartbeat IPC: 0.858883 cumulative IPC: 0.811996 (Simulation time: 0 hr 39 min 46 sec) 
Heartbeat CPU 0 instructions: 105000002 cycles: 121181758 heartbeat IPC: 0.817977 cumulative IPC: 0.812058 (Simulation time: 0 hr 40 min 6 sec) 
Heartbeat CPU 0 instructions: 106000001 cycles: 122316255 heartbeat IPC: 0.881447 cumulative IPC: 0.812725 (Simulation time: 0 hr 40 min 24 sec) 
Heartbeat CPU 0 instructions: 107000000 cycles: 123528861 heartbeat IPC: 0.824669 cumulative IPC: 0.812846 (Simulation time: 0 hr 40 min 44 sec) 
Heartbeat CPU 0 instructions: 108000000 cycles: 124738059 heartbeat IPC: 0.826994 cumulative IPC: 0.812988 (Simulation time: 0 hr 41 min 0 sec) 
Heartbeat CPU 0 instructions: 109000000 cycles: 125750968 heartbeat IPC: 0.987256 cumulative IPC: 0.81444 (Simulation time: 0 hr 41 min 15 sec) 
Heartbeat CPU 0 instructions: 110000000 cycles: 126924855 heartbeat IPC: 0.851871 cumulative IPC: 0.814798 (Simulation time: 0 hr 41 min 30 sec) 
Finished CPU 0 instructions: 100000002 cycles: 122729803 cummulative IPC: 0.814798 (Simulation time: 0 hr 41 min 30 sec) 

ChampSim completed all CPUs

Region of Interest Statistics

CPU 0 cummulative IPC: 0.814798 instructions: 100000002 cycles: 122729803
LLC TOTAL     ACCESS:     991026  HIT:     711536  MISS:     279490
LLC LOAD      ACCESS:     696694  HIT:     506376  MISS:     190318
LLC RFO       ACCESS:     102176  HIT:      39429  MISS:      62747
LLC PREFETCH  ACCESS:          0  HIT:          0  MISS:          0
LLC WRITEBACK ACCESS:     192156  HIT:     165731  MISS:      26425
Insertion Distribution: 
	LOAD 52442 0 94167 44292 
	RFO 12035 0 28761 37908 
	PREF 0 0 0 0 
	WRITEBACK 0 0 0 26425 
Total Prefetch Downgrades: 0
