
*** ChampSim Multicore Out-of-Order Simulator ***

Warmup Instructions: 10000000
Simulation Instructions: 100000000
Configuration: 1
Number of CPUs: 1
LLC sets: 2048
LLC ways: 16
Off-chip DRAM Channels: 1 Width: 64-bit Data Rate: 1600 MT/s

CPU 0 runs /datasets/cs240c-wi22-a00-public/data/Assignment2-gz/libquantum_1735B.trace.gz
Initialize SRRIP state
Heartbeat CPU 0 instructions: 1000003 cycles: 333345 heartbeat IPC: 2.9999 cumulative IPC: 2.9999 (Simulation time: 0 hr 0 min 13 sec) 
Heartbeat CPU 0 instructions: 2000003 cycles: 666677 heartbeat IPC: 3.00001 cumulative IPC: 2.99996 (Simulation time: 0 hr 0 min 26 sec) 
Heartbeat CPU 0 instructions: 3000001 cycles: 989047 heartbeat IPC: 3.10202 cumulative IPC: 3.03322 (Simulation time: 0 hr 0 min 38 sec) 
Heartbeat CPU 0 instructions: 4000000 cycles: 1290772 heartbeat IPC: 3.31427 cumulative IPC: 3.09892 (Simulation time: 0 hr 0 min 51 sec) 
Heartbeat CPU 0 instructions: 5000000 cycles: 1592498 heartbeat IPC: 3.31427 cumulative IPC: 3.13972 (Simulation time: 0 hr 1 min 4 sec) 
Heartbeat CPU 0 instructions: 6000003 cycles: 1894221 heartbeat IPC: 3.31431 cumulative IPC: 3.16753 (Simulation time: 0 hr 1 min 18 sec) 
Heartbeat CPU 0 instructions: 7000000 cycles: 2195944 heartbeat IPC: 3.31429 cumulative IPC: 3.1877 (Simulation time: 0 hr 1 min 32 sec) 
Heartbeat CPU 0 instructions: 8000000 cycles: 2501901 heartbeat IPC: 3.26843 cumulative IPC: 3.19757 (Simulation time: 0 hr 1 min 46 sec) 
Heartbeat CPU 0 instructions: 9000001 cycles: 2835236 heartbeat IPC: 2.99999 cumulative IPC: 3.17434 (Simulation time: 0 hr 1 min 58 sec) 
Heartbeat CPU 0 instructions: 10000001 cycles: 3168569 heartbeat IPC: 3 cumulative IPC: 3.156 (Simulation time: 0 hr 2 min 11 sec) 

Warmup complete CPU 0 instructions: 10000001 cycles: 3168569 (Simulation time: 0 hr 2 min 11 sec) 

Heartbeat CPU 0 instructions: 11000001 cycles: 5166671 heartbeat IPC: 0.500475 cumulative IPC: 0.500475 (Simulation time: 0 hr 2 min 35 sec) 
Heartbeat CPU 0 instructions: 12000000 cycles: 7164493 heartbeat IPC: 0.500545 cumulative IPC: 0.50051 (Simulation time: 0 hr 2 min 59 sec) 
Heartbeat CPU 0 instructions: 13000003 cycles: 9745333 heartbeat IPC: 0.387472 cumulative IPC: 0.456152 (Simulation time: 0 hr 3 min 22 sec) 
Heartbeat CPU 0 instructions: 14000000 cycles: 13370226 heartbeat IPC: 0.275869 cumulative IPC: 0.392093 (Simulation time: 0 hr 3 min 43 sec) 
Heartbeat CPU 0 instructions: 15000000 cycles: 16992743 heartbeat IPC: 0.276051 cumulative IPC: 0.361685 (Simulation time: 0 hr 4 min 5 sec) 
Heartbeat CPU 0 instructions: 16000000 cycles: 20615199 heartbeat IPC: 0.276056 cumulative IPC: 0.343906 (Simulation time: 0 hr 4 min 26 sec) 
Heartbeat CPU 0 instructions: 17000002 cycles: 24254162 heartbeat IPC: 0.274804 cumulative IPC: 0.33198 (Simulation time: 0 hr 4 min 46 sec) 
Heartbeat CPU 0 instructions: 18000001 cycles: 27327414 heartbeat IPC: 0.325388 cumulative IPC: 0.331142 (Simulation time: 0 hr 5 min 9 sec) 
Heartbeat CPU 0 instructions: 19000000 cycles: 29248068 heartbeat IPC: 0.520655 cumulative IPC: 0.345099 (Simulation time: 0 hr 5 min 44 sec) 
Heartbeat CPU 0 instructions: 20000000 cycles: 30872312 heartbeat IPC: 0.615671 cumulative IPC: 0.360962 (Simulation time: 0 hr 6 min 8 sec) 
Heartbeat CPU 0 instructions: 21000001 cycles: 32422381 heartbeat IPC: 0.645133 cumulative IPC: 0.376019 (Simulation time: 0 hr 6 min 31 sec) 
Heartbeat CPU 0 instructions: 22000000 cycles: 34340354 heartbeat IPC: 0.521383 cumulative IPC: 0.384963 (Simulation time: 0 hr 7 min 0 sec) 
Heartbeat CPU 0 instructions: 23000001 cycles: 37344677 heartbeat IPC: 0.332854 cumulative IPC: 0.380383 (Simulation time: 0 hr 7 min 23 sec) 
Heartbeat CPU 0 instructions: 24000000 cycles: 41085465 heartbeat IPC: 0.267323 cumulative IPC: 0.369229 (Simulation time: 0 hr 7 min 44 sec) 
Heartbeat CPU 0 instructions: 25000000 cycles: 44833565 heartbeat IPC: 0.266802 cumulative IPC: 0.360014 (Simulation time: 0 hr 8 min 7 sec) 
Heartbeat CPU 0 instructions: 26000000 cycles: 48573100 heartbeat IPC: 0.267413 cumulative IPC: 0.352388 (Simulation time: 0 hr 8 min 29 sec) 
Heartbeat CPU 0 instructions: 27000001 cycles: 52332830 heartbeat IPC: 0.265977 cumulative IPC: 0.34578 (Simulation time: 0 hr 8 min 50 sec) 
Heartbeat CPU 0 instructions: 28000000 cycles: 55114386 heartbeat IPC: 0.359511 cumulative IPC: 0.346515 (Simulation time: 0 hr 9 min 13 sec) 
Heartbeat CPU 0 instructions: 29000000 cycles: 57115294 heartbeat IPC: 0.499773 cumulative IPC: 0.352199 (Simulation time: 0 hr 9 min 41 sec) 
Heartbeat CPU 0 instructions: 30000001 cycles: 59116162 heartbeat IPC: 0.499784 cumulative IPC: 0.357477 (Simulation time: 0 hr 10 min 8 sec) 
Heartbeat CPU 0 instructions: 31000000 cycles: 61116934 heartbeat IPC: 0.499807 cumulative IPC: 0.362392 (Simulation time: 0 hr 10 min 32 sec) 
Heartbeat CPU 0 instructions: 32000000 cycles: 63117799 heartbeat IPC: 0.499784 cumulative IPC: 0.366977 (Simulation time: 0 hr 10 min 59 sec) 
Heartbeat CPU 0 instructions: 33000002 cycles: 66181813 heartbeat IPC: 0.32637 cumulative IPC: 0.365003 (Simulation time: 0 hr 11 min 20 sec) 
Heartbeat CPU 0 instructions: 34000000 cycles: 69510293 heartbeat IPC: 0.300437 cumulative IPC: 0.361763 (Simulation time: 0 hr 11 min 42 sec) 
Heartbeat CPU 0 instructions: 35000000 cycles: 72822683 heartbeat IPC: 0.301897 cumulative IPC: 0.358916 (Simulation time: 0 hr 12 min 4 sec) 
Heartbeat CPU 0 instructions: 36000000 cycles: 76141768 heartbeat IPC: 0.301288 cumulative IPC: 0.356295 (Simulation time: 0 hr 12 min 26 sec) 
Heartbeat CPU 0 instructions: 37000002 cycles: 79478256 heartbeat IPC: 0.299717 cumulative IPC: 0.353821 (Simulation time: 0 hr 12 min 48 sec) 
Heartbeat CPU 0 instructions: 38000003 cycles: 82007067 heartbeat IPC: 0.395443 cumulative IPC: 0.355156 (Simulation time: 0 hr 13 min 14 sec) 
Heartbeat CPU 0 instructions: 39000002 cycles: 84007839 heartbeat IPC: 0.499807 cumulative IPC: 0.358737 (Simulation time: 0 hr 13 min 43 sec) 
Heartbeat CPU 0 instructions: 40000000 cycles: 85362468 heartbeat IPC: 0.738208 cumulative IPC: 0.364991 (Simulation time: 0 hr 14 min 9 sec) 
Heartbeat CPU 0 instructions: 41000000 cycles: 87281714 heartbeat IPC: 0.521038 cumulative IPC: 0.368551 (Simulation time: 0 hr 14 min 38 sec) 
Heartbeat CPU 0 instructions: 42000001 cycles: 89282582 heartbeat IPC: 0.499784 cumulative IPC: 0.3716 (Simulation time: 0 hr 15 min 4 sec) 
Heartbeat CPU 0 instructions: 43000002 cycles: 92417725 heartbeat IPC: 0.318965 cumulative IPC: 0.369751 (Simulation time: 0 hr 15 min 31 sec) 
Heartbeat CPU 0 instructions: 44000000 cycles: 95749972 heartbeat IPC: 0.300097 cumulative IPC: 0.367244 (Simulation time: 0 hr 15 min 56 sec) 
Heartbeat CPU 0 instructions: 45000001 cycles: 99077897 heartbeat IPC: 0.300488 cumulative IPC: 0.364928 (Simulation time: 0 hr 16 min 22 sec) 
Heartbeat CPU 0 instructions: 46000002 cycles: 102408858 heartbeat IPC: 0.300214 cumulative IPC: 0.362756 (Simulation time: 0 hr 16 min 44 sec) 
Heartbeat CPU 0 instructions: 47000000 cycles: 105775408 heartbeat IPC: 0.297039 cumulative IPC: 0.3606 (Simulation time: 0 hr 17 min 7 sec) 
Heartbeat CPU 0 instructions: 48000000 cycles: 108218169 heartbeat IPC: 0.409373 cumulative IPC: 0.361734 (Simulation time: 0 hr 17 min 33 sec) 
Heartbeat CPU 0 instructions: 49000002 cycles: 110215605 heartbeat IPC: 0.500643 cumulative IPC: 0.364326 (Simulation time: 0 hr 17 min 57 sec) 
Heartbeat CPU 0 instructions: 50000001 cycles: 112213000 heartbeat IPC: 0.500652 cumulative IPC: 0.366823 (Simulation time: 0 hr 18 min 22 sec) 
Heartbeat CPU 0 instructions: 51000000 cycles: 114210399 heartbeat IPC: 0.500651 cumulative IPC: 0.36923 (Simulation time: 0 hr 18 min 50 sec) 
Heartbeat CPU 0 instructions: 52000000 cycles: 116207913 heartbeat IPC: 0.500622 cumulative IPC: 0.371552 (Simulation time: 0 hr 19 min 25 sec) 
Heartbeat CPU 0 instructions: 53000002 cycles: 118205461 heartbeat IPC: 0.500615 cumulative IPC: 0.373793 (Simulation time: 0 hr 19 min 53 sec) 
Heartbeat CPU 0 instructions: 54000001 cycles: 120202526 heartbeat IPC: 0.500734 cumulative IPC: 0.375959 (Simulation time: 0 hr 20 min 18 sec) 
Heartbeat CPU 0 instructions: 55000000 cycles: 122199826 heartbeat IPC: 0.500675 cumulative IPC: 0.378052 (Simulation time: 0 hr 20 min 42 sec) 
Heartbeat CPU 0 instructions: 56000000 cycles: 124197329 heartbeat IPC: 0.500625 cumulative IPC: 0.380075 (Simulation time: 0 hr 21 min 7 sec) 
Heartbeat CPU 0 instructions: 57000000 cycles: 126194766 heartbeat IPC: 0.500642 cumulative IPC: 0.382032 (Simulation time: 0 hr 21 min 35 sec) 
Heartbeat CPU 0 instructions: 58000002 cycles: 128192162 heartbeat IPC: 0.500653 cumulative IPC: 0.383928 (Simulation time: 0 hr 22 min 1 sec) 
Heartbeat CPU 0 instructions: 59000001 cycles: 129939953 heartbeat IPC: 0.57215 cumulative IPC: 0.386523 (Simulation time: 0 hr 22 min 26 sec) 
Heartbeat CPU 0 instructions: 60000000 cycles: 131457966 heartbeat IPC: 0.658755 cumulative IPC: 0.389744 (Simulation time: 0 hr 22 min 49 sec) 
Heartbeat CPU 0 instructions: 61000003 cycles: 133455400 heartbeat IPC: 0.500644 cumulative IPC: 0.391444 (Simulation time: 0 hr 23 min 13 sec) 
Heartbeat CPU 0 instructions: 62000002 cycles: 135452793 heartbeat IPC: 0.500652 cumulative IPC: 0.393093 (Simulation time: 0 hr 23 min 47 sec) 
Heartbeat CPU 0 instructions: 63000001 cycles: 137450095 heartbeat IPC: 0.500675 cumulative IPC: 0.394693 (Simulation time: 0 hr 24 min 15 sec) 
Heartbeat CPU 0 instructions: 64000000 cycles: 139447485 heartbeat IPC: 0.500653 cumulative IPC: 0.396246 (Simulation time: 0 hr 24 min 48 sec) 
Heartbeat CPU 0 instructions: 65000001 cycles: 141444914 heartbeat IPC: 0.500644 cumulative IPC: 0.397754 (Simulation time: 0 hr 25 min 14 sec) 
Heartbeat CPU 0 instructions: 66000000 cycles: 143442220 heartbeat IPC: 0.500674 cumulative IPC: 0.39922 (Simulation time: 0 hr 25 min 41 sec) 
Heartbeat CPU 0 instructions: 67000001 cycles: 145363953 heartbeat IPC: 0.520364 cumulative IPC: 0.400857 (Simulation time: 0 hr 26 min 11 sec) 
Heartbeat CPU 0 instructions: 68000000 cycles: 147272808 heartbeat IPC: 0.523874 cumulative IPC: 0.402486 (Simulation time: 0 hr 26 min 41 sec) 
Heartbeat CPU 0 instructions: 69000002 cycles: 149181702 heartbeat IPC: 0.523865 cumulative IPC: 0.404073 (Simulation time: 0 hr 27 min 8 sec) 
Heartbeat CPU 0 instructions: 70000001 cycles: 151090472 heartbeat IPC: 0.523897 cumulative IPC: 0.405619 (Simulation time: 0 hr 27 min 36 sec) 
Heartbeat CPU 0 instructions: 71000003 cycles: 153129120 heartbeat IPC: 0.490522 cumulative IPC: 0.406774 (Simulation time: 0 hr 28 min 2 sec) 
Heartbeat CPU 0 instructions: 72000000 cycles: 156420833 heartbeat IPC: 0.303792 cumulative IPC: 0.404562 (Simulation time: 0 hr 28 min 24 sec) 
Heartbeat CPU 0 instructions: 73000000 cycles: 159736269 heartbeat IPC: 0.301619 cumulative IPC: 0.402382 (Simulation time: 0 hr 28 min 48 sec) 
Heartbeat CPU 0 instructions: 74000000 cycles: 163036118 heartbeat IPC: 0.303044 cumulative IPC: 0.400331 (Simulation time: 0 hr 29 min 16 sec) 
Heartbeat CPU 0 instructions: 75000000 cycles: 166348134 heartbeat IPC: 0.301931 cumulative IPC: 0.398334 (Simulation time: 0 hr 29 min 40 sec) 
Heartbeat CPU 0 instructions: 76000000 cycles: 169684932 heartbeat IPC: 0.299689 cumulative IPC: 0.396357 (Simulation time: 0 hr 30 min 4 sec) 
Heartbeat CPU 0 instructions: 77000001 cycles: 171780722 heartbeat IPC: 0.477148 cumulative IPC: 0.397362 (Simulation time: 0 hr 30 min 31 sec) 
Heartbeat CPU 0 instructions: 78000000 cycles: 173689579 heartbeat IPC: 0.523873 cumulative IPC: 0.398778 (Simulation time: 0 hr 30 min 57 sec) 
Heartbeat CPU 0 instructions: 79000001 cycles: 174924702 heartbeat IPC: 0.809637 cumulative IPC: 0.401732 (Simulation time: 0 hr 31 min 26 sec) 
Heartbeat CPU 0 instructions: 80000000 cycles: 176833557 heartbeat IPC: 0.523874 cumulative IPC: 0.403075 (Simulation time: 0 hr 31 min 55 sec) 
Heartbeat CPU 0 instructions: 81000002 cycles: 178951572 heartbeat IPC: 0.472141 cumulative IPC: 0.403907 (Simulation time: 0 hr 32 min 22 sec) 
Heartbeat CPU 0 instructions: 82000003 cycles: 182241861 heartbeat IPC: 0.303925 cumulative IPC: 0.40207 (Simulation time: 0 hr 32 min 43 sec) 
Heartbeat CPU 0 instructions: 83000000 cycles: 185574875 heartbeat IPC: 0.300028 cumulative IPC: 0.400205 (Simulation time: 0 hr 33 min 6 sec) 
Heartbeat CPU 0 instructions: 84000000 cycles: 188901419 heartbeat IPC: 0.300612 cumulative IPC: 0.398422 (Simulation time: 0 hr 33 min 28 sec) 
Heartbeat CPU 0 instructions: 85000002 cycles: 192244673 heartbeat IPC: 0.29911 cumulative IPC: 0.396666 (Simulation time: 0 hr 33 min 52 sec) 
Heartbeat CPU 0 instructions: 86000002 cycles: 195585577 heartbeat IPC: 0.29932 cumulative IPC: 0.394975 (Simulation time: 0 hr 34 min 14 sec) 
Heartbeat CPU 0 instructions: 87000002 cycles: 197631731 heartbeat IPC: 0.488722 cumulative IPC: 0.395962 (Simulation time: 0 hr 34 min 41 sec) 
Heartbeat CPU 0 instructions: 88000000 cycles: 199583167 heartbeat IPC: 0.512442 cumulative IPC: 0.397119 (Simulation time: 0 hr 35 min 6 sec) 
Heartbeat CPU 0 instructions: 89000000 cycles: 201534673 heartbeat IPC: 0.512425 cumulative IPC: 0.398254 (Simulation time: 0 hr 35 min 32 sec) 
Heartbeat CPU 0 instructions: 90000000 cycles: 204101089 heartbeat IPC: 0.389648 cumulative IPC: 0.398144 (Simulation time: 0 hr 35 min 57 sec) 
Heartbeat CPU 0 instructions: 91000002 cycles: 208250226 heartbeat IPC: 0.241014 cumulative IPC: 0.394965 (Simulation time: 0 hr 36 min 19 sec) 
Heartbeat CPU 0 instructions: 92000000 cycles: 212375208 heartbeat IPC: 0.242425 cumulative IPC: 0.391957 (Simulation time: 0 hr 36 min 40 sec) 
Heartbeat CPU 0 instructions: 93000001 cycles: 216522239 heartbeat IPC: 0.241137 cumulative IPC: 0.389025 (Simulation time: 0 hr 37 min 0 sec) 
Heartbeat CPU 0 instructions: 94000001 cycles: 220287205 heartbeat IPC: 0.265607 cumulative IPC: 0.386885 (Simulation time: 0 hr 37 min 21 sec) 
Heartbeat CPU 0 instructions: 95000000 cycles: 222179402 heartbeat IPC: 0.528486 cumulative IPC: 0.388109 (Simulation time: 0 hr 37 min 46 sec) 
Heartbeat CPU 0 instructions: 96000000 cycles: 223593848 heartbeat IPC: 0.706991 cumulative IPC: 0.390155 (Simulation time: 0 hr 38 min 8 sec) 
Heartbeat CPU 0 instructions: 97000002 cycles: 225480620 heartbeat IPC: 0.530007 cumulative IPC: 0.391342 (Simulation time: 0 hr 38 min 31 sec) 
Heartbeat CPU 0 instructions: 98000001 cycles: 228364189 heartbeat IPC: 0.346792 cumulative IPC: 0.390771 (Simulation time: 0 hr 38 min 53 sec) 
Heartbeat CPU 0 instructions: 99000003 cycles: 232313572 heartbeat IPC: 0.253205 cumulative IPC: 0.3884 (Simulation time: 0 hr 39 min 14 sec) 
Heartbeat CPU 0 instructions: 100000000 cycles: 236265006 heartbeat IPC: 0.253072 cumulative IPC: 0.386106 (Simulation time: 0 hr 39 min 34 sec) 
Heartbeat CPU 0 instructions: 101000000 cycles: 240236411 heartbeat IPC: 0.2518 cumulative IPC: 0.383856 (Simulation time: 0 hr 39 min 54 sec) 
Heartbeat CPU 0 instructions: 102000000 cycles: 243380088 heartbeat IPC: 0.318099 cumulative IPC: 0.382996 (Simulation time: 0 hr 40 min 14 sec) 
Heartbeat CPU 0 instructions: 103000002 cycles: 245377043 heartbeat IPC: 0.500763 cumulative IPC: 0.383967 (Simulation time: 0 hr 40 min 34 sec) 
Heartbeat CPU 0 instructions: 104000000 cycles: 247374004 heartbeat IPC: 0.50076 cumulative IPC: 0.384922 (Simulation time: 0 hr 40 min 55 sec) 
Heartbeat CPU 0 instructions: 105000000 cycles: 249371000 heartbeat IPC: 0.500752 cumulative IPC: 0.385861 (Simulation time: 0 hr 41 min 14 sec) 
Heartbeat CPU 0 instructions: 106000003 cycles: 251367876 heartbeat IPC: 0.500784 cumulative IPC: 0.386786 (Simulation time: 0 hr 41 min 32 sec) 
Heartbeat CPU 0 instructions: 107000000 cycles: 254424972 heartbeat IPC: 0.327107 cumulative IPC: 0.38606 (Simulation time: 0 hr 41 min 48 sec) 
Heartbeat CPU 0 instructions: 108000000 cycles: 258057033 heartbeat IPC: 0.275326 cumulative IPC: 0.384482 (Simulation time: 0 hr 42 min 3 sec) 
Heartbeat CPU 0 instructions: 109000002 cycles: 261680533 heartbeat IPC: 0.275977 cumulative IPC: 0.382961 (Simulation time: 0 hr 42 min 17 sec) 
Heartbeat CPU 0 instructions: 110000002 cycles: 265306410 heartbeat IPC: 0.275795 cumulative IPC: 0.381479 (Simulation time: 0 hr 42 min 31 sec) 
Finished CPU 0 instructions: 100000001 cycles: 262137841 cummulative IPC: 0.381479 (Simulation time: 0 hr 42 min 31 sec) 

ChampSim completed all CPUs

Region of Interest Statistics

CPU 0 cummulative IPC: 0.381479 instructions: 100000001 cycles: 262137841
LLC TOTAL     ACCESS:    3801525  HIT:     111793  MISS:    3689732
LLC LOAD      ACCESS:    2789401  HIT:      95850  MISS:    2693551
LLC RFO       ACCESS:         20  HIT:         20  MISS:          0
LLC PREFETCH  ACCESS:          0  HIT:          0  MISS:          0
LLC WRITEBACK ACCESS:    1012104  HIT:      15923  MISS:     996181
Insertion Distribution: 
	LOAD 160 0 21271 2936184 
	RFO 0 0 4 0 
	PREF 0 0 0 0 
	WRITEBACK 0 0 0 1118270 
Total Prefetch Downgrades: 0
