
*** ChampSim Multicore Out-of-Order Simulator ***

Warmup Instructions: 10000000
Simulation Instructions: 100000000
Configuration: 2
Number of CPUs: 1
LLC sets: 2048
LLC ways: 16
Off-chip DRAM Channels: 1 Width: 64-bit Data Rate: 1600 MT/s

CPU 0 runs /datasets/cs240c-wi22-a00-public/data/Assignment2-gz/soplex_217B.trace.gz
CPU 0 L1D next line prefetcher
CPU 0 L2C IP-based stride prefetcher
Heartbeat CPU 0 instructions: 1000002 cycles: 442651 heartbeat IPC: 2.25912 cumulative IPC: 2.25912 (Simulation time: 0 hr 0 min 25 sec) 
Heartbeat CPU 0 instructions: 2000003 cycles: 802033 heartbeat IPC: 2.78256 cumulative IPC: 2.49367 (Simulation time: 0 hr 0 min 43 sec) 
Heartbeat CPU 0 instructions: 3000002 cycles: 1247222 heartbeat IPC: 2.24623 cumulative IPC: 2.40535 (Simulation time: 0 hr 1 min 4 sec) 
Heartbeat CPU 0 instructions: 4000000 cycles: 1676269 heartbeat IPC: 2.33074 cumulative IPC: 2.38625 (Simulation time: 0 hr 1 min 31 sec) 
Heartbeat CPU 0 instructions: 5000001 cycles: 2060325 heartbeat IPC: 2.60379 cumulative IPC: 2.4268 (Simulation time: 0 hr 1 min 48 sec) 
Heartbeat CPU 0 instructions: 6000000 cycles: 2434444 heartbeat IPC: 2.67294 cumulative IPC: 2.46463 (Simulation time: 0 hr 2 min 4 sec) 
Heartbeat CPU 0 instructions: 7000003 cycles: 2956360 heartbeat IPC: 1.91602 cumulative IPC: 2.36778 (Simulation time: 0 hr 2 min 21 sec) 
Heartbeat CPU 0 instructions: 8000000 cycles: 3403707 heartbeat IPC: 2.23539 cumulative IPC: 2.35038 (Simulation time: 0 hr 2 min 44 sec) 
Heartbeat CPU 0 instructions: 9000001 cycles: 3828068 heartbeat IPC: 2.35649 cumulative IPC: 2.35106 (Simulation time: 0 hr 3 min 3 sec) 
Heartbeat CPU 0 instructions: 10000000 cycles: 4240786 heartbeat IPC: 2.42296 cumulative IPC: 2.35805 (Simulation time: 0 hr 3 min 22 sec) 

Warmup complete CPU 0 instructions: 10000004 cycles: 4240787 (Simulation time: 0 hr 3 min 22 sec) 

Heartbeat CPU 0 instructions: 11000002 cycles: 8858363 heartbeat IPC: 0.216564 cumulative IPC: 0.216563 (Simulation time: 0 hr 3 min 57 sec) 
Heartbeat CPU 0 instructions: 12000000 cycles: 12071963 heartbeat IPC: 0.311177 cumulative IPC: 0.255389 (Simulation time: 0 hr 4 min 22 sec) 
Heartbeat CPU 0 instructions: 13000000 cycles: 13535460 heartbeat IPC: 0.683295 cumulative IPC: 0.322765 (Simulation time: 0 hr 4 min 39 sec) 
Heartbeat CPU 0 instructions: 14000000 cycles: 16425572 heartbeat IPC: 0.346007 cumulative IPC: 0.328278 (Simulation time: 0 hr 5 min 2 sec) 
Heartbeat CPU 0 instructions: 15000000 cycles: 19670083 heartbeat IPC: 0.308213 cumulative IPC: 0.324059 (Simulation time: 0 hr 5 min 31 sec) 
Heartbeat CPU 0 instructions: 16000000 cycles: 24381576 heartbeat IPC: 0.212247 cumulative IPC: 0.297903 (Simulation time: 0 hr 6 min 9 sec) 
Heartbeat CPU 0 instructions: 17000002 cycles: 27180994 heartbeat IPC: 0.357218 cumulative IPC: 0.305141 (Simulation time: 0 hr 6 min 34 sec) 
Heartbeat CPU 0 instructions: 18000002 cycles: 30300208 heartbeat IPC: 0.320594 cumulative IPC: 0.306991 (Simulation time: 0 hr 7 min 5 sec) 
Heartbeat CPU 0 instructions: 19000000 cycles: 34900133 heartbeat IPC: 0.217394 cumulative IPC: 0.293548 (Simulation time: 0 hr 7 min 38 sec) 
Heartbeat CPU 0 instructions: 20000000 cycles: 36404621 heartbeat IPC: 0.664678 cumulative IPC: 0.310908 (Simulation time: 0 hr 7 min 54 sec) 
Heartbeat CPU 0 instructions: 21000000 cycles: 37980708 heartbeat IPC: 0.634483 cumulative IPC: 0.326023 (Simulation time: 0 hr 8 min 11 sec) 
Heartbeat CPU 0 instructions: 22000001 cycles: 41527219 heartbeat IPC: 0.281968 cumulative IPC: 0.321833 (Simulation time: 0 hr 8 min 38 sec) 
Heartbeat CPU 0 instructions: 23000001 cycles: 46301017 heartbeat IPC: 0.209477 cumulative IPC: 0.309081 (Simulation time: 0 hr 9 min 11 sec) 
Heartbeat CPU 0 instructions: 24000000 cycles: 50108902 heartbeat IPC: 0.262613 cumulative IPC: 0.305223 (Simulation time: 0 hr 9 min 42 sec) 
Heartbeat CPU 0 instructions: 25000001 cycles: 51915930 heartbeat IPC: 0.553395 cumulative IPC: 0.314629 (Simulation time: 0 hr 10 min 14 sec) 
Heartbeat CPU 0 instructions: 26000001 cycles: 56791945 heartbeat IPC: 0.205086 cumulative IPC: 0.304465 (Simulation time: 0 hr 10 min 54 sec) 
Heartbeat CPU 0 instructions: 27000002 cycles: 59784324 heartbeat IPC: 0.334183 cumulative IPC: 0.306066 (Simulation time: 0 hr 11 min 18 sec) 
Heartbeat CPU 0 instructions: 28000000 cycles: 61256193 heartbeat IPC: 0.679407 cumulative IPC: 0.315704 (Simulation time: 0 hr 11 min 38 sec) 
Heartbeat CPU 0 instructions: 29000002 cycles: 64258441 heartbeat IPC: 0.333084 cumulative IPC: 0.316574 (Simulation time: 0 hr 12 min 1 sec) 
Heartbeat CPU 0 instructions: 30000002 cycles: 67569884 heartbeat IPC: 0.301983 cumulative IPC: 0.315811 (Simulation time: 0 hr 12 min 33 sec) 
Heartbeat CPU 0 instructions: 31000000 cycles: 71929362 heartbeat IPC: 0.229385 cumulative IPC: 0.310244 (Simulation time: 0 hr 13 min 8 sec) 
Heartbeat CPU 0 instructions: 32000000 cycles: 74048668 heartbeat IPC: 0.471853 cumulative IPC: 0.315151 (Simulation time: 0 hr 13 min 35 sec) 
Heartbeat CPU 0 instructions: 33000001 cycles: 78401309 heartbeat IPC: 0.229746 cumulative IPC: 0.310138 (Simulation time: 0 hr 14 min 14 sec) 
Heartbeat CPU 0 instructions: 34000000 cycles: 81903685 heartbeat IPC: 0.28552 cumulative IPC: 0.309028 (Simulation time: 0 hr 14 min 41 sec) 
Heartbeat CPU 0 instructions: 35000002 cycles: 83391870 heartbeat IPC: 0.671961 cumulative IPC: 0.315852 (Simulation time: 0 hr 14 min 57 sec) 
Heartbeat CPU 0 instructions: 36000000 cycles: 85854420 heartbeat IPC: 0.406082 cumulative IPC: 0.318574 (Simulation time: 0 hr 15 min 20 sec) 
Heartbeat CPU 0 instructions: 37000002 cycles: 88768612 heartbeat IPC: 0.343149 cumulative IPC: 0.319421 (Simulation time: 0 hr 15 min 47 sec) 
Heartbeat CPU 0 instructions: 38000000 cycles: 93736407 heartbeat IPC: 0.201296 cumulative IPC: 0.312864 (Simulation time: 0 hr 16 min 21 sec) 
Heartbeat CPU 0 instructions: 39000001 cycles: 96135833 heartbeat IPC: 0.416767 cumulative IPC: 0.315577 (Simulation time: 0 hr 16 min 45 sec) 
Heartbeat CPU 0 instructions: 40000000 cycles: 100072863 heartbeat IPC: 0.253998 cumulative IPC: 0.313048 (Simulation time: 0 hr 17 min 18 sec) 
Heartbeat CPU 0 instructions: 41000000 cycles: 103946442 heartbeat IPC: 0.258159 cumulative IPC: 0.310915 (Simulation time: 0 hr 17 min 47 sec) 
Heartbeat CPU 0 instructions: 42000002 cycles: 105446719 heartbeat IPC: 0.666545 cumulative IPC: 0.316187 (Simulation time: 0 hr 18 min 3 sec) 
Heartbeat CPU 0 instructions: 43000001 cycles: 107439522 heartbeat IPC: 0.501805 cumulative IPC: 0.319771 (Simulation time: 0 hr 18 min 23 sec) 
Heartbeat CPU 0 instructions: 44000000 cycles: 110545203 heartbeat IPC: 0.32199 cumulative IPC: 0.319836 (Simulation time: 0 hr 18 min 49 sec) 
Heartbeat CPU 0 instructions: 45000003 cycles: 115534420 heartbeat IPC: 0.200433 cumulative IPC: 0.314483 (Simulation time: 0 hr 19 min 22 sec) 
Heartbeat CPU 0 instructions: 46000000 cycles: 118906905 heartbeat IPC: 0.296516 cumulative IPC: 0.313955 (Simulation time: 0 hr 19 min 52 sec) 
Heartbeat CPU 0 instructions: 47000001 cycles: 120908408 heartbeat IPC: 0.499625 cumulative IPC: 0.31714 (Simulation time: 0 hr 20 min 16 sec) 
Heartbeat CPU 0 instructions: 48000000 cycles: 125461065 heartbeat IPC: 0.219652 cumulative IPC: 0.313479 (Simulation time: 0 hr 20 min 52 sec) 
Heartbeat CPU 0 instructions: 49000000 cycles: 128762574 heartbeat IPC: 0.302892 cumulative IPC: 0.313198 (Simulation time: 0 hr 21 min 18 sec) 
Heartbeat CPU 0 instructions: 50000001 cycles: 130249479 heartbeat IPC: 0.672539 cumulative IPC: 0.317438 (Simulation time: 0 hr 21 min 34 sec) 
Heartbeat CPU 0 instructions: 51000000 cycles: 133055050 heartbeat IPC: 0.356433 cumulative IPC: 0.318288 (Simulation time: 0 hr 21 min 56 sec) 
Heartbeat CPU 0 instructions: 52000000 cycles: 136183474 heartbeat IPC: 0.31965 cumulative IPC: 0.31832 (Simulation time: 0 hr 22 min 23 sec) 
Heartbeat CPU 0 instructions: 53000000 cycles: 140743031 heartbeat IPC: 0.21932 cumulative IPC: 0.315013 (Simulation time: 0 hr 22 min 56 sec) 
Heartbeat CPU 0 instructions: 54000000 cycles: 142975212 heartbeat IPC: 0.447992 cumulative IPC: 0.317153 (Simulation time: 0 hr 23 min 20 sec) 
Heartbeat CPU 0 instructions: 55000000 cycles: 147171270 heartbeat IPC: 0.238319 cumulative IPC: 0.314838 (Simulation time: 0 hr 23 min 54 sec) 
Heartbeat CPU 0 instructions: 56000000 cycles: 150802034 heartbeat IPC: 0.275424 cumulative IPC: 0.313862 (Simulation time: 0 hr 24 min 23 sec) 
Heartbeat CPU 0 instructions: 57000003 cycles: 152295722 heartbeat IPC: 0.669486 cumulative IPC: 0.31745 (Simulation time: 0 hr 24 min 38 sec) 
Heartbeat CPU 0 instructions: 58000000 cycles: 154700779 heartbeat IPC: 0.415789 cumulative IPC: 0.319022 (Simulation time: 0 hr 24 min 58 sec) 
Heartbeat CPU 0 instructions: 59000003 cycles: 157581692 heartbeat IPC: 0.347113 cumulative IPC: 0.319549 (Simulation time: 0 hr 25 min 24 sec) 
Heartbeat CPU 0 instructions: 60000000 cycles: 162445262 heartbeat IPC: 0.20561 cumulative IPC: 0.316047 (Simulation time: 0 hr 25 min 59 sec) 
Heartbeat CPU 0 instructions: 61000000 cycles: 165080177 heartbeat IPC: 0.379519 cumulative IPC: 0.317086 (Simulation time: 0 hr 26 min 24 sec) 
Heartbeat CPU 0 instructions: 62000001 cycles: 168429235 heartbeat IPC: 0.298592 cumulative IPC: 0.316709 (Simulation time: 0 hr 26 min 54 sec) 
Heartbeat CPU 0 instructions: 63000001 cycles: 172852036 heartbeat IPC: 0.226101 cumulative IPC: 0.314333 (Simulation time: 0 hr 27 min 26 sec) 
Heartbeat CPU 0 instructions: 64000000 cycles: 174359052 heartbeat IPC: 0.663562 cumulative IPC: 0.317426 (Simulation time: 0 hr 27 min 42 sec) 
Heartbeat CPU 0 instructions: 65000000 cycles: 176030802 heartbeat IPC: 0.598176 cumulative IPC: 0.320158 (Simulation time: 0 hr 27 min 59 sec) 
Heartbeat CPU 0 instructions: 66000002 cycles: 179475031 heartbeat IPC: 0.290341 cumulative IPC: 0.319572 (Simulation time: 0 hr 28 min 26 sec) 
Heartbeat CPU 0 instructions: 67000000 cycles: 184102262 heartbeat IPC: 0.216112 cumulative IPC: 0.316911 (Simulation time: 0 hr 29 min 3 sec) 
Heartbeat CPU 0 instructions: 68000000 cycles: 190385767 heartbeat IPC: 0.159147 cumulative IPC: 0.311585 (Simulation time: 0 hr 29 min 36 sec) 
Heartbeat CPU 0 instructions: 69000001 cycles: 195065690 heartbeat IPC: 0.213679 cumulative IPC: 0.309184 (Simulation time: 0 hr 30 min 6 sec) 
Heartbeat CPU 0 instructions: 70000002 cycles: 199633405 heartbeat IPC: 0.218928 cumulative IPC: 0.307074 (Simulation time: 0 hr 30 min 39 sec) 
Heartbeat CPU 0 instructions: 71000002 cycles: 204790456 heartbeat IPC: 0.193909 cumulative IPC: 0.304164 (Simulation time: 0 hr 31 min 10 sec) 
Heartbeat CPU 0 instructions: 72000000 cycles: 208753272 heartbeat IPC: 0.252345 cumulative IPC: 0.30316 (Simulation time: 0 hr 31 min 38 sec) 
Heartbeat CPU 0 instructions: 73000000 cycles: 212830249 heartbeat IPC: 0.24528 cumulative IPC: 0.302029 (Simulation time: 0 hr 32 min 7 sec) 
Heartbeat CPU 0 instructions: 74000000 cycles: 218564300 heartbeat IPC: 0.174397 cumulative IPC: 0.298614 (Simulation time: 0 hr 32 min 33 sec) 
Heartbeat CPU 0 instructions: 75000002 cycles: 226420064 heartbeat IPC: 0.127295 cumulative IPC: 0.292557 (Simulation time: 0 hr 33 min 8 sec) 
Heartbeat CPU 0 instructions: 76000000 cycles: 230454424 heartbeat IPC: 0.24787 cumulative IPC: 0.29176 (Simulation time: 0 hr 33 min 33 sec) 
Heartbeat CPU 0 instructions: 77000000 cycles: 236629099 heartbeat IPC: 0.161952 cumulative IPC: 0.288311 (Simulation time: 0 hr 34 min 6 sec) 
Heartbeat CPU 0 instructions: 78000002 cycles: 240132344 heartbeat IPC: 0.28545 cumulative IPC: 0.288268 (Simulation time: 0 hr 34 min 33 sec) 
Heartbeat CPU 0 instructions: 79000001 cycles: 242580431 heartbeat IPC: 0.408482 cumulative IPC: 0.289503 (Simulation time: 0 hr 35 min 2 sec) 
Heartbeat CPU 0 instructions: 80000000 cycles: 244275338 heartbeat IPC: 0.590002 cumulative IPC: 0.291625 (Simulation time: 0 hr 35 min 22 sec) 
Heartbeat CPU 0 instructions: 81000003 cycles: 247632617 heartbeat IPC: 0.297861 cumulative IPC: 0.291711 (Simulation time: 0 hr 35 min 50 sec) 
Heartbeat CPU 0 instructions: 82000001 cycles: 252626232 heartbeat IPC: 0.200255 cumulative IPC: 0.289872 (Simulation time: 0 hr 36 min 25 sec) 
Heartbeat CPU 0 instructions: 83000002 cycles: 256751063 heartbeat IPC: 0.242434 cumulative IPC: 0.289097 (Simulation time: 0 hr 36 min 52 sec) 
Heartbeat CPU 0 instructions: 84000000 cycles: 259161987 heartbeat IPC: 0.414778 cumulative IPC: 0.290286 (Simulation time: 0 hr 37 min 12 sec) 
Heartbeat CPU 0 instructions: 85000000 cycles: 261139703 heartbeat IPC: 0.505634 cumulative IPC: 0.291944 (Simulation time: 0 hr 37 min 32 sec) 
Heartbeat CPU 0 instructions: 86000000 cycles: 265744941 heartbeat IPC: 0.217144 cumulative IPC: 0.290626 (Simulation time: 0 hr 38 min 1 sec) 
Heartbeat CPU 0 instructions: 87000000 cycles: 269012475 heartbeat IPC: 0.306041 cumulative IPC: 0.290817 (Simulation time: 0 hr 38 min 21 sec) 
Heartbeat CPU 0 instructions: 88000000 cycles: 270496230 heartbeat IPC: 0.673966 cumulative IPC: 0.292952 (Simulation time: 0 hr 38 min 32 sec) 
Heartbeat CPU 0 instructions: 89000003 cycles: 273367157 heartbeat IPC: 0.348321 cumulative IPC: 0.293542 (Simulation time: 0 hr 38 min 48 sec) 
Heartbeat CPU 0 instructions: 90000002 cycles: 276571067 heartbeat IPC: 0.312118 cumulative IPC: 0.293761 (Simulation time: 0 hr 39 min 7 sec) 
Heartbeat CPU 0 instructions: 91000001 cycles: 281142478 heartbeat IPC: 0.218751 cumulative IPC: 0.292523 (Simulation time: 0 hr 39 min 30 sec) 
Heartbeat CPU 0 instructions: 92000000 cycles: 283352338 heartbeat IPC: 0.452517 cumulative IPC: 0.293789 (Simulation time: 0 hr 39 min 49 sec) 
Heartbeat CPU 0 instructions: 93000000 cycles: 287615310 heartbeat IPC: 0.234578 cumulative IPC: 0.292899 (Simulation time: 0 hr 40 min 12 sec) 
Heartbeat CPU 0 instructions: 94000001 cycles: 291215458 heartbeat IPC: 0.277767 cumulative IPC: 0.292709 (Simulation time: 0 hr 40 min 30 sec) 
Heartbeat CPU 0 instructions: 95000003 cycles: 292707406 heartbeat IPC: 0.670266 cumulative IPC: 0.294661 (Simulation time: 0 hr 40 min 40 sec) 
Heartbeat CPU 0 instructions: 96000000 cycles: 295193586 heartbeat IPC: 0.402222 cumulative IPC: 0.295581 (Simulation time: 0 hr 40 min 54 sec) 
Heartbeat CPU 0 instructions: 97000002 cycles: 297923033 heartbeat IPC: 0.366375 cumulative IPC: 0.296239 (Simulation time: 0 hr 41 min 10 sec) 
Heartbeat CPU 0 instructions: 98000003 cycles: 303337803 heartbeat IPC: 0.18468 cumulative IPC: 0.294219 (Simulation time: 0 hr 41 min 33 sec) 
Heartbeat CPU 0 instructions: 99000000 cycles: 306857680 heartbeat IPC: 0.2841 cumulative IPC: 0.294101 (Simulation time: 0 hr 41 min 50 sec) 
Heartbeat CPU 0 instructions: 100000000 cycles: 309138458 heartbeat IPC: 0.438447 cumulative IPC: 0.295181 (Simulation time: 0 hr 42 min 5 sec) 
Heartbeat CPU 0 instructions: 101000001 cycles: 314317016 heartbeat IPC: 0.193104 cumulative IPC: 0.293476 (Simulation time: 0 hr 42 min 26 sec) 
Heartbeat CPU 0 instructions: 102000000 cycles: 316150932 heartbeat IPC: 0.545281 cumulative IPC: 0.294957 (Simulation time: 0 hr 42 min 35 sec) 
Heartbeat CPU 0 instructions: 103000001 cycles: 317601195 heartbeat IPC: 0.689531 cumulative IPC: 0.296783 (Simulation time: 0 hr 42 min 44 sec) 
Heartbeat CPU 0 instructions: 104000000 cycles: 321211536 heartbeat IPC: 0.276982 cumulative IPC: 0.296557 (Simulation time: 0 hr 42 min 58 sec) 
Heartbeat CPU 0 instructions: 105000001 cycles: 325421956 heartbeat IPC: 0.237506 cumulative IPC: 0.295783 (Simulation time: 0 hr 43 min 15 sec) 
Heartbeat CPU 0 instructions: 106000002 cycles: 328835451 heartbeat IPC: 0.292955 cumulative IPC: 0.295753 (Simulation time: 0 hr 43 min 28 sec) 
Heartbeat CPU 0 instructions: 107000000 cycles: 330913100 heartbeat IPC: 0.481312 cumulative IPC: 0.296934 (Simulation time: 0 hr 43 min 40 sec) 
Heartbeat CPU 0 instructions: 108000000 cycles: 335987829 heartbeat IPC: 0.197055 cumulative IPC: 0.295406 (Simulation time: 0 hr 43 min 56 sec) 
Heartbeat CPU 0 instructions: 109000000 cycles: 338215270 heartbeat IPC: 0.448946 cumulative IPC: 0.29643 (Simulation time: 0 hr 44 min 2 sec) 
Heartbeat CPU 0 instructions: 110000002 cycles: 339668707 heartbeat IPC: 0.688026 cumulative IPC: 0.298127 (Simulation time: 0 hr 44 min 7 sec) 
Finished CPU 0 instructions: 100000000 cycles: 335427924 cummulative IPC: 0.298127 (Simulation time: 0 hr 44 min 7 sec) 

ChampSim completed all CPUs

Region of Interest Statistics

CPU 0 cummulative IPC: 0.298127 instructions: 100000000 cycles: 335427924
LLC TOTAL     ACCESS:    8787036  HIT:     616969  MISS:    8170067
LLC LOAD      ACCESS:    2286290  HIT:     147816  MISS:    2138474
LLC RFO       ACCESS:     764925  HIT:      39018  MISS:     725907
LLC PREFETCH  ACCESS:    3575357  HIT:     159313  MISS:    3416044
LLC WRITEBACK ACCESS:    2160464  HIT:     270822  MISS:    1889642
