
*** ChampSim Multicore Out-of-Order Simulator ***

Warmup Instructions: 10000000
Simulation Instructions: 100000000
Configuration: 2
Number of CPUs: 1
LLC sets: 2048
LLC ways: 16
Off-chip DRAM Channels: 1 Width: 64-bit Data Rate: 1600 MT/s

CPU 0 runs /datasets/cs240c-wi22-a00-public/data/Assignment2-gz/leslie3d_1186B.trace.gz
CPU 0 L1D next line prefetcher
CPU 0 L2C IP-based stride prefetcher
Heartbeat CPU 0 instructions: 1000002 cycles: 564512 heartbeat IPC: 1.77145 cumulative IPC: 1.77145 (Simulation time: 0 hr 0 min 25 sec) 
Heartbeat CPU 0 instructions: 2000000 cycles: 1215877 heartbeat IPC: 1.53523 cumulative IPC: 1.6449 (Simulation time: 0 hr 0 min 50 sec) 
Heartbeat CPU 0 instructions: 3000000 cycles: 1867638 heartbeat IPC: 1.5343 cumulative IPC: 1.60631 (Simulation time: 0 hr 1 min 18 sec) 
Heartbeat CPU 0 instructions: 4000000 cycles: 2473234 heartbeat IPC: 1.65127 cumulative IPC: 1.61732 (Simulation time: 0 hr 1 min 42 sec) 
Heartbeat CPU 0 instructions: 5000000 cycles: 3083653 heartbeat IPC: 1.63822 cumulative IPC: 1.62145 (Simulation time: 0 hr 2 min 5 sec) 
Heartbeat CPU 0 instructions: 6000000 cycles: 3735461 heartbeat IPC: 1.53419 cumulative IPC: 1.60623 (Simulation time: 0 hr 2 min 29 sec) 
Heartbeat CPU 0 instructions: 7000001 cycles: 4386777 heartbeat IPC: 1.53535 cumulative IPC: 1.5957 (Simulation time: 0 hr 2 min 54 sec) 
Heartbeat CPU 0 instructions: 8000000 cycles: 4951418 heartbeat IPC: 1.77104 cumulative IPC: 1.6157 (Simulation time: 0 hr 3 min 18 sec) 
Heartbeat CPU 0 instructions: 9000003 cycles: 5602760 heartbeat IPC: 1.5353 cumulative IPC: 1.60635 (Simulation time: 0 hr 3 min 42 sec) 
Heartbeat CPU 0 instructions: 10000001 cycles: 6254027 heartbeat IPC: 1.53547 cumulative IPC: 1.59897 (Simulation time: 0 hr 4 min 6 sec) 

Warmup complete CPU 0 instructions: 10000001 cycles: 6254027 (Simulation time: 0 hr 4 min 6 sec) 

Heartbeat CPU 0 instructions: 11000000 cycles: 7805169 heartbeat IPC: 0.644686 cumulative IPC: 0.644686 (Simulation time: 0 hr 4 min 31 sec) 
Heartbeat CPU 0 instructions: 12000000 cycles: 9115763 heartbeat IPC: 0.763013 cumulative IPC: 0.698876 (Simulation time: 0 hr 4 min 56 sec) 
Heartbeat CPU 0 instructions: 13000000 cycles: 10387914 heartbeat IPC: 0.78607 cumulative IPC: 0.725709 (Simulation time: 0 hr 5 min 22 sec) 
Heartbeat CPU 0 instructions: 14000000 cycles: 11718693 heartbeat IPC: 0.75144 cumulative IPC: 0.731975 (Simulation time: 0 hr 5 min 49 sec) 
Heartbeat CPU 0 instructions: 15000002 cycles: 13246981 heartbeat IPC: 0.654328 cumulative IPC: 0.715006 (Simulation time: 0 hr 6 min 15 sec) 
Heartbeat CPU 0 instructions: 16000000 cycles: 14516764 heartbeat IPC: 0.787535 cumulative IPC: 0.726152 (Simulation time: 0 hr 6 min 44 sec) 
Heartbeat CPU 0 instructions: 17000000 cycles: 15779071 heartbeat IPC: 0.7922 cumulative IPC: 0.734905 (Simulation time: 0 hr 7 min 10 sec) 
Heartbeat CPU 0 instructions: 18000001 cycles: 17358689 heartbeat IPC: 0.633065 cumulative IPC: 0.720418 (Simulation time: 0 hr 7 min 35 sec) 
Heartbeat CPU 0 instructions: 19000003 cycles: 18660648 heartbeat IPC: 0.768075 cumulative IPC: 0.725419 (Simulation time: 0 hr 8 min 1 sec) 
Heartbeat CPU 0 instructions: 20000000 cycles: 19956606 heartbeat IPC: 0.771628 cumulative IPC: 0.72979 (Simulation time: 0 hr 8 min 28 sec) 
Heartbeat CPU 0 instructions: 21000003 cycles: 21392628 heartbeat IPC: 0.69637 cumulative IPC: 0.726619 (Simulation time: 0 hr 8 min 54 sec) 
Heartbeat CPU 0 instructions: 22000003 cycles: 22806260 heartbeat IPC: 0.707398 cumulative IPC: 0.724978 (Simulation time: 0 hr 9 min 20 sec) 
Heartbeat CPU 0 instructions: 23000002 cycles: 24078657 heartbeat IPC: 0.785917 cumulative IPC: 0.729328 (Simulation time: 0 hr 9 min 45 sec) 
Heartbeat CPU 0 instructions: 24000000 cycles: 25339361 heartbeat IPC: 0.793206 cumulative IPC: 0.733548 (Simulation time: 0 hr 10 min 15 sec) 
Heartbeat CPU 0 instructions: 25000000 cycles: 26929720 heartbeat IPC: 0.628789 cumulative IPC: 0.72549 (Simulation time: 0 hr 10 min 49 sec) 
Heartbeat CPU 0 instructions: 26000000 cycles: 28204343 heartbeat IPC: 0.784546 cumulative IPC: 0.728919 (Simulation time: 0 hr 11 min 15 sec) 
Heartbeat CPU 0 instructions: 27000000 cycles: 29473139 heartbeat IPC: 0.788149 cumulative IPC: 0.732155 (Simulation time: 0 hr 11 min 41 sec) 
Heartbeat CPU 0 instructions: 28000000 cycles: 31050828 heartbeat IPC: 0.633838 cumulative IPC: 0.7259 (Simulation time: 0 hr 12 min 7 sec) 
Heartbeat CPU 0 instructions: 29000002 cycles: 32334600 heartbeat IPC: 0.778956 cumulative IPC: 0.728512 (Simulation time: 0 hr 12 min 32 sec) 
Heartbeat CPU 0 instructions: 30000002 cycles: 33604888 heartbeat IPC: 0.787223 cumulative IPC: 0.731238 (Simulation time: 0 hr 12 min 58 sec) 
Heartbeat CPU 0 instructions: 31000002 cycles: 34948763 heartbeat IPC: 0.744117 cumulative IPC: 0.731842 (Simulation time: 0 hr 13 min 24 sec) 
Heartbeat CPU 0 instructions: 32000000 cycles: 36439950 heartbeat IPC: 0.670605 cumulative IPC: 0.728817 (Simulation time: 0 hr 13 min 50 sec) 
Heartbeat CPU 0 instructions: 33000000 cycles: 37699340 heartbeat IPC: 0.794035 cumulative IPC: 0.731429 (Simulation time: 0 hr 14 min 16 sec) 
Heartbeat CPU 0 instructions: 34000000 cycles: 38961197 heartbeat IPC: 0.792483 cumulative IPC: 0.733784 (Simulation time: 0 hr 14 min 41 sec) 
Heartbeat CPU 0 instructions: 35000000 cycles: 40531957 heartbeat IPC: 0.636634 cumulative IPC: 0.729332 (Simulation time: 0 hr 15 min 7 sec) 
Heartbeat CPU 0 instructions: 36000000 cycles: 41811440 heartbeat IPC: 0.781566 cumulative IPC: 0.731212 (Simulation time: 0 hr 15 min 33 sec) 
Heartbeat CPU 0 instructions: 37000003 cycles: 43092409 heartbeat IPC: 0.780661 cumulative IPC: 0.732931 (Simulation time: 0 hr 15 min 58 sec) 
Heartbeat CPU 0 instructions: 38000001 cycles: 44561727 heartbeat IPC: 0.680587 cumulative IPC: 0.730924 (Simulation time: 0 hr 16 min 24 sec) 
Heartbeat CPU 0 instructions: 39000001 cycles: 45938274 heartbeat IPC: 0.726455 cumulative IPC: 0.730769 (Simulation time: 0 hr 16 min 50 sec) 
Heartbeat CPU 0 instructions: 40000000 cycles: 47209885 heartbeat IPC: 0.786403 cumulative IPC: 0.732496 (Simulation time: 0 hr 17 min 15 sec) 
Heartbeat CPU 0 instructions: 41000000 cycles: 48461293 heartbeat IPC: 0.7991 cumulative IPC: 0.734471 (Simulation time: 0 hr 17 min 41 sec) 
Heartbeat CPU 0 instructions: 42000000 cycles: 50045508 heartbeat IPC: 0.631227 cumulative IPC: 0.730736 (Simulation time: 0 hr 18 min 7 sec) 
Heartbeat CPU 0 instructions: 43000002 cycles: 51295839 heartbeat IPC: 0.79979 cumulative IPC: 0.732653 (Simulation time: 0 hr 18 min 33 sec) 
Heartbeat CPU 0 instructions: 44000000 cycles: 52569571 heartbeat IPC: 0.785093 cumulative IPC: 0.734095 (Simulation time: 0 hr 18 min 58 sec) 
Heartbeat CPU 0 instructions: 45000001 cycles: 54246269 heartbeat IPC: 0.596411 cumulative IPC: 0.729285 (Simulation time: 0 hr 19 min 23 sec) 
Heartbeat CPU 0 instructions: 46000001 cycles: 56271143 heartbeat IPC: 0.493858 cumulative IPC: 0.719754 (Simulation time: 0 hr 19 min 52 sec) 
Heartbeat CPU 0 instructions: 47000002 cycles: 58226916 heartbeat IPC: 0.511307 cumulative IPC: 0.71191 (Simulation time: 0 hr 20 min 20 sec) 
Heartbeat CPU 0 instructions: 48000000 cycles: 60230682 heartbeat IPC: 0.499059 cumulative IPC: 0.704008 (Simulation time: 0 hr 20 min 49 sec) 
Heartbeat CPU 0 instructions: 49000002 cycles: 62221762 heartbeat IPC: 0.502241 cumulative IPC: 0.69683 (Simulation time: 0 hr 21 min 17 sec) 
Heartbeat CPU 0 instructions: 50000002 cycles: 64181194 heartbeat IPC: 0.510352 cumulative IPC: 0.690522 (Simulation time: 0 hr 21 min 47 sec) 
Heartbeat CPU 0 instructions: 51000000 cycles: 66159998 heartbeat IPC: 0.505355 cumulative IPC: 0.684406 (Simulation time: 0 hr 22 min 17 sec) 
Heartbeat CPU 0 instructions: 52000000 cycles: 68119968 heartbeat IPC: 0.510212 cumulative IPC: 0.678887 (Simulation time: 0 hr 22 min 47 sec) 
Heartbeat CPU 0 instructions: 53000003 cycles: 70102360 heartbeat IPC: 0.504443 cumulative IPC: 0.673471 (Simulation time: 0 hr 23 min 16 sec) 
Heartbeat CPU 0 instructions: 54000003 cycles: 72095035 heartbeat IPC: 0.501838 cumulative IPC: 0.668277 (Simulation time: 0 hr 23 min 46 sec) 
Heartbeat CPU 0 instructions: 55000001 cycles: 74224905 heartbeat IPC: 0.469511 cumulative IPC: 0.662048 (Simulation time: 0 hr 24 min 18 sec) 
Heartbeat CPU 0 instructions: 56000000 cycles: 76583487 heartbeat IPC: 0.423983 cumulative IPC: 0.654064 (Simulation time: 0 hr 24 min 48 sec) 
Heartbeat CPU 0 instructions: 57000003 cycles: 78942159 heartbeat IPC: 0.423969 cumulative IPC: 0.646598 (Simulation time: 0 hr 25 min 19 sec) 
Heartbeat CPU 0 instructions: 58000001 cycles: 81340663 heartbeat IPC: 0.416926 cumulative IPC: 0.639262 (Simulation time: 0 hr 25 min 48 sec) 
Heartbeat CPU 0 instructions: 59000003 cycles: 83666266 heartbeat IPC: 0.429997 cumulative IPC: 0.632975 (Simulation time: 0 hr 26 min 18 sec) 
Heartbeat CPU 0 instructions: 60000000 cycles: 86013630 heartbeat IPC: 0.426008 cumulative IPC: 0.626884 (Simulation time: 0 hr 26 min 55 sec) 
Heartbeat CPU 0 instructions: 61000003 cycles: 88345265 heartbeat IPC: 0.428885 cumulative IPC: 0.62126 (Simulation time: 0 hr 27 min 29 sec) 
Heartbeat CPU 0 instructions: 62000001 cycles: 90677794 heartbeat IPC: 0.428718 cumulative IPC: 0.61594 (Simulation time: 0 hr 28 min 1 sec) 
Heartbeat CPU 0 instructions: 63000000 cycles: 92660014 heartbeat IPC: 0.504484 cumulative IPC: 0.613383 (Simulation time: 0 hr 28 min 32 sec) 
Heartbeat CPU 0 instructions: 64000000 cycles: 94031014 heartbeat IPC: 0.729395 cumulative IPC: 0.615195 (Simulation time: 0 hr 28 min 58 sec) 
Heartbeat CPU 0 instructions: 65000000 cycles: 95443800 heartbeat IPC: 0.707821 cumulative IPC: 0.616663 (Simulation time: 0 hr 29 min 24 sec) 
Heartbeat CPU 0 instructions: 66000002 cycles: 96846699 heartbeat IPC: 0.712811 cumulative IPC: 0.618152 (Simulation time: 0 hr 29 min 49 sec) 
Heartbeat CPU 0 instructions: 67000001 cycles: 98246312 heartbeat IPC: 0.714482 cumulative IPC: 0.619617 (Simulation time: 0 hr 30 min 14 sec) 
Heartbeat CPU 0 instructions: 68000000 cycles: 99686180 heartbeat IPC: 0.694507 cumulative IPC: 0.620771 (Simulation time: 0 hr 30 min 40 sec) 
Heartbeat CPU 0 instructions: 69000000 cycles: 101065055 heartbeat IPC: 0.725229 cumulative IPC: 0.62229 (Simulation time: 0 hr 31 min 3 sec) 
Heartbeat CPU 0 instructions: 70000000 cycles: 102484924 heartbeat IPC: 0.70429 cumulative IPC: 0.6235 (Simulation time: 0 hr 31 min 27 sec) 
Heartbeat CPU 0 instructions: 71000000 cycles: 103847142 heartbeat IPC: 0.734097 cumulative IPC: 0.625044 (Simulation time: 0 hr 31 min 50 sec) 
Heartbeat CPU 0 instructions: 72000000 cycles: 105234209 heartbeat IPC: 0.720946 cumulative IPC: 0.626388 (Simulation time: 0 hr 32 min 14 sec) 
Heartbeat CPU 0 instructions: 73000000 cycles: 106618760 heartbeat IPC: 0.722256 cumulative IPC: 0.627711 (Simulation time: 0 hr 32 min 38 sec) 
Heartbeat CPU 0 instructions: 74000000 cycles: 107980555 heartbeat IPC: 0.734325 cumulative IPC: 0.629138 (Simulation time: 0 hr 33 min 3 sec) 
Heartbeat CPU 0 instructions: 75000003 cycles: 109390913 heartbeat IPC: 0.709042 cumulative IPC: 0.63023 (Simulation time: 0 hr 33 min 26 sec) 
Heartbeat CPU 0 instructions: 76000000 cycles: 110763819 heartbeat IPC: 0.72838 cumulative IPC: 0.63152 (Simulation time: 0 hr 33 min 49 sec) 
Heartbeat CPU 0 instructions: 77000000 cycles: 112178037 heartbeat IPC: 0.707105 cumulative IPC: 0.632529 (Simulation time: 0 hr 34 min 13 sec) 
Heartbeat CPU 0 instructions: 78000001 cycles: 113567231 heartbeat IPC: 0.719843 cumulative IPC: 0.633659 (Simulation time: 0 hr 34 min 36 sec) 
Heartbeat CPU 0 instructions: 79000002 cycles: 114964586 heartbeat IPC: 0.715638 cumulative IPC: 0.634713 (Simulation time: 0 hr 35 min 0 sec) 
Heartbeat CPU 0 instructions: 80000000 cycles: 116384728 heartbeat IPC: 0.704154 cumulative IPC: 0.635608 (Simulation time: 0 hr 35 min 23 sec) 
Heartbeat CPU 0 instructions: 81000000 cycles: 117764472 heartbeat IPC: 0.724772 cumulative IPC: 0.636712 (Simulation time: 0 hr 35 min 47 sec) 
Heartbeat CPU 0 instructions: 82000003 cycles: 119184943 heartbeat IPC: 0.703994 cumulative IPC: 0.637558 (Simulation time: 0 hr 36 min 10 sec) 
Heartbeat CPU 0 instructions: 83000001 cycles: 120574799 heartbeat IPC: 0.719498 cumulative IPC: 0.638554 (Simulation time: 0 hr 36 min 33 sec) 
Heartbeat CPU 0 instructions: 84000000 cycles: 121965881 heartbeat IPC: 0.718864 cumulative IPC: 0.63952 (Simulation time: 0 hr 36 min 55 sec) 
Heartbeat CPU 0 instructions: 85000001 cycles: 123346197 heartbeat IPC: 0.724473 cumulative IPC: 0.640521 (Simulation time: 0 hr 37 min 17 sec) 
Heartbeat CPU 0 instructions: 86000003 cycles: 124728726 heartbeat IPC: 0.723314 cumulative IPC: 0.641487 (Simulation time: 0 hr 37 min 38 sec) 
Heartbeat CPU 0 instructions: 87000001 cycles: 126122516 heartbeat IPC: 0.717467 cumulative IPC: 0.642371 (Simulation time: 0 hr 37 min 58 sec) 
Heartbeat CPU 0 instructions: 88000000 cycles: 127512114 heartbeat IPC: 0.719632 cumulative IPC: 0.643256 (Simulation time: 0 hr 38 min 18 sec) 
Heartbeat CPU 0 instructions: 89000001 cycles: 128907539 heartbeat IPC: 0.716628 cumulative IPC: 0.644091 (Simulation time: 0 hr 38 min 37 sec) 
Heartbeat CPU 0 instructions: 90000002 cycles: 130297874 heartbeat IPC: 0.719252 cumulative IPC: 0.644933 (Simulation time: 0 hr 38 min 55 sec) 
Heartbeat CPU 0 instructions: 91000000 cycles: 131694267 heartbeat IPC: 0.716129 cumulative IPC: 0.645726 (Simulation time: 0 hr 39 min 14 sec) 
Heartbeat CPU 0 instructions: 92000000 cycles: 133076417 heartbeat IPC: 0.72351 cumulative IPC: 0.646574 (Simulation time: 0 hr 39 min 31 sec) 
Heartbeat CPU 0 instructions: 93000002 cycles: 134480097 heartbeat IPC: 0.712415 cumulative IPC: 0.647294 (Simulation time: 0 hr 39 min 49 sec) 
Heartbeat CPU 0 instructions: 94000000 cycles: 135838444 heartbeat IPC: 0.736187 cumulative IPC: 0.648226 (Simulation time: 0 hr 40 min 5 sec) 
Heartbeat CPU 0 instructions: 95000003 cycles: 137210292 heartbeat IPC: 0.728946 cumulative IPC: 0.649072 (Simulation time: 0 hr 40 min 21 sec) 
Heartbeat CPU 0 instructions: 96000000 cycles: 138605928 heartbeat IPC: 0.716517 cumulative IPC: 0.649783 (Simulation time: 0 hr 40 min 37 sec) 
Heartbeat CPU 0 instructions: 97000001 cycles: 139978317 heartbeat IPC: 0.728657 cumulative IPC: 0.650592 (Simulation time: 0 hr 40 min 53 sec) 
Heartbeat CPU 0 instructions: 98000002 cycles: 141375480 heartbeat IPC: 0.715737 cumulative IPC: 0.651266 (Simulation time: 0 hr 41 min 9 sec) 
Heartbeat CPU 0 instructions: 99000000 cycles: 142747841 heartbeat IPC: 0.72867 cumulative IPC: 0.652044 (Simulation time: 0 hr 41 min 24 sec) 
Heartbeat CPU 0 instructions: 100000000 cycles: 144165085 heartbeat IPC: 0.705595 cumulative IPC: 0.652595 (Simulation time: 0 hr 41 min 39 sec) 
Heartbeat CPU 0 instructions: 101000000 cycles: 145562077 heartbeat IPC: 0.715824 cumulative IPC: 0.653229 (Simulation time: 0 hr 41 min 54 sec) 
Heartbeat CPU 0 instructions: 102000001 cycles: 146946969 heartbeat IPC: 0.722079 cumulative IPC: 0.653906 (Simulation time: 0 hr 42 min 8 sec) 
Heartbeat CPU 0 instructions: 103000001 cycles: 148351281 heartbeat IPC: 0.712092 cumulative IPC: 0.654481 (Simulation time: 0 hr 42 min 22 sec) 
Heartbeat CPU 0 instructions: 104000000 cycles: 149717351 heartbeat IPC: 0.732026 cumulative IPC: 0.65522 (Simulation time: 0 hr 42 min 37 sec) 
Heartbeat CPU 0 instructions: 105000001 cycles: 151128854 heartbeat IPC: 0.708465 cumulative IPC: 0.655738 (Simulation time: 0 hr 42 min 51 sec) 
Heartbeat CPU 0 instructions: 106000002 cycles: 152512242 heartbeat IPC: 0.722864 cumulative IPC: 0.656373 (Simulation time: 0 hr 43 min 5 sec) 
Heartbeat CPU 0 instructions: 107000000 cycles: 153911515 heartbeat IPC: 0.714655 cumulative IPC: 0.656926 (Simulation time: 0 hr 43 min 19 sec) 
Heartbeat CPU 0 instructions: 108000000 cycles: 155289910 heartbeat IPC: 0.725481 cumulative IPC: 0.65756 (Simulation time: 0 hr 43 min 32 sec) 
Heartbeat CPU 0 instructions: 109000002 cycles: 156666335 heartbeat IPC: 0.726521 cumulative IPC: 0.658191 (Simulation time: 0 hr 43 min 44 sec) 
Heartbeat CPU 0 instructions: 110000001 cycles: 158079361 heartbeat IPC: 0.7077 cumulative IPC: 0.658652 (Simulation time: 0 hr 43 min 55 sec) 
Finished CPU 0 instructions: 100000000 cycles: 151825334 cummulative IPC: 0.658652 (Simulation time: 0 hr 43 min 55 sec) 

ChampSim completed all CPUs

Region of Interest Statistics

CPU 0 cummulative IPC: 0.658652 instructions: 100000000 cycles: 151825334
LLC TOTAL     ACCESS:    3759892  HIT:     291630  MISS:    3468262
LLC LOAD      ACCESS:     400235  HIT:      22195  MISS:     378040
LLC RFO       ACCESS:     463715  HIT:      39097  MISS:     424618
LLC PREFETCH  ACCESS:    2146793  HIT:      61080  MISS:    2085713
LLC WRITEBACK ACCESS:     749149  HIT:     169258  MISS:     579891
