
*** ChampSim Multicore Out-of-Order Simulator ***

Warmup Instructions: 10000000
Simulation Instructions: 100000000
Configuration: 2
Number of CPUs: 1
LLC sets: 2048
LLC ways: 16
Off-chip DRAM Channels: 1 Width: 64-bit Data Rate: 1600 MT/s

CPU 0 runs /datasets/cs240c-wi22-a00-public/data/Assignment2-gz/mcf_46B.trace.gz
CPU 0 L1D next line prefetcher
CPU 0 L2C IP-based stride prefetcher
Heartbeat CPU 0 instructions: 1000002 cycles: 494266 heartbeat IPC: 2.02321 cumulative IPC: 2.02321 (Simulation time: 0 hr 0 min 29 sec) 
Heartbeat CPU 0 instructions: 2000002 cycles: 992808 heartbeat IPC: 2.00585 cumulative IPC: 2.01449 (Simulation time: 0 hr 0 min 55 sec) 
Heartbeat CPU 0 instructions: 3000003 cycles: 1525109 heartbeat IPC: 1.87864 cumulative IPC: 1.96707 (Simulation time: 0 hr 1 min 20 sec) 
Heartbeat CPU 0 instructions: 4000000 cycles: 2050427 heartbeat IPC: 1.9036 cumulative IPC: 1.95081 (Simulation time: 0 hr 1 min 47 sec) 
Heartbeat CPU 0 instructions: 5000000 cycles: 2547033 heartbeat IPC: 2.01367 cumulative IPC: 1.96307 (Simulation time: 0 hr 2 min 12 sec) 
Heartbeat CPU 0 instructions: 6000003 cycles: 3054434 heartbeat IPC: 1.97083 cumulative IPC: 1.96436 (Simulation time: 0 hr 2 min 37 sec) 
Heartbeat CPU 0 instructions: 7000001 cycles: 3605584 heartbeat IPC: 1.81438 cumulative IPC: 1.94143 (Simulation time: 0 hr 3 min 5 sec) 
Heartbeat CPU 0 instructions: 8000000 cycles: 4099453 heartbeat IPC: 2.02483 cumulative IPC: 1.95148 (Simulation time: 0 hr 3 min 32 sec) 
Heartbeat CPU 0 instructions: 9000001 cycles: 4585944 heartbeat IPC: 2.05554 cumulative IPC: 1.96252 (Simulation time: 0 hr 3 min 59 sec) 
Heartbeat CPU 0 instructions: 10000001 cycles: 5129124 heartbeat IPC: 1.84101 cumulative IPC: 1.94965 (Simulation time: 0 hr 4 min 24 sec) 

Warmup complete CPU 0 instructions: 10000001 cycles: 5129124 (Simulation time: 0 hr 4 min 24 sec) 

Heartbeat CPU 0 instructions: 11000002 cycles: 19331099 heartbeat IPC: 0.0704128 cumulative IPC: 0.0704128 (Simulation time: 0 hr 5 min 20 sec) 
Heartbeat CPU 0 instructions: 12000000 cycles: 26387894 heartbeat IPC: 0.141707 cumulative IPC: 0.0940788 (Simulation time: 0 hr 6 min 1 sec) 
Heartbeat CPU 0 instructions: 13000000 cycles: 36260420 heartbeat IPC: 0.101291 cumulative IPC: 0.096366 (Simulation time: 0 hr 6 min 47 sec) 
Heartbeat CPU 0 instructions: 14000003 cycles: 52797594 heartbeat IPC: 0.06047 cumulative IPC: 0.083913 (Simulation time: 0 hr 7 min 41 sec) 
Heartbeat CPU 0 instructions: 15000000 cycles: 59786649 heartbeat IPC: 0.14308 cumulative IPC: 0.0914787 (Simulation time: 0 hr 8 min 22 sec) 
Heartbeat CPU 0 instructions: 16000000 cycles: 66519045 heartbeat IPC: 0.148536 cumulative IPC: 0.0977359 (Simulation time: 0 hr 9 min 4 sec) 
Heartbeat CPU 0 instructions: 17000002 cycles: 83552531 heartbeat IPC: 0.058708 cumulative IPC: 0.0892591 (Simulation time: 0 hr 10 min 2 sec) 
Heartbeat CPU 0 instructions: 18000001 cycles: 91187637 heartbeat IPC: 0.130974 cumulative IPC: 0.09296 (Simulation time: 0 hr 10 min 45 sec) 
Heartbeat CPU 0 instructions: 19000002 cycles: 98511480 heartbeat IPC: 0.13654 cumulative IPC: 0.096378 (Simulation time: 0 hr 11 min 26 sec) 
Heartbeat CPU 0 instructions: 20000000 cycles: 114454836 heartbeat IPC: 0.0627219 cumulative IPC: 0.0914698 (Simulation time: 0 hr 12 min 21 sec) 
Heartbeat CPU 0 instructions: 21000002 cycles: 132099406 heartbeat IPC: 0.0566748 cumulative IPC: 0.0866345 (Simulation time: 0 hr 13 min 18 sec) 
Heartbeat CPU 0 instructions: 22000002 cycles: 138746820 heartbeat IPC: 0.150434 cumulative IPC: 0.0898085 (Simulation time: 0 hr 13 min 56 sec) 
Heartbeat CPU 0 instructions: 23000001 cycles: 145438736 heartbeat IPC: 0.149434 cumulative IPC: 0.0926522 (Simulation time: 0 hr 14 min 35 sec) 
Heartbeat CPU 0 instructions: 24000000 cycles: 160395970 heartbeat IPC: 0.0668572 cumulative IPC: 0.0901673 (Simulation time: 0 hr 15 min 26 sec) 
Heartbeat CPU 0 instructions: 25000002 cycles: 170172564 heartbeat IPC: 0.102285 cumulative IPC: 0.0908852 (Simulation time: 0 hr 16 min 11 sec) 
Heartbeat CPU 0 instructions: 26000001 cycles: 176760313 heartbeat IPC: 0.151797 cumulative IPC: 0.0932231 (Simulation time: 0 hr 16 min 50 sec) 
Heartbeat CPU 0 instructions: 27000000 cycles: 188779601 heartbeat IPC: 0.0831995 cumulative IPC: 0.0925671 (Simulation time: 0 hr 17 min 38 sec) 
Heartbeat CPU 0 instructions: 28000000 cycles: 201960471 heartbeat IPC: 0.0758675 cumulative IPC: 0.0914488 (Simulation time: 0 hr 18 min 29 sec) 
Heartbeat CPU 0 instructions: 29000001 cycles: 209205011 heartbeat IPC: 0.138035 cumulative IPC: 0.0931026 (Simulation time: 0 hr 19 min 14 sec) 
Heartbeat CPU 0 instructions: 30000000 cycles: 219051151 heartbeat IPC: 0.101563 cumulative IPC: 0.093492 (Simulation time: 0 hr 19 min 59 sec) 
Heartbeat CPU 0 instructions: 31000002 cycles: 234559731 heartbeat IPC: 0.0644806 cumulative IPC: 0.0915309 (Simulation time: 0 hr 20 min 53 sec) 
Heartbeat CPU 0 instructions: 32000000 cycles: 241781424 heartbeat IPC: 0.138471 cumulative IPC: 0.0929634 (Simulation time: 0 hr 21 min 34 sec) 
Heartbeat CPU 0 instructions: 33000000 cycles: 251457059 heartbeat IPC: 0.103352 cumulative IPC: 0.0933715 (Simulation time: 0 hr 22 min 16 sec) 
Heartbeat CPU 0 instructions: 34000000 cycles: 268223504 heartbeat IPC: 0.0596429 cumulative IPC: 0.091222 (Simulation time: 0 hr 23 min 11 sec) 
Heartbeat CPU 0 instructions: 35000000 cycles: 276989923 heartbeat IPC: 0.114072 cumulative IPC: 0.0919588 (Simulation time: 0 hr 23 min 53 sec) 
Heartbeat CPU 0 instructions: 36000000 cycles: 286715197 heartbeat IPC: 0.102825 cumulative IPC: 0.0923341 (Simulation time: 0 hr 24 min 38 sec) 
Heartbeat CPU 0 instructions: 37000002 cycles: 299195890 heartbeat IPC: 0.0801239 cumulative IPC: 0.0918159 (Simulation time: 0 hr 25 min 29 sec) 
Heartbeat CPU 0 instructions: 38000000 cycles: 311947201 heartbeat IPC: 0.0784231 cumulative IPC: 0.0912593 (Simulation time: 0 hr 26 min 20 sec) 
Heartbeat CPU 0 instructions: 39000000 cycles: 318915838 heartbeat IPC: 0.1435 cumulative IPC: 0.0924195 (Simulation time: 0 hr 27 min 0 sec) 
Heartbeat CPU 0 instructions: 40000000 cycles: 327542506 heartbeat IPC: 0.11592 cumulative IPC: 0.0930482 (Simulation time: 0 hr 27 min 41 sec) 
Heartbeat CPU 0 instructions: 41000000 cycles: 344043634 heartbeat IPC: 0.0606019 cumulative IPC: 0.0914685 (Simulation time: 0 hr 28 min 36 sec) 
Heartbeat CPU 0 instructions: 42000001 cycles: 351771967 heartbeat IPC: 0.129394 cumulative IPC: 0.092314 (Simulation time: 0 hr 29 min 16 sec) 
Heartbeat CPU 0 instructions: 43000000 cycles: 358845566 heartbeat IPC: 0.141371 cumulative IPC: 0.0932951 (Simulation time: 0 hr 29 min 55 sec) 
Heartbeat CPU 0 instructions: 44000000 cycles: 374299380 heartbeat IPC: 0.0647089 cumulative IPC: 0.0920984 (Simulation time: 0 hr 30 min 47 sec) 
Heartbeat CPU 0 instructions: 45000001 cycles: 384028485 heartbeat IPC: 0.102784 cumulative IPC: 0.0923728 (Simulation time: 0 hr 31 min 28 sec) 
Heartbeat CPU 0 instructions: 46000001 cycles: 391220567 heartbeat IPC: 0.139042 cumulative IPC: 0.0932422 (Simulation time: 0 hr 32 min 5 sec) 
Heartbeat CPU 0 instructions: 47000002 cycles: 403150978 heartbeat IPC: 0.0838195 cumulative IPC: 0.0929597 (Simulation time: 0 hr 32 min 51 sec) 
Heartbeat CPU 0 instructions: 48000000 cycles: 416673884 heartbeat IPC: 0.0739485 cumulative IPC: 0.092335 (Simulation time: 0 hr 33 min 36 sec) 
Heartbeat CPU 0 instructions: 49000000 cycles: 424324332 heartbeat IPC: 0.130711 cumulative IPC: 0.0930354 (Simulation time: 0 hr 34 min 11 sec) 
Heartbeat CPU 0 instructions: 50000001 cycles: 433445940 heartbeat IPC: 0.10963 cumulative IPC: 0.0933888 (Simulation time: 0 hr 34 min 49 sec) 
Heartbeat CPU 0 instructions: 51000001 cycles: 449830010 heartbeat IPC: 0.0610349 cumulative IPC: 0.0921968 (Simulation time: 0 hr 35 min 40 sec) 
Heartbeat CPU 0 instructions: 52000000 cycles: 457332549 heartbeat IPC: 0.133288 cumulative IPC: 0.0928786 (Simulation time: 0 hr 36 min 15 sec) 
Heartbeat CPU 0 instructions: 53000000 cycles: 464556972 heartbeat IPC: 0.138419 cumulative IPC: 0.0935947 (Simulation time: 0 hr 36 min 50 sec) 
Heartbeat CPU 0 instructions: 54000002 cycles: 481954110 heartbeat IPC: 0.0574808 cumulative IPC: 0.092277 (Simulation time: 0 hr 37 min 34 sec) 
Heartbeat CPU 0 instructions: 55000002 cycles: 489918379 heartbeat IPC: 0.125561 cumulative IPC: 0.0928238 (Simulation time: 0 hr 38 min 5 sec) 
Heartbeat CPU 0 instructions: 56000000 cycles: 497359795 heartbeat IPC: 0.134383 cumulative IPC: 0.0934521 (Simulation time: 0 hr 38 min 36 sec) 
Heartbeat CPU 0 instructions: 57000000 cycles: 512837267 heartbeat IPC: 0.06461 cumulative IPC: 0.0925729 (Simulation time: 0 hr 39 min 12 sec) 
Heartbeat CPU 0 instructions: 58000000 cycles: 522597987 heartbeat IPC: 0.102451 cumulative IPC: 0.0927592 (Simulation time: 0 hr 39 min 41 sec) 
Heartbeat CPU 0 instructions: 59000002 cycles: 529689283 heartbeat IPC: 0.141018 cumulative IPC: 0.0934116 (Simulation time: 0 hr 40 min 6 sec) 
Heartbeat CPU 0 instructions: 60000000 cycles: 543742778 heartbeat IPC: 0.0711565 cumulative IPC: 0.0928309 (Simulation time: 0 hr 40 min 37 sec) 
Heartbeat CPU 0 instructions: 61000002 cycles: 555224648 heartbeat IPC: 0.087094 cumulative IPC: 0.0927112 (Simulation time: 0 hr 41 min 5 sec) 
Heartbeat CPU 0 instructions: 62000001 cycles: 562252284 heartbeat IPC: 0.142295 cumulative IPC: 0.0933366 (Simulation time: 0 hr 41 min 30 sec) 
Heartbeat CPU 0 instructions: 63000001 cycles: 574927865 heartbeat IPC: 0.0788918 cumulative IPC: 0.0930153 (Simulation time: 0 hr 41 min 57 sec) 
Heartbeat CPU 0 instructions: 64000000 cycles: 588320706 heartbeat IPC: 0.0746667 cumulative IPC: 0.0925939 (Simulation time: 0 hr 42 min 25 sec) 
Heartbeat CPU 0 instructions: 65000002 cycles: 596942042 heartbeat IPC: 0.115992 cumulative IPC: 0.0929348 (Simulation time: 0 hr 42 min 48 sec) 
Heartbeat CPU 0 instructions: 66000000 cycles: 606419574 heartbeat IPC: 0.105512 cumulative IPC: 0.093133 (Simulation time: 0 hr 43 min 11 sec) 
Heartbeat CPU 0 instructions: 67000002 cycles: 624065056 heartbeat IPC: 0.0566718 cumulative IPC: 0.0920935 (Simulation time: 0 hr 43 min 39 sec) 
Heartbeat CPU 0 instructions: 68000000 cycles: 631021358 heartbeat IPC: 0.143754 cumulative IPC: 0.0926677 (Simulation time: 0 hr 43 min 55 sec) 
Heartbeat CPU 0 instructions: 69000000 cycles: 637886250 heartbeat IPC: 0.145669 cumulative IPC: 0.0932427 (Simulation time: 0 hr 44 min 8 sec) 
Heartbeat CPU 0 instructions: 70000001 cycles: 654007412 heartbeat IPC: 0.0620303 cumulative IPC: 0.0924673 (Simulation time: 0 hr 44 min 22 sec) 
Heartbeat CPU 0 instructions: 71000002 cycles: 665333628 heartbeat IPC: 0.0882908 cumulative IPC: 0.0923956 (Simulation time: 0 hr 44 min 31 sec) 
Heartbeat CPU 0 instructions: 72000000 cycles: 673339399 heartbeat IPC: 0.12491 cumulative IPC: 0.0927852 (Simulation time: 0 hr 44 min 38 sec) 
Heartbeat CPU 0 instructions: 73000002 cycles: 684926517 heartbeat IPC: 0.0863029 cumulative IPC: 0.0926747 (Simulation time: 0 hr 44 min 46 sec) 
Heartbeat CPU 0 instructions: 74000001 cycles: 698832692 heartbeat IPC: 0.0719104 cumulative IPC: 0.0922584 (Simulation time: 0 hr 44 min 53 sec) 
Heartbeat CPU 0 instructions: 75000001 cycles: 706421490 heartbeat IPC: 0.131773 cumulative IPC: 0.092686 (Simulation time: 0 hr 44 min 58 sec) 
Heartbeat CPU 0 instructions: 76000000 cycles: 715262621 heartbeat IPC: 0.113108 cumulative IPC: 0.0929403 (Simulation time: 0 hr 45 min 4 sec) 
Heartbeat CPU 0 instructions: 77000001 cycles: 733504636 heartbeat IPC: 0.0548186 cumulative IPC: 0.0919855 (Simulation time: 0 hr 45 min 12 sec) 
Heartbeat CPU 0 instructions: 78000002 cycles: 741115128 heartbeat IPC: 0.131398 cumulative IPC: 0.0923931 (Simulation time: 0 hr 45 min 18 sec) 
Heartbeat CPU 0 instructions: 79000001 cycles: 748502145 heartbeat IPC: 0.135373 cumulative IPC: 0.0928202 (Simulation time: 0 hr 45 min 23 sec) 
Heartbeat CPU 0 instructions: 80000000 cycles: 763862114 heartbeat IPC: 0.0651042 cumulative IPC: 0.0922591 (Simulation time: 0 hr 45 min 30 sec) 
Heartbeat CPU 0 instructions: 81000000 cycles: 773504308 heartbeat IPC: 0.103711 cumulative IPC: 0.0924028 (Simulation time: 0 hr 45 min 35 sec) 
Heartbeat CPU 0 instructions: 82000000 cycles: 781268421 heartbeat IPC: 0.128798 cumulative IPC: 0.0927669 (Simulation time: 0 hr 45 min 41 sec) 
Heartbeat CPU 0 instructions: 83000001 cycles: 793713939 heartbeat IPC: 0.0803503 cumulative IPC: 0.0925709 (Simulation time: 0 hr 45 min 47 sec) 
Heartbeat CPU 0 instructions: 84000000 cycles: 807024009 heartbeat IPC: 0.075131 cumulative IPC: 0.0922814 (Simulation time: 0 hr 45 min 54 sec) 
Heartbeat CPU 0 instructions: 85000001 cycles: 814306463 heartbeat IPC: 0.137316 cumulative IPC: 0.0926867 (Simulation time: 0 hr 45 min 59 sec) 
Heartbeat CPU 0 instructions: 86000000 cycles: 825827185 heartbeat IPC: 0.0868 cumulative IPC: 0.0926041 (Simulation time: 0 hr 46 min 5 sec) 
Heartbeat CPU 0 instructions: 87000000 cycles: 842444070 heartbeat IPC: 0.0601798 cumulative IPC: 0.0919606 (Simulation time: 0 hr 46 min 12 sec) 
Heartbeat CPU 0 instructions: 88000000 cycles: 851153810 heartbeat IPC: 0.114814 cumulative IPC: 0.0921959 (Simulation time: 0 hr 46 min 17 sec) 
Heartbeat CPU 0 instructions: 89000000 cycles: 858312516 heartbeat IPC: 0.13969 cumulative IPC: 0.0925944 (Simulation time: 0 hr 46 min 22 sec) 
Heartbeat CPU 0 instructions: 90000003 cycles: 872353268 heartbeat IPC: 0.0712215 cumulative IPC: 0.0922484 (Simulation time: 0 hr 46 min 29 sec) 
Heartbeat CPU 0 instructions: 91000000 cycles: 883445869 heartbeat IPC: 0.0901499 cumulative IPC: 0.0922219 (Simulation time: 0 hr 46 min 35 sec) 
Heartbeat CPU 0 instructions: 92000000 cycles: 890549174 heartbeat IPC: 0.14078 cumulative IPC: 0.0926114 (Simulation time: 0 hr 46 min 40 sec) 
Heartbeat CPU 0 instructions: 93000002 cycles: 901815325 heartbeat IPC: 0.0887616 cumulative IPC: 0.092563 (Simulation time: 0 hr 46 min 46 sec) 
Heartbeat CPU 0 instructions: 94000002 cycles: 915469129 heartbeat IPC: 0.0732397 cumulative IPC: 0.0922732 (Simulation time: 0 hr 46 min 53 sec) 
Heartbeat CPU 0 instructions: 95000000 cycles: 924164308 heartbeat IPC: 0.115006 cumulative IPC: 0.0924883 (Simulation time: 0 hr 46 min 58 sec) 
Heartbeat CPU 0 instructions: 96000000 cycles: 932535833 heartbeat IPC: 0.119453 cumulative IPC: 0.0927317 (Simulation time: 0 hr 47 min 4 sec) 
Heartbeat CPU 0 instructions: 97000000 cycles: 949504540 heartbeat IPC: 0.058932 cumulative IPC: 0.0921244 (Simulation time: 0 hr 47 min 11 sec) 
Heartbeat CPU 0 instructions: 98000002 cycles: 957071976 heartbeat IPC: 0.132145 cumulative IPC: 0.0924425 (Simulation time: 0 hr 47 min 17 sec) 
Heartbeat CPU 0 instructions: 99000002 cycles: 965073330 heartbeat IPC: 0.124979 cumulative IPC: 0.0927137 (Simulation time: 0 hr 47 min 22 sec) 
Heartbeat CPU 0 instructions: 100000000 cycles: 981168986 heartbeat IPC: 0.0621284 cumulative IPC: 0.0922093 (Simulation time: 0 hr 47 min 29 sec) 
Heartbeat CPU 0 instructions: 101000000 cycles: 990312778 heartbeat IPC: 0.109364 cumulative IPC: 0.0923686 (Simulation time: 0 hr 47 min 35 sec) 
Heartbeat CPU 0 instructions: 102000003 cycles: 997532983 heartbeat IPC: 0.138501 cumulative IPC: 0.0927042 (Simulation time: 0 hr 47 min 40 sec) 
Heartbeat CPU 0 instructions: 103000003 cycles: 1011783941 heartbeat IPC: 0.0701707 cumulative IPC: 0.0923852 (Simulation time: 0 hr 47 min 47 sec) 
Heartbeat CPU 0 instructions: 104000000 cycles: 1026072250 heartbeat IPC: 0.0699871 cumulative IPC: 0.0920717 (Simulation time: 0 hr 47 min 54 sec) 
Heartbeat CPU 0 instructions: 105000000 cycles: 1033920965 heartbeat IPC: 0.127409 cumulative IPC: 0.0923413 (Simulation time: 0 hr 47 min 59 sec) 
Heartbeat CPU 0 instructions: 106000000 cycles: 1041153666 heartbeat IPC: 0.138261 cumulative IPC: 0.0926619 (Simulation time: 0 hr 48 min 4 sec) 
Heartbeat CPU 0 instructions: 107000002 cycles: 1058405713 heartbeat IPC: 0.0579643 cumulative IPC: 0.0920936 (Simulation time: 0 hr 48 min 11 sec) 
Heartbeat CPU 0 instructions: 108000000 cycles: 1066364304 heartbeat IPC: 0.12565 cumulative IPC: 0.0923452 (Simulation time: 0 hr 48 min 17 sec) 
Heartbeat CPU 0 instructions: 109000001 cycles: 1073771951 heartbeat IPC: 0.134996 cumulative IPC: 0.0926409 (Simulation time: 0 hr 48 min 22 sec) 
Heartbeat CPU 0 instructions: 110000002 cycles: 1086055622 heartbeat IPC: 0.081409 cumulative IPC: 0.0925132 (Simulation time: 0 hr 48 min 28 sec) 
Finished CPU 0 instructions: 100000001 cycles: 1080926498 cummulative IPC: 0.0925132 (Simulation time: 0 hr 48 min 28 sec) 

ChampSim completed all CPUs

Region of Interest Statistics

CPU 0 cummulative IPC: 0.0925132 instructions: 100000001 cycles: 1080926498
LLC TOTAL     ACCESS:   18787593  HIT:    1107848  MISS:   17679745
LLC LOAD      ACCESS:    8480515  HIT:     562297  MISS:    7918218
LLC RFO       ACCESS:     206630  HIT:      15664  MISS:     190966
LLC PREFETCH  ACCESS:    7992476  HIT:     194074  MISS:    7798402
LLC WRITEBACK ACCESS:    2107972  HIT:     335813  MISS:    1772159
