
*** ChampSim Multicore Out-of-Order Simulator ***

Warmup Instructions: 10000000
Simulation Instructions: 100000000
Configuration: 2
Number of CPUs: 1
LLC sets: 2048
LLC ways: 16
Off-chip DRAM Channels: 1 Width: 64-bit Data Rate: 1600 MT/s

CPU 0 runs /datasets/cs240c-wi22-a00-public/data/Assignment2-gz/calculix_3812B.trace.gz
CPU 0 L1D next line prefetcher
CPU 0 L2C IP-based stride prefetcher
Heartbeat CPU 0 instructions: 1000001 cycles: 478705 heartbeat IPC: 2.08897 cumulative IPC: 2.08897 (Simulation time: 0 hr 0 min 21 sec) 
Heartbeat CPU 0 instructions: 2000002 cycles: 956508 heartbeat IPC: 2.09291 cumulative IPC: 2.09094 (Simulation time: 0 hr 0 min 42 sec) 
Heartbeat CPU 0 instructions: 3000002 cycles: 1435027 heartbeat IPC: 2.08978 cumulative IPC: 2.09055 (Simulation time: 0 hr 1 min 2 sec) 
Heartbeat CPU 0 instructions: 4000000 cycles: 1907510 heartbeat IPC: 2.11647 cumulative IPC: 2.09697 (Simulation time: 0 hr 1 min 24 sec) 
Heartbeat CPU 0 instructions: 5000000 cycles: 2355728 heartbeat IPC: 2.23106 cumulative IPC: 2.12249 (Simulation time: 0 hr 1 min 42 sec) 
Heartbeat CPU 0 instructions: 6000003 cycles: 2761125 heartbeat IPC: 2.46673 cumulative IPC: 2.17303 (Simulation time: 0 hr 1 min 55 sec) 
Heartbeat CPU 0 instructions: 7000002 cycles: 3154212 heartbeat IPC: 2.54396 cumulative IPC: 2.21926 (Simulation time: 0 hr 2 min 13 sec) 
Heartbeat CPU 0 instructions: 8000000 cycles: 3547340 heartbeat IPC: 2.5437 cumulative IPC: 2.25521 (Simulation time: 0 hr 2 min 29 sec) 
Heartbeat CPU 0 instructions: 9000000 cycles: 3940275 heartbeat IPC: 2.54495 cumulative IPC: 2.2841 (Simulation time: 0 hr 2 min 44 sec) 
Heartbeat CPU 0 instructions: 10000003 cycles: 4333346 heartbeat IPC: 2.54408 cumulative IPC: 2.30769 (Simulation time: 0 hr 2 min 58 sec) 

Warmup complete CPU 0 instructions: 10000003 cycles: 4333346 (Simulation time: 0 hr 2 min 58 sec) 

Heartbeat CPU 0 instructions: 11000001 cycles: 4936604 heartbeat IPC: 1.65766 cumulative IPC: 1.65766 (Simulation time: 0 hr 3 min 17 sec) 
Heartbeat CPU 0 instructions: 12000000 cycles: 5531052 heartbeat IPC: 1.68223 cumulative IPC: 1.66986 (Simulation time: 0 hr 3 min 39 sec) 
Heartbeat CPU 0 instructions: 13000003 cycles: 6128775 heartbeat IPC: 1.67302 cumulative IPC: 1.67091 (Simulation time: 0 hr 3 min 58 sec) 
Heartbeat CPU 0 instructions: 14000000 cycles: 7027454 heartbeat IPC: 1.11274 cumulative IPC: 1.48472 (Simulation time: 0 hr 4 min 20 sec) 
Heartbeat CPU 0 instructions: 15000003 cycles: 7629429 heartbeat IPC: 1.6612 cumulative IPC: 1.51695 (Simulation time: 0 hr 4 min 38 sec) 
Heartbeat CPU 0 instructions: 16000000 cycles: 8211502 heartbeat IPC: 1.71799 cumulative IPC: 1.54713 (Simulation time: 0 hr 4 min 55 sec) 
Heartbeat CPU 0 instructions: 17000001 cycles: 8774319 heartbeat IPC: 1.77678 cumulative IPC: 1.57623 (Simulation time: 0 hr 5 min 11 sec) 
Heartbeat CPU 0 instructions: 18000001 cycles: 9315469 heartbeat IPC: 1.84792 cumulative IPC: 1.60574 (Simulation time: 0 hr 5 min 28 sec) 
Heartbeat CPU 0 instructions: 19000001 cycles: 9862509 heartbeat IPC: 1.82802 cumulative IPC: 1.62773 (Simulation time: 0 hr 5 min 46 sec) 
Heartbeat CPU 0 instructions: 20000000 cycles: 10493806 heartbeat IPC: 1.58404 cumulative IPC: 1.62325 (Simulation time: 0 hr 6 min 3 sec) 
Heartbeat CPU 0 instructions: 21000003 cycles: 11053607 heartbeat IPC: 1.78635 cumulative IPC: 1.63684 (Simulation time: 0 hr 6 min 22 sec) 
Heartbeat CPU 0 instructions: 22000002 cycles: 11621956 heartbeat IPC: 1.75948 cumulative IPC: 1.6464 (Simulation time: 0 hr 6 min 39 sec) 
Heartbeat CPU 0 instructions: 23000001 cycles: 12179827 heartbeat IPC: 1.79253 cumulative IPC: 1.65679 (Simulation time: 0 hr 6 min 56 sec) 
Heartbeat CPU 0 instructions: 24000000 cycles: 12758582 heartbeat IPC: 1.72785 cumulative IPC: 1.66167 (Simulation time: 0 hr 7 min 13 sec) 
Heartbeat CPU 0 instructions: 25000003 cycles: 13352543 heartbeat IPC: 1.68362 cumulative IPC: 1.66312 (Simulation time: 0 hr 7 min 29 sec) 
Heartbeat CPU 0 instructions: 26000003 cycles: 13935358 heartbeat IPC: 1.71581 cumulative IPC: 1.66632 (Simulation time: 0 hr 7 min 46 sec) 
Heartbeat CPU 0 instructions: 27000000 cycles: 14518330 heartbeat IPC: 1.71534 cumulative IPC: 1.66912 (Simulation time: 0 hr 8 min 3 sec) 
Heartbeat CPU 0 instructions: 28000000 cycles: 15195070 heartbeat IPC: 1.47767 cumulative IPC: 1.6572 (Simulation time: 0 hr 8 min 20 sec) 
Heartbeat CPU 0 instructions: 29000002 cycles: 15690406 heartbeat IPC: 2.01884 cumulative IPC: 1.67297 (Simulation time: 0 hr 8 min 36 sec) 
Heartbeat CPU 0 instructions: 30000001 cycles: 16292440 heartbeat IPC: 1.66103 cumulative IPC: 1.67237 (Simulation time: 0 hr 8 min 55 sec) 
Heartbeat CPU 0 instructions: 31000001 cycles: 16871909 heartbeat IPC: 1.72572 cumulative IPC: 1.67483 (Simulation time: 0 hr 9 min 14 sec) 
Heartbeat CPU 0 instructions: 32000000 cycles: 17907436 heartbeat IPC: 0.965691 cumulative IPC: 1.62073 (Simulation time: 0 hr 9 min 35 sec) 
Heartbeat CPU 0 instructions: 33000003 cycles: 18901340 heartbeat IPC: 1.00614 cumulative IPC: 1.5788 (Simulation time: 0 hr 9 min 57 sec) 
Heartbeat CPU 0 instructions: 34000000 cycles: 19786239 heartbeat IPC: 1.13007 cumulative IPC: 1.55311 (Simulation time: 0 hr 10 min 17 sec) 
Heartbeat CPU 0 instructions: 35000000 cycles: 20558840 heartbeat IPC: 1.29433 cumulative IPC: 1.54078 (Simulation time: 0 hr 10 min 37 sec) 
Heartbeat CPU 0 instructions: 36000000 cycles: 21240209 heartbeat IPC: 1.46763 cumulative IPC: 1.53784 (Simulation time: 0 hr 10 min 57 sec) 
Heartbeat CPU 0 instructions: 37000002 cycles: 21867409 heartbeat IPC: 1.59439 cumulative IPC: 1.53986 (Simulation time: 0 hr 11 min 17 sec) 
Heartbeat CPU 0 instructions: 38000003 cycles: 22502602 heartbeat IPC: 1.57433 cumulative IPC: 1.54106 (Simulation time: 0 hr 11 min 37 sec) 
Heartbeat CPU 0 instructions: 39000003 cycles: 23517305 heartbeat IPC: 0.98551 cumulative IPC: 1.51168 (Simulation time: 0 hr 11 min 57 sec) 
Heartbeat CPU 0 instructions: 40000000 cycles: 24371287 heartbeat IPC: 1.17098 cumulative IPC: 1.49716 (Simulation time: 0 hr 12 min 16 sec) 
Heartbeat CPU 0 instructions: 41000000 cycles: 25360461 heartbeat IPC: 1.01094 cumulative IPC: 1.47429 (Simulation time: 0 hr 12 min 36 sec) 
Heartbeat CPU 0 instructions: 42000001 cycles: 26021704 heartbeat IPC: 1.5123 cumulative IPC: 1.47545 (Simulation time: 0 hr 12 min 54 sec) 
Heartbeat CPU 0 instructions: 43000000 cycles: 26699404 heartbeat IPC: 1.47558 cumulative IPC: 1.47545 (Simulation time: 0 hr 13 min 12 sec) 
Heartbeat CPU 0 instructions: 44000000 cycles: 27452971 heartbeat IPC: 1.32702 cumulative IPC: 1.47061 (Simulation time: 0 hr 13 min 33 sec) 
Heartbeat CPU 0 instructions: 45000002 cycles: 28171051 heartbeat IPC: 1.39261 cumulative IPC: 1.46826 (Simulation time: 0 hr 13 min 52 sec) 
Heartbeat CPU 0 instructions: 46000002 cycles: 28923323 heartbeat IPC: 1.32931 cumulative IPC: 1.46401 (Simulation time: 0 hr 14 min 12 sec) 
Heartbeat CPU 0 instructions: 47000002 cycles: 29928722 heartbeat IPC: 0.99463 cumulative IPC: 1.44557 (Simulation time: 0 hr 14 min 31 sec) 
Heartbeat CPU 0 instructions: 48000000 cycles: 30443324 heartbeat IPC: 1.94325 cumulative IPC: 1.45538 (Simulation time: 0 hr 14 min 49 sec) 
Heartbeat CPU 0 instructions: 49000000 cycles: 30963673 heartbeat IPC: 1.92179 cumulative IPC: 1.4645 (Simulation time: 0 hr 15 min 10 sec) 
Heartbeat CPU 0 instructions: 50000000 cycles: 31523802 heartbeat IPC: 1.7853 cumulative IPC: 1.4711 (Simulation time: 0 hr 15 min 27 sec) 
Heartbeat CPU 0 instructions: 51000000 cycles: 32197931 heartbeat IPC: 1.4834 cumulative IPC: 1.4714 (Simulation time: 0 hr 15 min 44 sec) 
Heartbeat CPU 0 instructions: 52000000 cycles: 32931856 heartbeat IPC: 1.36254 cumulative IPC: 1.46861 (Simulation time: 0 hr 16 min 2 sec) 
Heartbeat CPU 0 instructions: 53000000 cycles: 33573535 heartbeat IPC: 1.55841 cumulative IPC: 1.47058 (Simulation time: 0 hr 16 min 19 sec) 
Heartbeat CPU 0 instructions: 54000003 cycles: 34210299 heartbeat IPC: 1.57045 cumulative IPC: 1.47271 (Simulation time: 0 hr 16 min 35 sec) 
Heartbeat CPU 0 instructions: 55000001 cycles: 34845475 heartbeat IPC: 1.57436 cumulative IPC: 1.47482 (Simulation time: 0 hr 16 min 52 sec) 
Heartbeat CPU 0 instructions: 56000000 cycles: 35482531 heartbeat IPC: 1.56972 cumulative IPC: 1.47676 (Simulation time: 0 hr 17 min 9 sec) 
Heartbeat CPU 0 instructions: 57000003 cycles: 36117015 heartbeat IPC: 1.57609 cumulative IPC: 1.47875 (Simulation time: 0 hr 17 min 26 sec) 
Heartbeat CPU 0 instructions: 58000002 cycles: 36756154 heartbeat IPC: 1.5646 cumulative IPC: 1.48044 (Simulation time: 0 hr 17 min 44 sec) 
Heartbeat CPU 0 instructions: 59000001 cycles: 37395913 heartbeat IPC: 1.56309 cumulative IPC: 1.48204 (Simulation time: 0 hr 18 min 1 sec) 
Heartbeat CPU 0 instructions: 60000000 cycles: 38005865 heartbeat IPC: 1.63947 cumulative IPC: 1.48489 (Simulation time: 0 hr 18 min 18 sec) 
Heartbeat CPU 0 instructions: 61000003 cycles: 38632884 heartbeat IPC: 1.59485 cumulative IPC: 1.4869 (Simulation time: 0 hr 18 min 35 sec) 
Heartbeat CPU 0 instructions: 62000002 cycles: 39253149 heartbeat IPC: 1.61221 cumulative IPC: 1.48913 (Simulation time: 0 hr 18 min 52 sec) 
Heartbeat CPU 0 instructions: 63000003 cycles: 39881509 heartbeat IPC: 1.59145 cumulative IPC: 1.49093 (Simulation time: 0 hr 19 min 9 sec) 
Heartbeat CPU 0 instructions: 64000000 cycles: 40498687 heartbeat IPC: 1.62027 cumulative IPC: 1.49314 (Simulation time: 0 hr 19 min 25 sec) 
Heartbeat CPU 0 instructions: 65000000 cycles: 41284445 heartbeat IPC: 1.27266 cumulative IPC: 1.48845 (Simulation time: 0 hr 19 min 43 sec) 
Heartbeat CPU 0 instructions: 66000002 cycles: 41928372 heartbeat IPC: 1.55297 cumulative IPC: 1.48956 (Simulation time: 0 hr 20 min 0 sec) 
Heartbeat CPU 0 instructions: 67000002 cycles: 42482466 heartbeat IPC: 1.80475 cumulative IPC: 1.49414 (Simulation time: 0 hr 20 min 16 sec) 
Heartbeat CPU 0 instructions: 68000000 cycles: 43020368 heartbeat IPC: 1.85907 cumulative IPC: 1.49921 (Simulation time: 0 hr 20 min 34 sec) 
Heartbeat CPU 0 instructions: 69000003 cycles: 43629925 heartbeat IPC: 1.64054 cumulative IPC: 1.5014 (Simulation time: 0 hr 20 min 52 sec) 
Heartbeat CPU 0 instructions: 70000003 cycles: 44190001 heartbeat IPC: 1.78547 cumulative IPC: 1.50539 (Simulation time: 0 hr 21 min 9 sec) 
Heartbeat CPU 0 instructions: 71000000 cycles: 44757084 heartbeat IPC: 1.7634 cumulative IPC: 1.50901 (Simulation time: 0 hr 21 min 27 sec) 
Heartbeat CPU 0 instructions: 72000000 cycles: 45329827 heartbeat IPC: 1.74598 cumulative IPC: 1.51232 (Simulation time: 0 hr 21 min 44 sec) 
Heartbeat CPU 0 instructions: 73000001 cycles: 45933017 heartbeat IPC: 1.65785 cumulative IPC: 1.51444 (Simulation time: 0 hr 22 min 0 sec) 
Heartbeat CPU 0 instructions: 74000002 cycles: 46586060 heartbeat IPC: 1.53129 cumulative IPC: 1.5147 (Simulation time: 0 hr 22 min 18 sec) 
Heartbeat CPU 0 instructions: 75000000 cycles: 47156187 heartbeat IPC: 1.75399 cumulative IPC: 1.51788 (Simulation time: 0 hr 22 min 34 sec) 
Heartbeat CPU 0 instructions: 76000000 cycles: 48361185 heartbeat IPC: 0.829877 cumulative IPC: 1.49905 (Simulation time: 0 hr 22 min 56 sec) 
Heartbeat CPU 0 instructions: 77000000 cycles: 49541249 heartbeat IPC: 0.847412 cumulative IPC: 1.48204 (Simulation time: 0 hr 23 min 17 sec) 
Heartbeat CPU 0 instructions: 78000003 cycles: 50642375 heartbeat IPC: 0.908164 cumulative IPC: 1.4684 (Simulation time: 0 hr 23 min 38 sec) 
Heartbeat CPU 0 instructions: 79000000 cycles: 51630241 heartbeat IPC: 1.01228 cumulative IPC: 1.45887 (Simulation time: 0 hr 24 min 2 sec) 
Heartbeat CPU 0 instructions: 80000000 cycles: 52465668 heartbeat IPC: 1.19699 cumulative IPC: 1.45432 (Simulation time: 0 hr 24 min 23 sec) 
Heartbeat CPU 0 instructions: 81000001 cycles: 53187950 heartbeat IPC: 1.3845 cumulative IPC: 1.45329 (Simulation time: 0 hr 24 min 43 sec) 
Heartbeat CPU 0 instructions: 82000002 cycles: 53839131 heartbeat IPC: 1.53567 cumulative IPC: 1.45438 (Simulation time: 0 hr 25 min 2 sec) 
Heartbeat CPU 0 instructions: 83000002 cycles: 55040607 heartbeat IPC: 0.83231 cumulative IPC: 1.43964 (Simulation time: 0 hr 25 min 23 sec) 
Heartbeat CPU 0 instructions: 84000000 cycles: 55847701 heartbeat IPC: 1.23901 cumulative IPC: 1.43649 (Simulation time: 0 hr 25 min 40 sec) 
Heartbeat CPU 0 instructions: 85000000 cycles: 56492084 heartbeat IPC: 1.55187 cumulative IPC: 1.43792 (Simulation time: 0 hr 25 min 57 sec) 
Heartbeat CPU 0 instructions: 86000001 cycles: 57130942 heartbeat IPC: 1.56529 cumulative IPC: 1.43946 (Simulation time: 0 hr 26 min 15 sec) 
Heartbeat CPU 0 instructions: 87000002 cycles: 57770211 heartbeat IPC: 1.56429 cumulative IPC: 1.44095 (Simulation time: 0 hr 26 min 32 sec) 
Heartbeat CPU 0 instructions: 88000000 cycles: 58403585 heartbeat IPC: 1.57884 cumulative IPC: 1.44257 (Simulation time: 0 hr 26 min 49 sec) 
Heartbeat CPU 0 instructions: 89000001 cycles: 59035507 heartbeat IPC: 1.58248 cumulative IPC: 1.44418 (Simulation time: 0 hr 27 min 7 sec) 
Heartbeat CPU 0 instructions: 90000003 cycles: 59664292 heartbeat IPC: 1.59037 cumulative IPC: 1.44585 (Simulation time: 0 hr 27 min 23 sec) 
Heartbeat CPU 0 instructions: 91000002 cycles: 60313904 heartbeat IPC: 1.53938 cumulative IPC: 1.44693 (Simulation time: 0 hr 27 min 40 sec) 
Heartbeat CPU 0 instructions: 92000000 cycles: 60858877 heartbeat IPC: 1.83495 cumulative IPC: 1.45067 (Simulation time: 0 hr 27 min 56 sec) 
Heartbeat CPU 0 instructions: 93000003 cycles: 61370113 heartbeat IPC: 1.95605 cumulative IPC: 1.4552 (Simulation time: 0 hr 28 min 13 sec) 
Heartbeat CPU 0 instructions: 94000003 cycles: 61882079 heartbeat IPC: 1.95325 cumulative IPC: 1.45963 (Simulation time: 0 hr 28 min 30 sec) 
Heartbeat CPU 0 instructions: 95000001 cycles: 62587570 heartbeat IPC: 1.41745 cumulative IPC: 1.45912 (Simulation time: 0 hr 28 min 49 sec) 
Heartbeat CPU 0 instructions: 96000000 cycles: 63288488 heartbeat IPC: 1.4267 cumulative IPC: 1.45874 (Simulation time: 0 hr 29 min 7 sec) 
Heartbeat CPU 0 instructions: 97000000 cycles: 63928765 heartbeat IPC: 1.56182 cumulative IPC: 1.45984 (Simulation time: 0 hr 29 min 25 sec) 
Heartbeat CPU 0 instructions: 98000003 cycles: 64562012 heartbeat IPC: 1.57917 cumulative IPC: 1.4611 (Simulation time: 0 hr 29 min 42 sec) 
Heartbeat CPU 0 instructions: 99000000 cycles: 65200964 heartbeat IPC: 1.56506 cumulative IPC: 1.46219 (Simulation time: 0 hr 30 min 0 sec) 
Heartbeat CPU 0 instructions: 100000000 cycles: 65841427 heartbeat IPC: 1.56137 cumulative IPC: 1.46322 (Simulation time: 0 hr 30 min 17 sec) 
Heartbeat CPU 0 instructions: 101000003 cycles: 66473020 heartbeat IPC: 1.5833 cumulative IPC: 1.46444 (Simulation time: 0 hr 30 min 38 sec) 
Heartbeat CPU 0 instructions: 102000002 cycles: 67128589 heartbeat IPC: 1.52539 cumulative IPC: 1.46508 (Simulation time: 0 hr 30 min 54 sec) 
Heartbeat CPU 0 instructions: 103000000 cycles: 67739935 heartbeat IPC: 1.63573 cumulative IPC: 1.46672 (Simulation time: 0 hr 31 min 9 sec) 
Heartbeat CPU 0 instructions: 104000000 cycles: 68349639 heartbeat IPC: 1.64014 cumulative IPC: 1.46838 (Simulation time: 0 hr 31 min 25 sec) 
Heartbeat CPU 0 instructions: 105000000 cycles: 68968801 heartbeat IPC: 1.61509 cumulative IPC: 1.46978 (Simulation time: 0 hr 31 min 40 sec) 
Heartbeat CPU 0 instructions: 106000003 cycles: 69582604 heartbeat IPC: 1.62919 cumulative IPC: 1.47128 (Simulation time: 0 hr 31 min 55 sec) 
Heartbeat CPU 0 instructions: 107000000 cycles: 70200520 heartbeat IPC: 1.61834 cumulative IPC: 1.47266 (Simulation time: 0 hr 32 min 15 sec) 
Heartbeat CPU 0 instructions: 108000000 cycles: 70884539 heartbeat IPC: 1.46195 cumulative IPC: 1.47255 (Simulation time: 0 hr 32 min 36 sec) 
Heartbeat CPU 0 instructions: 109000002 cycles: 71635238 heartbeat IPC: 1.33209 cumulative IPC: 1.47098 (Simulation time: 0 hr 32 min 53 sec) 
Heartbeat CPU 0 instructions: 110000003 cycles: 72158015 heartbeat IPC: 1.91286 cumulative IPC: 1.47439 (Simulation time: 0 hr 33 min 10 sec) 
Finished CPU 0 instructions: 100000000 cycles: 67824669 cummulative IPC: 1.47439 (Simulation time: 0 hr 33 min 10 sec) 

ChampSim completed all CPUs

Region of Interest Statistics

CPU 0 cummulative IPC: 1.47439 instructions: 100000000 cycles: 67824669
LLC TOTAL     ACCESS:    1161489  HIT:     190264  MISS:     971225
LLC LOAD      ACCESS:     131260  HIT:      59475  MISS:      71785
LLC RFO       ACCESS:      47533  HIT:       3467  MISS:      44066
LLC PREFETCH  ACCESS:     682892  HIT:      90829  MISS:     592063
LLC WRITEBACK ACCESS:     299804  HIT:      36493  MISS:     263311
