
*** ChampSim Multicore Out-of-Order Simulator ***

Warmup Instructions: 10000000
Simulation Instructions: 100000000
Configuration: 2
Number of CPUs: 1
LLC sets: 2048
LLC ways: 16
Off-chip DRAM Channels: 1 Width: 64-bit Data Rate: 1600 MT/s

CPU 0 runs /datasets/cs240c-wi22-a00-public/data/Assignment2-gz/zeusmp_100B.trace.gz
CPU 0 L1D next line prefetcher
CPU 0 L2C IP-based stride prefetcher
Heartbeat CPU 0 instructions: 1000002 cycles: 462679 heartbeat IPC: 2.16133 cumulative IPC: 2.16133 (Simulation time: 0 hr 0 min 20 sec) 
Heartbeat CPU 0 instructions: 2000001 cycles: 925477 heartbeat IPC: 2.16077 cumulative IPC: 2.16105 (Simulation time: 0 hr 0 min 38 sec) 
Heartbeat CPU 0 instructions: 3000003 cycles: 1388485 heartbeat IPC: 2.15979 cumulative IPC: 2.16063 (Simulation time: 0 hr 0 min 58 sec) 
Heartbeat CPU 0 instructions: 4000000 cycles: 1851276 heartbeat IPC: 2.1608 cumulative IPC: 2.16067 (Simulation time: 0 hr 1 min 18 sec) 
Heartbeat CPU 0 instructions: 5000003 cycles: 2314262 heartbeat IPC: 2.1599 cumulative IPC: 2.16052 (Simulation time: 0 hr 1 min 37 sec) 
Heartbeat CPU 0 instructions: 6000001 cycles: 2777145 heartbeat IPC: 2.16037 cumulative IPC: 2.16049 (Simulation time: 0 hr 1 min 56 sec) 
Heartbeat CPU 0 instructions: 7000001 cycles: 3239819 heartbeat IPC: 2.16135 cumulative IPC: 2.16061 (Simulation time: 0 hr 2 min 15 sec) 
Heartbeat CPU 0 instructions: 8000000 cycles: 3702695 heartbeat IPC: 2.1604 cumulative IPC: 2.16059 (Simulation time: 0 hr 2 min 36 sec) 
Heartbeat CPU 0 instructions: 9000003 cycles: 4165437 heartbeat IPC: 2.16104 cumulative IPC: 2.16064 (Simulation time: 0 hr 2 min 54 sec) 
Heartbeat CPU 0 instructions: 10000001 cycles: 4628825 heartbeat IPC: 2.15801 cumulative IPC: 2.16038 (Simulation time: 0 hr 3 min 11 sec) 

Warmup complete CPU 0 instructions: 10000001 cycles: 4628825 (Simulation time: 0 hr 3 min 11 sec) 

Heartbeat CPU 0 instructions: 11000000 cycles: 5413826 heartbeat IPC: 1.27388 cumulative IPC: 1.27388 (Simulation time: 0 hr 3 min 35 sec) 
Heartbeat CPU 0 instructions: 12000000 cycles: 6224792 heartbeat IPC: 1.2331 cumulative IPC: 1.25316 (Simulation time: 0 hr 3 min 56 sec) 
Heartbeat CPU 0 instructions: 13000001 cycles: 7035229 heartbeat IPC: 1.2339 cumulative IPC: 1.24667 (Simulation time: 0 hr 4 min 19 sec) 
Heartbeat CPU 0 instructions: 14000003 cycles: 7848219 heartbeat IPC: 1.23003 cumulative IPC: 1.24247 (Simulation time: 0 hr 4 min 40 sec) 
Heartbeat CPU 0 instructions: 15000002 cycles: 8659961 heartbeat IPC: 1.23192 cumulative IPC: 1.24035 (Simulation time: 0 hr 5 min 3 sec) 
Heartbeat CPU 0 instructions: 16000000 cycles: 9461314 heartbeat IPC: 1.24789 cumulative IPC: 1.2416 (Simulation time: 0 hr 5 min 26 sec) 
Heartbeat CPU 0 instructions: 17000003 cycles: 10262543 heartbeat IPC: 1.24809 cumulative IPC: 1.24252 (Simulation time: 0 hr 5 min 49 sec) 
Heartbeat CPU 0 instructions: 18000000 cycles: 10970439 heartbeat IPC: 1.41263 cumulative IPC: 1.26151 (Simulation time: 0 hr 6 min 10 sec) 
Heartbeat CPU 0 instructions: 19000002 cycles: 11688865 heartbeat IPC: 1.39193 cumulative IPC: 1.27478 (Simulation time: 0 hr 6 min 34 sec) 
Heartbeat CPU 0 instructions: 20000000 cycles: 12391830 heartbeat IPC: 1.42254 cumulative IPC: 1.28816 (Simulation time: 0 hr 6 min 55 sec) 
Heartbeat CPU 0 instructions: 21000001 cycles: 13107187 heartbeat IPC: 1.3979 cumulative IPC: 1.29742 (Simulation time: 0 hr 7 min 15 sec) 
Heartbeat CPU 0 instructions: 22000001 cycles: 13808290 heartbeat IPC: 1.42632 cumulative IPC: 1.30727 (Simulation time: 0 hr 7 min 35 sec) 
Heartbeat CPU 0 instructions: 23000002 cycles: 14535916 heartbeat IPC: 1.37433 cumulative IPC: 1.31219 (Simulation time: 0 hr 7 min 56 sec) 
Heartbeat CPU 0 instructions: 24000000 cycles: 15239028 heartbeat IPC: 1.42225 cumulative IPC: 1.31948 (Simulation time: 0 hr 8 min 16 sec) 
Heartbeat CPU 0 instructions: 25000001 cycles: 15957093 heartbeat IPC: 1.39263 cumulative IPC: 1.32412 (Simulation time: 0 hr 8 min 37 sec) 
Heartbeat CPU 0 instructions: 26000001 cycles: 16658186 heartbeat IPC: 1.42634 cumulative IPC: 1.33008 (Simulation time: 0 hr 8 min 59 sec) 
Heartbeat CPU 0 instructions: 27000000 cycles: 17380288 heartbeat IPC: 1.38484 cumulative IPC: 1.33318 (Simulation time: 0 hr 9 min 19 sec) 
Heartbeat CPU 0 instructions: 28000000 cycles: 18084678 heartbeat IPC: 1.41967 cumulative IPC: 1.33771 (Simulation time: 0 hr 9 min 40 sec) 
Heartbeat CPU 0 instructions: 29000000 cycles: 18786133 heartbeat IPC: 1.42561 cumulative IPC: 1.34206 (Simulation time: 0 hr 10 min 5 sec) 
Heartbeat CPU 0 instructions: 30000003 cycles: 19502689 heartbeat IPC: 1.39557 cumulative IPC: 1.34464 (Simulation time: 0 hr 10 min 26 sec) 
Heartbeat CPU 0 instructions: 31000000 cycles: 20203283 heartbeat IPC: 1.42736 cumulative IPC: 1.34836 (Simulation time: 0 hr 10 min 49 sec) 
Heartbeat CPU 0 instructions: 32000000 cycles: 20922425 heartbeat IPC: 1.39055 cumulative IPC: 1.35022 (Simulation time: 0 hr 11 min 11 sec) 
Heartbeat CPU 0 instructions: 33000002 cycles: 21621072 heartbeat IPC: 1.43134 cumulative IPC: 1.35356 (Simulation time: 0 hr 11 min 33 sec) 
Heartbeat CPU 0 instructions: 34000002 cycles: 22334232 heartbeat IPC: 1.40221 cumulative IPC: 1.35552 (Simulation time: 0 hr 11 min 58 sec) 
Heartbeat CPU 0 instructions: 35000003 cycles: 23037654 heartbeat IPC: 1.42162 cumulative IPC: 1.35804 (Simulation time: 0 hr 12 min 22 sec) 
Heartbeat CPU 0 instructions: 36000000 cycles: 23753939 heartbeat IPC: 1.39609 cumulative IPC: 1.35947 (Simulation time: 0 hr 12 min 46 sec) 
Heartbeat CPU 0 instructions: 37000001 cycles: 24457547 heartbeat IPC: 1.42125 cumulative IPC: 1.36166 (Simulation time: 0 hr 13 min 10 sec) 
Heartbeat CPU 0 instructions: 38000003 cycles: 25174498 heartbeat IPC: 1.3948 cumulative IPC: 1.36282 (Simulation time: 0 hr 13 min 33 sec) 
Heartbeat CPU 0 instructions: 39000001 cycles: 25878901 heartbeat IPC: 1.41964 cumulative IPC: 1.3647 (Simulation time: 0 hr 13 min 54 sec) 
Heartbeat CPU 0 instructions: 40000000 cycles: 26597531 heartbeat IPC: 1.39154 cumulative IPC: 1.36558 (Simulation time: 0 hr 14 min 17 sec) 
Heartbeat CPU 0 instructions: 41000003 cycles: 27300543 heartbeat IPC: 1.42246 cumulative IPC: 1.36734 (Simulation time: 0 hr 14 min 41 sec) 
Heartbeat CPU 0 instructions: 42000001 cycles: 28001660 heartbeat IPC: 1.42629 cumulative IPC: 1.36911 (Simulation time: 0 hr 15 min 4 sec) 
Heartbeat CPU 0 instructions: 43000003 cycles: 28721353 heartbeat IPC: 1.38948 cumulative IPC: 1.36972 (Simulation time: 0 hr 15 min 25 sec) 
Heartbeat CPU 0 instructions: 44000000 cycles: 29424993 heartbeat IPC: 1.42118 cumulative IPC: 1.37118 (Simulation time: 0 hr 15 min 46 sec) 
Heartbeat CPU 0 instructions: 45000001 cycles: 30141801 heartbeat IPC: 1.39508 cumulative IPC: 1.37185 (Simulation time: 0 hr 16 min 7 sec) 
Heartbeat CPU 0 instructions: 46000002 cycles: 30846464 heartbeat IPC: 1.41912 cumulative IPC: 1.37312 (Simulation time: 0 hr 16 min 29 sec) 
Heartbeat CPU 0 instructions: 47000003 cycles: 31561928 heartbeat IPC: 1.3977 cumulative IPC: 1.37377 (Simulation time: 0 hr 16 min 52 sec) 
Heartbeat CPU 0 instructions: 48000000 cycles: 32263008 heartbeat IPC: 1.42637 cumulative IPC: 1.37511 (Simulation time: 0 hr 17 min 14 sec) 
Heartbeat CPU 0 instructions: 49000001 cycles: 32978133 heartbeat IPC: 1.39836 cumulative IPC: 1.37569 (Simulation time: 0 hr 17 min 37 sec) 
Heartbeat CPU 0 instructions: 50000001 cycles: 33683691 heartbeat IPC: 1.41732 cumulative IPC: 1.37671 (Simulation time: 0 hr 18 min 0 sec) 
Heartbeat CPU 0 instructions: 51000002 cycles: 34396937 heartbeat IPC: 1.40204 cumulative IPC: 1.37731 (Simulation time: 0 hr 18 min 22 sec) 
Heartbeat CPU 0 instructions: 52000000 cycles: 35099422 heartbeat IPC: 1.42352 cumulative IPC: 1.37838 (Simulation time: 0 hr 18 min 43 sec) 
Heartbeat CPU 0 instructions: 53000001 cycles: 35815690 heartbeat IPC: 1.39613 cumulative IPC: 1.37879 (Simulation time: 0 hr 19 min 3 sec) 
Heartbeat CPU 0 instructions: 54000003 cycles: 36523483 heartbeat IPC: 1.41285 cumulative IPC: 1.37954 (Simulation time: 0 hr 19 min 24 sec) 
Heartbeat CPU 0 instructions: 55000003 cycles: 37229288 heartbeat IPC: 1.41682 cumulative IPC: 1.38035 (Simulation time: 0 hr 19 min 46 sec) 
Heartbeat CPU 0 instructions: 56000000 cycles: 37941454 heartbeat IPC: 1.40416 cumulative IPC: 1.38086 (Simulation time: 0 hr 20 min 8 sec) 
Heartbeat CPU 0 instructions: 57000003 cycles: 38642783 heartbeat IPC: 1.42587 cumulative IPC: 1.38179 (Simulation time: 0 hr 20 min 29 sec) 
Heartbeat CPU 0 instructions: 58000003 cycles: 39359252 heartbeat IPC: 1.39573 cumulative IPC: 1.38207 (Simulation time: 0 hr 20 min 51 sec) 
Heartbeat CPU 0 instructions: 59000002 cycles: 40063112 heartbeat IPC: 1.42074 cumulative IPC: 1.38284 (Simulation time: 0 hr 21 min 13 sec) 
Heartbeat CPU 0 instructions: 60000000 cycles: 40779120 heartbeat IPC: 1.39663 cumulative IPC: 1.38311 (Simulation time: 0 hr 21 min 35 sec) 
Heartbeat CPU 0 instructions: 61000000 cycles: 41483584 heartbeat IPC: 1.41952 cumulative IPC: 1.38381 (Simulation time: 0 hr 21 min 57 sec) 
Heartbeat CPU 0 instructions: 62000001 cycles: 42199999 heartbeat IPC: 1.39584 cumulative IPC: 1.38404 (Simulation time: 0 hr 22 min 18 sec) 
Heartbeat CPU 0 instructions: 63000001 cycles: 42902404 heartbeat IPC: 1.42368 cumulative IPC: 1.38477 (Simulation time: 0 hr 22 min 40 sec) 
Heartbeat CPU 0 instructions: 64000000 cycles: 43617249 heartbeat IPC: 1.3989 cumulative IPC: 1.38503 (Simulation time: 0 hr 23 min 1 sec) 
Heartbeat CPU 0 instructions: 65000003 cycles: 44314973 heartbeat IPC: 1.43324 cumulative IPC: 1.38587 (Simulation time: 0 hr 23 min 23 sec) 
Heartbeat CPU 0 instructions: 66000003 cycles: 45028261 heartbeat IPC: 1.40196 cumulative IPC: 1.38616 (Simulation time: 0 hr 23 min 43 sec) 
Heartbeat CPU 0 instructions: 67000000 cycles: 45727818 heartbeat IPC: 1.42947 cumulative IPC: 1.3869 (Simulation time: 0 hr 24 min 5 sec) 
Heartbeat CPU 0 instructions: 68000000 cycles: 46437990 heartbeat IPC: 1.40811 cumulative IPC: 1.38726 (Simulation time: 0 hr 24 min 27 sec) 
Heartbeat CPU 0 instructions: 69000000 cycles: 47139844 heartbeat IPC: 1.4248 cumulative IPC: 1.38788 (Simulation time: 0 hr 24 min 49 sec) 
Heartbeat CPU 0 instructions: 70000003 cycles: 47834616 heartbeat IPC: 1.43933 cumulative IPC: 1.3887 (Simulation time: 0 hr 25 min 11 sec) 
Heartbeat CPU 0 instructions: 71000003 cycles: 48547394 heartbeat IPC: 1.40296 cumulative IPC: 1.38893 (Simulation time: 0 hr 25 min 31 sec) 
Heartbeat CPU 0 instructions: 72000000 cycles: 49249247 heartbeat IPC: 1.4248 cumulative IPC: 1.3895 (Simulation time: 0 hr 25 min 53 sec) 
Heartbeat CPU 0 instructions: 73000002 cycles: 49967756 heartbeat IPC: 1.39177 cumulative IPC: 1.38953 (Simulation time: 0 hr 26 min 16 sec) 
Heartbeat CPU 0 instructions: 74000003 cycles: 50667320 heartbeat IPC: 1.42946 cumulative IPC: 1.39014 (Simulation time: 0 hr 26 min 41 sec) 
Heartbeat CPU 0 instructions: 75000003 cycles: 51377059 heartbeat IPC: 1.40897 cumulative IPC: 1.39043 (Simulation time: 0 hr 27 min 3 sec) 
Heartbeat CPU 0 instructions: 76000000 cycles: 52079294 heartbeat IPC: 1.42402 cumulative IPC: 1.39092 (Simulation time: 0 hr 27 min 26 sec) 
Heartbeat CPU 0 instructions: 77000000 cycles: 52809265 heartbeat IPC: 1.36992 cumulative IPC: 1.39061 (Simulation time: 0 hr 27 min 47 sec) 
Heartbeat CPU 0 instructions: 78000002 cycles: 53513679 heartbeat IPC: 1.41962 cumulative IPC: 1.39102 (Simulation time: 0 hr 28 min 10 sec) 
Heartbeat CPU 0 instructions: 79000000 cycles: 54224980 heartbeat IPC: 1.40587 cumulative IPC: 1.39124 (Simulation time: 0 hr 28 min 31 sec) 
Heartbeat CPU 0 instructions: 80000000 cycles: 54922628 heartbeat IPC: 1.43339 cumulative IPC: 1.39182 (Simulation time: 0 hr 28 min 52 sec) 
Heartbeat CPU 0 instructions: 81000003 cycles: 55645121 heartbeat IPC: 1.3841 cumulative IPC: 1.39171 (Simulation time: 0 hr 29 min 13 sec) 
Heartbeat CPU 0 instructions: 82000000 cycles: 56348367 heartbeat IPC: 1.42197 cumulative IPC: 1.39212 (Simulation time: 0 hr 29 min 32 sec) 
Heartbeat CPU 0 instructions: 83000002 cycles: 57045907 heartbeat IPC: 1.43361 cumulative IPC: 1.39268 (Simulation time: 0 hr 29 min 55 sec) 
Heartbeat CPU 0 instructions: 84000000 cycles: 57756233 heartbeat IPC: 1.4078 cumulative IPC: 1.39288 (Simulation time: 0 hr 30 min 16 sec) 
Heartbeat CPU 0 instructions: 85000001 cycles: 58453185 heartbeat IPC: 1.43482 cumulative IPC: 1.39342 (Simulation time: 0 hr 30 min 36 sec) 
Heartbeat CPU 0 instructions: 86000001 cycles: 59166745 heartbeat IPC: 1.40142 cumulative IPC: 1.39353 (Simulation time: 0 hr 30 min 57 sec) 
Heartbeat CPU 0 instructions: 87000001 cycles: 59869652 heartbeat IPC: 1.42266 cumulative IPC: 1.3939 (Simulation time: 0 hr 31 min 20 sec) 
Heartbeat CPU 0 instructions: 88000000 cycles: 60580400 heartbeat IPC: 1.40697 cumulative IPC: 1.39406 (Simulation time: 0 hr 31 min 40 sec) 
Heartbeat CPU 0 instructions: 89000003 cycles: 61279220 heartbeat IPC: 1.43099 cumulative IPC: 1.39452 (Simulation time: 0 hr 32 min 0 sec) 
Heartbeat CPU 0 instructions: 90000001 cycles: 61993902 heartbeat IPC: 1.39922 cumulative IPC: 1.39458 (Simulation time: 0 hr 32 min 20 sec) 
Heartbeat CPU 0 instructions: 91000003 cycles: 62700091 heartbeat IPC: 1.41605 cumulative IPC: 1.39484 (Simulation time: 0 hr 32 min 41 sec) 
Heartbeat CPU 0 instructions: 92000000 cycles: 63418828 heartbeat IPC: 1.39133 cumulative IPC: 1.39479 (Simulation time: 0 hr 33 min 1 sec) 
Heartbeat CPU 0 instructions: 93000001 cycles: 64122996 heartbeat IPC: 1.42012 cumulative IPC: 1.39509 (Simulation time: 0 hr 33 min 21 sec) 
Heartbeat CPU 0 instructions: 94000003 cycles: 64836468 heartbeat IPC: 1.4016 cumulative IPC: 1.39517 (Simulation time: 0 hr 33 min 42 sec) 
Heartbeat CPU 0 instructions: 95000003 cycles: 65549597 heartbeat IPC: 1.40227 cumulative IPC: 1.39525 (Simulation time: 0 hr 34 min 7 sec) 
Heartbeat CPU 0 instructions: 96000000 cycles: 66264088 heartbeat IPC: 1.39959 cumulative IPC: 1.39531 (Simulation time: 0 hr 34 min 29 sec) 
Heartbeat CPU 0 instructions: 97000000 cycles: 66977031 heartbeat IPC: 1.40264 cumulative IPC: 1.39539 (Simulation time: 0 hr 34 min 48 sec) 
Heartbeat CPU 0 instructions: 98000001 cycles: 67674837 heartbeat IPC: 1.43306 cumulative IPC: 1.39581 (Simulation time: 0 hr 35 min 7 sec) 
Heartbeat CPU 0 instructions: 99000001 cycles: 68407489 heartbeat IPC: 1.3649 cumulative IPC: 1.39545 (Simulation time: 0 hr 35 min 27 sec) 
Heartbeat CPU 0 instructions: 100000000 cycles: 69135007 heartbeat IPC: 1.37454 cumulative IPC: 1.39522 (Simulation time: 0 hr 35 min 50 sec) 
Heartbeat CPU 0 instructions: 101000002 cycles: 69868730 heartbeat IPC: 1.36291 cumulative IPC: 1.39485 (Simulation time: 0 hr 36 min 8 sec) 
Heartbeat CPU 0 instructions: 102000003 cycles: 70599391 heartbeat IPC: 1.36863 cumulative IPC: 1.39456 (Simulation time: 0 hr 36 min 25 sec) 
Heartbeat CPU 0 instructions: 103000001 cycles: 71356692 heartbeat IPC: 1.32048 cumulative IPC: 1.39372 (Simulation time: 0 hr 36 min 45 sec) 
Heartbeat CPU 0 instructions: 104000000 cycles: 72094115 heartbeat IPC: 1.35607 cumulative IPC: 1.39331 (Simulation time: 0 hr 37 min 2 sec) 
Heartbeat CPU 0 instructions: 105000003 cycles: 72834889 heartbeat IPC: 1.34994 cumulative IPC: 1.39284 (Simulation time: 0 hr 37 min 19 sec) 
Heartbeat CPU 0 instructions: 106000002 cycles: 73565945 heartbeat IPC: 1.36788 cumulative IPC: 1.39257 (Simulation time: 0 hr 37 min 37 sec) 
Heartbeat CPU 0 instructions: 107000000 cycles: 74298659 heartbeat IPC: 1.36479 cumulative IPC: 1.39228 (Simulation time: 0 hr 37 min 54 sec) 
Heartbeat CPU 0 instructions: 108000000 cycles: 75007534 heartbeat IPC: 1.41069 cumulative IPC: 1.39247 (Simulation time: 0 hr 38 min 11 sec) 
Heartbeat CPU 0 instructions: 109000002 cycles: 75708461 heartbeat IPC: 1.42668 cumulative IPC: 1.3928 (Simulation time: 0 hr 38 min 26 sec) 
Heartbeat CPU 0 instructions: 110000000 cycles: 76421945 heartbeat IPC: 1.40157 cumulative IPC: 1.39289 (Simulation time: 0 hr 38 min 42 sec) 
Finished CPU 0 instructions: 100000003 cycles: 71793121 cummulative IPC: 1.39289 (Simulation time: 0 hr 38 min 42 sec) 

ChampSim completed all CPUs

Region of Interest Statistics

CPU 0 cummulative IPC: 1.39289 instructions: 100000003 cycles: 71793121
LLC TOTAL     ACCESS:     836485  HIT:      57264  MISS:     779221
LLC LOAD      ACCESS:      26461  HIT:       2746  MISS:      23715
LLC RFO       ACCESS:     202187  HIT:       7963  MISS:     194224
LLC PREFETCH  ACCESS:     403932  HIT:       1398  MISS:     402534
LLC WRITEBACK ACCESS:     203905  HIT:      45157  MISS:     158748
