
*** ChampSim Multicore Out-of-Order Simulator ***

Warmup Instructions: 10000000
Simulation Instructions: 100000000
Configuration: 2
Number of CPUs: 1
LLC sets: 2048
LLC ways: 16
Off-chip DRAM Channels: 1 Width: 64-bit Data Rate: 1600 MT/s

CPU 0 runs /datasets/cs240c-wi22-a00-public/data/Assignment2-gz/astar_313B.trace.gz
CPU 0 L1D next line prefetcher
CPU 0 L2C IP-based stride prefetcher
Heartbeat CPU 0 instructions: 1000001 cycles: 676429 heartbeat IPC: 1.47835 cumulative IPC: 1.47835 (Simulation time: 0 hr 0 min 28 sec) 
Heartbeat CPU 0 instructions: 2000003 cycles: 1264079 heartbeat IPC: 1.7017 cumulative IPC: 1.58218 (Simulation time: 0 hr 0 min 55 sec) 
Heartbeat CPU 0 instructions: 3000003 cycles: 1939460 heartbeat IPC: 1.48065 cumulative IPC: 1.54682 (Simulation time: 0 hr 1 min 21 sec) 
Heartbeat CPU 0 instructions: 4000000 cycles: 2614828 heartbeat IPC: 1.48067 cumulative IPC: 1.52974 (Simulation time: 0 hr 1 min 48 sec) 
Heartbeat CPU 0 instructions: 5000002 cycles: 3290304 heartbeat IPC: 1.48044 cumulative IPC: 1.51962 (Simulation time: 0 hr 2 min 14 sec) 
Heartbeat CPU 0 instructions: 6000001 cycles: 3878140 heartbeat IPC: 1.70115 cumulative IPC: 1.54713 (Simulation time: 0 hr 2 min 40 sec) 
Heartbeat CPU 0 instructions: 7000001 cycles: 4447703 heartbeat IPC: 1.75573 cumulative IPC: 1.57385 (Simulation time: 0 hr 3 min 4 sec) 
Heartbeat CPU 0 instructions: 8000000 cycles: 5000038 heartbeat IPC: 1.81049 cumulative IPC: 1.59999 (Simulation time: 0 hr 3 min 30 sec) 
Heartbeat CPU 0 instructions: 9000001 cycles: 5562446 heartbeat IPC: 1.77807 cumulative IPC: 1.61799 (Simulation time: 0 hr 3 min 55 sec) 
Heartbeat CPU 0 instructions: 10000002 cycles: 6238172 heartbeat IPC: 1.47989 cumulative IPC: 1.60303 (Simulation time: 0 hr 4 min 20 sec) 

Warmup complete CPU 0 instructions: 10000002 cycles: 6238172 (Simulation time: 0 hr 4 min 20 sec) 

Heartbeat CPU 0 instructions: 11000000 cycles: 13537075 heartbeat IPC: 0.137007 cumulative IPC: 0.137007 (Simulation time: 0 hr 4 min 46 sec) 
Heartbeat CPU 0 instructions: 12000000 cycles: 21159331 heartbeat IPC: 0.131195 cumulative IPC: 0.134038 (Simulation time: 0 hr 5 min 14 sec) 
Heartbeat CPU 0 instructions: 13000003 cycles: 30772182 heartbeat IPC: 0.104028 cumulative IPC: 0.122279 (Simulation time: 0 hr 5 min 47 sec) 
Heartbeat CPU 0 instructions: 14000002 cycles: 37761565 heartbeat IPC: 0.143074 cumulative IPC: 0.12689 (Simulation time: 0 hr 6 min 14 sec) 
Heartbeat CPU 0 instructions: 15000000 cycles: 44881290 heartbeat IPC: 0.140455 cumulative IPC: 0.129389 (Simulation time: 0 hr 6 min 42 sec) 
Heartbeat CPU 0 instructions: 16000000 cycles: 51760102 heartbeat IPC: 0.145374 cumulative IPC: 0.131805 (Simulation time: 0 hr 7 min 10 sec) 
Heartbeat CPU 0 instructions: 17000001 cycles: 58393246 heartbeat IPC: 0.150758 cumulative IPC: 0.134215 (Simulation time: 0 hr 7 min 37 sec) 
Heartbeat CPU 0 instructions: 18000000 cycles: 68178226 heartbeat IPC: 0.102197 cumulative IPC: 0.129157 (Simulation time: 0 hr 8 min 13 sec) 
Heartbeat CPU 0 instructions: 19000000 cycles: 75061479 heartbeat IPC: 0.14528 cumulative IPC: 0.13077 (Simulation time: 0 hr 8 min 41 sec) 
Heartbeat CPU 0 instructions: 20000000 cycles: 82313849 heartbeat IPC: 0.137886 cumulative IPC: 0.131448 (Simulation time: 0 hr 9 min 10 sec) 
Heartbeat CPU 0 instructions: 21000000 cycles: 91792461 heartbeat IPC: 0.105501 cumulative IPC: 0.128573 (Simulation time: 0 hr 9 min 42 sec) 
Heartbeat CPU 0 instructions: 22000002 cycles: 99562740 heartbeat IPC: 0.128696 cumulative IPC: 0.128584 (Simulation time: 0 hr 10 min 14 sec) 
Heartbeat CPU 0 instructions: 23000002 cycles: 106209820 heartbeat IPC: 0.150442 cumulative IPC: 0.130037 (Simulation time: 0 hr 10 min 43 sec) 
Heartbeat CPU 0 instructions: 24000000 cycles: 113704304 heartbeat IPC: 0.133431 cumulative IPC: 0.130274 (Simulation time: 0 hr 11 min 14 sec) 
Heartbeat CPU 0 instructions: 25000001 cycles: 122882268 heartbeat IPC: 0.108957 cumulative IPC: 0.128596 (Simulation time: 0 hr 11 min 50 sec) 
Heartbeat CPU 0 instructions: 26000002 cycles: 130357435 heartbeat IPC: 0.133776 cumulative IPC: 0.128908 (Simulation time: 0 hr 12 min 20 sec) 
Heartbeat CPU 0 instructions: 27000003 cycles: 140912711 heartbeat IPC: 0.0947394 cumulative IPC: 0.12623 (Simulation time: 0 hr 12 min 56 sec) 
Heartbeat CPU 0 instructions: 28000000 cycles: 147981688 heartbeat IPC: 0.141463 cumulative IPC: 0.12699 (Simulation time: 0 hr 13 min 25 sec) 
Heartbeat CPU 0 instructions: 29000001 cycles: 157693850 heartbeat IPC: 0.102964 cumulative IPC: 0.125449 (Simulation time: 0 hr 14 min 2 sec) 
Heartbeat CPU 0 instructions: 30000001 cycles: 164434644 heartbeat IPC: 0.14835 cumulative IPC: 0.126425 (Simulation time: 0 hr 14 min 33 sec) 
Heartbeat CPU 0 instructions: 31000002 cycles: 171251072 heartbeat IPC: 0.146705 cumulative IPC: 0.127263 (Simulation time: 0 hr 15 min 9 sec) 
Heartbeat CPU 0 instructions: 32000000 cycles: 177725668 heartbeat IPC: 0.154449 cumulative IPC: 0.128289 (Simulation time: 0 hr 15 min 39 sec) 
Heartbeat CPU 0 instructions: 33000000 cycles: 183937453 heartbeat IPC: 0.160984 cumulative IPC: 0.129432 (Simulation time: 0 hr 16 min 9 sec) 
Heartbeat CPU 0 instructions: 34000000 cycles: 193621126 heartbeat IPC: 0.103267 cumulative IPC: 0.12808 (Simulation time: 0 hr 16 min 46 sec) 
Heartbeat CPU 0 instructions: 35000000 cycles: 200510527 heartbeat IPC: 0.14515 cumulative IPC: 0.128685 (Simulation time: 0 hr 17 min 15 sec) 
Heartbeat CPU 0 instructions: 36000000 cycles: 207550384 heartbeat IPC: 0.142048 cumulative IPC: 0.129153 (Simulation time: 0 hr 17 min 46 sec) 
Heartbeat CPU 0 instructions: 37000002 cycles: 217370018 heartbeat IPC: 0.101837 cumulative IPC: 0.127882 (Simulation time: 0 hr 18 min 22 sec) 
Heartbeat CPU 0 instructions: 38000000 cycles: 224106095 heartbeat IPC: 0.148454 cumulative IPC: 0.128518 (Simulation time: 0 hr 18 min 51 sec) 
Heartbeat CPU 0 instructions: 39000001 cycles: 233957576 heartbeat IPC: 0.101508 cumulative IPC: 0.12735 (Simulation time: 0 hr 19 min 27 sec) 
Heartbeat CPU 0 instructions: 40000000 cycles: 243779996 heartbeat IPC: 0.101808 cumulative IPC: 0.126294 (Simulation time: 0 hr 20 min 2 sec) 
Heartbeat CPU 0 instructions: 41000001 cycles: 250777089 heartbeat IPC: 0.142917 cumulative IPC: 0.126769 (Simulation time: 0 hr 20 min 30 sec) 
Heartbeat CPU 0 instructions: 42000003 cycles: 258757795 heartbeat IPC: 0.125302 cumulative IPC: 0.126723 (Simulation time: 0 hr 21 min 0 sec) 
Heartbeat CPU 0 instructions: 43000002 cycles: 269122038 heartbeat IPC: 0.0964855 cumulative IPC: 0.125531 (Simulation time: 0 hr 21 min 36 sec) 
Heartbeat CPU 0 instructions: 44000000 cycles: 275877020 heartbeat IPC: 0.148039 cumulative IPC: 0.126095 (Simulation time: 0 hr 22 min 4 sec) 
Heartbeat CPU 0 instructions: 45000000 cycles: 282981060 heartbeat IPC: 0.140765 cumulative IPC: 0.126471 (Simulation time: 0 hr 22 min 32 sec) 
Heartbeat CPU 0 instructions: 46000002 cycles: 290229225 heartbeat IPC: 0.137966 cumulative IPC: 0.126765 (Simulation time: 0 hr 23 min 0 sec) 
Heartbeat CPU 0 instructions: 47000000 cycles: 297485368 heartbeat IPC: 0.137814 cumulative IPC: 0.12704 (Simulation time: 0 hr 23 min 28 sec) 
Heartbeat CPU 0 instructions: 48000000 cycles: 307159968 heartbeat IPC: 0.103363 cumulative IPC: 0.126279 (Simulation time: 0 hr 24 min 2 sec) 
Heartbeat CPU 0 instructions: 49000000 cycles: 313649766 heartbeat IPC: 0.154088 cumulative IPC: 0.126866 (Simulation time: 0 hr 24 min 30 sec) 
Heartbeat CPU 0 instructions: 50000000 cycles: 320331600 heartbeat IPC: 0.14966 cumulative IPC: 0.127351 (Simulation time: 0 hr 24 min 59 sec) 
Heartbeat CPU 0 instructions: 51000000 cycles: 327832951 heartbeat IPC: 0.133309 cumulative IPC: 0.12749 (Simulation time: 0 hr 25 min 30 sec) 
Heartbeat CPU 0 instructions: 52000000 cycles: 337102644 heartbeat IPC: 0.107878 cumulative IPC: 0.12694 (Simulation time: 0 hr 26 min 4 sec) 
Heartbeat CPU 0 instructions: 53000000 cycles: 344562089 heartbeat IPC: 0.134058 cumulative IPC: 0.127097 (Simulation time: 0 hr 26 min 33 sec) 
Heartbeat CPU 0 instructions: 54000000 cycles: 353104290 heartbeat IPC: 0.117066 cumulative IPC: 0.12685 (Simulation time: 0 hr 27 min 3 sec) 
Heartbeat CPU 0 instructions: 55000001 cycles: 361931794 heartbeat IPC: 0.113282 cumulative IPC: 0.126513 (Simulation time: 0 hr 27 min 32 sec) 
Heartbeat CPU 0 instructions: 56000000 cycles: 372524122 heartbeat IPC: 0.0944079 cumulative IPC: 0.125585 (Simulation time: 0 hr 28 min 7 sec) 
Heartbeat CPU 0 instructions: 57000000 cycles: 379353511 heartbeat IPC: 0.146426 cumulative IPC: 0.125966 (Simulation time: 0 hr 28 min 34 sec) 
Heartbeat CPU 0 instructions: 58000001 cycles: 386413405 heartbeat IPC: 0.141645 cumulative IPC: 0.126258 (Simulation time: 0 hr 29 min 4 sec) 
Heartbeat CPU 0 instructions: 59000002 cycles: 395492757 heartbeat IPC: 0.11014 cumulative IPC: 0.125882 (Simulation time: 0 hr 29 min 38 sec) 
Heartbeat CPU 0 instructions: 60000000 cycles: 403638395 heartbeat IPC: 0.122765 cumulative IPC: 0.125818 (Simulation time: 0 hr 30 min 10 sec) 
Heartbeat CPU 0 instructions: 61000001 cycles: 410637175 heartbeat IPC: 0.142882 cumulative IPC: 0.126113 (Simulation time: 0 hr 30 min 37 sec) 
Heartbeat CPU 0 instructions: 62000001 cycles: 417789317 heartbeat IPC: 0.139818 cumulative IPC: 0.126351 (Simulation time: 0 hr 31 min 7 sec) 
Heartbeat CPU 0 instructions: 63000000 cycles: 425066426 heartbeat IPC: 0.137417 cumulative IPC: 0.126544 (Simulation time: 0 hr 31 min 34 sec) 
Heartbeat CPU 0 instructions: 64000000 cycles: 434617762 heartbeat IPC: 0.104697 cumulative IPC: 0.126056 (Simulation time: 0 hr 32 min 5 sec) 
Heartbeat CPU 0 instructions: 65000000 cycles: 441938851 heartbeat IPC: 0.136592 cumulative IPC: 0.126233 (Simulation time: 0 hr 32 min 34 sec) 
Heartbeat CPU 0 instructions: 66000001 cycles: 449099497 heartbeat IPC: 0.139652 cumulative IPC: 0.12645 (Simulation time: 0 hr 33 min 2 sec) 
Heartbeat CPU 0 instructions: 67000000 cycles: 456584309 heartbeat IPC: 0.133604 cumulative IPC: 0.126569 (Simulation time: 0 hr 33 min 30 sec) 
Heartbeat CPU 0 instructions: 68000000 cycles: 464173595 heartbeat IPC: 0.131765 cumulative IPC: 0.126655 (Simulation time: 0 hr 33 min 58 sec) 
Heartbeat CPU 0 instructions: 69000000 cycles: 477076298 heartbeat IPC: 0.0775031 cumulative IPC: 0.125308 (Simulation time: 0 hr 34 min 38 sec) 
Heartbeat CPU 0 instructions: 70000000 cycles: 484294148 heartbeat IPC: 0.138545 cumulative IPC: 0.125508 (Simulation time: 0 hr 35 min 6 sec) 
Heartbeat CPU 0 instructions: 71000002 cycles: 491737985 heartbeat IPC: 0.13434 cumulative IPC: 0.125644 (Simulation time: 0 hr 35 min 33 sec) 
Heartbeat CPU 0 instructions: 72000000 cycles: 499358278 heartbeat IPC: 0.131228 cumulative IPC: 0.12573 (Simulation time: 0 hr 36 min 1 sec) 
Heartbeat CPU 0 instructions: 73000003 cycles: 506946755 heartbeat IPC: 0.131779 cumulative IPC: 0.125822 (Simulation time: 0 hr 36 min 27 sec) 
Heartbeat CPU 0 instructions: 74000003 cycles: 516407487 heartbeat IPC: 0.1057 cumulative IPC: 0.125449 (Simulation time: 0 hr 36 min 52 sec) 
Heartbeat CPU 0 instructions: 75000000 cycles: 524076904 heartbeat IPC: 0.130388 cumulative IPC: 0.125522 (Simulation time: 0 hr 37 min 17 sec) 
Heartbeat CPU 0 instructions: 76000000 cycles: 530744219 heartbeat IPC: 0.149985 cumulative IPC: 0.125833 (Simulation time: 0 hr 37 min 38 sec) 
Heartbeat CPU 0 instructions: 77000000 cycles: 537469601 heartbeat IPC: 0.14869 cumulative IPC: 0.126122 (Simulation time: 0 hr 38 min 0 sec) 
Heartbeat CPU 0 instructions: 78000001 cycles: 544008988 heartbeat IPC: 0.15292 cumulative IPC: 0.126448 (Simulation time: 0 hr 38 min 22 sec) 
Heartbeat CPU 0 instructions: 79000000 cycles: 553561346 heartbeat IPC: 0.104686 cumulative IPC: 0.126068 (Simulation time: 0 hr 38 min 48 sec) 
Heartbeat CPU 0 instructions: 80000000 cycles: 560248198 heartbeat IPC: 0.149547 cumulative IPC: 0.126352 (Simulation time: 0 hr 39 min 6 sec) 
Heartbeat CPU 0 instructions: 81000003 cycles: 568550743 heartbeat IPC: 0.120445 cumulative IPC: 0.126264 (Simulation time: 0 hr 39 min 25 sec) 
Heartbeat CPU 0 instructions: 82000001 cycles: 577071410 heartbeat IPC: 0.117361 cumulative IPC: 0.126131 (Simulation time: 0 hr 39 min 46 sec) 
Heartbeat CPU 0 instructions: 83000002 cycles: 583830624 heartbeat IPC: 0.147946 cumulative IPC: 0.126387 (Simulation time: 0 hr 40 min 4 sec) 
Heartbeat CPU 0 instructions: 84000000 cycles: 590803047 heartbeat IPC: 0.143422 cumulative IPC: 0.12659 (Simulation time: 0 hr 40 min 21 sec) 
Heartbeat CPU 0 instructions: 85000000 cycles: 598399581 heartbeat IPC: 0.131639 cumulative IPC: 0.126655 (Simulation time: 0 hr 40 min 39 sec) 
Heartbeat CPU 0 instructions: 86000001 cycles: 607654420 heartbeat IPC: 0.108052 cumulative IPC: 0.126368 (Simulation time: 0 hr 40 min 59 sec) 
Heartbeat CPU 0 instructions: 87000000 cycles: 614123883 heartbeat IPC: 0.154572 cumulative IPC: 0.126669 (Simulation time: 0 hr 41 min 19 sec) 
Heartbeat CPU 0 instructions: 88000000 cycles: 620786262 heartbeat IPC: 0.150097 cumulative IPC: 0.126923 (Simulation time: 0 hr 41 min 36 sec) 
Heartbeat CPU 0 instructions: 89000002 cycles: 627629547 heartbeat IPC: 0.146129 cumulative IPC: 0.127134 (Simulation time: 0 hr 41 min 52 sec) 
Heartbeat CPU 0 instructions: 90000002 cycles: 634326672 heartbeat IPC: 0.149318 cumulative IPC: 0.127371 (Simulation time: 0 hr 42 min 7 sec) 
Heartbeat CPU 0 instructions: 91000001 cycles: 644150577 heartbeat IPC: 0.101792 cumulative IPC: 0.126977 (Simulation time: 0 hr 42 min 27 sec) 
Heartbeat CPU 0 instructions: 92000000 cycles: 651519157 heartbeat IPC: 0.135711 cumulative IPC: 0.127076 (Simulation time: 0 hr 42 min 43 sec) 
Heartbeat CPU 0 instructions: 93000003 cycles: 659419840 heartbeat IPC: 0.126572 cumulative IPC: 0.12707 (Simulation time: 0 hr 42 min 58 sec) 
Heartbeat CPU 0 instructions: 94000000 cycles: 667677660 heartbeat IPC: 0.121097 cumulative IPC: 0.126996 (Simulation time: 0 hr 43 min 13 sec) 
Heartbeat CPU 0 instructions: 95000000 cycles: 674528089 heartbeat IPC: 0.145976 cumulative IPC: 0.12719 (Simulation time: 0 hr 43 min 28 sec) 
Heartbeat CPU 0 instructions: 96000000 cycles: 684329819 heartbeat IPC: 0.102023 cumulative IPC: 0.126827 (Simulation time: 0 hr 43 min 44 sec) 
Heartbeat CPU 0 instructions: 97000000 cycles: 691675084 heartbeat IPC: 0.136142 cumulative IPC: 0.126926 (Simulation time: 0 hr 43 min 56 sec) 
Heartbeat CPU 0 instructions: 98000003 cycles: 700098550 heartbeat IPC: 0.118716 cumulative IPC: 0.126827 (Simulation time: 0 hr 44 min 5 sec) 
Heartbeat CPU 0 instructions: 99000001 cycles: 708750213 heartbeat IPC: 0.115584 cumulative IPC: 0.126688 (Simulation time: 0 hr 44 min 14 sec) 
Heartbeat CPU 0 instructions: 100000000 cycles: 716738750 heartbeat IPC: 0.125179 cumulative IPC: 0.126671 (Simulation time: 0 hr 44 min 21 sec) 
Heartbeat CPU 0 instructions: 101000000 cycles: 726708684 heartbeat IPC: 0.100302 cumulative IPC: 0.126306 (Simulation time: 0 hr 44 min 28 sec) 
Heartbeat CPU 0 instructions: 102000001 cycles: 733458916 heartbeat IPC: 0.148143 cumulative IPC: 0.126509 (Simulation time: 0 hr 44 min 34 sec) 
Heartbeat CPU 0 instructions: 103000000 cycles: 740326624 heartbeat IPC: 0.145609 cumulative IPC: 0.126688 (Simulation time: 0 hr 44 min 39 sec) 
Heartbeat CPU 0 instructions: 104000000 cycles: 746984799 heartbeat IPC: 0.150191 cumulative IPC: 0.126899 (Simulation time: 0 hr 44 min 43 sec) 
Heartbeat CPU 0 instructions: 105000000 cycles: 753236544 heartbeat IPC: 0.159955 cumulative IPC: 0.127176 (Simulation time: 0 hr 44 min 48 sec) 
Heartbeat CPU 0 instructions: 106000000 cycles: 762911771 heartbeat IPC: 0.103357 cumulative IPC: 0.126871 (Simulation time: 0 hr 44 min 53 sec) 
Heartbeat CPU 0 instructions: 107000002 cycles: 770187106 heartbeat IPC: 0.137451 cumulative IPC: 0.126972 (Simulation time: 0 hr 44 min 57 sec) 
Heartbeat CPU 0 instructions: 108000000 cycles: 780252227 heartbeat IPC: 0.0993528 cumulative IPC: 0.126613 (Simulation time: 0 hr 45 min 1 sec) 
Heartbeat CPU 0 instructions: 109000003 cycles: 787133353 heartbeat IPC: 0.145325 cumulative IPC: 0.126778 (Simulation time: 0 hr 45 min 6 sec) 
Heartbeat CPU 0 instructions: 110000003 cycles: 793810090 heartbeat IPC: 0.149774 cumulative IPC: 0.126973 (Simulation time: 0 hr 45 min 9 sec) 
Finished CPU 0 instructions: 100000001 cycles: 787571918 cummulative IPC: 0.126973 (Simulation time: 0 hr 45 min 9 sec) 

ChampSim completed all CPUs

Region of Interest Statistics

CPU 0 cummulative IPC: 0.126973 instructions: 100000001 cycles: 787571918
LLC TOTAL     ACCESS:    8773426  HIT:     362977  MISS:    8410449
LLC LOAD      ACCESS:    1907498  HIT:     136170  MISS:    1771328
LLC RFO       ACCESS:    1828635  HIT:      16081  MISS:    1812554
LLC PREFETCH  ACCESS:    2274500  HIT:      18941  MISS:    2255559
LLC WRITEBACK ACCESS:    2762793  HIT:     191785  MISS:    2571008
