
*** ChampSim Multicore Out-of-Order Simulator ***

Warmup Instructions: 10000000
Simulation Instructions: 100000000
Configuration: 2
Number of CPUs: 1
LLC sets: 2048
LLC ways: 16
Off-chip DRAM Channels: 1 Width: 64-bit Data Rate: 1600 MT/s

CPU 0 runs /datasets/cs240c-wi22-a00-public/data/Assignment2-gz/libquantum_1735B.trace.gz
CPU 0 L1D next line prefetcher
CPU 0 L2C IP-based stride prefetcher
Heartbeat CPU 0 instructions: 1000001 cycles: 333341 heartbeat IPC: 2.99993 cumulative IPC: 2.99993 (Simulation time: 0 hr 0 min 11 sec) 
Heartbeat CPU 0 instructions: 2000000 cycles: 666674 heartbeat IPC: 3 cumulative IPC: 2.99997 (Simulation time: 0 hr 0 min 21 sec) 
Heartbeat CPU 0 instructions: 3000000 cycles: 989045 heartbeat IPC: 3.10202 cumulative IPC: 3.03323 (Simulation time: 0 hr 0 min 34 sec) 
Heartbeat CPU 0 instructions: 4000000 cycles: 1290770 heartbeat IPC: 3.31428 cumulative IPC: 3.09893 (Simulation time: 0 hr 0 min 48 sec) 
Heartbeat CPU 0 instructions: 5000001 cycles: 1592495 heartbeat IPC: 3.31428 cumulative IPC: 3.13973 (Simulation time: 0 hr 0 min 59 sec) 
Heartbeat CPU 0 instructions: 6000001 cycles: 1894219 heartbeat IPC: 3.31429 cumulative IPC: 3.16753 (Simulation time: 0 hr 1 min 16 sec) 
Heartbeat CPU 0 instructions: 7000002 cycles: 2195942 heartbeat IPC: 3.3143 cumulative IPC: 3.1877 (Simulation time: 0 hr 1 min 29 sec) 
Heartbeat CPU 0 instructions: 8000000 cycles: 2501897 heartbeat IPC: 3.26845 cumulative IPC: 3.19757 (Simulation time: 0 hr 1 min 42 sec) 
Heartbeat CPU 0 instructions: 9000000 cycles: 2835230 heartbeat IPC: 3 cumulative IPC: 3.17435 (Simulation time: 0 hr 1 min 53 sec) 
Heartbeat CPU 0 instructions: 10000002 cycles: 3168564 heartbeat IPC: 3 cumulative IPC: 3.156 (Simulation time: 0 hr 2 min 4 sec) 

Warmup complete CPU 0 instructions: 10000002 cycles: 3168564 (Simulation time: 0 hr 2 min 4 sec) 

Heartbeat CPU 0 instructions: 11000001 cycles: 4593870 heartbeat IPC: 0.701603 cumulative IPC: 0.701603 (Simulation time: 0 hr 2 min 28 sec) 
Heartbeat CPU 0 instructions: 12000000 cycles: 6018722 heartbeat IPC: 0.701827 cumulative IPC: 0.701715 (Simulation time: 0 hr 2 min 55 sec) 
Heartbeat CPU 0 instructions: 13000001 cycles: 7840823 heartbeat IPC: 0.548818 cumulative IPC: 0.642087 (Simulation time: 0 hr 3 min 18 sec) 
Heartbeat CPU 0 instructions: 14000000 cycles: 10330355 heartbeat IPC: 0.401682 cumulative IPC: 0.558519 (Simulation time: 0 hr 3 min 35 sec) 
Heartbeat CPU 0 instructions: 15000000 cycles: 12812926 heartbeat IPC: 0.402808 cumulative IPC: 0.518437 (Simulation time: 0 hr 3 min 53 sec) 
Heartbeat CPU 0 instructions: 16000000 cycles: 15281685 heartbeat IPC: 0.405062 cumulative IPC: 0.49533 (Simulation time: 0 hr 4 min 11 sec) 
Heartbeat CPU 0 instructions: 17000002 cycles: 17766375 heartbeat IPC: 0.402465 cumulative IPC: 0.479524 (Simulation time: 0 hr 4 min 30 sec) 
Heartbeat CPU 0 instructions: 18000001 cycles: 19934459 heartbeat IPC: 0.461236 cumulative IPC: 0.477159 (Simulation time: 0 hr 4 min 51 sec) 
Heartbeat CPU 0 instructions: 19000000 cycles: 21434040 heartbeat IPC: 0.666852 cumulative IPC: 0.492733 (Simulation time: 0 hr 5 min 13 sec) 
Heartbeat CPU 0 instructions: 20000000 cycles: 22933542 heartbeat IPC: 0.666888 cumulative IPC: 0.505945 (Simulation time: 0 hr 5 min 36 sec) 
Heartbeat CPU 0 instructions: 21000001 cycles: 24433172 heartbeat IPC: 0.666832 cumulative IPC: 0.517291 (Simulation time: 0 hr 6 min 0 sec) 
Heartbeat CPU 0 instructions: 22000000 cycles: 25932678 heartbeat IPC: 0.666886 cumulative IPC: 0.527145 (Simulation time: 0 hr 6 min 25 sec) 
Heartbeat CPU 0 instructions: 23000000 cycles: 28137769 heartbeat IPC: 0.453496 cumulative IPC: 0.520641 (Simulation time: 0 hr 6 min 45 sec) 
Heartbeat CPU 0 instructions: 24000000 cycles: 30799521 heartbeat IPC: 0.375692 cumulative IPC: 0.506678 (Simulation time: 0 hr 7 min 3 sec) 
Heartbeat CPU 0 instructions: 25000000 cycles: 33468393 heartbeat IPC: 0.37469 cumulative IPC: 0.495052 (Simulation time: 0 hr 7 min 22 sec) 
Heartbeat CPU 0 instructions: 26000000 cycles: 36117145 heartbeat IPC: 0.377536 cumulative IPC: 0.485605 (Simulation time: 0 hr 7 min 40 sec) 
Heartbeat CPU 0 instructions: 27000001 cycles: 38783468 heartbeat IPC: 0.375049 cumulative IPC: 0.477328 (Simulation time: 0 hr 7 min 57 sec) 
Heartbeat CPU 0 instructions: 28000000 cycles: 40752644 heartbeat IPC: 0.507826 cumulative IPC: 0.478926 (Simulation time: 0 hr 8 min 19 sec) 
Heartbeat CPU 0 instructions: 29000000 cycles: 42174586 heartbeat IPC: 0.703264 cumulative IPC: 0.487104 (Simulation time: 0 hr 8 min 42 sec) 
Heartbeat CPU 0 instructions: 30000001 cycles: 43605426 heartbeat IPC: 0.698891 cumulative IPC: 0.494598 (Simulation time: 0 hr 9 min 4 sec) 
Heartbeat CPU 0 instructions: 31000000 cycles: 45027321 heartbeat IPC: 0.703286 cumulative IPC: 0.501687 (Simulation time: 0 hr 9 min 24 sec) 
Heartbeat CPU 0 instructions: 32000000 cycles: 46449137 heartbeat IPC: 0.703326 cumulative IPC: 0.508311 (Simulation time: 0 hr 9 min 46 sec) 
Heartbeat CPU 0 instructions: 33000002 cycles: 48484741 heartbeat IPC: 0.491256 cumulative IPC: 0.507545 (Simulation time: 0 hr 10 min 5 sec) 
Heartbeat CPU 0 instructions: 34000000 cycles: 50662966 heartbeat IPC: 0.459088 cumulative IPC: 0.505323 (Simulation time: 0 hr 10 min 28 sec) 
Heartbeat CPU 0 instructions: 35000000 cycles: 52824039 heartbeat IPC: 0.462733 cumulative IPC: 0.503469 (Simulation time: 0 hr 10 min 50 sec) 
Heartbeat CPU 0 instructions: 36000000 cycles: 55004607 heartbeat IPC: 0.458596 cumulative IPC: 0.501581 (Simulation time: 0 hr 11 min 9 sec) 
Heartbeat CPU 0 instructions: 37000002 cycles: 57179059 heartbeat IPC: 0.459887 cumulative IPC: 0.499903 (Simulation time: 0 hr 11 min 28 sec) 
Heartbeat CPU 0 instructions: 38000003 cycles: 58887727 heartbeat IPC: 0.585252 cumulative IPC: 0.50252 (Simulation time: 0 hr 11 min 51 sec) 
Heartbeat CPU 0 instructions: 39000000 cycles: 60299133 heartbeat IPC: 0.708511 cumulative IPC: 0.507609 (Simulation time: 0 hr 12 min 16 sec) 
Heartbeat CPU 0 instructions: 40000000 cycles: 61710605 heartbeat IPC: 0.70848 cumulative IPC: 0.512452 (Simulation time: 0 hr 12 min 39 sec) 
Heartbeat CPU 0 instructions: 41000000 cycles: 63122131 heartbeat IPC: 0.708453 cumulative IPC: 0.517067 (Simulation time: 0 hr 13 min 2 sec) 
Heartbeat CPU 0 instructions: 42000001 cycles: 64533536 heartbeat IPC: 0.708515 cumulative IPC: 0.52147 (Simulation time: 0 hr 13 min 29 sec) 
Heartbeat CPU 0 instructions: 43000000 cycles: 66603271 heartbeat IPC: 0.483153 cumulative IPC: 0.52022 (Simulation time: 0 hr 13 min 49 sec) 
Heartbeat CPU 0 instructions: 44000000 cycles: 68772228 heartbeat IPC: 0.461051 cumulative IPC: 0.518264 (Simulation time: 0 hr 14 min 7 sec) 
Heartbeat CPU 0 instructions: 45000001 cycles: 70936262 heartbeat IPC: 0.4621 cumulative IPC: 0.51647 (Simulation time: 0 hr 14 min 27 sec) 
Heartbeat CPU 0 instructions: 46000002 cycles: 73088391 heartbeat IPC: 0.464657 cumulative IPC: 0.514875 (Simulation time: 0 hr 14 min 49 sec) 
Heartbeat CPU 0 instructions: 47000000 cycles: 75255910 heartbeat IPC: 0.461356 cumulative IPC: 0.513266 (Simulation time: 0 hr 15 min 10 sec) 
Heartbeat CPU 0 instructions: 48000000 cycles: 76994001 heartbeat IPC: 0.575344 cumulative IPC: 0.514728 (Simulation time: 0 hr 15 min 34 sec) 
Heartbeat CPU 0 instructions: 49000002 cycles: 78513593 heartbeat IPC: 0.658073 cumulative IPC: 0.517619 (Simulation time: 0 hr 15 min 58 sec) 
Heartbeat CPU 0 instructions: 50000001 cycles: 80033061 heartbeat IPC: 0.658124 cumulative IPC: 0.520396 (Simulation time: 0 hr 16 min 22 sec) 
Heartbeat CPU 0 instructions: 51000000 cycles: 81552632 heartbeat IPC: 0.65808 cumulative IPC: 0.523065 (Simulation time: 0 hr 16 min 48 sec) 
Heartbeat CPU 0 instructions: 52000000 cycles: 83072306 heartbeat IPC: 0.658036 cumulative IPC: 0.525632 (Simulation time: 0 hr 17 min 10 sec) 
Heartbeat CPU 0 instructions: 53000002 cycles: 84600160 heartbeat IPC: 0.654514 cumulative IPC: 0.528051 (Simulation time: 0 hr 17 min 32 sec) 
Heartbeat CPU 0 instructions: 54000001 cycles: 86120090 heartbeat IPC: 0.657924 cumulative IPC: 0.53043 (Simulation time: 0 hr 17 min 58 sec) 
Heartbeat CPU 0 instructions: 55000000 cycles: 87639742 heartbeat IPC: 0.658045 cumulative IPC: 0.532726 (Simulation time: 0 hr 18 min 25 sec) 
Heartbeat CPU 0 instructions: 56000000 cycles: 89159211 heartbeat IPC: 0.658125 cumulative IPC: 0.534942 (Simulation time: 0 hr 18 min 51 sec) 
Heartbeat CPU 0 instructions: 57000000 cycles: 90678804 heartbeat IPC: 0.658071 cumulative IPC: 0.53708 (Simulation time: 0 hr 19 min 17 sec) 
Heartbeat CPU 0 instructions: 58000002 cycles: 92198275 heartbeat IPC: 0.658125 cumulative IPC: 0.539146 (Simulation time: 0 hr 19 min 40 sec) 
Heartbeat CPU 0 instructions: 59000001 cycles: 93717821 heartbeat IPC: 0.658091 cumulative IPC: 0.541142 (Simulation time: 0 hr 20 min 6 sec) 
Heartbeat CPU 0 instructions: 60000000 cycles: 95237285 heartbeat IPC: 0.658126 cumulative IPC: 0.543073 (Simulation time: 0 hr 20 min 34 sec) 
Heartbeat CPU 0 instructions: 61000003 cycles: 96756905 heartbeat IPC: 0.658061 cumulative IPC: 0.54494 (Simulation time: 0 hr 20 min 58 sec) 
Heartbeat CPU 0 instructions: 62000002 cycles: 98276377 heartbeat IPC: 0.658123 cumulative IPC: 0.546748 (Simulation time: 0 hr 21 min 19 sec) 
Heartbeat CPU 0 instructions: 63000001 cycles: 99795921 heartbeat IPC: 0.658091 cumulative IPC: 0.548499 (Simulation time: 0 hr 21 min 41 sec) 
Heartbeat CPU 0 instructions: 64000000 cycles: 101315385 heartbeat IPC: 0.658126 cumulative IPC: 0.550196 (Simulation time: 0 hr 22 min 3 sec) 
Heartbeat CPU 0 instructions: 65000001 cycles: 102834873 heartbeat IPC: 0.658117 cumulative IPC: 0.551841 (Simulation time: 0 hr 22 min 24 sec) 
Heartbeat CPU 0 instructions: 66000000 cycles: 104352503 heartbeat IPC: 0.658921 cumulative IPC: 0.553447 (Simulation time: 0 hr 22 min 47 sec) 
Heartbeat CPU 0 instructions: 67000001 cycles: 105845292 heartbeat IPC: 0.669888 cumulative IPC: 0.55514 (Simulation time: 0 hr 23 min 11 sec) 
Heartbeat CPU 0 instructions: 68000000 cycles: 107337415 heartbeat IPC: 0.670185 cumulative IPC: 0.556788 (Simulation time: 0 hr 23 min 36 sec) 
Heartbeat CPU 0 instructions: 69000002 cycles: 108835615 heartbeat IPC: 0.667469 cumulative IPC: 0.558358 (Simulation time: 0 hr 23 min 59 sec) 
Heartbeat CPU 0 instructions: 70000001 cycles: 110327836 heartbeat IPC: 0.670141 cumulative IPC: 0.559914 (Simulation time: 0 hr 24 min 22 sec) 
Heartbeat CPU 0 instructions: 71000003 cycles: 111882082 heartbeat IPC: 0.6434 cumulative IPC: 0.561108 (Simulation time: 0 hr 24 min 42 sec) 
Heartbeat CPU 0 instructions: 72000000 cycles: 114045992 heartbeat IPC: 0.462125 cumulative IPC: 0.559176 (Simulation time: 0 hr 25 min 0 sec) 
Heartbeat CPU 0 instructions: 73000000 cycles: 116231480 heartbeat IPC: 0.457564 cumulative IPC: 0.557212 (Simulation time: 0 hr 25 min 19 sec) 
Heartbeat CPU 0 instructions: 74000000 cycles: 118391333 heartbeat IPC: 0.462994 cumulative IPC: 0.555446 (Simulation time: 0 hr 25 min 39 sec) 
Heartbeat CPU 0 instructions: 75000000 cycles: 120559539 heartbeat IPC: 0.461211 cumulative IPC: 0.553705 (Simulation time: 0 hr 26 min 0 sec) 
Heartbeat CPU 0 instructions: 76000000 cycles: 122742241 heartbeat IPC: 0.458148 cumulative IPC: 0.551961 (Simulation time: 0 hr 26 min 22 sec) 
Heartbeat CPU 0 instructions: 77000001 cycles: 124335900 heartbeat IPC: 0.627487 cumulative IPC: 0.552954 (Simulation time: 0 hr 26 min 49 sec) 
Heartbeat CPU 0 instructions: 78000000 cycles: 125841050 heartbeat IPC: 0.664385 cumulative IPC: 0.554322 (Simulation time: 0 hr 27 min 14 sec) 
Heartbeat CPU 0 instructions: 79000001 cycles: 127346273 heartbeat IPC: 0.664354 cumulative IPC: 0.555655 (Simulation time: 0 hr 27 min 38 sec) 
Heartbeat CPU 0 instructions: 80000000 cycles: 128851416 heartbeat IPC: 0.664388 cumulative IPC: 0.556957 (Simulation time: 0 hr 28 min 6 sec) 
Heartbeat CPU 0 instructions: 81000002 cycles: 130453425 heartbeat IPC: 0.624217 cumulative IPC: 0.557804 (Simulation time: 0 hr 28 min 29 sec) 
Heartbeat CPU 0 instructions: 82000003 cycles: 132609573 heartbeat IPC: 0.463791 cumulative IPC: 0.556238 (Simulation time: 0 hr 28 min 50 sec) 
Heartbeat CPU 0 instructions: 83000000 cycles: 134778853 heartbeat IPC: 0.460981 cumulative IPC: 0.554668 (Simulation time: 0 hr 29 min 14 sec) 
Heartbeat CPU 0 instructions: 84000000 cycles: 136938539 heartbeat IPC: 0.46303 cumulative IPC: 0.553188 (Simulation time: 0 hr 29 min 38 sec) 
Heartbeat CPU 0 instructions: 85000002 cycles: 139096083 heartbeat IPC: 0.463491 cumulative IPC: 0.551765 (Simulation time: 0 hr 29 min 59 sec) 
Heartbeat CPU 0 instructions: 86000002 cycles: 141284969 heartbeat IPC: 0.456853 cumulative IPC: 0.55026 (Simulation time: 0 hr 30 min 18 sec) 
Heartbeat CPU 0 instructions: 87000002 cycles: 142925044 heartbeat IPC: 0.609728 cumulative IPC: 0.550958 (Simulation time: 0 hr 30 min 41 sec) 
Heartbeat CPU 0 instructions: 88000000 cycles: 144498138 heartbeat IPC: 0.635689 cumulative IPC: 0.551901 (Simulation time: 0 hr 31 min 4 sec) 
Heartbeat CPU 0 instructions: 89000000 cycles: 146071306 heartbeat IPC: 0.63566 cumulative IPC: 0.552824 (Simulation time: 0 hr 31 min 26 sec) 
Heartbeat CPU 0 instructions: 90000000 cycles: 148007958 heartbeat IPC: 0.516355 cumulative IPC: 0.552336 (Simulation time: 0 hr 31 min 50 sec) 
Heartbeat CPU 0 instructions: 91000001 cycles: 150891332 heartbeat IPC: 0.346816 cumulative IPC: 0.548324 (Simulation time: 0 hr 32 min 12 sec) 
Heartbeat CPU 0 instructions: 92000000 cycles: 153769572 heartbeat IPC: 0.347434 cumulative IPC: 0.544485 (Simulation time: 0 hr 32 min 34 sec) 
Heartbeat CPU 0 instructions: 93000001 cycles: 156641489 heartbeat IPC: 0.3482 cumulative IPC: 0.540812 (Simulation time: 0 hr 32 min 54 sec) 
Heartbeat CPU 0 instructions: 94000001 cycles: 159281174 heartbeat IPC: 0.378833 cumulative IPC: 0.538073 (Simulation time: 0 hr 33 min 13 sec) 
Heartbeat CPU 0 instructions: 95000000 cycles: 160853108 heartbeat IPC: 0.636158 cumulative IPC: 0.539051 (Simulation time: 0 hr 33 min 39 sec) 
Heartbeat CPU 0 instructions: 96000000 cycles: 162425090 heartbeat IPC: 0.63614 cumulative IPC: 0.540009 (Simulation time: 0 hr 34 min 10 sec) 
Heartbeat CPU 0 instructions: 97000002 cycles: 163997138 heartbeat IPC: 0.636114 cumulative IPC: 0.540949 (Simulation time: 0 hr 34 min 34 sec) 
Heartbeat CPU 0 instructions: 98000001 cycles: 166134049 heartbeat IPC: 0.467965 cumulative IPC: 0.539992 (Simulation time: 0 hr 34 min 57 sec) 
Heartbeat CPU 0 instructions: 99000003 cycles: 168841145 heartbeat IPC: 0.3694 cumulative IPC: 0.537204 (Simulation time: 0 hr 35 min 18 sec) 
Heartbeat CPU 0 instructions: 100000000 cycles: 171555184 heartbeat IPC: 0.368453 cumulative IPC: 0.534484 (Simulation time: 0 hr 35 min 36 sec) 
Heartbeat CPU 0 instructions: 101000000 cycles: 174252070 heartbeat IPC: 0.370798 cumulative IPC: 0.531904 (Simulation time: 0 hr 35 min 54 sec) 
Heartbeat CPU 0 instructions: 102000000 cycles: 176501346 heartbeat IPC: 0.444587 cumulative IPC: 0.530771 (Simulation time: 0 hr 36 min 19 sec) 
Heartbeat CPU 0 instructions: 103000002 cycles: 177972211 heartbeat IPC: 0.679873 cumulative IPC: 0.532026 (Simulation time: 0 hr 36 min 44 sec) 
Heartbeat CPU 0 instructions: 104000000 cycles: 179443147 heartbeat IPC: 0.679838 cumulative IPC: 0.533259 (Simulation time: 0 hr 37 min 5 sec) 
Heartbeat CPU 0 instructions: 105000000 cycles: 180914028 heartbeat IPC: 0.679865 cumulative IPC: 0.534472 (Simulation time: 0 hr 37 min 30 sec) 
Heartbeat CPU 0 instructions: 106000003 cycles: 182384987 heartbeat IPC: 0.679831 cumulative IPC: 0.535665 (Simulation time: 0 hr 37 min 48 sec) 
Heartbeat CPU 0 instructions: 107000000 cycles: 184525936 heartbeat IPC: 0.467081 cumulative IPC: 0.534856 (Simulation time: 0 hr 38 min 4 sec) 
Heartbeat CPU 0 instructions: 108000000 cycles: 187022922 heartbeat IPC: 0.400483 cumulative IPC: 0.533031 (Simulation time: 0 hr 38 min 21 sec) 
Heartbeat CPU 0 instructions: 109000002 cycles: 189503000 heartbeat IPC: 0.403214 cumulative IPC: 0.531303 (Simulation time: 0 hr 38 min 34 sec) 
Heartbeat CPU 0 instructions: 110000002 cycles: 191991632 heartbeat IPC: 0.401827 cumulative IPC: 0.529596 (Simulation time: 0 hr 38 min 47 sec) 
Finished CPU 0 instructions: 100000000 cycles: 188823068 cummulative IPC: 0.529596 (Simulation time: 0 hr 38 min 47 sec) 

ChampSim completed all CPUs

Region of Interest Statistics

CPU 0 cummulative IPC: 0.529596 instructions: 100000000 cycles: 188823068
LLC TOTAL     ACCESS:    3801551  HIT:       4874  MISS:    3796677
LLC LOAD      ACCESS:     657640  HIT:         18  MISS:     657622
LLC RFO       ACCESS:         20  HIT:          2  MISS:         18
LLC PREFETCH  ACCESS:    2131786  HIT:       1439  MISS:    2130347
LLC WRITEBACK ACCESS:    1012105  HIT:       3415  MISS:    1008690
