
*** ChampSim Multicore Out-of-Order Simulator ***

Warmup Instructions: 10000000
Simulation Instructions: 100000000
Configuration: 2
Number of CPUs: 1
LLC sets: 2048
LLC ways: 16
Off-chip DRAM Channels: 1 Width: 64-bit Data Rate: 1600 MT/s

CPU 0 runs /datasets/cs240c-wi22-a00-public/data/Assignment2-gz/soplex_66B.trace.gz
CPU 0 L1D next line prefetcher
CPU 0 L2C IP-based stride prefetcher
Heartbeat CPU 0 instructions: 1000003 cycles: 415131 heartbeat IPC: 2.40889 cumulative IPC: 2.40889 (Simulation time: 0 hr 0 min 20 sec) 
Heartbeat CPU 0 instructions: 2000003 cycles: 837734 heartbeat IPC: 2.36629 cumulative IPC: 2.3874 (Simulation time: 0 hr 0 min 39 sec) 
Heartbeat CPU 0 instructions: 3000003 cycles: 1243568 heartbeat IPC: 2.46406 cumulative IPC: 2.41242 (Simulation time: 0 hr 0 min 59 sec) 
Heartbeat CPU 0 instructions: 4000000 cycles: 1627686 heartbeat IPC: 2.60336 cumulative IPC: 2.45748 (Simulation time: 0 hr 1 min 16 sec) 
Heartbeat CPU 0 instructions: 5000000 cycles: 2037180 heartbeat IPC: 2.44204 cumulative IPC: 2.45437 (Simulation time: 0 hr 1 min 33 sec) 
Heartbeat CPU 0 instructions: 6000000 cycles: 2507725 heartbeat IPC: 2.1252 cumulative IPC: 2.39261 (Simulation time: 0 hr 1 min 50 sec) 
Heartbeat CPU 0 instructions: 7000002 cycles: 2880650 heartbeat IPC: 2.68151 cumulative IPC: 2.43001 (Simulation time: 0 hr 2 min 9 sec) 
Heartbeat CPU 0 instructions: 8000000 cycles: 3306630 heartbeat IPC: 2.34752 cumulative IPC: 2.41938 (Simulation time: 0 hr 2 min 29 sec) 
Heartbeat CPU 0 instructions: 9000001 cycles: 3745105 heartbeat IPC: 2.28063 cumulative IPC: 2.40314 (Simulation time: 0 hr 2 min 47 sec) 
Heartbeat CPU 0 instructions: 10000002 cycles: 4157544 heartbeat IPC: 2.4246 cumulative IPC: 2.40527 (Simulation time: 0 hr 3 min 7 sec) 

Warmup complete CPU 0 instructions: 10000002 cycles: 4157544 (Simulation time: 0 hr 3 min 7 sec) 

Heartbeat CPU 0 instructions: 11000001 cycles: 7996922 heartbeat IPC: 0.260459 cumulative IPC: 0.260459 (Simulation time: 0 hr 3 min 36 sec) 
Heartbeat CPU 0 instructions: 12000000 cycles: 9461957 heartbeat IPC: 0.682577 cumulative IPC: 0.377044 (Simulation time: 0 hr 3 min 52 sec) 
Heartbeat CPU 0 instructions: 13000001 cycles: 12337402 heartbeat IPC: 0.347773 cumulative IPC: 0.366754 (Simulation time: 0 hr 4 min 16 sec) 
Heartbeat CPU 0 instructions: 14000002 cycles: 15049022 heartbeat IPC: 0.368784 cumulative IPC: 0.36726 (Simulation time: 0 hr 4 min 38 sec) 
Heartbeat CPU 0 instructions: 15000002 cycles: 17948370 heartbeat IPC: 0.344905 cumulative IPC: 0.36256 (Simulation time: 0 hr 4 min 58 sec) 
Heartbeat CPU 0 instructions: 16000000 cycles: 21178242 heartbeat IPC: 0.309609 cumulative IPC: 0.352512 (Simulation time: 0 hr 5 min 24 sec) 
Heartbeat CPU 0 instructions: 17000001 cycles: 23890704 heartbeat IPC: 0.368669 cumulative IPC: 0.354733 (Simulation time: 0 hr 5 min 57 sec) 
Heartbeat CPU 0 instructions: 18000000 cycles: 26037593 heartbeat IPC: 0.46579 cumulative IPC: 0.36563 (Simulation time: 0 hr 6 min 22 sec) 
Heartbeat CPU 0 instructions: 19000002 cycles: 30345462 heartbeat IPC: 0.232134 cumulative IPC: 0.34367 (Simulation time: 0 hr 6 min 58 sec) 
Heartbeat CPU 0 instructions: 20000000 cycles: 31810045 heartbeat IPC: 0.682787 cumulative IPC: 0.361631 (Simulation time: 0 hr 7 min 14 sec) 
Heartbeat CPU 0 instructions: 21000000 cycles: 34251712 heartbeat IPC: 0.409556 cumulative IPC: 0.365519 (Simulation time: 0 hr 7 min 35 sec) 
Heartbeat CPU 0 instructions: 22000000 cycles: 37217665 heartbeat IPC: 0.33716 cumulative IPC: 0.362975 (Simulation time: 0 hr 7 min 59 sec) 
Heartbeat CPU 0 instructions: 23000000 cycles: 40041022 heartbeat IPC: 0.354188 cumulative IPC: 0.362284 (Simulation time: 0 hr 8 min 18 sec) 
Heartbeat CPU 0 instructions: 24000000 cycles: 42990306 heartbeat IPC: 0.339065 cumulative IPC: 0.36052 (Simulation time: 0 hr 8 min 39 sec) 
Heartbeat CPU 0 instructions: 25000003 cycles: 45938055 heartbeat IPC: 0.339243 cumulative IPC: 0.359019 (Simulation time: 0 hr 9 min 10 sec) 
Heartbeat CPU 0 instructions: 26000001 cycles: 48261789 heartbeat IPC: 0.430341 cumulative IPC: 0.362777 (Simulation time: 0 hr 9 min 32 sec) 
Heartbeat CPU 0 instructions: 27000002 cycles: 52630472 heartbeat IPC: 0.228902 cumulative IPC: 0.350711 (Simulation time: 0 hr 10 min 3 sec) 
Heartbeat CPU 0 instructions: 28000000 cycles: 54106294 heartbeat IPC: 0.677587 cumulative IPC: 0.360369 (Simulation time: 0 hr 10 min 19 sec) 
Heartbeat CPU 0 instructions: 29000002 cycles: 56146407 heartbeat IPC: 0.49017 cumulative IPC: 0.365463 (Simulation time: 0 hr 10 min 37 sec) 
Heartbeat CPU 0 instructions: 30000000 cycles: 59339960 heartbeat IPC: 0.31313 cumulative IPC: 0.362434 (Simulation time: 0 hr 11 min 2 sec) 
Heartbeat CPU 0 instructions: 31000001 cycles: 62180438 heartbeat IPC: 0.352054 cumulative IPC: 0.361926 (Simulation time: 0 hr 11 min 22 sec) 
Heartbeat CPU 0 instructions: 32000000 cycles: 65029470 heartbeat IPC: 0.350996 cumulative IPC: 0.361415 (Simulation time: 0 hr 11 min 41 sec) 
Heartbeat CPU 0 instructions: 33000001 cycles: 69039063 heartbeat IPC: 0.249402 cumulative IPC: 0.354492 (Simulation time: 0 hr 12 min 15 sec) 
Heartbeat CPU 0 instructions: 34000003 cycles: 71362906 heartbeat IPC: 0.430323 cumulative IPC: 0.357114 (Simulation time: 0 hr 12 min 42 sec) 
Heartbeat CPU 0 instructions: 35000003 cycles: 75186662 heartbeat IPC: 0.261523 cumulative IPC: 0.351968 (Simulation time: 0 hr 13 min 11 sec) 
Heartbeat CPU 0 instructions: 36000000 cycles: 76648989 heartbeat IPC: 0.683839 cumulative IPC: 0.358663 (Simulation time: 0 hr 13 min 28 sec) 
Heartbeat CPU 0 instructions: 37000000 cycles: 79516245 heartbeat IPC: 0.348766 cumulative IPC: 0.358286 (Simulation time: 0 hr 13 min 51 sec) 
Heartbeat CPU 0 instructions: 38000001 cycles: 82206718 heartbeat IPC: 0.371682 cumulative IPC: 0.358748 (Simulation time: 0 hr 14 min 13 sec) 
Heartbeat CPU 0 instructions: 39000003 cycles: 85108188 heartbeat IPC: 0.344654 cumulative IPC: 0.358243 (Simulation time: 0 hr 14 min 33 sec) 
Heartbeat CPU 0 instructions: 40000000 cycles: 88329524 heartbeat IPC: 0.310429 cumulative IPC: 0.356413 (Simulation time: 0 hr 14 min 57 sec) 
Heartbeat CPU 0 instructions: 41000001 cycles: 91009666 heartbeat IPC: 0.373115 cumulative IPC: 0.356929 (Simulation time: 0 hr 15 min 24 sec) 
Heartbeat CPU 0 instructions: 42000003 cycles: 93156552 heartbeat IPC: 0.465792 cumulative IPC: 0.359555 (Simulation time: 0 hr 15 min 48 sec) 
Heartbeat CPU 0 instructions: 43000000 cycles: 97480846 heartbeat IPC: 0.231251 cumulative IPC: 0.353609 (Simulation time: 0 hr 16 min 21 sec) 
Heartbeat CPU 0 instructions: 44000000 cycles: 98945365 heartbeat IPC: 0.682818 cumulative IPC: 0.358696 (Simulation time: 0 hr 16 min 37 sec) 
Heartbeat CPU 0 instructions: 45000003 cycles: 101400351 heartbeat IPC: 0.407336 cumulative IPC: 0.359924 (Simulation time: 0 hr 16 min 58 sec) 
Heartbeat CPU 0 instructions: 46000003 cycles: 104371934 heartbeat IPC: 0.336521 cumulative IPC: 0.35923 (Simulation time: 0 hr 17 min 25 sec) 
Heartbeat CPU 0 instructions: 47000001 cycles: 107192604 heartbeat IPC: 0.354525 cumulative IPC: 0.359101 (Simulation time: 0 hr 17 min 45 sec) 
Heartbeat CPU 0 instructions: 48000000 cycles: 110130445 heartbeat IPC: 0.340386 cumulative IPC: 0.358582 (Simulation time: 0 hr 18 min 6 sec) 
Heartbeat CPU 0 instructions: 49000003 cycles: 113783450 heartbeat IPC: 0.273748 cumulative IPC: 0.355755 (Simulation time: 0 hr 18 min 40 sec) 
Heartbeat CPU 0 instructions: 50000003 cycles: 119860669 heartbeat IPC: 0.164549 cumulative IPC: 0.345712 (Simulation time: 0 hr 19 min 13 sec) 
Heartbeat CPU 0 instructions: 51000002 cycles: 122431681 heartbeat IPC: 0.388952 cumulative IPC: 0.346652 (Simulation time: 0 hr 19 min 44 sec) 
Heartbeat CPU 0 instructions: 52000000 cycles: 126867127 heartbeat IPC: 0.225456 cumulative IPC: 0.342272 (Simulation time: 0 hr 20 min 13 sec) 
Heartbeat CPU 0 instructions: 53000000 cycles: 129984618 heartbeat IPC: 0.320771 cumulative IPC: 0.341739 (Simulation time: 0 hr 20 min 42 sec) 
Heartbeat CPU 0 instructions: 54000000 cycles: 132875524 heartbeat IPC: 0.345912 cumulative IPC: 0.341833 (Simulation time: 0 hr 21 min 12 sec) 
Heartbeat CPU 0 instructions: 55000002 cycles: 138192578 heartbeat IPC: 0.188074 cumulative IPC: 0.335733 (Simulation time: 0 hr 21 min 42 sec) 
Heartbeat CPU 0 instructions: 56000000 cycles: 145140008 heartbeat IPC: 0.143938 cumulative IPC: 0.326282 (Simulation time: 0 hr 22 min 15 sec) 
Heartbeat CPU 0 instructions: 57000003 cycles: 149296007 heartbeat IPC: 0.240617 cumulative IPC: 0.323829 (Simulation time: 0 hr 22 min 42 sec) 
Heartbeat CPU 0 instructions: 58000000 cycles: 153134397 heartbeat IPC: 0.260525 cumulative IPC: 0.322198 (Simulation time: 0 hr 23 min 10 sec) 
Heartbeat CPU 0 instructions: 59000002 cycles: 155118936 heartbeat IPC: 0.503896 cumulative IPC: 0.324586 (Simulation time: 0 hr 23 min 35 sec) 
Heartbeat CPU 0 instructions: 60000000 cycles: 156971367 heartbeat IPC: 0.53983 cumulative IPC: 0.327196 (Simulation time: 0 hr 23 min 58 sec) 
Heartbeat CPU 0 instructions: 61000002 cycles: 161550015 heartbeat IPC: 0.218406 cumulative IPC: 0.324031 (Simulation time: 0 hr 24 min 30 sec) 
Heartbeat CPU 0 instructions: 62000002 cycles: 165479584 heartbeat IPC: 0.254481 cumulative IPC: 0.322337 (Simulation time: 0 hr 25 min 2 sec) 
Heartbeat CPU 0 instructions: 63000002 cycles: 167783448 heartbeat IPC: 0.434053 cumulative IPC: 0.32391 (Simulation time: 0 hr 25 min 28 sec) 
Heartbeat CPU 0 instructions: 64000000 cycles: 170406422 heartbeat IPC: 0.381246 cumulative IPC: 0.324814 (Simulation time: 0 hr 25 min 50 sec) 
Heartbeat CPU 0 instructions: 65000000 cycles: 174779979 heartbeat IPC: 0.228647 cumulative IPC: 0.322349 (Simulation time: 0 hr 26 min 23 sec) 
Heartbeat CPU 0 instructions: 66000001 cycles: 176260429 heartbeat IPC: 0.675471 cumulative IPC: 0.325387 (Simulation time: 0 hr 26 min 39 sec) 
Heartbeat CPU 0 instructions: 67000000 cycles: 177710018 heartbeat IPC: 0.68985 cumulative IPC: 0.328431 (Simulation time: 0 hr 26 min 58 sec) 
Heartbeat CPU 0 instructions: 68000000 cycles: 181313354 heartbeat IPC: 0.277521 cumulative IPC: 0.327395 (Simulation time: 0 hr 27 min 25 sec) 
Heartbeat CPU 0 instructions: 69000000 cycles: 184153972 heartbeat IPC: 0.352036 cumulative IPC: 0.327784 (Simulation time: 0 hr 27 min 45 sec) 
Heartbeat CPU 0 instructions: 70000001 cycles: 187000766 heartbeat IPC: 0.351273 cumulative IPC: 0.32815 (Simulation time: 0 hr 28 min 5 sec) 
Heartbeat CPU 0 instructions: 71000000 cycles: 189756096 heartbeat IPC: 0.362933 cumulative IPC: 0.328666 (Simulation time: 0 hr 28 min 33 sec) 
Heartbeat CPU 0 instructions: 72000000 cycles: 192849754 heartbeat IPC: 0.323242 cumulative IPC: 0.328577 (Simulation time: 0 hr 28 min 57 sec) 
Heartbeat CPU 0 instructions: 73000002 cycles: 196414942 heartbeat IPC: 0.280491 cumulative IPC: 0.327686 (Simulation time: 0 hr 29 min 30 sec) 
Heartbeat CPU 0 instructions: 74000000 cycles: 198717780 heartbeat IPC: 0.434246 cumulative IPC: 0.328947 (Simulation time: 0 hr 29 min 51 sec) 
Heartbeat CPU 0 instructions: 75000002 cycles: 200168119 heartbeat IPC: 0.689495 cumulative IPC: 0.331615 (Simulation time: 0 hr 30 min 7 sec) 
Heartbeat CPU 0 instructions: 76000000 cycles: 203653379 heartbeat IPC: 0.286922 cumulative IPC: 0.330834 (Simulation time: 0 hr 30 min 32 sec) 
Heartbeat CPU 0 instructions: 77000000 cycles: 206366325 heartbeat IPC: 0.368603 cumulative IPC: 0.331341 (Simulation time: 0 hr 30 min 51 sec) 
Heartbeat CPU 0 instructions: 78000003 cycles: 209233010 heartbeat IPC: 0.348836 cumulative IPC: 0.331585 (Simulation time: 0 hr 31 min 9 sec) 
Heartbeat CPU 0 instructions: 79000001 cycles: 212794990 heartbeat IPC: 0.280742 cumulative IPC: 0.330717 (Simulation time: 0 hr 31 min 37 sec) 
Heartbeat CPU 0 instructions: 80000000 cycles: 215839482 heartbeat IPC: 0.328462 cumulative IPC: 0.330685 (Simulation time: 0 hr 32 min 1 sec) 
Heartbeat CPU 0 instructions: 81000003 cycles: 219759574 heartbeat IPC: 0.255097 cumulative IPC: 0.32931 (Simulation time: 0 hr 32 min 32 sec) 
Heartbeat CPU 0 instructions: 82000000 cycles: 221729001 heartbeat IPC: 0.50776 cumulative IPC: 0.330926 (Simulation time: 0 hr 32 min 48 sec) 
Heartbeat CPU 0 instructions: 83000001 cycles: 223174532 heartbeat IPC: 0.691788 cumulative IPC: 0.333307 (Simulation time: 0 hr 33 min 4 sec) 
Heartbeat CPU 0 instructions: 84000000 cycles: 226757510 heartbeat IPC: 0.279097 cumulative IPC: 0.332435 (Simulation time: 0 hr 33 min 27 sec) 
Heartbeat CPU 0 instructions: 85000002 cycles: 229416526 heartbeat IPC: 0.37608 cumulative IPC: 0.33295 (Simulation time: 0 hr 33 min 45 sec) 
Heartbeat CPU 0 instructions: 86000000 cycles: 232369305 heartbeat IPC: 0.338663 cumulative IPC: 0.333024 (Simulation time: 0 hr 34 min 4 sec) 
Heartbeat CPU 0 instructions: 87000000 cycles: 235881777 heartbeat IPC: 0.2847 cumulative IPC: 0.332292 (Simulation time: 0 hr 34 min 31 sec) 
Heartbeat CPU 0 instructions: 88000000 cycles: 238440240 heartbeat IPC: 0.39086 cumulative IPC: 0.332931 (Simulation time: 0 hr 34 min 59 sec) 
Heartbeat CPU 0 instructions: 89000001 cycles: 242790313 heartbeat IPC: 0.229881 cumulative IPC: 0.331053 (Simulation time: 0 hr 35 min 29 sec) 
Heartbeat CPU 0 instructions: 90000002 cycles: 244267152 heartbeat IPC: 0.677123 cumulative IPC: 0.333181 (Simulation time: 0 hr 35 min 44 sec) 
Heartbeat CPU 0 instructions: 91000000 cycles: 245818836 heartbeat IPC: 0.64446 cumulative IPC: 0.33518 (Simulation time: 0 hr 35 min 59 sec) 
Heartbeat CPU 0 instructions: 92000000 cycles: 249313034 heartbeat IPC: 0.286189 cumulative IPC: 0.334482 (Simulation time: 0 hr 36 min 22 sec) 
Heartbeat CPU 0 instructions: 93000000 cycles: 252202177 heartbeat IPC: 0.346123 cumulative IPC: 0.334617 (Simulation time: 0 hr 36 min 40 sec) 
Heartbeat CPU 0 instructions: 94000001 cycles: 255033919 heartbeat IPC: 0.35314 cumulative IPC: 0.334826 (Simulation time: 0 hr 36 min 57 sec) 
Heartbeat CPU 0 instructions: 95000003 cycles: 258920003 heartbeat IPC: 0.257329 cumulative IPC: 0.333644 (Simulation time: 0 hr 37 min 22 sec) 
Heartbeat CPU 0 instructions: 96000000 cycles: 261108536 heartbeat IPC: 0.456926 cumulative IPC: 0.334694 (Simulation time: 0 hr 37 min 41 sec) 
Heartbeat CPU 0 instructions: 97000003 cycles: 265217949 heartbeat IPC: 0.243344 cumulative IPC: 0.333256 (Simulation time: 0 hr 38 min 4 sec) 
Heartbeat CPU 0 instructions: 98000003 cycles: 266681670 heartbeat IPC: 0.68319 cumulative IPC: 0.335207 (Simulation time: 0 hr 38 min 17 sec) 
Heartbeat CPU 0 instructions: 99000000 cycles: 269316626 heartbeat IPC: 0.379512 cumulative IPC: 0.335648 (Simulation time: 0 hr 38 min 32 sec) 
Heartbeat CPU 0 instructions: 100000000 cycles: 272199838 heartbeat IPC: 0.346835 cumulative IPC: 0.335768 (Simulation time: 0 hr 38 min 49 sec) 
Heartbeat CPU 0 instructions: 101000001 cycles: 275026687 heartbeat IPC: 0.353751 cumulative IPC: 0.335956 (Simulation time: 0 hr 39 min 2 sec) 
Heartbeat CPU 0 instructions: 102000000 cycles: 278079317 heartbeat IPC: 0.327586 cumulative IPC: 0.335862 (Simulation time: 0 hr 39 min 16 sec) 
Heartbeat CPU 0 instructions: 103000002 cycles: 281819318 heartbeat IPC: 0.26738 cumulative IPC: 0.33494 (Simulation time: 0 hr 39 min 35 sec) 
Heartbeat CPU 0 instructions: 104000000 cycles: 284585178 heartbeat IPC: 0.36155 cumulative IPC: 0.335202 (Simulation time: 0 hr 39 min 54 sec) 
Heartbeat CPU 0 instructions: 105000000 cycles: 287621581 heartbeat IPC: 0.329337 cumulative IPC: 0.33514 (Simulation time: 0 hr 40 min 9 sec) 
Heartbeat CPU 0 instructions: 106000001 cycles: 289073640 heartbeat IPC: 0.688678 cumulative IPC: 0.336941 (Simulation time: 0 hr 40 min 19 sec) 
Heartbeat CPU 0 instructions: 107000001 cycles: 292391286 heartbeat IPC: 0.301419 cumulative IPC: 0.336532 (Simulation time: 0 hr 40 min 35 sec) 
Heartbeat CPU 0 instructions: 108000000 cycles: 294872058 heartbeat IPC: 0.4031 cumulative IPC: 0.3371 (Simulation time: 0 hr 40 min 47 sec) 
Heartbeat CPU 0 instructions: 109000003 cycles: 297768955 heartbeat IPC: 0.345198 cumulative IPC: 0.33718 (Simulation time: 0 hr 40 min 59 sec) 
Heartbeat CPU 0 instructions: 110000001 cycles: 301212367 heartbeat IPC: 0.290409 cumulative IPC: 0.336638 (Simulation time: 0 hr 41 min 19 sec) 
Finished CPU 0 instructions: 100000003 cycles: 297054824 cummulative IPC: 0.336638 (Simulation time: 0 hr 41 min 19 sec) 

ChampSim completed all CPUs

Region of Interest Statistics

CPU 0 cummulative IPC: 0.336638 instructions: 100000003 cycles: 297054824
LLC TOTAL     ACCESS:    6641006  HIT:     433994  MISS:    6207012
LLC LOAD      ACCESS:    1735092  HIT:      99561  MISS:    1635531
LLC RFO       ACCESS:     658482  HIT:      28265  MISS:     630217
LLC PREFETCH  ACCESS:    2686810  HIT:     120798  MISS:    2566012
LLC WRITEBACK ACCESS:    1560622  HIT:     185370  MISS:    1375252
