
*** ChampSim Multicore Out-of-Order Simulator ***

Warmup Instructions: 10000000
Simulation Instructions: 100000000
Configuration: 2
Number of CPUs: 1
LLC sets: 2048
LLC ways: 16
Off-chip DRAM Channels: 1 Width: 64-bit Data Rate: 1600 MT/s

CPU 0 runs /datasets/cs240c-wi22-a00-public/data/Assignment2-gz/sphinx3_1339B.trace.gz
CPU 0 L1D next line prefetcher
CPU 0 L2C IP-based stride prefetcher
Heartbeat CPU 0 instructions: 1000000 cycles: 339022 heartbeat IPC: 2.94966 cumulative IPC: 2.94966 (Simulation time: 0 hr 0 min 18 sec) 
Heartbeat CPU 0 instructions: 2000001 cycles: 693445 heartbeat IPC: 2.82149 cumulative IPC: 2.88415 (Simulation time: 0 hr 0 min 35 sec) 
Heartbeat CPU 0 instructions: 3000000 cycles: 1084610 heartbeat IPC: 2.55646 cumulative IPC: 2.76597 (Simulation time: 0 hr 0 min 53 sec) 
Heartbeat CPU 0 instructions: 4000000 cycles: 1530030 heartbeat IPC: 2.24507 cumulative IPC: 2.61433 (Simulation time: 0 hr 1 min 11 sec) 
Heartbeat CPU 0 instructions: 5000003 cycles: 1869053 heartbeat IPC: 2.94966 cumulative IPC: 2.67515 (Simulation time: 0 hr 1 min 29 sec) 
Heartbeat CPU 0 instructions: 6000002 cycles: 2253269 heartbeat IPC: 2.6027 cumulative IPC: 2.6628 (Simulation time: 0 hr 1 min 47 sec) 
Heartbeat CPU 0 instructions: 7000001 cycles: 2717019 heartbeat IPC: 2.15633 cumulative IPC: 2.57635 (Simulation time: 0 hr 2 min 5 sec) 
Heartbeat CPU 0 instructions: 8000000 cycles: 3055903 heartbeat IPC: 2.95086 cumulative IPC: 2.61788 (Simulation time: 0 hr 2 min 22 sec) 
Heartbeat CPU 0 instructions: 9000003 cycles: 3412582 heartbeat IPC: 2.80365 cumulative IPC: 2.6373 (Simulation time: 0 hr 2 min 40 sec) 
Heartbeat CPU 0 instructions: 10000001 cycles: 3799392 heartbeat IPC: 2.58524 cumulative IPC: 2.632 (Simulation time: 0 hr 2 min 59 sec) 

Warmup complete CPU 0 instructions: 10000001 cycles: 3799392 (Simulation time: 0 hr 2 min 59 sec) 

Heartbeat CPU 0 instructions: 11000001 cycles: 4831632 heartbeat IPC: 0.968767 cumulative IPC: 0.968767 (Simulation time: 0 hr 3 min 20 sec) 
Heartbeat CPU 0 instructions: 12000000 cycles: 5740126 heartbeat IPC: 1.10072 cumulative IPC: 1.03054 (Simulation time: 0 hr 3 min 40 sec) 
Heartbeat CPU 0 instructions: 13000000 cycles: 7405038 heartbeat IPC: 0.600632 cumulative IPC: 0.832028 (Simulation time: 0 hr 4 min 1 sec) 
Heartbeat CPU 0 instructions: 14000000 cycles: 8467743 heartbeat IPC: 0.940995 cumulative IPC: 0.856833 (Simulation time: 0 hr 4 min 21 sec) 
Heartbeat CPU 0 instructions: 15000001 cycles: 9399072 heartbeat IPC: 1.07374 cumulative IPC: 0.892908 (Simulation time: 0 hr 4 min 43 sec) 
Heartbeat CPU 0 instructions: 16000000 cycles: 10672559 heartbeat IPC: 0.785245 cumulative IPC: 0.87296 (Simulation time: 0 hr 5 min 4 sec) 
Heartbeat CPU 0 instructions: 17000001 cycles: 12238672 heartbeat IPC: 0.638524 cumulative IPC: 0.829455 (Simulation time: 0 hr 5 min 26 sec) 
Heartbeat CPU 0 instructions: 18000003 cycles: 13347149 heartbeat IPC: 0.90214 cumulative IPC: 0.837893 (Simulation time: 0 hr 5 min 51 sec) 
Heartbeat CPU 0 instructions: 19000002 cycles: 14326945 heartbeat IPC: 1.02062 cumulative IPC: 0.8549 (Simulation time: 0 hr 6 min 12 sec) 
Heartbeat CPU 0 instructions: 20000000 cycles: 15244755 heartbeat IPC: 1.08955 cumulative IPC: 0.873716 (Simulation time: 0 hr 6 min 33 sec) 
Heartbeat CPU 0 instructions: 21000000 cycles: 16764031 heartbeat IPC: 0.658208 cumulative IPC: 0.848462 (Simulation time: 0 hr 6 min 56 sec) 
Heartbeat CPU 0 instructions: 22000000 cycles: 17972251 heartbeat IPC: 0.827664 cumulative IPC: 0.846689 (Simulation time: 0 hr 7 min 17 sec) 
Heartbeat CPU 0 instructions: 23000003 cycles: 18895304 heartbeat IPC: 1.08336 cumulative IPC: 0.86116 (Simulation time: 0 hr 7 min 37 sec) 
Heartbeat CPU 0 instructions: 24000000 cycles: 19974107 heartbeat IPC: 0.926951 cumulative IPC: 0.865548 (Simulation time: 0 hr 7 min 57 sec) 
Heartbeat CPU 0 instructions: 25000001 cycles: 21165774 heartbeat IPC: 0.839161 cumulative IPC: 0.863738 (Simulation time: 0 hr 8 min 18 sec) 
Heartbeat CPU 0 instructions: 26000003 cycles: 22055718 heartbeat IPC: 1.12367 cumulative IPC: 0.876409 (Simulation time: 0 hr 8 min 38 sec) 
Heartbeat CPU 0 instructions: 27000000 cycles: 22958352 heartbeat IPC: 1.10787 cumulative IPC: 0.887313 (Simulation time: 0 hr 8 min 58 sec) 
Heartbeat CPU 0 instructions: 28000000 cycles: 24161066 heartbeat IPC: 0.831453 cumulative IPC: 0.884014 (Simulation time: 0 hr 9 min 19 sec) 
Heartbeat CPU 0 instructions: 29000003 cycles: 25089393 heartbeat IPC: 1.07721 cumulative IPC: 0.892438 (Simulation time: 0 hr 9 min 40 sec) 
Heartbeat CPU 0 instructions: 30000000 cycles: 25978841 heartbeat IPC: 1.12429 cumulative IPC: 0.901736 (Simulation time: 0 hr 9 min 59 sec) 
Heartbeat CPU 0 instructions: 31000002 cycles: 27118673 heartbeat IPC: 0.877324 cumulative IPC: 0.900542 (Simulation time: 0 hr 10 min 21 sec) 
Heartbeat CPU 0 instructions: 32000000 cycles: 28100954 heartbeat IPC: 1.01804 cumulative IPC: 0.905292 (Simulation time: 0 hr 10 min 42 sec) 
Heartbeat CPU 0 instructions: 33000001 cycles: 28992518 heartbeat IPC: 1.12163 cumulative IPC: 0.912947 (Simulation time: 0 hr 11 min 3 sec) 
Heartbeat CPU 0 instructions: 34000001 cycles: 30601686 heartbeat IPC: 0.621439 cumulative IPC: 0.895446 (Simulation time: 0 hr 11 min 24 sec) 
Heartbeat CPU 0 instructions: 35000002 cycles: 31715637 heartbeat IPC: 0.897706 cumulative IPC: 0.895536 (Simulation time: 0 hr 11 min 46 sec) 
Heartbeat CPU 0 instructions: 36000000 cycles: 32647383 heartbeat IPC: 1.07325 cumulative IPC: 0.901276 (Simulation time: 0 hr 12 min 7 sec) 
Heartbeat CPU 0 instructions: 37000003 cycles: 33811849 heartbeat IPC: 0.858765 cumulative IPC: 0.899626 (Simulation time: 0 hr 12 min 29 sec) 
Heartbeat CPU 0 instructions: 38000000 cycles: 35308910 heartbeat IPC: 0.667973 cumulative IPC: 0.88862 (Simulation time: 0 hr 12 min 52 sec) 
Heartbeat CPU 0 instructions: 39000003 cycles: 36308791 heartbeat IPC: 1.00012 cumulative IPC: 0.89205 (Simulation time: 0 hr 13 min 13 sec) 
Heartbeat CPU 0 instructions: 40000000 cycles: 37215442 heartbeat IPC: 1.10296 cumulative IPC: 0.897772 (Simulation time: 0 hr 13 min 33 sec) 
Heartbeat CPU 0 instructions: 41000001 cycles: 38777103 heartbeat IPC: 0.640345 cumulative IPC: 0.886279 (Simulation time: 0 hr 13 min 58 sec) 
Heartbeat CPU 0 instructions: 42000002 cycles: 39846541 heartbeat IPC: 0.935072 cumulative IPC: 0.887726 (Simulation time: 0 hr 14 min 20 sec) 
Heartbeat CPU 0 instructions: 43000001 cycles: 40774595 heartbeat IPC: 1.07752 cumulative IPC: 0.89249 (Simulation time: 0 hr 14 min 41 sec) 
Heartbeat CPU 0 instructions: 44000000 cycles: 42045116 heartbeat IPC: 0.787078 cumulative IPC: 0.888988 (Simulation time: 0 hr 15 min 1 sec) 
Heartbeat CPU 0 instructions: 45000002 cycles: 43340353 heartbeat IPC: 0.772061 cumulative IPC: 0.885158 (Simulation time: 0 hr 15 min 22 sec) 
Heartbeat CPU 0 instructions: 46000003 cycles: 44244218 heartbeat IPC: 1.10636 cumulative IPC: 0.890102 (Simulation time: 0 hr 15 min 42 sec) 
Heartbeat CPU 0 instructions: 47000001 cycles: 45156995 heartbeat IPC: 1.09556 cumulative IPC: 0.894636 (Simulation time: 0 hr 16 min 1 sec) 
Heartbeat CPU 0 instructions: 48000000 cycles: 46399005 heartbeat IPC: 0.805146 cumulative IPC: 0.892027 (Simulation time: 0 hr 16 min 21 sec) 
Heartbeat CPU 0 instructions: 49000000 cycles: 47382096 heartbeat IPC: 1.0172 cumulative IPC: 0.89485 (Simulation time: 0 hr 16 min 42 sec) 
Heartbeat CPU 0 instructions: 50000000 cycles: 48275340 heartbeat IPC: 1.11951 cumulative IPC: 0.899363 (Simulation time: 0 hr 17 min 2 sec) 
Heartbeat CPU 0 instructions: 51000001 cycles: 49821556 heartbeat IPC: 0.646741 cumulative IPC: 0.890875 (Simulation time: 0 hr 17 min 24 sec) 
Heartbeat CPU 0 instructions: 52000000 cycles: 50812229 heartbeat IPC: 1.00941 cumulative IPC: 0.893373 (Simulation time: 0 hr 17 min 45 sec) 
Heartbeat CPU 0 instructions: 53000002 cycles: 51729685 heartbeat IPC: 1.08997 cumulative IPC: 0.897136 (Simulation time: 0 hr 18 min 5 sec) 
Heartbeat CPU 0 instructions: 54000003 cycles: 53161325 heartbeat IPC: 0.6985 cumulative IPC: 0.891375 (Simulation time: 0 hr 18 min 28 sec) 
Heartbeat CPU 0 instructions: 55000001 cycles: 54263502 heartbeat IPC: 0.907293 cumulative IPC: 0.891723 (Simulation time: 0 hr 18 min 49 sec) 
Heartbeat CPU 0 instructions: 56000000 cycles: 55191089 heartbeat IPC: 1.07806 cumulative IPC: 0.895086 (Simulation time: 0 hr 19 min 10 sec) 
Heartbeat CPU 0 instructions: 57000000 cycles: 56318378 heartbeat IPC: 0.887084 cumulative IPC: 0.894914 (Simulation time: 0 hr 19 min 31 sec) 
Heartbeat CPU 0 instructions: 58000000 cycles: 57730276 heartbeat IPC: 0.708266 cumulative IPC: 0.890028 (Simulation time: 0 hr 19 min 52 sec) 
Heartbeat CPU 0 instructions: 59000001 cycles: 58663883 heartbeat IPC: 1.07112 cumulative IPC: 0.89311 (Simulation time: 0 hr 20 min 13 sec) 
Heartbeat CPU 0 instructions: 60000000 cycles: 59567947 heartbeat IPC: 1.10612 cumulative IPC: 0.896563 (Simulation time: 0 hr 20 min 34 sec) 
Heartbeat CPU 0 instructions: 61000000 cycles: 61251120 heartbeat IPC: 0.594116 cumulative IPC: 0.887702 (Simulation time: 0 hr 20 min 58 sec) 
Heartbeat CPU 0 instructions: 62000002 cycles: 62395630 heartbeat IPC: 0.873738 cumulative IPC: 0.887429 (Simulation time: 0 hr 21 min 20 sec) 
Heartbeat CPU 0 instructions: 63000003 cycles: 63385841 heartbeat IPC: 1.00989 cumulative IPC: 0.889464 (Simulation time: 0 hr 21 min 51 sec) 
Heartbeat CPU 0 instructions: 64000000 cycles: 64307030 heartbeat IPC: 1.08555 cumulative IPC: 0.892449 (Simulation time: 0 hr 22 min 15 sec) 
Heartbeat CPU 0 instructions: 65000000 cycles: 65616667 heartbeat IPC: 0.76357 cumulative IPC: 0.889719 (Simulation time: 0 hr 22 min 36 sec) 
Heartbeat CPU 0 instructions: 66000001 cycles: 66852473 heartbeat IPC: 0.809189 cumulative IPC: 0.888141 (Simulation time: 0 hr 22 min 57 sec) 
Heartbeat CPU 0 instructions: 67000000 cycles: 67771976 heartbeat IPC: 1.08754 cumulative IPC: 0.891007 (Simulation time: 0 hr 23 min 17 sec) 
Heartbeat CPU 0 instructions: 68000000 cycles: 68774305 heartbeat IPC: 0.997676 cumulative IPC: 0.892652 (Simulation time: 0 hr 23 min 37 sec) 
Heartbeat CPU 0 instructions: 69000003 cycles: 70238112 heartbeat IPC: 0.683152 cumulative IPC: 0.888036 (Simulation time: 0 hr 23 min 59 sec) 
Heartbeat CPU 0 instructions: 70000001 cycles: 71236968 heartbeat IPC: 1.00114 cumulative IPC: 0.889712 (Simulation time: 0 hr 24 min 20 sec) 
Heartbeat CPU 0 instructions: 71000001 cycles: 72141702 heartbeat IPC: 1.1053 cumulative IPC: 0.892566 (Simulation time: 0 hr 24 min 41 sec) 
Heartbeat CPU 0 instructions: 72000000 cycles: 73721551 heartbeat IPC: 0.632971 cumulative IPC: 0.8867 (Simulation time: 0 hr 25 min 2 sec) 
Heartbeat CPU 0 instructions: 73000001 cycles: 74719788 heartbeat IPC: 1.00177 cumulative IPC: 0.88832 (Simulation time: 0 hr 25 min 21 sec) 
Heartbeat CPU 0 instructions: 74000001 cycles: 75638030 heartbeat IPC: 1.08904 cumulative IPC: 0.890885 (Simulation time: 0 hr 25 min 41 sec) 
Heartbeat CPU 0 instructions: 75000003 cycles: 76998814 heartbeat IPC: 0.734872 cumulative IPC: 0.887985 (Simulation time: 0 hr 26 min 4 sec) 
Heartbeat CPU 0 instructions: 76000000 cycles: 78191395 heartbeat IPC: 0.838515 cumulative IPC: 0.887192 (Simulation time: 0 hr 26 min 23 sec) 
Heartbeat CPU 0 instructions: 77000002 cycles: 79118721 heartbeat IPC: 1.07837 cumulative IPC: 0.889546 (Simulation time: 0 hr 26 min 43 sec) 
Heartbeat CPU 0 instructions: 78000002 cycles: 80177746 heartbeat IPC: 0.944265 cumulative IPC: 0.890305 (Simulation time: 0 hr 27 min 3 sec) 
Heartbeat CPU 0 instructions: 79000001 cycles: 81576653 heartbeat IPC: 0.714843 cumulative IPC: 0.887149 (Simulation time: 0 hr 27 min 23 sec) 
Heartbeat CPU 0 instructions: 80000000 cycles: 82567144 heartbeat IPC: 1.0096 cumulative IPC: 0.888689 (Simulation time: 0 hr 27 min 43 sec) 
Heartbeat CPU 0 instructions: 81000001 cycles: 83471909 heartbeat IPC: 1.10526 cumulative IPC: 0.891148 (Simulation time: 0 hr 28 min 3 sec) 
Heartbeat CPU 0 instructions: 82000000 cycles: 85021709 heartbeat IPC: 0.645244 cumulative IPC: 0.886456 (Simulation time: 0 hr 28 min 24 sec) 
Heartbeat CPU 0 instructions: 83000001 cycles: 86021920 heartbeat IPC: 0.99979 cumulative IPC: 0.887835 (Simulation time: 0 hr 28 min 47 sec) 
Heartbeat CPU 0 instructions: 84000000 cycles: 86933626 heartbeat IPC: 1.09684 cumulative IPC: 0.890127 (Simulation time: 0 hr 29 min 12 sec) 
Heartbeat CPU 0 instructions: 85000002 cycles: 88378701 heartbeat IPC: 0.692007 cumulative IPC: 0.886742 (Simulation time: 0 hr 29 min 33 sec) 
Heartbeat CPU 0 instructions: 86000003 cycles: 89508918 heartbeat IPC: 0.884787 cumulative IPC: 0.886716 (Simulation time: 0 hr 29 min 53 sec) 
Heartbeat CPU 0 instructions: 87000001 cycles: 90439501 heartbeat IPC: 1.07459 cumulative IPC: 0.888734 (Simulation time: 0 hr 30 min 13 sec) 
Heartbeat CPU 0 instructions: 88000000 cycles: 91664574 heartbeat IPC: 0.816277 cumulative IPC: 0.887724 (Simulation time: 0 hr 30 min 33 sec) 
Heartbeat CPU 0 instructions: 89000000 cycles: 92995570 heartbeat IPC: 0.751317 cumulative IPC: 0.885688 (Simulation time: 0 hr 30 min 52 sec) 
Heartbeat CPU 0 instructions: 90000000 cycles: 93911831 heartbeat IPC: 1.09139 cumulative IPC: 0.88778 (Simulation time: 0 hr 31 min 11 sec) 
Heartbeat CPU 0 instructions: 91000000 cycles: 94830309 heartbeat IPC: 1.08876 cumulative IPC: 0.889808 (Simulation time: 0 hr 31 min 31 sec) 
Heartbeat CPU 0 instructions: 92000000 cycles: 96415715 heartbeat IPC: 0.630753 cumulative IPC: 0.885373 (Simulation time: 0 hr 31 min 52 sec) 
Heartbeat CPU 0 instructions: 93000001 cycles: 97409349 heartbeat IPC: 1.00641 cumulative IPC: 0.886658 (Simulation time: 0 hr 32 min 11 sec) 
Heartbeat CPU 0 instructions: 94000000 cycles: 98318052 heartbeat IPC: 1.10047 cumulative IPC: 0.888713 (Simulation time: 0 hr 32 min 30 sec) 
Heartbeat CPU 0 instructions: 95000003 cycles: 99912441 heartbeat IPC: 0.627201 cumulative IPC: 0.884375 (Simulation time: 0 hr 32 min 51 sec) 
Heartbeat CPU 0 instructions: 96000000 cycles: 100945530 heartbeat IPC: 0.967968 cumulative IPC: 0.885264 (Simulation time: 0 hr 33 min 11 sec) 
Heartbeat CPU 0 instructions: 97000002 cycles: 101868501 heartbeat IPC: 1.08346 cumulative IPC: 0.887129 (Simulation time: 0 hr 33 min 30 sec) 
Heartbeat CPU 0 instructions: 98000000 cycles: 103181986 heartbeat IPC: 0.761332 cumulative IPC: 0.885467 (Simulation time: 0 hr 33 min 48 sec) 
Heartbeat CPU 0 instructions: 99000003 cycles: 104619995 heartbeat IPC: 0.695408 cumulative IPC: 0.882756 (Simulation time: 0 hr 34 min 8 sec) 
Heartbeat CPU 0 instructions: 100000000 cycles: 105549094 heartbeat IPC: 1.07631 cumulative IPC: 0.884523 (Simulation time: 0 hr 34 min 27 sec) 
Heartbeat CPU 0 instructions: 101000000 cycles: 106464497 heartbeat IPC: 1.09241 cumulative IPC: 0.886377 (Simulation time: 0 hr 34 min 44 sec) 
Heartbeat CPU 0 instructions: 102000001 cycles: 108277605 heartbeat IPC: 0.55154 cumulative IPC: 0.880566 (Simulation time: 0 hr 35 min 4 sec) 
Heartbeat CPU 0 instructions: 103000000 cycles: 109639427 heartbeat IPC: 0.73431 cumulative IPC: 0.878685 (Simulation time: 0 hr 35 min 23 sec) 
Heartbeat CPU 0 instructions: 104000000 cycles: 110743212 heartbeat IPC: 0.905974 cumulative IPC: 0.878966 (Simulation time: 0 hr 35 min 41 sec) 
Heartbeat CPU 0 instructions: 105000003 cycles: 111672493 heartbeat IPC: 1.0761 cumulative IPC: 0.880664 (Simulation time: 0 hr 35 min 58 sec) 
Heartbeat CPU 0 instructions: 106000000 cycles: 112636944 heartbeat IPC: 1.03686 cumulative IPC: 0.882048 (Simulation time: 0 hr 36 min 14 sec) 
Heartbeat CPU 0 instructions: 107000001 cycles: 114551435 heartbeat IPC: 0.522333 cumulative IPC: 0.87583 (Simulation time: 0 hr 36 min 32 sec) 
Heartbeat CPU 0 instructions: 108000000 cycles: 115667332 heartbeat IPC: 0.896139 cumulative IPC: 0.876033 (Simulation time: 0 hr 36 min 49 sec) 
Heartbeat CPU 0 instructions: 109000000 cycles: 116597340 heartbeat IPC: 1.07526 cumulative IPC: 0.877676 (Simulation time: 0 hr 37 min 6 sec) 
Heartbeat CPU 0 instructions: 110000003 cycles: 117900301 heartbeat IPC: 0.767485 cumulative IPC: 0.876417 (Simulation time: 0 hr 37 min 22 sec) 
Finished CPU 0 instructions: 100000002 cycles: 114100909 cummulative IPC: 0.876417 (Simulation time: 0 hr 37 min 22 sec) 

ChampSim completed all CPUs

Region of Interest Statistics

CPU 0 cummulative IPC: 0.876417 instructions: 100000002 cycles: 114100909
LLC TOTAL     ACCESS:    1573555  HIT:     117142  MISS:    1456413
LLC LOAD      ACCESS:     202255  HIT:      18212  MISS:     184043
LLC RFO       ACCESS:     111942  HIT:       9851  MISS:     102091
LLC PREFETCH  ACCESS:    1126207  HIT:      26967  MISS:    1099240
LLC WRITEBACK ACCESS:     133151  HIT:      62112  MISS:      71039
