
*** ChampSim Multicore Out-of-Order Simulator ***

Warmup Instructions: 10000000
Simulation Instructions: 100000000
Configuration: 2
Number of CPUs: 1
LLC sets: 2048
LLC ways: 16
Off-chip DRAM Channels: 1 Width: 64-bit Data Rate: 1600 MT/s

CPU 0 runs /datasets/cs240c-wi22-a00-public/data/Assignment2-gz/lbm_94B.trace.gz
CPU 0 L1D next line prefetcher
CPU 0 L2C IP-based stride prefetcher
Heartbeat CPU 0 instructions: 1000000 cycles: 422068 heartbeat IPC: 2.36929 cumulative IPC: 2.36929 (Simulation time: 0 hr 0 min 20 sec) 
Heartbeat CPU 0 instructions: 2000000 cycles: 812399 heartbeat IPC: 2.56193 cumulative IPC: 2.46184 (Simulation time: 0 hr 0 min 39 sec) 
Heartbeat CPU 0 instructions: 3000000 cycles: 1211540 heartbeat IPC: 2.50538 cumulative IPC: 2.47619 (Simulation time: 0 hr 0 min 57 sec) 
Heartbeat CPU 0 instructions: 4000000 cycles: 1631535 heartbeat IPC: 2.38098 cumulative IPC: 2.45168 (Simulation time: 0 hr 1 min 17 sec) 
Heartbeat CPU 0 instructions: 5000001 cycles: 2021787 heartbeat IPC: 2.56245 cumulative IPC: 2.47306 (Simulation time: 0 hr 1 min 36 sec) 
Heartbeat CPU 0 instructions: 6000000 cycles: 2422466 heartbeat IPC: 2.49576 cumulative IPC: 2.47681 (Simulation time: 0 hr 1 min 55 sec) 
Heartbeat CPU 0 instructions: 7000001 cycles: 2840617 heartbeat IPC: 2.39148 cumulative IPC: 2.46425 (Simulation time: 0 hr 2 min 13 sec) 
Heartbeat CPU 0 instructions: 8000000 cycles: 3230856 heartbeat IPC: 2.56253 cumulative IPC: 2.47612 (Simulation time: 0 hr 2 min 32 sec) 
Heartbeat CPU 0 instructions: 9000003 cycles: 3631892 heartbeat IPC: 2.49355 cumulative IPC: 2.47805 (Simulation time: 0 hr 2 min 50 sec) 
Heartbeat CPU 0 instructions: 10000000 cycles: 4048475 heartbeat IPC: 2.40047 cumulative IPC: 2.47007 (Simulation time: 0 hr 3 min 8 sec) 

Warmup complete CPU 0 instructions: 10000004 cycles: 4048476 (Simulation time: 0 hr 3 min 8 sec) 

Heartbeat CPU 0 instructions: 11000003 cycles: 5573574 heartbeat IPC: 0.655697 cumulative IPC: 0.655695 (Simulation time: 0 hr 3 min 30 sec) 
Heartbeat CPU 0 instructions: 12000000 cycles: 7190446 heartbeat IPC: 0.618476 cumulative IPC: 0.636542 (Simulation time: 0 hr 3 min 53 sec) 
Heartbeat CPU 0 instructions: 13000000 cycles: 8998349 heartbeat IPC: 0.553127 cumulative IPC: 0.606075 (Simulation time: 0 hr 4 min 18 sec) 
Heartbeat CPU 0 instructions: 14000000 cycles: 10480641 heartbeat IPC: 0.674631 cumulative IPC: 0.621874 (Simulation time: 0 hr 4 min 40 sec) 
Heartbeat CPU 0 instructions: 15000003 cycles: 12104490 heartbeat IPC: 0.615823 cumulative IPC: 0.620654 (Simulation time: 0 hr 5 min 2 sec) 
Heartbeat CPU 0 instructions: 16000000 cycles: 13923343 heartbeat IPC: 0.549795 cumulative IPC: 0.607603 (Simulation time: 0 hr 5 min 26 sec) 
Heartbeat CPU 0 instructions: 17000001 cycles: 15395824 heartbeat IPC: 0.679127 cumulative IPC: 0.616884 (Simulation time: 0 hr 5 min 48 sec) 
Heartbeat CPU 0 instructions: 18000001 cycles: 17015932 heartbeat IPC: 0.617243 cumulative IPC: 0.616929 (Simulation time: 0 hr 6 min 11 sec) 
Heartbeat CPU 0 instructions: 19000000 cycles: 18823345 heartbeat IPC: 0.553276 cumulative IPC: 0.609142 (Simulation time: 0 hr 6 min 36 sec) 
Heartbeat CPU 0 instructions: 20000000 cycles: 20328662 heartbeat IPC: 0.664312 cumulative IPC: 0.614243 (Simulation time: 0 hr 6 min 58 sec) 
Heartbeat CPU 0 instructions: 21000001 cycles: 21924759 heartbeat IPC: 0.626529 cumulative IPC: 0.61534 (Simulation time: 0 hr 7 min 22 sec) 
Heartbeat CPU 0 instructions: 22000000 cycles: 23731972 heartbeat IPC: 0.553338 cumulative IPC: 0.609648 (Simulation time: 0 hr 7 min 46 sec) 
Heartbeat CPU 0 instructions: 23000000 cycles: 25256732 heartbeat IPC: 0.655841 cumulative IPC: 0.612969 (Simulation time: 0 hr 8 min 9 sec) 
Heartbeat CPU 0 instructions: 24000000 cycles: 26848070 heartbeat IPC: 0.628402 cumulative IPC: 0.614046 (Simulation time: 0 hr 8 min 32 sec) 
Heartbeat CPU 0 instructions: 25000000 cycles: 28633879 heartbeat IPC: 0.55997 cumulative IPC: 0.610118 (Simulation time: 0 hr 8 min 57 sec) 
Heartbeat CPU 0 instructions: 26000000 cycles: 30139020 heartbeat IPC: 0.66439 cumulative IPC: 0.613249 (Simulation time: 0 hr 9 min 19 sec) 
Heartbeat CPU 0 instructions: 27000002 cycles: 31701630 heartbeat IPC: 0.639956 cumulative IPC: 0.614758 (Simulation time: 0 hr 9 min 42 sec) 
Heartbeat CPU 0 instructions: 28000000 cycles: 33513222 heartbeat IPC: 0.552 cumulative IPC: 0.610899 (Simulation time: 0 hr 10 min 7 sec) 
Heartbeat CPU 0 instructions: 29000000 cycles: 35026185 heartbeat IPC: 0.660955 cumulative IPC: 0.613344 (Simulation time: 0 hr 10 min 29 sec) 
Heartbeat CPU 0 instructions: 30000000 cycles: 36599178 heartbeat IPC: 0.635731 cumulative IPC: 0.614426 (Simulation time: 0 hr 10 min 51 sec) 
Heartbeat CPU 0 instructions: 31000003 cycles: 38362751 heartbeat IPC: 0.567032 cumulative IPC: 0.61199 (Simulation time: 0 hr 11 min 15 sec) 
Heartbeat CPU 0 instructions: 32000000 cycles: 39866431 heartbeat IPC: 0.665033 cumulative IPC: 0.614217 (Simulation time: 0 hr 11 min 38 sec) 
Heartbeat CPU 0 instructions: 33000000 cycles: 41423287 heartbeat IPC: 0.64232 cumulative IPC: 0.615388 (Simulation time: 0 hr 12 min 0 sec) 
Heartbeat CPU 0 instructions: 34000003 cycles: 43143693 heartbeat IPC: 0.58126 cumulative IPC: 0.613886 (Simulation time: 0 hr 12 min 24 sec) 
Heartbeat CPU 0 instructions: 35000003 cycles: 44651542 heartbeat IPC: 0.663196 cumulative IPC: 0.615717 (Simulation time: 0 hr 12 min 47 sec) 
Heartbeat CPU 0 instructions: 36000000 cycles: 46207797 heartbeat IPC: 0.642566 cumulative IPC: 0.616708 (Simulation time: 0 hr 13 min 9 sec) 
Heartbeat CPU 0 instructions: 37000003 cycles: 47847413 heartbeat IPC: 0.609901 cumulative IPC: 0.616453 (Simulation time: 0 hr 13 min 34 sec) 
Heartbeat CPU 0 instructions: 38000001 cycles: 49387588 heartbeat IPC: 0.649276 cumulative IPC: 0.617568 (Simulation time: 0 hr 14 min 1 sec) 
Heartbeat CPU 0 instructions: 39000002 cycles: 50896913 heartbeat IPC: 0.662548 cumulative IPC: 0.619017 (Simulation time: 0 hr 14 min 25 sec) 
Heartbeat CPU 0 instructions: 40000000 cycles: 52542026 heartbeat IPC: 0.60786 cumulative IPC: 0.618639 (Simulation time: 0 hr 14 min 48 sec) 
Heartbeat CPU 0 instructions: 41000003 cycles: 54149525 heartbeat IPC: 0.622086 cumulative IPC: 0.618749 (Simulation time: 0 hr 15 min 11 sec) 
Heartbeat CPU 0 instructions: 42000000 cycles: 55637231 heartbeat IPC: 0.672174 cumulative IPC: 0.62029 (Simulation time: 0 hr 15 min 35 sec) 
Heartbeat CPU 0 instructions: 43000001 cycles: 57211444 heartbeat IPC: 0.635239 cumulative IPC: 0.620733 (Simulation time: 0 hr 16 min 0 sec) 
Heartbeat CPU 0 instructions: 44000000 cycles: 58841420 heartbeat IPC: 0.613505 cumulative IPC: 0.620518 (Simulation time: 0 hr 16 min 25 sec) 
Heartbeat CPU 0 instructions: 45000002 cycles: 60345218 heartbeat IPC: 0.664984 cumulative IPC: 0.621706 (Simulation time: 0 hr 16 min 49 sec) 
Heartbeat CPU 0 instructions: 46000003 cycles: 61902492 heartbeat IPC: 0.642148 cumulative IPC: 0.622256 (Simulation time: 0 hr 17 min 13 sec) 
Heartbeat CPU 0 instructions: 47000001 cycles: 63487162 heartbeat IPC: 0.631045 cumulative IPC: 0.62249 (Simulation time: 0 hr 17 min 36 sec) 
Heartbeat CPU 0 instructions: 48000000 cycles: 64999230 heartbeat IPC: 0.661345 cumulative IPC: 0.623454 (Simulation time: 0 hr 17 min 58 sec) 
Heartbeat CPU 0 instructions: 49000000 cycles: 66552052 heartbeat IPC: 0.643989 cumulative IPC: 0.623964 (Simulation time: 0 hr 18 min 21 sec) 
Heartbeat CPU 0 instructions: 50000003 cycles: 68126284 heartbeat IPC: 0.635232 cumulative IPC: 0.624241 (Simulation time: 0 hr 18 min 45 sec) 
Heartbeat CPU 0 instructions: 51000003 cycles: 69614072 heartbeat IPC: 0.672139 cumulative IPC: 0.625328 (Simulation time: 0 hr 19 min 7 sec) 
Heartbeat CPU 0 instructions: 52000000 cycles: 71132259 heartbeat IPC: 0.658678 cumulative IPC: 0.626083 (Simulation time: 0 hr 19 min 30 sec) 
Heartbeat CPU 0 instructions: 53000001 cycles: 72703644 heartbeat IPC: 0.636382 cumulative IPC: 0.626318 (Simulation time: 0 hr 19 min 53 sec) 
Heartbeat CPU 0 instructions: 54000000 cycles: 74219696 heartbeat IPC: 0.659607 cumulative IPC: 0.627038 (Simulation time: 0 hr 20 min 16 sec) 
Heartbeat CPU 0 instructions: 55000003 cycles: 75717276 heartbeat IPC: 0.667746 cumulative IPC: 0.627888 (Simulation time: 0 hr 20 min 38 sec) 
Heartbeat CPU 0 instructions: 56000000 cycles: 77281090 heartbeat IPC: 0.63946 cumulative IPC: 0.628135 (Simulation time: 0 hr 21 min 1 sec) 
Heartbeat CPU 0 instructions: 57000003 cycles: 78779084 heartbeat IPC: 0.667561 cumulative IPC: 0.628926 (Simulation time: 0 hr 21 min 24 sec) 
Heartbeat CPU 0 instructions: 58000003 cycles: 80291762 heartbeat IPC: 0.661079 cumulative IPC: 0.629564 (Simulation time: 0 hr 21 min 46 sec) 
Heartbeat CPU 0 instructions: 59000002 cycles: 81850746 heartbeat IPC: 0.641443 cumulative IPC: 0.629802 (Simulation time: 0 hr 22 min 8 sec) 
Heartbeat CPU 0 instructions: 60000000 cycles: 83351874 heartbeat IPC: 0.666164 cumulative IPC: 0.63049 (Simulation time: 0 hr 22 min 30 sec) 
Heartbeat CPU 0 instructions: 61000000 cycles: 84838386 heartbeat IPC: 0.672716 cumulative IPC: 0.631267 (Simulation time: 0 hr 22 min 53 sec) 
Heartbeat CPU 0 instructions: 62000000 cycles: 86343875 heartbeat IPC: 0.664236 cumulative IPC: 0.63187 (Simulation time: 0 hr 23 min 15 sec) 
Heartbeat CPU 0 instructions: 63000001 cycles: 87926288 heartbeat IPC: 0.631947 cumulative IPC: 0.631871 (Simulation time: 0 hr 23 min 39 sec) 
Heartbeat CPU 0 instructions: 64000000 cycles: 89417313 heartbeat IPC: 0.670679 cumulative IPC: 0.632549 (Simulation time: 0 hr 24 min 1 sec) 
Heartbeat CPU 0 instructions: 65000003 cycles: 90928630 heartbeat IPC: 0.661677 cumulative IPC: 0.633056 (Simulation time: 0 hr 24 min 23 sec) 
Heartbeat CPU 0 instructions: 66000002 cycles: 92489762 heartbeat IPC: 0.64056 cumulative IPC: 0.633188 (Simulation time: 0 hr 24 min 46 sec) 
Heartbeat CPU 0 instructions: 67000002 cycles: 93987726 heartbeat IPC: 0.667573 cumulative IPC: 0.633761 (Simulation time: 0 hr 25 min 8 sec) 
Heartbeat CPU 0 instructions: 68000000 cycles: 95481539 heartbeat IPC: 0.669427 cumulative IPC: 0.634344 (Simulation time: 0 hr 25 min 31 sec) 
Heartbeat CPU 0 instructions: 69000000 cycles: 96991602 heartbeat IPC: 0.662224 cumulative IPC: 0.634797 (Simulation time: 0 hr 25 min 55 sec) 
Heartbeat CPU 0 instructions: 70000001 cycles: 98573311 heartbeat IPC: 0.632228 cumulative IPC: 0.634754 (Simulation time: 0 hr 26 min 19 sec) 
Heartbeat CPU 0 instructions: 71000001 cycles: 100066799 heartbeat IPC: 0.669573 cumulative IPC: 0.635295 (Simulation time: 0 hr 26 min 42 sec) 
Heartbeat CPU 0 instructions: 72000000 cycles: 101562945 heartbeat IPC: 0.668383 cumulative IPC: 0.635803 (Simulation time: 0 hr 27 min 4 sec) 
Heartbeat CPU 0 instructions: 73000001 cycles: 103138149 heartbeat IPC: 0.634839 cumulative IPC: 0.635788 (Simulation time: 0 hr 27 min 26 sec) 
Heartbeat CPU 0 instructions: 74000001 cycles: 104658241 heartbeat IPC: 0.657855 cumulative IPC: 0.636121 (Simulation time: 0 hr 27 min 49 sec) 
Heartbeat CPU 0 instructions: 75000000 cycles: 106154354 heartbeat IPC: 0.668398 cumulative IPC: 0.636594 (Simulation time: 0 hr 28 min 11 sec) 
Heartbeat CPU 0 instructions: 76000000 cycles: 107720682 heartbeat IPC: 0.638436 cumulative IPC: 0.636622 (Simulation time: 0 hr 28 min 33 sec) 
Heartbeat CPU 0 instructions: 77000002 cycles: 109227235 heartbeat IPC: 0.663768 cumulative IPC: 0.637011 (Simulation time: 0 hr 28 min 56 sec) 
Heartbeat CPU 0 instructions: 78000003 cycles: 110735256 heartbeat IPC: 0.663121 cumulative IPC: 0.63738 (Simulation time: 0 hr 29 min 20 sec) 
Heartbeat CPU 0 instructions: 79000000 cycles: 112266989 heartbeat IPC: 0.652853 cumulative IPC: 0.637599 (Simulation time: 0 hr 29 min 43 sec) 
Heartbeat CPU 0 instructions: 80000000 cycles: 113833430 heartbeat IPC: 0.63839 cumulative IPC: 0.63761 (Simulation time: 0 hr 30 min 7 sec) 
Heartbeat CPU 0 instructions: 81000000 cycles: 115341494 heartbeat IPC: 0.663102 cumulative IPC: 0.637956 (Simulation time: 0 hr 30 min 28 sec) 
Heartbeat CPU 0 instructions: 82000000 cycles: 116845650 heartbeat IPC: 0.664825 cumulative IPC: 0.638314 (Simulation time: 0 hr 30 min 49 sec) 
Heartbeat CPU 0 instructions: 83000003 cycles: 118395309 heartbeat IPC: 0.645305 cumulative IPC: 0.638409 (Simulation time: 0 hr 31 min 10 sec) 
Heartbeat CPU 0 instructions: 84000000 cycles: 119890642 heartbeat IPC: 0.668745 cumulative IPC: 0.6388 (Simulation time: 0 hr 31 min 32 sec) 
Heartbeat CPU 0 instructions: 85000001 cycles: 121391782 heartbeat IPC: 0.666161 cumulative IPC: 0.63915 (Simulation time: 0 hr 31 min 54 sec) 
Heartbeat CPU 0 instructions: 86000003 cycles: 122956049 heartbeat IPC: 0.639278 cumulative IPC: 0.639152 (Simulation time: 0 hr 32 min 16 sec) 
Heartbeat CPU 0 instructions: 87000000 cycles: 124464037 heartbeat IPC: 0.663133 cumulative IPC: 0.639452 (Simulation time: 0 hr 32 min 41 sec) 
Heartbeat CPU 0 instructions: 88000000 cycles: 125959341 heartbeat IPC: 0.66876 cumulative IPC: 0.639812 (Simulation time: 0 hr 33 min 4 sec) 
Heartbeat CPU 0 instructions: 89000003 cycles: 127440634 heartbeat IPC: 0.675088 cumulative IPC: 0.640235 (Simulation time: 0 hr 33 min 25 sec) 
Heartbeat CPU 0 instructions: 90000003 cycles: 128986296 heartbeat IPC: 0.646972 cumulative IPC: 0.640319 (Simulation time: 0 hr 33 min 48 sec) 
Heartbeat CPU 0 instructions: 91000002 cycles: 130481251 heartbeat IPC: 0.668916 cumulative IPC: 0.640657 (Simulation time: 0 hr 34 min 11 sec) 
Heartbeat CPU 0 instructions: 92000000 cycles: 131983079 heartbeat IPC: 0.665854 cumulative IPC: 0.640952 (Simulation time: 0 hr 34 min 32 sec) 
Heartbeat CPU 0 instructions: 93000003 cycles: 133553961 heartbeat IPC: 0.636587 cumulative IPC: 0.640899 (Simulation time: 0 hr 34 min 54 sec) 
Heartbeat CPU 0 instructions: 94000001 cycles: 135036852 heartbeat IPC: 0.674357 cumulative IPC: 0.641278 (Simulation time: 0 hr 35 min 15 sec) 
Heartbeat CPU 0 instructions: 95000001 cycles: 136535232 heartbeat IPC: 0.667387 cumulative IPC: 0.641574 (Simulation time: 0 hr 35 min 36 sec) 
Heartbeat CPU 0 instructions: 96000000 cycles: 138037229 heartbeat IPC: 0.66578 cumulative IPC: 0.641845 (Simulation time: 0 hr 35 min 58 sec) 
Heartbeat CPU 0 instructions: 97000000 cycles: 139625452 heartbeat IPC: 0.629634 cumulative IPC: 0.641702 (Simulation time: 0 hr 36 min 20 sec) 
Heartbeat CPU 0 instructions: 98000002 cycles: 141095114 heartbeat IPC: 0.68043 cumulative IPC: 0.642117 (Simulation time: 0 hr 36 min 39 sec) 
Heartbeat CPU 0 instructions: 99000001 cycles: 142599403 heartbeat IPC: 0.664765 cumulative IPC: 0.642363 (Simulation time: 0 hr 36 min 57 sec) 
Heartbeat CPU 0 instructions: 100000000 cycles: 144139195 heartbeat IPC: 0.649438 cumulative IPC: 0.642441 (Simulation time: 0 hr 37 min 16 sec) 
Heartbeat CPU 0 instructions: 101000003 cycles: 145628668 heartbeat IPC: 0.67138 cumulative IPC: 0.642745 (Simulation time: 0 hr 37 min 33 sec) 
Heartbeat CPU 0 instructions: 102000002 cycles: 147144047 heartbeat IPC: 0.6599 cumulative IPC: 0.642927 (Simulation time: 0 hr 37 min 50 sec) 
Heartbeat CPU 0 instructions: 103000000 cycles: 148706814 heartbeat IPC: 0.639889 cumulative IPC: 0.642894 (Simulation time: 0 hr 38 min 8 sec) 
Heartbeat CPU 0 instructions: 104000000 cycles: 150208584 heartbeat IPC: 0.665881 cumulative IPC: 0.64313 (Simulation time: 0 hr 38 min 25 sec) 
Heartbeat CPU 0 instructions: 105000002 cycles: 151714575 heartbeat IPC: 0.664016 cumulative IPC: 0.643343 (Simulation time: 0 hr 38 min 41 sec) 
Heartbeat CPU 0 instructions: 106000001 cycles: 153221853 heartbeat IPC: 0.663447 cumulative IPC: 0.643546 (Simulation time: 0 hr 38 min 56 sec) 
Heartbeat CPU 0 instructions: 107000000 cycles: 154788435 heartbeat IPC: 0.638332 cumulative IPC: 0.643492 (Simulation time: 0 hr 39 min 11 sec) 
Heartbeat CPU 0 instructions: 108000000 cycles: 156296705 heartbeat IPC: 0.663011 cumulative IPC: 0.643686 (Simulation time: 0 hr 39 min 26 sec) 
Heartbeat CPU 0 instructions: 109000002 cycles: 157790471 heartbeat IPC: 0.66945 cumulative IPC: 0.643936 (Simulation time: 0 hr 39 min 41 sec) 
Heartbeat CPU 0 instructions: 110000000 cycles: 159343654 heartbeat IPC: 0.643838 cumulative IPC: 0.643935 (Simulation time: 0 hr 39 min 56 sec) 
Finished CPU 0 instructions: 100000000 cycles: 155295179 cummulative IPC: 0.643935 (Simulation time: 0 hr 39 min 56 sec) 

ChampSim completed all CPUs

Region of Interest Statistics

CPU 0 cummulative IPC: 0.643935 instructions: 100000000 cycles: 155295179
LLC TOTAL     ACCESS:    5505740  HIT:     159821  MISS:    5345919
LLC LOAD      ACCESS:     398190  HIT:          0  MISS:     398190
LLC RFO       ACCESS:    2345811  HIT:      47968  MISS:    2297843
LLC PREFETCH  ACCESS:     415596  HIT:          1  MISS:     415595
LLC WRITEBACK ACCESS:    2346143  HIT:     111852  MISS:    2234291
