
*** ChampSim Multicore Out-of-Order Simulator ***

Warmup Instructions: 10000000
Simulation Instructions: 100000000
Configuration: 2
Number of CPUs: 1
LLC sets: 2048
LLC ways: 16
Off-chip DRAM Channels: 1 Width: 64-bit Data Rate: 1600 MT/s

CPU 0 runs /datasets/cs240c-wi22-a00-public/data/Assignment2-gz/omnetpp_340B.trace.gz
CPU 0 L1D next line prefetcher
CPU 0 L2C IP-based stride prefetcher
Heartbeat CPU 0 instructions: 1000001 cycles: 576990 heartbeat IPC: 1.73313 cumulative IPC: 1.73313 (Simulation time: 0 hr 0 min 25 sec) 
Heartbeat CPU 0 instructions: 2000000 cycles: 1161016 heartbeat IPC: 1.71225 cumulative IPC: 1.72263 (Simulation time: 0 hr 0 min 48 sec) 
Heartbeat CPU 0 instructions: 3000001 cycles: 1758523 heartbeat IPC: 1.67362 cumulative IPC: 1.70598 (Simulation time: 0 hr 1 min 11 sec) 
Heartbeat CPU 0 instructions: 4000000 cycles: 2379707 heartbeat IPC: 1.60983 cumulative IPC: 1.68088 (Simulation time: 0 hr 1 min 36 sec) 
Heartbeat CPU 0 instructions: 5000002 cycles: 2955544 heartbeat IPC: 1.73661 cumulative IPC: 1.69174 (Simulation time: 0 hr 1 min 59 sec) 
Heartbeat CPU 0 instructions: 6000003 cycles: 3557153 heartbeat IPC: 1.66221 cumulative IPC: 1.68674 (Simulation time: 0 hr 2 min 24 sec) 
Heartbeat CPU 0 instructions: 7000003 cycles: 4206762 heartbeat IPC: 1.53939 cumulative IPC: 1.66399 (Simulation time: 0 hr 2 min 47 sec) 
Heartbeat CPU 0 instructions: 8000000 cycles: 4801483 heartbeat IPC: 1.68146 cumulative IPC: 1.66615 (Simulation time: 0 hr 3 min 10 sec) 
Heartbeat CPU 0 instructions: 9000002 cycles: 5435316 heartbeat IPC: 1.57771 cumulative IPC: 1.65584 (Simulation time: 0 hr 3 min 34 sec) 
Heartbeat CPU 0 instructions: 10000002 cycles: 6030021 heartbeat IPC: 1.68151 cumulative IPC: 1.65837 (Simulation time: 0 hr 3 min 57 sec) 

Warmup complete CPU 0 instructions: 10000002 cycles: 6030021 (Simulation time: 0 hr 3 min 57 sec) 

Heartbeat CPU 0 instructions: 11000000 cycles: 9987523 heartbeat IPC: 0.252684 cumulative IPC: 0.252684 (Simulation time: 0 hr 4 min 29 sec) 
Heartbeat CPU 0 instructions: 12000000 cycles: 13776534 heartbeat IPC: 0.263921 cumulative IPC: 0.25818 (Simulation time: 0 hr 5 min 0 sec) 
Heartbeat CPU 0 instructions: 13000000 cycles: 18138963 heartbeat IPC: 0.22923 cumulative IPC: 0.247751 (Simulation time: 0 hr 5 min 35 sec) 
Heartbeat CPU 0 instructions: 14000001 cycles: 22304118 heartbeat IPC: 0.240087 cumulative IPC: 0.245789 (Simulation time: 0 hr 6 min 8 sec) 
Heartbeat CPU 0 instructions: 15000003 cycles: 26600149 heartbeat IPC: 0.232773 cumulative IPC: 0.243071 (Simulation time: 0 hr 6 min 45 sec) 
Heartbeat CPU 0 instructions: 16000000 cycles: 31363721 heartbeat IPC: 0.209926 cumulative IPC: 0.236839 (Simulation time: 0 hr 7 min 19 sec) 
Heartbeat CPU 0 instructions: 17000000 cycles: 35341095 heartbeat IPC: 0.251422 cumulative IPC: 0.238818 (Simulation time: 0 hr 8 min 0 sec) 
Heartbeat CPU 0 instructions: 18000000 cycles: 39657023 heartbeat IPC: 0.2317 cumulative IPC: 0.237904 (Simulation time: 0 hr 8 min 35 sec) 
Heartbeat CPU 0 instructions: 19000000 cycles: 44448266 heartbeat IPC: 0.208714 cumulative IPC: 0.234264 (Simulation time: 0 hr 9 min 8 sec) 
Heartbeat CPU 0 instructions: 20000000 cycles: 49033200 heartbeat IPC: 0.218106 cumulative IPC: 0.232541 (Simulation time: 0 hr 9 min 40 sec) 
Heartbeat CPU 0 instructions: 21000000 cycles: 52800036 heartbeat IPC: 0.265475 cumulative IPC: 0.235193 (Simulation time: 0 hr 10 min 10 sec) 
Heartbeat CPU 0 instructions: 22000001 cycles: 57144798 heartbeat IPC: 0.230162 cumulative IPC: 0.234766 (Simulation time: 0 hr 10 min 41 sec) 
Heartbeat CPU 0 instructions: 23000001 cycles: 61207201 heartbeat IPC: 0.24616 cumulative IPC: 0.235605 (Simulation time: 0 hr 11 min 12 sec) 
Heartbeat CPU 0 instructions: 24000000 cycles: 65159652 heartbeat IPC: 0.253007 cumulative IPC: 0.236768 (Simulation time: 0 hr 11 min 42 sec) 
Heartbeat CPU 0 instructions: 25000000 cycles: 69512217 heartbeat IPC: 0.22975 cumulative IPC: 0.236287 (Simulation time: 0 hr 12 min 13 sec) 
Heartbeat CPU 0 instructions: 26000001 cycles: 73806815 heartbeat IPC: 0.232851 cumulative IPC: 0.236069 (Simulation time: 0 hr 12 min 44 sec) 
Heartbeat CPU 0 instructions: 27000000 cycles: 78117859 heartbeat IPC: 0.231962 cumulative IPC: 0.235823 (Simulation time: 0 hr 13 min 16 sec) 
Heartbeat CPU 0 instructions: 28000000 cycles: 82432651 heartbeat IPC: 0.231761 cumulative IPC: 0.235594 (Simulation time: 0 hr 13 min 50 sec) 
Heartbeat CPU 0 instructions: 29000003 cycles: 86891350 heartbeat IPC: 0.224281 cumulative IPC: 0.23497 (Simulation time: 0 hr 14 min 24 sec) 
Heartbeat CPU 0 instructions: 30000000 cycles: 91171833 heartbeat IPC: 0.233618 cumulative IPC: 0.234902 (Simulation time: 0 hr 14 min 54 sec) 
Heartbeat CPU 0 instructions: 31000000 cycles: 95443566 heartbeat IPC: 0.234097 cumulative IPC: 0.234864 (Simulation time: 0 hr 15 min 27 sec) 
Heartbeat CPU 0 instructions: 32000000 cycles: 99636567 heartbeat IPC: 0.238493 cumulative IPC: 0.235026 (Simulation time: 0 hr 15 min 58 sec) 
Heartbeat CPU 0 instructions: 33000003 cycles: 103748699 heartbeat IPC: 0.243184 cumulative IPC: 0.23537 (Simulation time: 0 hr 16 min 31 sec) 
Heartbeat CPU 0 instructions: 34000001 cycles: 108230913 heartbeat IPC: 0.223104 cumulative IPC: 0.234832 (Simulation time: 0 hr 17 min 4 sec) 
Heartbeat CPU 0 instructions: 35000002 cycles: 112089184 heartbeat IPC: 0.259184 cumulative IPC: 0.235717 (Simulation time: 0 hr 17 min 35 sec) 
Heartbeat CPU 0 instructions: 36000000 cycles: 116874106 heartbeat IPC: 0.208989 cumulative IPC: 0.234564 (Simulation time: 0 hr 18 min 10 sec) 
Heartbeat CPU 0 instructions: 37000000 cycles: 121689727 heartbeat IPC: 0.207658 cumulative IPC: 0.233443 (Simulation time: 0 hr 18 min 43 sec) 
Heartbeat CPU 0 instructions: 38000000 cycles: 125843623 heartbeat IPC: 0.240738 cumulative IPC: 0.233696 (Simulation time: 0 hr 19 min 15 sec) 
Heartbeat CPU 0 instructions: 39000001 cycles: 130129522 heartbeat IPC: 0.233324 cumulative IPC: 0.233683 (Simulation time: 0 hr 19 min 46 sec) 
Heartbeat CPU 0 instructions: 40000000 cycles: 133788757 heartbeat IPC: 0.273281 cumulative IPC: 0.234818 (Simulation time: 0 hr 20 min 17 sec) 
Heartbeat CPU 0 instructions: 41000000 cycles: 137695683 heartbeat IPC: 0.255956 cumulative IPC: 0.235445 (Simulation time: 0 hr 20 min 49 sec) 
Heartbeat CPU 0 instructions: 42000001 cycles: 142246596 heartbeat IPC: 0.219736 cumulative IPC: 0.23492 (Simulation time: 0 hr 21 min 21 sec) 
Heartbeat CPU 0 instructions: 43000001 cycles: 146576698 heartbeat IPC: 0.230941 cumulative IPC: 0.234797 (Simulation time: 0 hr 21 min 52 sec) 
Heartbeat CPU 0 instructions: 44000000 cycles: 150461064 heartbeat IPC: 0.257442 cumulative IPC: 0.235406 (Simulation time: 0 hr 22 min 22 sec) 
Heartbeat CPU 0 instructions: 45000003 cycles: 154578700 heartbeat IPC: 0.242859 cumulative IPC: 0.235613 (Simulation time: 0 hr 22 min 52 sec) 
Heartbeat CPU 0 instructions: 46000003 cycles: 159105632 heartbeat IPC: 0.2209 cumulative IPC: 0.235178 (Simulation time: 0 hr 23 min 25 sec) 
Heartbeat CPU 0 instructions: 47000000 cycles: 162659710 heartbeat IPC: 0.281366 cumulative IPC: 0.236226 (Simulation time: 0 hr 23 min 55 sec) 
Heartbeat CPU 0 instructions: 48000000 cycles: 167338172 heartbeat IPC: 0.213745 cumulative IPC: 0.235574 (Simulation time: 0 hr 24 min 28 sec) 
Heartbeat CPU 0 instructions: 49000000 cycles: 170653480 heartbeat IPC: 0.301631 cumulative IPC: 0.236904 (Simulation time: 0 hr 24 min 57 sec) 
Heartbeat CPU 0 instructions: 50000001 cycles: 175041696 heartbeat IPC: 0.227883 cumulative IPC: 0.23667 (Simulation time: 0 hr 25 min 29 sec) 
Heartbeat CPU 0 instructions: 51000003 cycles: 179177789 heartbeat IPC: 0.241775 cumulative IPC: 0.236792 (Simulation time: 0 hr 26 min 3 sec) 
Heartbeat CPU 0 instructions: 52000000 cycles: 183421500 heartbeat IPC: 0.235642 cumulative IPC: 0.236764 (Simulation time: 0 hr 26 min 40 sec) 
Heartbeat CPU 0 instructions: 53000000 cycles: 188741039 heartbeat IPC: 0.187986 cumulative IPC: 0.235344 (Simulation time: 0 hr 27 min 15 sec) 
Heartbeat CPU 0 instructions: 54000002 cycles: 193257085 heartbeat IPC: 0.221433 cumulative IPC: 0.235009 (Simulation time: 0 hr 27 min 47 sec) 
Heartbeat CPU 0 instructions: 55000001 cycles: 197484595 heartbeat IPC: 0.236546 cumulative IPC: 0.235043 (Simulation time: 0 hr 28 min 19 sec) 
Heartbeat CPU 0 instructions: 56000000 cycles: 202229673 heartbeat IPC: 0.210744 cumulative IPC: 0.234455 (Simulation time: 0 hr 28 min 51 sec) 
Heartbeat CPU 0 instructions: 57000001 cycles: 206505034 heartbeat IPC: 0.233899 cumulative IPC: 0.234443 (Simulation time: 0 hr 29 min 22 sec) 
Heartbeat CPU 0 instructions: 58000000 cycles: 210117172 heartbeat IPC: 0.276844 cumulative IPC: 0.235194 (Simulation time: 0 hr 29 min 53 sec) 
Heartbeat CPU 0 instructions: 59000003 cycles: 214378850 heartbeat IPC: 0.23465 cumulative IPC: 0.235183 (Simulation time: 0 hr 30 min 24 sec) 
Heartbeat CPU 0 instructions: 60000000 cycles: 219342368 heartbeat IPC: 0.201469 cumulative IPC: 0.234398 (Simulation time: 0 hr 30 min 57 sec) 
Heartbeat CPU 0 instructions: 61000001 cycles: 224066810 heartbeat IPC: 0.211665 cumulative IPC: 0.233905 (Simulation time: 0 hr 31 min 27 sec) 
Heartbeat CPU 0 instructions: 62000000 cycles: 228796643 heartbeat IPC: 0.211424 cumulative IPC: 0.233428 (Simulation time: 0 hr 31 min 55 sec) 
Heartbeat CPU 0 instructions: 63000001 cycles: 232848672 heartbeat IPC: 0.24679 cumulative IPC: 0.233667 (Simulation time: 0 hr 32 min 24 sec) 
Heartbeat CPU 0 instructions: 64000000 cycles: 236886351 heartbeat IPC: 0.247667 cumulative IPC: 0.233912 (Simulation time: 0 hr 32 min 52 sec) 
Heartbeat CPU 0 instructions: 65000001 cycles: 240548647 heartbeat IPC: 0.273053 cumulative IPC: 0.234523 (Simulation time: 0 hr 33 min 23 sec) 
Heartbeat CPU 0 instructions: 66000002 cycles: 244913541 heartbeat IPC: 0.229101 cumulative IPC: 0.234424 (Simulation time: 0 hr 33 min 51 sec) 
Heartbeat CPU 0 instructions: 67000002 cycles: 249020737 heartbeat IPC: 0.243475 cumulative IPC: 0.234577 (Simulation time: 0 hr 34 min 20 sec) 
Heartbeat CPU 0 instructions: 68000000 cycles: 253141844 heartbeat IPC: 0.242653 cumulative IPC: 0.234712 (Simulation time: 0 hr 34 min 48 sec) 
Heartbeat CPU 0 instructions: 69000000 cycles: 257682267 heartbeat IPC: 0.220244 cumulative IPC: 0.234451 (Simulation time: 0 hr 35 min 19 sec) 
Heartbeat CPU 0 instructions: 70000001 cycles: 261641888 heartbeat IPC: 0.25255 cumulative IPC: 0.234731 (Simulation time: 0 hr 35 min 46 sec) 
Heartbeat CPU 0 instructions: 71000003 cycles: 265871352 heartbeat IPC: 0.236437 cumulative IPC: 0.234759 (Simulation time: 0 hr 36 min 13 sec) 
Heartbeat CPU 0 instructions: 72000000 cycles: 270968038 heartbeat IPC: 0.196205 cumulative IPC: 0.234017 (Simulation time: 0 hr 36 min 42 sec) 
Heartbeat CPU 0 instructions: 73000002 cycles: 275213338 heartbeat IPC: 0.235555 cumulative IPC: 0.234041 (Simulation time: 0 hr 37 min 7 sec) 
Heartbeat CPU 0 instructions: 74000000 cycles: 279407963 heartbeat IPC: 0.2384 cumulative IPC: 0.234108 (Simulation time: 0 hr 37 min 33 sec) 
Heartbeat CPU 0 instructions: 75000003 cycles: 283761552 heartbeat IPC: 0.229696 cumulative IPC: 0.234039 (Simulation time: 0 hr 38 min 0 sec) 
Heartbeat CPU 0 instructions: 76000000 cycles: 287863400 heartbeat IPC: 0.243792 cumulative IPC: 0.234181 (Simulation time: 0 hr 38 min 26 sec) 
Heartbeat CPU 0 instructions: 77000002 cycles: 293349039 heartbeat IPC: 0.182295 cumulative IPC: 0.23319 (Simulation time: 0 hr 38 min 51 sec) 
Heartbeat CPU 0 instructions: 78000003 cycles: 297585810 heartbeat IPC: 0.236029 cumulative IPC: 0.233232 (Simulation time: 0 hr 39 min 13 sec) 
Heartbeat CPU 0 instructions: 79000002 cycles: 301758153 heartbeat IPC: 0.239673 cumulative IPC: 0.233322 (Simulation time: 0 hr 39 min 34 sec) 
Heartbeat CPU 0 instructions: 80000000 cycles: 305836100 heartbeat IPC: 0.245221 cumulative IPC: 0.233484 (Simulation time: 0 hr 39 min 54 sec) 
Heartbeat CPU 0 instructions: 81000002 cycles: 310448775 heartbeat IPC: 0.216794 cumulative IPC: 0.233231 (Simulation time: 0 hr 40 min 15 sec) 
Heartbeat CPU 0 instructions: 82000000 cycles: 315466877 heartbeat IPC: 0.199278 cumulative IPC: 0.232681 (Simulation time: 0 hr 40 min 38 sec) 
Heartbeat CPU 0 instructions: 83000002 cycles: 319619983 heartbeat IPC: 0.240784 cumulative IPC: 0.232788 (Simulation time: 0 hr 40 min 57 sec) 
Heartbeat CPU 0 instructions: 84000000 cycles: 323714260 heartbeat IPC: 0.244243 cumulative IPC: 0.232936 (Simulation time: 0 hr 41 min 16 sec) 
Heartbeat CPU 0 instructions: 85000000 cycles: 327855570 heartbeat IPC: 0.241469 cumulative IPC: 0.233046 (Simulation time: 0 hr 41 min 34 sec) 
Heartbeat CPU 0 instructions: 86000000 cycles: 332168937 heartbeat IPC: 0.231837 cumulative IPC: 0.23303 (Simulation time: 0 hr 41 min 52 sec) 
Heartbeat CPU 0 instructions: 87000001 cycles: 336155029 heartbeat IPC: 0.250873 cumulative IPC: 0.233245 (Simulation time: 0 hr 42 min 9 sec) 
Heartbeat CPU 0 instructions: 88000000 cycles: 340374927 heartbeat IPC: 0.236972 cumulative IPC: 0.233292 (Simulation time: 0 hr 42 min 26 sec) 
Heartbeat CPU 0 instructions: 89000003 cycles: 344150868 heartbeat IPC: 0.264835 cumulative IPC: 0.233644 (Simulation time: 0 hr 42 min 43 sec) 
Heartbeat CPU 0 instructions: 90000000 cycles: 348342132 heartbeat IPC: 0.238591 cumulative IPC: 0.233705 (Simulation time: 0 hr 42 min 59 sec) 
Heartbeat CPU 0 instructions: 91000001 cycles: 352442732 heartbeat IPC: 0.243867 cumulative IPC: 0.233825 (Simulation time: 0 hr 43 min 16 sec) 
Heartbeat CPU 0 instructions: 92000000 cycles: 356941480 heartbeat IPC: 0.222284 cumulative IPC: 0.233677 (Simulation time: 0 hr 43 min 32 sec) 
Heartbeat CPU 0 instructions: 93000001 cycles: 362038595 heartbeat IPC: 0.19619 cumulative IPC: 0.23314 (Simulation time: 0 hr 43 min 48 sec) 
Heartbeat CPU 0 instructions: 94000001 cycles: 366160933 heartbeat IPC: 0.242581 cumulative IPC: 0.233249 (Simulation time: 0 hr 44 min 0 sec) 
Heartbeat CPU 0 instructions: 95000000 cycles: 370432690 heartbeat IPC: 0.234095 cumulative IPC: 0.233258 (Simulation time: 0 hr 44 min 10 sec) 
Heartbeat CPU 0 instructions: 96000000 cycles: 375391995 heartbeat IPC: 0.201641 cumulative IPC: 0.232834 (Simulation time: 0 hr 44 min 19 sec) 
Heartbeat CPU 0 instructions: 97000000 cycles: 379309037 heartbeat IPC: 0.255295 cumulative IPC: 0.23307 (Simulation time: 0 hr 44 min 25 sec) 
Heartbeat CPU 0 instructions: 98000000 cycles: 384027626 heartbeat IPC: 0.211928 cumulative IPC: 0.232806 (Simulation time: 0 hr 44 min 32 sec) 
Heartbeat CPU 0 instructions: 99000000 cycles: 388965536 heartbeat IPC: 0.202515 cumulative IPC: 0.232415 (Simulation time: 0 hr 44 min 38 sec) 
Heartbeat CPU 0 instructions: 100000000 cycles: 393387116 heartbeat IPC: 0.226163 cumulative IPC: 0.232344 (Simulation time: 0 hr 44 min 43 sec) 
Heartbeat CPU 0 instructions: 101000003 cycles: 397508285 heartbeat IPC: 0.24265 cumulative IPC: 0.232452 (Simulation time: 0 hr 44 min 47 sec) 
Heartbeat CPU 0 instructions: 102000003 cycles: 402060040 heartbeat IPC: 0.219695 cumulative IPC: 0.232306 (Simulation time: 0 hr 44 min 52 sec) 
Heartbeat CPU 0 instructions: 103000000 cycles: 406235948 heartbeat IPC: 0.239468 cumulative IPC: 0.23238 (Simulation time: 0 hr 44 min 56 sec) 
Heartbeat CPU 0 instructions: 104000000 cycles: 410345919 heartbeat IPC: 0.243311 cumulative IPC: 0.232491 (Simulation time: 0 hr 45 min 1 sec) 
Heartbeat CPU 0 instructions: 105000003 cycles: 414935763 heartbeat IPC: 0.217873 cumulative IPC: 0.232327 (Simulation time: 0 hr 45 min 5 sec) 
Heartbeat CPU 0 instructions: 106000001 cycles: 419007112 heartbeat IPC: 0.245618 cumulative IPC: 0.232458 (Simulation time: 0 hr 45 min 10 sec) 
Heartbeat CPU 0 instructions: 107000000 cycles: 423524384 heartbeat IPC: 0.221372 cumulative IPC: 0.232338 (Simulation time: 0 hr 45 min 14 sec) 
Heartbeat CPU 0 instructions: 108000000 cycles: 428113341 heartbeat IPC: 0.217914 cumulative IPC: 0.232182 (Simulation time: 0 hr 45 min 19 sec) 
Heartbeat CPU 0 instructions: 109000000 cycles: 432865946 heartbeat IPC: 0.210411 cumulative IPC: 0.231939 (Simulation time: 0 hr 45 min 23 sec) 
Heartbeat CPU 0 instructions: 110000000 cycles: 436893378 heartbeat IPC: 0.248297 cumulative IPC: 0.232092 (Simulation time: 0 hr 45 min 27 sec) 
Finished CPU 0 instructions: 100000000 cycles: 430863361 cummulative IPC: 0.232092 (Simulation time: 0 hr 45 min 27 sec) 

ChampSim completed all CPUs

Region of Interest Statistics

CPU 0 cummulative IPC: 0.232092 instructions: 100000000 cycles: 430863361
LLC TOTAL     ACCESS:    4309255  HIT:     233940  MISS:    4075315
LLC LOAD      ACCESS:    1525918  HIT:      42565  MISS:    1483353
LLC RFO       ACCESS:     246717  HIT:       7006  MISS:     239711
LLC PREFETCH  ACCESS:    1530582  HIT:      14906  MISS:    1515676
LLC WRITEBACK ACCESS:    1006038  HIT:     169463  MISS:     836575
