
*** ChampSim Multicore Out-of-Order Simulator ***

Warmup Instructions: 10000000
Simulation Instructions: 100000000
Configuration: 2
Number of CPUs: 1
LLC sets: 2048
LLC ways: 16
Off-chip DRAM Channels: 1 Width: 64-bit Data Rate: 1600 MT/s

CPU 0 runs /datasets/cs240c-wi22-a00-public/data/Assignment2-gz/GemsFDTD_109B.trace.gz
CPU 0 L1D next line prefetcher
CPU 0 L2C IP-based stride prefetcher
Heartbeat CPU 0 instructions: 1000002 cycles: 579772 heartbeat IPC: 1.72482 cumulative IPC: 1.72482 (Simulation time: 0 hr 0 min 26 sec) 
Heartbeat CPU 0 instructions: 2000001 cycles: 1159546 heartbeat IPC: 1.72481 cumulative IPC: 1.72481 (Simulation time: 0 hr 0 min 50 sec) 
Heartbeat CPU 0 instructions: 3000000 cycles: 1738730 heartbeat IPC: 1.72657 cumulative IPC: 1.7254 (Simulation time: 0 hr 1 min 15 sec) 
Heartbeat CPU 0 instructions: 4000000 cycles: 2317726 heartbeat IPC: 1.72713 cumulative IPC: 1.72583 (Simulation time: 0 hr 1 min 40 sec) 
Heartbeat CPU 0 instructions: 5000000 cycles: 2897565 heartbeat IPC: 1.72462 cumulative IPC: 1.72559 (Simulation time: 0 hr 2 min 6 sec) 
Heartbeat CPU 0 instructions: 6000002 cycles: 3478300 heartbeat IPC: 1.72196 cumulative IPC: 1.72498 (Simulation time: 0 hr 2 min 31 sec) 
Heartbeat CPU 0 instructions: 7000001 cycles: 4059005 heartbeat IPC: 1.72204 cumulative IPC: 1.72456 (Simulation time: 0 hr 2 min 55 sec) 
Heartbeat CPU 0 instructions: 8000000 cycles: 4639203 heartbeat IPC: 1.72355 cumulative IPC: 1.72443 (Simulation time: 0 hr 3 min 20 sec) 
Heartbeat CPU 0 instructions: 9000002 cycles: 5219392 heartbeat IPC: 1.72358 cumulative IPC: 1.72434 (Simulation time: 0 hr 3 min 44 sec) 
Heartbeat CPU 0 instructions: 10000001 cycles: 5799569 heartbeat IPC: 1.72361 cumulative IPC: 1.72427 (Simulation time: 0 hr 4 min 8 sec) 

Warmup complete CPU 0 instructions: 10000001 cycles: 5799569 (Simulation time: 0 hr 4 min 8 sec) 

Heartbeat CPU 0 instructions: 11000002 cycles: 6860149 heartbeat IPC: 0.942881 cumulative IPC: 0.942881 (Simulation time: 0 hr 4 min 35 sec) 
Heartbeat CPU 0 instructions: 12000000 cycles: 7922204 heartbeat IPC: 0.941569 cumulative IPC: 0.942225 (Simulation time: 0 hr 5 min 0 sec) 
Heartbeat CPU 0 instructions: 13000001 cycles: 9018811 heartbeat IPC: 0.911905 cumulative IPC: 0.931896 (Simulation time: 0 hr 5 min 27 sec) 
Heartbeat CPU 0 instructions: 14000001 cycles: 10094282 heartbeat IPC: 0.929825 cumulative IPC: 0.931378 (Simulation time: 0 hr 5 min 53 sec) 
Heartbeat CPU 0 instructions: 15000000 cycles: 11177875 heartbeat IPC: 0.922855 cumulative IPC: 0.929661 (Simulation time: 0 hr 6 min 20 sec) 
Heartbeat CPU 0 instructions: 16000000 cycles: 12250445 heartbeat IPC: 0.93234 cumulative IPC: 0.930106 (Simulation time: 0 hr 6 min 47 sec) 
Heartbeat CPU 0 instructions: 17000000 cycles: 13345879 heartbeat IPC: 0.91288 cumulative IPC: 0.927606 (Simulation time: 0 hr 7 min 14 sec) 
Heartbeat CPU 0 instructions: 18000003 cycles: 14407151 heartbeat IPC: 0.942268 cumulative IPC: 0.929413 (Simulation time: 0 hr 7 min 40 sec) 
Heartbeat CPU 0 instructions: 19000001 cycles: 15491223 heartbeat IPC: 0.922446 cumulative IPC: 0.928634 (Simulation time: 0 hr 8 min 7 sec) 
Heartbeat CPU 0 instructions: 20000000 cycles: 16739919 heartbeat IPC: 0.800835 cumulative IPC: 0.914047 (Simulation time: 0 hr 8 min 32 sec) 
Heartbeat CPU 0 instructions: 21000001 cycles: 18055405 heartbeat IPC: 0.760176 cumulative IPC: 0.897532 (Simulation time: 0 hr 8 min 59 sec) 
Heartbeat CPU 0 instructions: 22000001 cycles: 21640133 heartbeat IPC: 0.278961 cumulative IPC: 0.757549 (Simulation time: 0 hr 9 min 26 sec) 
Heartbeat CPU 0 instructions: 23000001 cycles: 22950141 heartbeat IPC: 0.763354 cumulative IPC: 0.757992 (Simulation time: 0 hr 9 min 52 sec) 
Heartbeat CPU 0 instructions: 24000000 cycles: 26739127 heartbeat IPC: 0.263923 cumulative IPC: 0.668591 (Simulation time: 0 hr 10 min 26 sec) 
Heartbeat CPU 0 instructions: 25000003 cycles: 28042157 heartbeat IPC: 0.767444 cumulative IPC: 0.674382 (Simulation time: 0 hr 10 min 56 sec) 
Heartbeat CPU 0 instructions: 26000000 cycles: 31828380 heartbeat IPC: 0.264115 cumulative IPC: 0.614703 (Simulation time: 0 hr 11 min 26 sec) 
Heartbeat CPU 0 instructions: 27000000 cycles: 33116215 heartbeat IPC: 0.776497 cumulative IPC: 0.622331 (Simulation time: 0 hr 11 min 50 sec) 
Heartbeat CPU 0 instructions: 28000000 cycles: 36711649 heartbeat IPC: 0.278131 cumulative IPC: 0.582297 (Simulation time: 0 hr 12 min 26 sec) 
Heartbeat CPU 0 instructions: 29000000 cycles: 38004826 heartbeat IPC: 0.773289 cumulative IPC: 0.589966 (Simulation time: 0 hr 12 min 55 sec) 
Heartbeat CPU 0 instructions: 30000003 cycles: 39517953 heartbeat IPC: 0.660885 cumulative IPC: 0.593148 (Simulation time: 0 hr 13 min 19 sec) 
Heartbeat CPU 0 instructions: 31000002 cycles: 40781479 heartbeat IPC: 0.791435 cumulative IPC: 0.60031 (Simulation time: 0 hr 13 min 47 sec) 
Heartbeat CPU 0 instructions: 32000000 cycles: 42235183 heartbeat IPC: 0.687897 cumulative IPC: 0.603805 (Simulation time: 0 hr 14 min 13 sec) 
Heartbeat CPU 0 instructions: 33000003 cycles: 43500738 heartbeat IPC: 0.79017 cumulative IPC: 0.610061 (Simulation time: 0 hr 14 min 40 sec) 
Heartbeat CPU 0 instructions: 34000002 cycles: 44947399 heartbeat IPC: 0.691246 cumulative IPC: 0.613061 (Simulation time: 0 hr 15 min 6 sec) 
Heartbeat CPU 0 instructions: 35000003 cycles: 46237525 heartbeat IPC: 0.775119 cumulative IPC: 0.618231 (Simulation time: 0 hr 15 min 30 sec) 
Heartbeat CPU 0 instructions: 36000000 cycles: 47744233 heartbeat IPC: 0.663697 cumulative IPC: 0.619864 (Simulation time: 0 hr 15 min 53 sec) 
Heartbeat CPU 0 instructions: 37000000 cycles: 49076991 heartbeat IPC: 0.750324 cumulative IPC: 0.623882 (Simulation time: 0 hr 16 min 20 sec) 
Heartbeat CPU 0 instructions: 38000001 cycles: 50409164 heartbeat IPC: 0.750654 cumulative IPC: 0.627668 (Simulation time: 0 hr 16 min 47 sec) 
Heartbeat CPU 0 instructions: 39000000 cycles: 51741721 heartbeat IPC: 0.750436 cumulative IPC: 0.631229 (Simulation time: 0 hr 17 min 13 sec) 
Heartbeat CPU 0 instructions: 40000000 cycles: 53073820 heartbeat IPC: 0.750695 cumulative IPC: 0.634595 (Simulation time: 0 hr 17 min 39 sec) 
Heartbeat CPU 0 instructions: 41000000 cycles: 54493159 heartbeat IPC: 0.704553 cumulative IPC: 0.636634 (Simulation time: 0 hr 18 min 2 sec) 
Heartbeat CPU 0 instructions: 42000000 cycles: 55825414 heartbeat IPC: 0.750607 cumulative IPC: 0.639669 (Simulation time: 0 hr 18 min 29 sec) 
Heartbeat CPU 0 instructions: 43000002 cycles: 57157909 heartbeat IPC: 0.750473 cumulative IPC: 0.642544 (Simulation time: 0 hr 18 min 58 sec) 
Heartbeat CPU 0 instructions: 44000000 cycles: 58490187 heartbeat IPC: 0.750593 cumulative IPC: 0.645276 (Simulation time: 0 hr 19 min 25 sec) 
Heartbeat CPU 0 instructions: 45000001 cycles: 59822287 heartbeat IPC: 0.750695 cumulative IPC: 0.647876 (Simulation time: 0 hr 19 min 51 sec) 
Heartbeat CPU 0 instructions: 46000002 cycles: 61263134 heartbeat IPC: 0.694037 cumulative IPC: 0.649075 (Simulation time: 0 hr 20 min 17 sec) 
Heartbeat CPU 0 instructions: 47000001 cycles: 62710636 heartbeat IPC: 0.690845 cumulative IPC: 0.650137 (Simulation time: 0 hr 20 min 39 sec) 
Heartbeat CPU 0 instructions: 48000000 cycles: 64360412 heartbeat IPC: 0.606142 cumulative IPC: 0.648898 (Simulation time: 0 hr 21 min 0 sec) 
Heartbeat CPU 0 instructions: 49000003 cycles: 73927923 heartbeat IPC: 0.104521 cumulative IPC: 0.572449 (Simulation time: 0 hr 21 min 45 sec) 
Heartbeat CPU 0 instructions: 50000001 cycles: 75769725 heartbeat IPC: 0.542945 cumulative IPC: 0.571672 (Simulation time: 0 hr 22 min 12 sec) 
Heartbeat CPU 0 instructions: 51000001 cycles: 77415909 heartbeat IPC: 0.607466 cumulative IPC: 0.572495 (Simulation time: 0 hr 22 min 39 sec) 
Heartbeat CPU 0 instructions: 52000000 cycles: 79057390 heartbeat IPC: 0.609205 cumulative IPC: 0.573318 (Simulation time: 0 hr 23 min 6 sec) 
Heartbeat CPU 0 instructions: 53000000 cycles: 80687351 heartbeat IPC: 0.613512 cumulative IPC: 0.574192 (Simulation time: 0 hr 23 min 35 sec) 
Heartbeat CPU 0 instructions: 54000001 cycles: 82309201 heartbeat IPC: 0.61658 cumulative IPC: 0.575091 (Simulation time: 0 hr 24 min 4 sec) 
Heartbeat CPU 0 instructions: 55000000 cycles: 83905155 heartbeat IPC: 0.626584 cumulative IPC: 0.576143 (Simulation time: 0 hr 24 min 31 sec) 
Heartbeat CPU 0 instructions: 56000000 cycles: 85523740 heartbeat IPC: 0.617824 cumulative IPC: 0.576989 (Simulation time: 0 hr 24 min 58 sec) 
Heartbeat CPU 0 instructions: 57000003 cycles: 87164119 heartbeat IPC: 0.609617 cumulative IPC: 0.577647 (Simulation time: 0 hr 25 min 25 sec) 
Heartbeat CPU 0 instructions: 58000002 cycles: 88795683 heartbeat IPC: 0.612908 cumulative IPC: 0.57834 (Simulation time: 0 hr 25 min 53 sec) 
Heartbeat CPU 0 instructions: 59000001 cycles: 90435681 heartbeat IPC: 0.609756 cumulative IPC: 0.578949 (Simulation time: 0 hr 26 min 21 sec) 
Heartbeat CPU 0 instructions: 60000000 cycles: 92078699 heartbeat IPC: 0.608635 cumulative IPC: 0.579514 (Simulation time: 0 hr 26 min 52 sec) 
Heartbeat CPU 0 instructions: 61000000 cycles: 93688995 heartbeat IPC: 0.621004 cumulative IPC: 0.580275 (Simulation time: 0 hr 27 min 22 sec) 
Heartbeat CPU 0 instructions: 62000003 cycles: 95294167 heartbeat IPC: 0.622988 cumulative IPC: 0.581041 (Simulation time: 0 hr 27 min 51 sec) 
Heartbeat CPU 0 instructions: 63000000 cycles: 96916368 heartbeat IPC: 0.616445 cumulative IPC: 0.581671 (Simulation time: 0 hr 28 min 19 sec) 
Heartbeat CPU 0 instructions: 64000000 cycles: 98558560 heartbeat IPC: 0.608942 cumulative IPC: 0.582154 (Simulation time: 0 hr 28 min 50 sec) 
Heartbeat CPU 0 instructions: 65000003 cycles: 100214876 heartbeat IPC: 0.603751 cumulative IPC: 0.582533 (Simulation time: 0 hr 29 min 17 sec) 
Heartbeat CPU 0 instructions: 66000001 cycles: 101868687 heartbeat IPC: 0.604663 cumulative IPC: 0.582914 (Simulation time: 0 hr 29 min 44 sec) 
Heartbeat CPU 0 instructions: 67000001 cycles: 103492718 heartbeat IPC: 0.615752 cumulative IPC: 0.58346 (Simulation time: 0 hr 30 min 10 sec) 
Heartbeat CPU 0 instructions: 68000000 cycles: 105131873 heartbeat IPC: 0.61007 cumulative IPC: 0.583899 (Simulation time: 0 hr 30 min 37 sec) 
Heartbeat CPU 0 instructions: 69000000 cycles: 106761156 heartbeat IPC: 0.613767 cumulative IPC: 0.584381 (Simulation time: 0 hr 31 min 3 sec) 
Heartbeat CPU 0 instructions: 70000003 cycles: 108363853 heartbeat IPC: 0.62395 cumulative IPC: 0.584999 (Simulation time: 0 hr 31 min 28 sec) 
Heartbeat CPU 0 instructions: 71000003 cycles: 110000765 heartbeat IPC: 0.610906 cumulative IPC: 0.585406 (Simulation time: 0 hr 31 min 53 sec) 
Heartbeat CPU 0 instructions: 72000000 cycles: 111612898 heartbeat IPC: 0.620294 cumulative IPC: 0.585938 (Simulation time: 0 hr 32 min 20 sec) 
Heartbeat CPU 0 instructions: 73000002 cycles: 113241926 heartbeat IPC: 0.613864 cumulative IPC: 0.586361 (Simulation time: 0 hr 32 min 45 sec) 
Heartbeat CPU 0 instructions: 74000000 cycles: 114887356 heartbeat IPC: 0.607743 cumulative IPC: 0.586683 (Simulation time: 0 hr 33 min 13 sec) 
Heartbeat CPU 0 instructions: 75000001 cycles: 116539468 heartbeat IPC: 0.605286 cumulative IPC: 0.586961 (Simulation time: 0 hr 33 min 39 sec) 
Heartbeat CPU 0 instructions: 76000000 cycles: 118148465 heartbeat IPC: 0.621505 cumulative IPC: 0.587456 (Simulation time: 0 hr 34 min 5 sec) 
Heartbeat CPU 0 instructions: 77000002 cycles: 119797061 heartbeat IPC: 0.606578 cumulative IPC: 0.587732 (Simulation time: 0 hr 34 min 29 sec) 
Heartbeat CPU 0 instructions: 78000001 cycles: 121424078 heartbeat IPC: 0.614621 cumulative IPC: 0.588111 (Simulation time: 0 hr 34 min 55 sec) 
Heartbeat CPU 0 instructions: 79000001 cycles: 123028216 heartbeat IPC: 0.623388 cumulative IPC: 0.588593 (Simulation time: 0 hr 35 min 20 sec) 
Heartbeat CPU 0 instructions: 80000000 cycles: 124655944 heartbeat IPC: 0.614353 cumulative IPC: 0.588946 (Simulation time: 0 hr 35 min 45 sec) 
Heartbeat CPU 0 instructions: 81000001 cycles: 126281791 heartbeat IPC: 0.615065 cumulative IPC: 0.589299 (Simulation time: 0 hr 36 min 9 sec) 
Heartbeat CPU 0 instructions: 82000000 cycles: 127914724 heartbeat IPC: 0.612394 cumulative IPC: 0.589607 (Simulation time: 0 hr 36 min 33 sec) 
Heartbeat CPU 0 instructions: 83000003 cycles: 129531078 heartbeat IPC: 0.618678 cumulative IPC: 0.589987 (Simulation time: 0 hr 36 min 56 sec) 
Heartbeat CPU 0 instructions: 84000000 cycles: 131145803 heartbeat IPC: 0.619299 cumulative IPC: 0.590365 (Simulation time: 0 hr 37 min 20 sec) 
Heartbeat CPU 0 instructions: 85000001 cycles: 132783118 heartbeat IPC: 0.610757 cumulative IPC: 0.590628 (Simulation time: 0 hr 37 min 44 sec) 
Heartbeat CPU 0 instructions: 86000001 cycles: 134417015 heartbeat IPC: 0.612034 cumulative IPC: 0.5909 (Simulation time: 0 hr 38 min 5 sec) 
Heartbeat CPU 0 instructions: 87000002 cycles: 136039070 heartbeat IPC: 0.616503 cumulative IPC: 0.591218 (Simulation time: 0 hr 38 min 28 sec) 
Heartbeat CPU 0 instructions: 88000000 cycles: 137680803 heartbeat IPC: 0.609111 cumulative IPC: 0.591441 (Simulation time: 0 hr 38 min 47 sec) 
Heartbeat CPU 0 instructions: 89000003 cycles: 139339111 heartbeat IPC: 0.603026 cumulative IPC: 0.591585 (Simulation time: 0 hr 39 min 6 sec) 
Heartbeat CPU 0 instructions: 90000000 cycles: 141005108 heartbeat IPC: 0.600239 cumulative IPC: 0.591692 (Simulation time: 0 hr 39 min 23 sec) 
Heartbeat CPU 0 instructions: 91000002 cycles: 142660733 heartbeat IPC: 0.604003 cumulative IPC: 0.591841 (Simulation time: 0 hr 39 min 41 sec) 
Heartbeat CPU 0 instructions: 92000000 cycles: 144300591 heartbeat IPC: 0.609808 cumulative IPC: 0.592053 (Simulation time: 0 hr 39 min 59 sec) 
Heartbeat CPU 0 instructions: 93000002 cycles: 145945926 heartbeat IPC: 0.60778 cumulative IPC: 0.592238 (Simulation time: 0 hr 40 min 16 sec) 
Heartbeat CPU 0 instructions: 94000000 cycles: 147563679 heartbeat IPC: 0.61814 cumulative IPC: 0.592534 (Simulation time: 0 hr 40 min 35 sec) 
Heartbeat CPU 0 instructions: 95000000 cycles: 149178177 heartbeat IPC: 0.619388 cumulative IPC: 0.592836 (Simulation time: 0 hr 40 min 52 sec) 
Heartbeat CPU 0 instructions: 96000000 cycles: 150808971 heartbeat IPC: 0.613198 cumulative IPC: 0.593065 (Simulation time: 0 hr 41 min 12 sec) 
Heartbeat CPU 0 instructions: 97000002 cycles: 152439354 heartbeat IPC: 0.613354 cumulative IPC: 0.593291 (Simulation time: 0 hr 41 min 29 sec) 
Heartbeat CPU 0 instructions: 98000000 cycles: 154090435 heartbeat IPC: 0.605663 cumulative IPC: 0.593428 (Simulation time: 0 hr 41 min 44 sec) 
Heartbeat CPU 0 instructions: 99000000 cycles: 155686235 heartbeat IPC: 0.626645 cumulative IPC: 0.593782 (Simulation time: 0 hr 41 min 59 sec) 
Heartbeat CPU 0 instructions: 100000000 cycles: 157329205 heartbeat IPC: 0.608654 cumulative IPC: 0.593943 (Simulation time: 0 hr 42 min 14 sec) 
Heartbeat CPU 0 instructions: 101000001 cycles: 158977202 heartbeat IPC: 0.606798 cumulative IPC: 0.594082 (Simulation time: 0 hr 42 min 30 sec) 
Heartbeat CPU 0 instructions: 102000000 cycles: 160619192 heartbeat IPC: 0.609016 cumulative IPC: 0.59424 (Simulation time: 0 hr 42 min 44 sec) 
Heartbeat CPU 0 instructions: 103000000 cycles: 162242114 heartbeat IPC: 0.616173 cumulative IPC: 0.594467 (Simulation time: 0 hr 42 min 59 sec) 
Heartbeat CPU 0 instructions: 104000000 cycles: 163882296 heartbeat IPC: 0.609688 cumulative IPC: 0.594625 (Simulation time: 0 hr 43 min 13 sec) 
Heartbeat CPU 0 instructions: 105000000 cycles: 165531359 heartbeat IPC: 0.606405 cumulative IPC: 0.594747 (Simulation time: 0 hr 43 min 27 sec) 
Heartbeat CPU 0 instructions: 106000001 cycles: 167176493 heartbeat IPC: 0.607854 cumulative IPC: 0.594881 (Simulation time: 0 hr 43 min 40 sec) 
Heartbeat CPU 0 instructions: 107000001 cycles: 168824499 heartbeat IPC: 0.606794 cumulative IPC: 0.595001 (Simulation time: 0 hr 43 min 52 sec) 
Heartbeat CPU 0 instructions: 108000000 cycles: 170468387 heartbeat IPC: 0.608313 cumulative IPC: 0.595134 (Simulation time: 0 hr 44 min 1 sec) 
Heartbeat CPU 0 instructions: 109000003 cycles: 172062454 heartbeat IPC: 0.627328 cumulative IPC: 0.595443 (Simulation time: 0 hr 44 min 10 sec) 
Heartbeat CPU 0 instructions: 110000002 cycles: 173698684 heartbeat IPC: 0.61116 cumulative IPC: 0.595596 (Simulation time: 0 hr 44 min 17 sec) 
Finished CPU 0 instructions: 100000001 cycles: 167899115 cummulative IPC: 0.595596 (Simulation time: 0 hr 44 min 17 sec) 

ChampSim completed all CPUs

Region of Interest Statistics

CPU 0 cummulative IPC: 0.595596 instructions: 100000001 cycles: 167899115
LLC TOTAL     ACCESS:    4815603  HIT:      61023  MISS:    4754580
LLC LOAD      ACCESS:     462624  HIT:       1250  MISS:     461374
LLC RFO       ACCESS:     126469  HIT:       6837  MISS:     119632
LLC PREFETCH  ACCESS:    2862219  HIT:      12822  MISS:    2849397
LLC WRITEBACK ACCESS:    1364291  HIT:      40114  MISS:    1324177
