
*** ChampSim Multicore Out-of-Order Simulator ***

Warmup Instructions: 10000000
Simulation Instructions: 100000000
Configuration: 2
Number of CPUs: 1
LLC sets: 2048
LLC ways: 16
Off-chip DRAM Channels: 1 Width: 64-bit Data Rate: 1600 MT/s

CPU 0 runs /datasets/cs240c-wi22-a00-public/data/Assignment2-gz/lbm_564B.trace.gz
CPU 0 L1D next line prefetcher
CPU 0 L2C IP-based stride prefetcher
Heartbeat CPU 0 instructions: 1000000 cycles: 390168 heartbeat IPC: 2.563 cumulative IPC: 2.563 (Simulation time: 0 hr 0 min 21 sec) 
Heartbeat CPU 0 instructions: 2000003 cycles: 785204 heartbeat IPC: 2.53142 cumulative IPC: 2.54711 (Simulation time: 0 hr 0 min 39 sec) 
Heartbeat CPU 0 instructions: 3000002 cycles: 1175398 heartbeat IPC: 2.56283 cumulative IPC: 2.55233 (Simulation time: 0 hr 1 min 0 sec) 
Heartbeat CPU 0 instructions: 4000000 cycles: 1565582 heartbeat IPC: 2.56289 cumulative IPC: 2.55496 (Simulation time: 0 hr 1 min 20 sec) 
Heartbeat CPU 0 instructions: 5000000 cycles: 1960699 heartbeat IPC: 2.5309 cumulative IPC: 2.55011 (Simulation time: 0 hr 1 min 46 sec) 
Heartbeat CPU 0 instructions: 6000002 cycles: 2350856 heartbeat IPC: 2.56308 cumulative IPC: 2.55226 (Simulation time: 0 hr 2 min 4 sec) 
Heartbeat CPU 0 instructions: 7000001 cycles: 2741117 heartbeat IPC: 2.56239 cumulative IPC: 2.5537 (Simulation time: 0 hr 2 min 24 sec) 
Heartbeat CPU 0 instructions: 8000000 cycles: 3136124 heartbeat IPC: 2.5316 cumulative IPC: 2.55092 (Simulation time: 0 hr 2 min 46 sec) 
Heartbeat CPU 0 instructions: 9000000 cycles: 3526382 heartbeat IPC: 2.56241 cumulative IPC: 2.55219 (Simulation time: 0 hr 3 min 8 sec) 
Heartbeat CPU 0 instructions: 10000002 cycles: 3916532 heartbeat IPC: 2.56312 cumulative IPC: 2.55328 (Simulation time: 0 hr 3 min 27 sec) 

Warmup complete CPU 0 instructions: 10000002 cycles: 3916532 (Simulation time: 0 hr 3 min 27 sec) 

Heartbeat CPU 0 instructions: 11000000 cycles: 5439909 heartbeat IPC: 0.656435 cumulative IPC: 0.656435 (Simulation time: 0 hr 3 min 50 sec) 
Heartbeat CPU 0 instructions: 12000000 cycles: 7032537 heartbeat IPC: 0.627893 cumulative IPC: 0.641847 (Simulation time: 0 hr 4 min 15 sec) 
Heartbeat CPU 0 instructions: 13000001 cycles: 8507240 heartbeat IPC: 0.678103 cumulative IPC: 0.653494 (Simulation time: 0 hr 4 min 40 sec) 
Heartbeat CPU 0 instructions: 14000001 cycles: 10031580 heartbeat IPC: 0.656022 cumulative IPC: 0.654124 (Simulation time: 0 hr 5 min 6 sec) 
Heartbeat CPU 0 instructions: 15000000 cycles: 11610846 heartbeat IPC: 0.633205 cumulative IPC: 0.64983 (Simulation time: 0 hr 5 min 32 sec) 
Heartbeat CPU 0 instructions: 16000000 cycles: 13115684 heartbeat IPC: 0.664523 cumulative IPC: 0.652234 (Simulation time: 0 hr 6 min 0 sec) 
Heartbeat CPU 0 instructions: 17000000 cycles: 14602324 heartbeat IPC: 0.672658 cumulative IPC: 0.655075 (Simulation time: 0 hr 6 min 26 sec) 
Heartbeat CPU 0 instructions: 18000000 cycles: 16158130 heartbeat IPC: 0.642754 cumulative IPC: 0.653509 (Simulation time: 0 hr 6 min 54 sec) 
Heartbeat CPU 0 instructions: 19000003 cycles: 17631284 heartbeat IPC: 0.678818 cumulative IPC: 0.656228 (Simulation time: 0 hr 7 min 19 sec) 
Heartbeat CPU 0 instructions: 20000000 cycles: 19171644 heartbeat IPC: 0.649197 cumulative IPC: 0.655518 (Simulation time: 0 hr 7 min 45 sec) 
Heartbeat CPU 0 instructions: 21000003 cycles: 20670171 heartbeat IPC: 0.667324 cumulative IPC: 0.656574 (Simulation time: 0 hr 8 min 7 sec) 
Heartbeat CPU 0 instructions: 22000003 cycles: 22837043 heartbeat IPC: 0.461495 cumulative IPC: 0.634232 (Simulation time: 0 hr 8 min 38 sec) 
Heartbeat CPU 0 instructions: 23000000 cycles: 25236338 heartbeat IPC: 0.416788 cumulative IPC: 0.609762 (Simulation time: 0 hr 9 min 8 sec) 
Heartbeat CPU 0 instructions: 24000000 cycles: 32370364 heartbeat IPC: 0.140173 cumulative IPC: 0.492025 (Simulation time: 0 hr 10 min 8 sec) 
Heartbeat CPU 0 instructions: 25000003 cycles: 35225107 heartbeat IPC: 0.350295 cumulative IPC: 0.479102 (Simulation time: 0 hr 10 min 42 sec) 
Heartbeat CPU 0 instructions: 26000002 cycles: 37581709 heartbeat IPC: 0.424339 cumulative IPC: 0.475269 (Simulation time: 0 hr 11 min 16 sec) 
Heartbeat CPU 0 instructions: 27000001 cycles: 39091843 heartbeat IPC: 0.662192 cumulative IPC: 0.483294 (Simulation time: 0 hr 11 min 41 sec) 
Heartbeat CPU 0 instructions: 28000000 cycles: 40590841 heartbeat IPC: 0.667112 cumulative IPC: 0.490807 (Simulation time: 0 hr 12 min 5 sec) 
Heartbeat CPU 0 instructions: 29000003 cycles: 42087901 heartbeat IPC: 0.667978 cumulative IPC: 0.497755 (Simulation time: 0 hr 12 min 28 sec) 
Heartbeat CPU 0 instructions: 30000000 cycles: 43642854 heartbeat IPC: 0.643104 cumulative IPC: 0.503444 (Simulation time: 0 hr 12 min 52 sec) 
Heartbeat CPU 0 instructions: 31000000 cycles: 45130341 heartbeat IPC: 0.672275 cumulative IPC: 0.509538 (Simulation time: 0 hr 13 min 14 sec) 
Heartbeat CPU 0 instructions: 32000000 cycles: 46602910 heartbeat IPC: 0.679085 cumulative IPC: 0.515387 (Simulation time: 0 hr 13 min 38 sec) 
Heartbeat CPU 0 instructions: 33000001 cycles: 48162142 heartbeat IPC: 0.641342 cumulative IPC: 0.519826 (Simulation time: 0 hr 14 min 6 sec) 
Heartbeat CPU 0 instructions: 34000001 cycles: 49671071 heartbeat IPC: 0.662722 cumulative IPC: 0.524538 (Simulation time: 0 hr 14 min 30 sec) 
Heartbeat CPU 0 instructions: 35000002 cycles: 51177819 heartbeat IPC: 0.663682 cumulative IPC: 0.528974 (Simulation time: 0 hr 14 min 58 sec) 
Heartbeat CPU 0 instructions: 36000000 cycles: 52662690 heartbeat IPC: 0.673458 cumulative IPC: 0.533375 (Simulation time: 0 hr 15 min 21 sec) 
Heartbeat CPU 0 instructions: 37000000 cycles: 54243715 heartbeat IPC: 0.632501 cumulative IPC: 0.536489 (Simulation time: 0 hr 15 min 46 sec) 
Heartbeat CPU 0 instructions: 38000003 cycles: 55742937 heartbeat IPC: 0.667015 cumulative IPC: 0.540265 (Simulation time: 0 hr 16 min 11 sec) 
Heartbeat CPU 0 instructions: 39000002 cycles: 57264884 heartbeat IPC: 0.657052 cumulative IPC: 0.543597 (Simulation time: 0 hr 16 min 35 sec) 
Heartbeat CPU 0 instructions: 40000000 cycles: 58843165 heartbeat IPC: 0.633599 cumulative IPC: 0.546183 (Simulation time: 0 hr 17 min 0 sec) 
Heartbeat CPU 0 instructions: 41000000 cycles: 60341482 heartbeat IPC: 0.667415 cumulative IPC: 0.549402 (Simulation time: 0 hr 17 min 27 sec) 
Heartbeat CPU 0 instructions: 42000002 cycles: 61838015 heartbeat IPC: 0.668212 cumulative IPC: 0.552472 (Simulation time: 0 hr 17 min 53 sec) 
Heartbeat CPU 0 instructions: 43000001 cycles: 63381528 heartbeat IPC: 0.647872 cumulative IPC: 0.554948 (Simulation time: 0 hr 18 min 19 sec) 
Heartbeat CPU 0 instructions: 44000000 cycles: 64882814 heartbeat IPC: 0.666095 cumulative IPC: 0.557685 (Simulation time: 0 hr 18 min 45 sec) 
Heartbeat CPU 0 instructions: 45000001 cycles: 66399937 heartbeat IPC: 0.659143 cumulative IPC: 0.560149 (Simulation time: 0 hr 19 min 10 sec) 
Heartbeat CPU 0 instructions: 46000002 cycles: 67894501 heartbeat IPC: 0.669092 cumulative IPC: 0.562694 (Simulation time: 0 hr 19 min 34 sec) 
Heartbeat CPU 0 instructions: 47000001 cycles: 69441013 heartbeat IPC: 0.646616 cumulative IPC: 0.564674 (Simulation time: 0 hr 19 min 58 sec) 
Heartbeat CPU 0 instructions: 48000000 cycles: 70948463 heartbeat IPC: 0.663371 cumulative IPC: 0.566894 (Simulation time: 0 hr 20 min 23 sec) 
Heartbeat CPU 0 instructions: 49000001 cycles: 72453825 heartbeat IPC: 0.664293 cumulative IPC: 0.569033 (Simulation time: 0 hr 20 min 49 sec) 
Heartbeat CPU 0 instructions: 50000001 cycles: 74020753 heartbeat IPC: 0.638191 cumulative IPC: 0.570579 (Simulation time: 0 hr 21 min 16 sec) 
Heartbeat CPU 0 instructions: 51000002 cycles: 75517715 heartbeat IPC: 0.66802 cumulative IPC: 0.572616 (Simulation time: 0 hr 21 min 44 sec) 
Heartbeat CPU 0 instructions: 52000000 cycles: 77040721 heartbeat IPC: 0.656595 cumulative IPC: 0.574365 (Simulation time: 0 hr 22 min 10 sec) 
Heartbeat CPU 0 instructions: 53000001 cycles: 78562979 heartbeat IPC: 0.65692 cumulative IPC: 0.576049 (Simulation time: 0 hr 22 min 33 sec) 
Heartbeat CPU 0 instructions: 54000001 cycles: 80125875 heartbeat IPC: 0.639838 cumulative IPC: 0.577357 (Simulation time: 0 hr 22 min 57 sec) 
Heartbeat CPU 0 instructions: 55000003 cycles: 81637466 heartbeat IPC: 0.661556 cumulative IPC: 0.578995 (Simulation time: 0 hr 23 min 24 sec) 
Heartbeat CPU 0 instructions: 56000000 cycles: 83174457 heartbeat IPC: 0.65062 cumulative IPC: 0.580384 (Simulation time: 0 hr 23 min 50 sec) 
Heartbeat CPU 0 instructions: 57000001 cycles: 84733477 heartbeat IPC: 0.641429 cumulative IPC: 0.581561 (Simulation time: 0 hr 24 min 20 sec) 
Heartbeat CPU 0 instructions: 58000002 cycles: 86285010 heartbeat IPC: 0.644524 cumulative IPC: 0.582747 (Simulation time: 0 hr 24 min 46 sec) 
Heartbeat CPU 0 instructions: 59000001 cycles: 87792943 heartbeat IPC: 0.663159 cumulative IPC: 0.584193 (Simulation time: 0 hr 25 min 10 sec) 
Heartbeat CPU 0 instructions: 60000000 cycles: 89355247 heartbeat IPC: 0.64008 cumulative IPC: 0.585215 (Simulation time: 0 hr 25 min 33 sec) 
Heartbeat CPU 0 instructions: 61000003 cycles: 90964622 heartbeat IPC: 0.621361 cumulative IPC: 0.585883 (Simulation time: 0 hr 25 min 57 sec) 
Heartbeat CPU 0 instructions: 62000003 cycles: 92474492 heartbeat IPC: 0.662309 cumulative IPC: 0.587186 (Simulation time: 0 hr 26 min 22 sec) 
Heartbeat CPU 0 instructions: 63000000 cycles: 94049288 heartbeat IPC: 0.635001 cumulative IPC: 0.588022 (Simulation time: 0 hr 26 min 49 sec) 
Heartbeat CPU 0 instructions: 64000000 cycles: 95638360 heartbeat IPC: 0.629298 cumulative IPC: 0.588737 (Simulation time: 0 hr 27 min 13 sec) 
Heartbeat CPU 0 instructions: 65000003 cycles: 97183342 heartbeat IPC: 0.647259 cumulative IPC: 0.589706 (Simulation time: 0 hr 27 min 36 sec) 
Heartbeat CPU 0 instructions: 66000001 cycles: 98683481 heartbeat IPC: 0.666604 cumulative IPC: 0.590923 (Simulation time: 0 hr 27 min 59 sec) 
Heartbeat CPU 0 instructions: 67000001 cycles: 100288604 heartbeat IPC: 0.623005 cumulative IPC: 0.591458 (Simulation time: 0 hr 28 min 24 sec) 
Heartbeat CPU 0 instructions: 68000000 cycles: 101932037 heartbeat IPC: 0.608482 cumulative IPC: 0.591743 (Simulation time: 0 hr 28 min 49 sec) 
Heartbeat CPU 0 instructions: 69000003 cycles: 103426409 heartbeat IPC: 0.669179 cumulative IPC: 0.592906 (Simulation time: 0 hr 29 min 16 sec) 
Heartbeat CPU 0 instructions: 70000003 cycles: 105001336 heartbeat IPC: 0.63495 cumulative IPC: 0.593561 (Simulation time: 0 hr 29 min 41 sec) 
Heartbeat CPU 0 instructions: 71000000 cycles: 106686259 heartbeat IPC: 0.593497 cumulative IPC: 0.59356 (Simulation time: 0 hr 30 min 8 sec) 
Heartbeat CPU 0 instructions: 72000000 cycles: 108186688 heartbeat IPC: 0.666476 cumulative IPC: 0.594609 (Simulation time: 0 hr 30 min 30 sec) 
Heartbeat CPU 0 instructions: 73000003 cycles: 109749964 heartbeat IPC: 0.639684 cumulative IPC: 0.595275 (Simulation time: 0 hr 30 min 53 sec) 
Heartbeat CPU 0 instructions: 74000002 cycles: 111469725 heartbeat IPC: 0.581476 cumulative IPC: 0.595054 (Simulation time: 0 hr 31 min 21 sec) 
Heartbeat CPU 0 instructions: 75000002 cycles: 112983612 heartbeat IPC: 0.660551 cumulative IPC: 0.595964 (Simulation time: 0 hr 31 min 43 sec) 
Heartbeat CPU 0 instructions: 76000000 cycles: 114567602 heartbeat IPC: 0.631316 cumulative IPC: 0.59647 (Simulation time: 0 hr 32 min 5 sec) 
Heartbeat CPU 0 instructions: 77000001 cycles: 116312386 heartbeat IPC: 0.573137 cumulative IPC: 0.596107 (Simulation time: 0 hr 32 min 30 sec) 
Heartbeat CPU 0 instructions: 78000002 cycles: 117834230 heartbeat IPC: 0.657098 cumulative IPC: 0.596922 (Simulation time: 0 hr 32 min 54 sec) 
Heartbeat CPU 0 instructions: 79000000 cycles: 119387305 heartbeat IPC: 0.643883 cumulative IPC: 0.597554 (Simulation time: 0 hr 33 min 17 sec) 
Heartbeat CPU 0 instructions: 80000000 cycles: 121144679 heartbeat IPC: 0.569031 cumulative IPC: 0.597126 (Simulation time: 0 hr 33 min 43 sec) 
Heartbeat CPU 0 instructions: 81000003 cycles: 122678300 heartbeat IPC: 0.652054 cumulative IPC: 0.597835 (Simulation time: 0 hr 34 min 8 sec) 
Heartbeat CPU 0 instructions: 82000001 cycles: 124256579 heartbeat IPC: 0.6336 cumulative IPC: 0.598305 (Simulation time: 0 hr 34 min 29 sec) 
Heartbeat CPU 0 instructions: 83000001 cycles: 125977636 heartbeat IPC: 0.581038 cumulative IPC: 0.598061 (Simulation time: 0 hr 34 min 52 sec) 
Heartbeat CPU 0 instructions: 84000000 cycles: 127581530 heartbeat IPC: 0.623482 cumulative IPC: 0.598391 (Simulation time: 0 hr 35 min 15 sec) 
Heartbeat CPU 0 instructions: 85000002 cycles: 129084630 heartbeat IPC: 0.665293 cumulative IPC: 0.599194 (Simulation time: 0 hr 35 min 37 sec) 
Heartbeat CPU 0 instructions: 86000001 cycles: 130859702 heartbeat IPC: 0.563357 cumulative IPC: 0.598693 (Simulation time: 0 hr 35 min 59 sec) 
Heartbeat CPU 0 instructions: 87000003 cycles: 132487292 heartbeat IPC: 0.614407 cumulative IPC: 0.598892 (Simulation time: 0 hr 36 min 19 sec) 
Heartbeat CPU 0 instructions: 88000000 cycles: 133965203 heartbeat IPC: 0.676629 cumulative IPC: 0.599775 (Simulation time: 0 hr 36 min 40 sec) 
Heartbeat CPU 0 instructions: 89000003 cycles: 135720004 heartbeat IPC: 0.569867 cumulative IPC: 0.599377 (Simulation time: 0 hr 37 min 4 sec) 
Heartbeat CPU 0 instructions: 90000001 cycles: 137380011 heartbeat IPC: 0.602406 cumulative IPC: 0.599415 (Simulation time: 0 hr 37 min 29 sec) 
Heartbeat CPU 0 instructions: 91000000 cycles: 138874287 heartbeat IPC: 0.66922 cumulative IPC: 0.600188 (Simulation time: 0 hr 37 min 49 sec) 
Heartbeat CPU 0 instructions: 92000000 cycles: 140632908 heartbeat IPC: 0.568627 cumulative IPC: 0.599782 (Simulation time: 0 hr 38 min 15 sec) 
Heartbeat CPU 0 instructions: 93000003 cycles: 142319776 heartbeat IPC: 0.592816 cumulative IPC: 0.599697 (Simulation time: 0 hr 38 min 35 sec) 
Heartbeat CPU 0 instructions: 94000002 cycles: 143801691 heartbeat IPC: 0.674802 cumulative IPC: 0.600493 (Simulation time: 0 hr 38 min 53 sec) 
Heartbeat CPU 0 instructions: 95000001 cycles: 145534775 heartbeat IPC: 0.577006 cumulative IPC: 0.600205 (Simulation time: 0 hr 39 min 10 sec) 
Heartbeat CPU 0 instructions: 96000000 cycles: 147241259 heartbeat IPC: 0.586 cumulative IPC: 0.600036 (Simulation time: 0 hr 39 min 26 sec) 
Heartbeat CPU 0 instructions: 97000002 cycles: 148757397 heartbeat IPC: 0.659572 cumulative IPC: 0.600659 (Simulation time: 0 hr 39 min 41 sec) 
Heartbeat CPU 0 instructions: 98000000 cycles: 150536375 heartbeat IPC: 0.562119 cumulative IPC: 0.600192 (Simulation time: 0 hr 39 min 57 sec) 
Heartbeat CPU 0 instructions: 99000001 cycles: 152221852 heartbeat IPC: 0.593304 cumulative IPC: 0.600113 (Simulation time: 0 hr 40 min 14 sec) 
Heartbeat CPU 0 instructions: 100000000 cycles: 153721836 heartbeat IPC: 0.666673 cumulative IPC: 0.60078 (Simulation time: 0 hr 40 min 29 sec) 
Heartbeat CPU 0 instructions: 101000002 cycles: 155532500 heartbeat IPC: 0.552285 cumulative IPC: 0.600201 (Simulation time: 0 hr 40 min 45 sec) 
Heartbeat CPU 0 instructions: 102000002 cycles: 157240184 heartbeat IPC: 0.585588 cumulative IPC: 0.600038 (Simulation time: 0 hr 41 min 0 sec) 
Heartbeat CPU 0 instructions: 103000001 cycles: 158757657 heartbeat IPC: 0.65899 cumulative IPC: 0.600616 (Simulation time: 0 hr 41 min 16 sec) 
Heartbeat CPU 0 instructions: 104000000 cycles: 160572008 heartbeat IPC: 0.551161 cumulative IPC: 0.600043 (Simulation time: 0 hr 41 min 31 sec) 
Heartbeat CPU 0 instructions: 105000001 cycles: 162265366 heartbeat IPC: 0.590543 cumulative IPC: 0.599941 (Simulation time: 0 hr 41 min 45 sec) 
Heartbeat CPU 0 instructions: 106000001 cycles: 163779738 heartbeat IPC: 0.66034 cumulative IPC: 0.600513 (Simulation time: 0 hr 41 min 58 sec) 
Heartbeat CPU 0 instructions: 107000001 cycles: 165614939 heartbeat IPC: 0.544899 cumulative IPC: 0.599882 (Simulation time: 0 hr 42 min 15 sec) 
Heartbeat CPU 0 instructions: 108000000 cycles: 167279475 heartbeat IPC: 0.600767 cumulative IPC: 0.599891 (Simulation time: 0 hr 42 min 30 sec) 
Heartbeat CPU 0 instructions: 109000003 cycles: 168761606 heartbeat IPC: 0.674706 cumulative IPC: 0.600564 (Simulation time: 0 hr 42 min 44 sec) 
Heartbeat CPU 0 instructions: 110000001 cycles: 170647868 heartbeat IPC: 0.530148 cumulative IPC: 0.599767 (Simulation time: 0 hr 42 min 59 sec) 
Finished CPU 0 instructions: 100000003 cycles: 166731337 cummulative IPC: 0.599767 (Simulation time: 0 hr 42 min 59 sec) 

ChampSim completed all CPUs

Region of Interest Statistics

CPU 0 cummulative IPC: 0.599767 instructions: 100000003 cycles: 166731337
LLC TOTAL     ACCESS:    6086373  HIT:     166015  MISS:    5920358
LLC LOAD      ACCESS:     453901  HIT:          0  MISS:     453901
LLC RFO       ACCESS:    2591733  HIT:      51815  MISS:    2539918
LLC PREFETCH  ACCESS:     448778  HIT:          1  MISS:     448777
LLC WRITEBACK ACCESS:    2591961  HIT:     114199  MISS:    2477762
