
*** ChampSim Multicore Out-of-Order Simulator ***

Warmup Instructions: 10000000
Simulation Instructions: 100000000
Configuration: 2
Number of CPUs: 1
LLC sets: 2048
LLC ways: 16
Off-chip DRAM Channels: 1 Width: 64-bit Data Rate: 1600 MT/s

CPU 0 runs /datasets/cs240c-wi22-a00-public/data/Assignment2-gz/gcc_56B.trace.gz
CPU 0 L1D next line prefetcher
CPU 0 L2C IP-based stride prefetcher
Heartbeat CPU 0 instructions: 1000003 cycles: 954146 heartbeat IPC: 1.04806 cumulative IPC: 1.04806 (Simulation time: 0 hr 0 min 27 sec) 
select_counter is 241
Heartbeat CPU 0 instructions: 2000001 cycles: 1898344 heartbeat IPC: 1.0591 cumulative IPC: 1.05355 (Simulation time: 0 hr 0 min 51 sec) 
select_counter is 230
Heartbeat CPU 0 instructions: 3000001 cycles: 2885588 heartbeat IPC: 1.01292 cumulative IPC: 1.03965 (Simulation time: 0 hr 1 min 17 sec) 
select_counter is 209
Heartbeat CPU 0 instructions: 4000000 cycles: 3848216 heartbeat IPC: 1.03882 cumulative IPC: 1.03944 (Simulation time: 0 hr 1 min 41 sec) 
select_counter is 184
Heartbeat CPU 0 instructions: 5000002 cycles: 4737697 heartbeat IPC: 1.12425 cumulative IPC: 1.05537 (Simulation time: 0 hr 2 min 5 sec) 
select_counter is 168
Heartbeat CPU 0 instructions: 6000000 cycles: 5685653 heartbeat IPC: 1.0549 cumulative IPC: 1.05529 (Simulation time: 0 hr 2 min 30 sec) 
select_counter is 140
Heartbeat CPU 0 instructions: 7000000 cycles: 6649889 heartbeat IPC: 1.03709 cumulative IPC: 1.05265 (Simulation time: 0 hr 2 min 54 sec) 
select_counter is 111
Heartbeat CPU 0 instructions: 8000000 cycles: 7611112 heartbeat IPC: 1.04034 cumulative IPC: 1.05109 (Simulation time: 0 hr 3 min 19 sec) 
select_counter is 84
Heartbeat CPU 0 instructions: 9000000 cycles: 8622585 heartbeat IPC: 0.988657 cumulative IPC: 1.04377 (Simulation time: 0 hr 3 min 44 sec) 
select_counter is 61
Heartbeat CPU 0 instructions: 10000002 cycles: 9583095 heartbeat IPC: 1.04112 cumulative IPC: 1.0435 (Simulation time: 0 hr 4 min 8 sec) 
select_counter is 29

Warmup complete CPU 0 instructions: 10000002 cycles: 9583095 (Simulation time: 0 hr 4 min 8 sec) 

Heartbeat CPU 0 instructions: 11000000 cycles: 10926169 heartbeat IPC: 0.744559 cumulative IPC: 0.744559 (Simulation time: 0 hr 4 min 33 sec) 
select_counter is 503
Heartbeat CPU 0 instructions: 12000000 cycles: 12346133 heartbeat IPC: 0.704243 cumulative IPC: 0.72384 (Simulation time: 0 hr 4 min 59 sec) 
select_counter is 480
Heartbeat CPU 0 instructions: 13000001 cycles: 13727882 heartbeat IPC: 0.723721 cumulative IPC: 0.723801 (Simulation time: 0 hr 5 min 27 sec) 
select_counter is 441
Heartbeat CPU 0 instructions: 14000000 cycles: 15056457 heartbeat IPC: 0.752685 cumulative IPC: 0.730812 (Simulation time: 0 hr 5 min 54 sec) 
select_counter is 416
Heartbeat CPU 0 instructions: 15000003 cycles: 16425723 heartbeat IPC: 0.73032 cumulative IPC: 0.730714 (Simulation time: 0 hr 6 min 23 sec) 
select_counter is 387
Heartbeat CPU 0 instructions: 16000000 cycles: 17744949 heartbeat IPC: 0.758018 cumulative IPC: 0.735127 (Simulation time: 0 hr 6 min 49 sec) 
select_counter is 358
Heartbeat CPU 0 instructions: 17000001 cycles: 19060425 heartbeat IPC: 0.760182 cumulative IPC: 0.738605 (Simulation time: 0 hr 7 min 15 sec) 
select_counter is 330
Heartbeat CPU 0 instructions: 18000000 cycles: 20443324 heartbeat IPC: 0.723118 cumulative IPC: 0.736633 (Simulation time: 0 hr 7 min 43 sec) 
select_counter is 298
Heartbeat CPU 0 instructions: 19000000 cycles: 21813873 heartbeat IPC: 0.729635 cumulative IPC: 0.735848 (Simulation time: 0 hr 8 min 8 sec) 
select_counter is 264
Heartbeat CPU 0 instructions: 20000000 cycles: 23170327 heartbeat IPC: 0.737216 cumulative IPC: 0.735985 (Simulation time: 0 hr 8 min 33 sec) 
select_counter is 240
Heartbeat CPU 0 instructions: 21000000 cycles: 24507733 heartbeat IPC: 0.747716 cumulative IPC: 0.737036 (Simulation time: 0 hr 8 min 57 sec) 
select_counter is 215
Heartbeat CPU 0 instructions: 22000000 cycles: 25827092 heartbeat IPC: 0.757944 cumulative IPC: 0.738734 (Simulation time: 0 hr 9 min 22 sec) 
select_counter is 189
Heartbeat CPU 0 instructions: 23000000 cycles: 27154158 heartbeat IPC: 0.753542 cumulative IPC: 0.739853 (Simulation time: 0 hr 9 min 46 sec) 
select_counter is 156
Heartbeat CPU 0 instructions: 24000000 cycles: 28504938 heartbeat IPC: 0.740313 cumulative IPC: 0.739886 (Simulation time: 0 hr 10 min 11 sec) 
select_counter is 120
Heartbeat CPU 0 instructions: 25000000 cycles: 29865962 heartbeat IPC: 0.734741 cumulative IPC: 0.73954 (Simulation time: 0 hr 10 min 37 sec) 
select_counter is 83
Heartbeat CPU 0 instructions: 26000002 cycles: 31265284 heartbeat IPC: 0.714633 cumulative IPC: 0.737933 (Simulation time: 0 hr 11 min 3 sec) 
select_counter is 61
Heartbeat CPU 0 instructions: 27000000 cycles: 32641613 heartbeat IPC: 0.726569 cumulative IPC: 0.737255 (Simulation time: 0 hr 11 min 28 sec) 
select_counter is 23
Heartbeat CPU 0 instructions: 28000000 cycles: 33969979 heartbeat IPC: 0.752805 cumulative IPC: 0.738102 (Simulation time: 0 hr 11 min 54 sec) 
select_counter is 490
Heartbeat CPU 0 instructions: 29000000 cycles: 35303440 heartbeat IPC: 0.749928 cumulative IPC: 0.738715 (Simulation time: 0 hr 12 min 20 sec) 
select_counter is 454
Heartbeat CPU 0 instructions: 30000000 cycles: 36641888 heartbeat IPC: 0.747134 cumulative IPC: 0.739131 (Simulation time: 0 hr 12 min 48 sec) 
select_counter is 412
Heartbeat CPU 0 instructions: 31000000 cycles: 37987024 heartbeat IPC: 0.743419 cumulative IPC: 0.739334 (Simulation time: 0 hr 13 min 13 sec) 
select_counter is 362
Heartbeat CPU 0 instructions: 32000000 cycles: 39354437 heartbeat IPC: 0.731308 cumulative IPC: 0.738966 (Simulation time: 0 hr 13 min 39 sec) 
select_counter is 321
Heartbeat CPU 0 instructions: 33000002 cycles: 40755880 heartbeat IPC: 0.713552 cumulative IPC: 0.737823 (Simulation time: 0 hr 14 min 4 sec) 
select_counter is 292
Heartbeat CPU 0 instructions: 34000002 cycles: 42113235 heartbeat IPC: 0.736727 cumulative IPC: 0.737777 (Simulation time: 0 hr 14 min 30 sec) 
select_counter is 264
Heartbeat CPU 0 instructions: 35000002 cycles: 43457410 heartbeat IPC: 0.743951 cumulative IPC: 0.738022 (Simulation time: 0 hr 14 min 57 sec) 
select_counter is 225
Heartbeat CPU 0 instructions: 36000000 cycles: 44780546 heartbeat IPC: 0.755779 cumulative IPC: 0.73869 (Simulation time: 0 hr 15 min 25 sec) 
select_counter is 193
Heartbeat CPU 0 instructions: 37000000 cycles: 46089163 heartbeat IPC: 0.764166 cumulative IPC: 0.739603 (Simulation time: 0 hr 15 min 52 sec) 
select_counter is 162
Heartbeat CPU 0 instructions: 38000002 cycles: 47419250 heartbeat IPC: 0.751832 cumulative IPC: 0.740033 (Simulation time: 0 hr 16 min 18 sec) 
select_counter is 127
Heartbeat CPU 0 instructions: 39000000 cycles: 48817206 heartbeat IPC: 0.715329 cumulative IPC: 0.739153 (Simulation time: 0 hr 16 min 44 sec) 
select_counter is 82
Heartbeat CPU 0 instructions: 40000000 cycles: 50177186 heartbeat IPC: 0.735305 cumulative IPC: 0.739024 (Simulation time: 0 hr 17 min 10 sec) 
select_counter is 58
Heartbeat CPU 0 instructions: 41000001 cycles: 51515435 heartbeat IPC: 0.747246 cumulative IPC: 0.739286 (Simulation time: 0 hr 17 min 38 sec) 
select_counter is 26
Heartbeat CPU 0 instructions: 42000003 cycles: 52841817 heartbeat IPC: 0.753932 cumulative IPC: 0.739735 (Simulation time: 0 hr 18 min 6 sec) 
select_counter is 7
Heartbeat CPU 0 instructions: 43000001 cycles: 54174864 heartbeat IPC: 0.75016 cumulative IPC: 0.740047 (Simulation time: 0 hr 18 min 32 sec) 
select_counter is 493
Heartbeat CPU 0 instructions: 44000000 cycles: 55500143 heartbeat IPC: 0.754557 cumulative IPC: 0.740466 (Simulation time: 0 hr 18 min 57 sec) 
select_counter is 455
Heartbeat CPU 0 instructions: 45000000 cycles: 56867484 heartbeat IPC: 0.731346 cumulative IPC: 0.740202 (Simulation time: 0 hr 19 min 22 sec) 
select_counter is 422
Heartbeat CPU 0 instructions: 46000000 cycles: 58258273 heartbeat IPC: 0.719016 cumulative IPC: 0.739597 (Simulation time: 0 hr 19 min 48 sec) 
select_counter is 396
Heartbeat CPU 0 instructions: 47000002 cycles: 59631561 heartbeat IPC: 0.728181 cumulative IPC: 0.739283 (Simulation time: 0 hr 20 min 14 sec) 
select_counter is 370
Heartbeat CPU 0 instructions: 48000000 cycles: 60976994 heartbeat IPC: 0.743254 cumulative IPC: 0.739387 (Simulation time: 0 hr 20 min 43 sec) 
select_counter is 349
Heartbeat CPU 0 instructions: 49000002 cycles: 62302694 heartbeat IPC: 0.75432 cumulative IPC: 0.739763 (Simulation time: 0 hr 21 min 10 sec) 
select_counter is 312
Heartbeat CPU 0 instructions: 50000000 cycles: 63623269 heartbeat IPC: 0.757244 cumulative IPC: 0.74019 (Simulation time: 0 hr 21 min 38 sec) 
select_counter is 283
Heartbeat CPU 0 instructions: 51000000 cycles: 64978387 heartbeat IPC: 0.737943 cumulative IPC: 0.740135 (Simulation time: 0 hr 22 min 3 sec) 
select_counter is 253
Heartbeat CPU 0 instructions: 52000000 cycles: 66368350 heartbeat IPC: 0.719444 cumulative IPC: 0.739629 (Simulation time: 0 hr 22 min 29 sec) 
select_counter is 229
Heartbeat CPU 0 instructions: 53000001 cycles: 67704796 heartbeat IPC: 0.748254 cumulative IPC: 0.739827 (Simulation time: 0 hr 22 min 55 sec) 
select_counter is 199
Heartbeat CPU 0 instructions: 54000000 cycles: 69019458 heartbeat IPC: 0.760651 cumulative IPC: 0.740288 (Simulation time: 0 hr 23 min 21 sec) 
select_counter is 172
Heartbeat CPU 0 instructions: 55000001 cycles: 70325361 heartbeat IPC: 0.765754 cumulative IPC: 0.740835 (Simulation time: 0 hr 23 min 48 sec) 
select_counter is 142
Heartbeat CPU 0 instructions: 56000000 cycles: 71647546 heartbeat IPC: 0.756323 cumulative IPC: 0.741165 (Simulation time: 0 hr 24 min 13 sec) 
select_counter is 109
Heartbeat CPU 0 instructions: 57000001 cycles: 72980384 heartbeat IPC: 0.750279 cumulative IPC: 0.741357 (Simulation time: 0 hr 24 min 40 sec) 
select_counter is 80
Heartbeat CPU 0 instructions: 58000000 cycles: 74353581 heartbeat IPC: 0.728227 cumulative IPC: 0.741078 (Simulation time: 0 hr 25 min 5 sec) 
select_counter is 65
Heartbeat CPU 0 instructions: 59000000 cycles: 75747996 heartbeat IPC: 0.717147 cumulative IPC: 0.740574 (Simulation time: 0 hr 25 min 31 sec) 
select_counter is 7
Heartbeat CPU 0 instructions: 60000000 cycles: 77123038 heartbeat IPC: 0.727251 cumulative IPC: 0.740303 (Simulation time: 0 hr 25 min 57 sec) 
select_counter is 489
Heartbeat CPU 0 instructions: 61000000 cycles: 78453950 heartbeat IPC: 0.751364 cumulative IPC: 0.740516 (Simulation time: 0 hr 26 min 24 sec) 
select_counter is 463
Heartbeat CPU 0 instructions: 62000002 cycles: 79815065 heartbeat IPC: 0.734693 cumulative IPC: 0.740404 (Simulation time: 0 hr 26 min 51 sec) 
select_counter is 430
Heartbeat CPU 0 instructions: 63000003 cycles: 81131419 heartbeat IPC: 0.759675 cumulative IPC: 0.740758 (Simulation time: 0 hr 27 min 19 sec) 
select_counter is 411
Heartbeat CPU 0 instructions: 64000000 cycles: 82449403 heartbeat IPC: 0.758732 cumulative IPC: 0.741083 (Simulation time: 0 hr 27 min 45 sec) 
select_counter is 381
Heartbeat CPU 0 instructions: 65000000 cycles: 83791470 heartbeat IPC: 0.745119 cumulative IPC: 0.741156 (Simulation time: 0 hr 28 min 15 sec) 
select_counter is 346
Heartbeat CPU 0 instructions: 66000002 cycles: 85180740 heartbeat IPC: 0.719804 cumulative IPC: 0.740764 (Simulation time: 0 hr 28 min 46 sec) 
select_counter is 310
Heartbeat CPU 0 instructions: 67000002 cycles: 86567455 heartbeat IPC: 0.721129 cumulative IPC: 0.74041 (Simulation time: 0 hr 29 min 15 sec) 
select_counter is 282
Heartbeat CPU 0 instructions: 68000000 cycles: 87916284 heartbeat IPC: 0.741382 cumulative IPC: 0.740427 (Simulation time: 0 hr 29 min 42 sec) 
select_counter is 253
Heartbeat CPU 0 instructions: 69000000 cycles: 89244173 heartbeat IPC: 0.753075 cumulative IPC: 0.740638 (Simulation time: 0 hr 30 min 12 sec) 
select_counter is 221
Heartbeat CPU 0 instructions: 70000000 cycles: 90569948 heartbeat IPC: 0.754276 cumulative IPC: 0.740861 (Simulation time: 0 hr 30 min 44 sec) 
select_counter is 190
Heartbeat CPU 0 instructions: 71000003 cycles: 91912225 heartbeat IPC: 0.745005 cumulative IPC: 0.740929 (Simulation time: 0 hr 31 min 10 sec) 
select_counter is 151
Heartbeat CPU 0 instructions: 72000000 cycles: 93250577 heartbeat IPC: 0.747185 cumulative IPC: 0.741029 (Simulation time: 0 hr 31 min 37 sec) 
select_counter is 104
Heartbeat CPU 0 instructions: 73000003 cycles: 94616898 heartbeat IPC: 0.731895 cumulative IPC: 0.740882 (Simulation time: 0 hr 32 min 2 sec) 
select_counter is 63
Heartbeat CPU 0 instructions: 74000001 cycles: 96015179 heartbeat IPC: 0.715162 cumulative IPC: 0.740466 (Simulation time: 0 hr 32 min 28 sec) 
select_counter is 38
Heartbeat CPU 0 instructions: 75000003 cycles: 97388234 heartbeat IPC: 0.728304 cumulative IPC: 0.740276 (Simulation time: 0 hr 32 min 55 sec) 
select_counter is 510
Heartbeat CPU 0 instructions: 76000000 cycles: 98731771 heartbeat IPC: 0.744302 cumulative IPC: 0.740336 (Simulation time: 0 hr 33 min 21 sec) 
select_counter is 482
Heartbeat CPU 0 instructions: 77000003 cycles: 100065016 heartbeat IPC: 0.750052 cumulative IPC: 0.740479 (Simulation time: 0 hr 33 min 52 sec) 
select_counter is 452
Heartbeat CPU 0 instructions: 78000001 cycles: 101398612 heartbeat IPC: 0.749851 cumulative IPC: 0.740616 (Simulation time: 0 hr 34 min 17 sec) 
select_counter is 414
Heartbeat CPU 0 instructions: 79000000 cycles: 102754442 heartbeat IPC: 0.737555 cumulative IPC: 0.740571 (Simulation time: 0 hr 34 min 40 sec) 
select_counter is 389
Heartbeat CPU 0 instructions: 80000000 cycles: 104101386 heartbeat IPC: 0.742421 cumulative IPC: 0.740597 (Simulation time: 0 hr 35 min 3 sec) 
select_counter is 368
Heartbeat CPU 0 instructions: 81000002 cycles: 105479126 heartbeat IPC: 0.725828 cumulative IPC: 0.740385 (Simulation time: 0 hr 35 min 27 sec) 
select_counter is 327
Heartbeat CPU 0 instructions: 82000000 cycles: 106849512 heartbeat IPC: 0.72972 cumulative IPC: 0.740235 (Simulation time: 0 hr 35 min 48 sec) 
select_counter is 289
Heartbeat CPU 0 instructions: 83000003 cycles: 108181768 heartbeat IPC: 0.750609 cumulative IPC: 0.740375 (Simulation time: 0 hr 36 min 10 sec) 
select_counter is 259
Heartbeat CPU 0 instructions: 84000000 cycles: 109523165 heartbeat IPC: 0.745489 cumulative IPC: 0.740444 (Simulation time: 0 hr 36 min 31 sec) 
select_counter is 222
Heartbeat CPU 0 instructions: 85000002 cycles: 110837544 heartbeat IPC: 0.760817 cumulative IPC: 0.740708 (Simulation time: 0 hr 36 min 52 sec) 
select_counter is 181
Heartbeat CPU 0 instructions: 86000003 cycles: 112140723 heartbeat IPC: 0.767355 cumulative IPC: 0.741047 (Simulation time: 0 hr 37 min 12 sec) 
select_counter is 140
Heartbeat CPU 0 instructions: 87000000 cycles: 113521544 heartbeat IPC: 0.724205 cumulative IPC: 0.740823 (Simulation time: 0 hr 37 min 31 sec) 
select_counter is 113
Heartbeat CPU 0 instructions: 88000000 cycles: 114870500 heartbeat IPC: 0.741314 cumulative IPC: 0.740829 (Simulation time: 0 hr 37 min 49 sec) 
select_counter is 80
Heartbeat CPU 0 instructions: 89000000 cycles: 116229194 heartbeat IPC: 0.736001 cumulative IPC: 0.740768 (Simulation time: 0 hr 38 min 6 sec) 
select_counter is 51
Heartbeat CPU 0 instructions: 90000000 cycles: 117545389 heartbeat IPC: 0.759766 cumulative IPC: 0.740999 (Simulation time: 0 hr 38 min 24 sec) 
select_counter is 21
Heartbeat CPU 0 instructions: 91000001 cycles: 118852166 heartbeat IPC: 0.765242 cumulative IPC: 0.741289 (Simulation time: 0 hr 38 min 40 sec) 
select_counter is 501
Heartbeat CPU 0 instructions: 92000000 cycles: 120168760 heartbeat IPC: 0.759535 cumulative IPC: 0.741507 (Simulation time: 0 hr 38 min 57 sec) 
select_counter is 462
Heartbeat CPU 0 instructions: 93000003 cycles: 121552788 heartbeat IPC: 0.722531 cumulative IPC: 0.741272 (Simulation time: 0 hr 39 min 13 sec) 
select_counter is 416
Heartbeat CPU 0 instructions: 94000000 cycles: 122895930 heartbeat IPC: 0.744521 cumulative IPC: 0.741311 (Simulation time: 0 hr 39 min 28 sec) 
select_counter is 357
Heartbeat CPU 0 instructions: 95000000 cycles: 124247735 heartbeat IPC: 0.739752 cumulative IPC: 0.741292 (Simulation time: 0 hr 39 min 44 sec) 
select_counter is 324
Heartbeat CPU 0 instructions: 96000000 cycles: 125581521 heartbeat IPC: 0.749745 cumulative IPC: 0.741389 (Simulation time: 0 hr 39 min 59 sec) 
select_counter is 301
Heartbeat CPU 0 instructions: 97000000 cycles: 126892157 heartbeat IPC: 0.762988 cumulative IPC: 0.741631 (Simulation time: 0 hr 40 min 14 sec) 
select_counter is 276
Heartbeat CPU 0 instructions: 98000003 cycles: 128201837 heartbeat IPC: 0.763548 cumulative IPC: 0.741873 (Simulation time: 0 hr 40 min 29 sec) 
select_counter is 246
Heartbeat CPU 0 instructions: 99000000 cycles: 129588709 heartbeat IPC: 0.721045 cumulative IPC: 0.741632 (Simulation time: 0 hr 40 min 43 sec) 
select_counter is 206
Heartbeat CPU 0 instructions: 100000000 cycles: 130932842 heartbeat IPC: 0.743974 cumulative IPC: 0.741658 (Simulation time: 0 hr 40 min 57 sec) 
select_counter is 167
Heartbeat CPU 0 instructions: 101000000 cycles: 132279433 heartbeat IPC: 0.742616 cumulative IPC: 0.741668 (Simulation time: 0 hr 41 min 10 sec) 
select_counter is 137
Heartbeat CPU 0 instructions: 102000001 cycles: 133592533 heartbeat IPC: 0.761557 cumulative IPC: 0.741879 (Simulation time: 0 hr 41 min 24 sec) 
select_counter is 114
Heartbeat CPU 0 instructions: 103000001 cycles: 134895296 heartbeat IPC: 0.767599 cumulative IPC: 0.742146 (Simulation time: 0 hr 41 min 37 sec) 
select_counter is 86
Heartbeat CPU 0 instructions: 104000000 cycles: 136197235 heartbeat IPC: 0.768084 cumulative IPC: 0.742413 (Simulation time: 0 hr 41 min 50 sec) 
select_counter is 58
Heartbeat CPU 0 instructions: 105000002 cycles: 137575630 heartbeat IPC: 0.725483 cumulative IPC: 0.742231 (Simulation time: 0 hr 42 min 3 sec) 
select_counter is 21
Heartbeat CPU 0 instructions: 106000000 cycles: 138980304 heartbeat IPC: 0.711908 cumulative IPC: 0.741902 (Simulation time: 0 hr 42 min 16 sec) 
select_counter is 511
Heartbeat CPU 0 instructions: 107000002 cycles: 140369993 heartbeat IPC: 0.719587 cumulative IPC: 0.741665 (Simulation time: 0 hr 42 min 29 sec) 
select_counter is 472
Heartbeat CPU 0 instructions: 108000000 cycles: 141725442 heartbeat IPC: 0.737761 cumulative IPC: 0.741624 (Simulation time: 0 hr 42 min 42 sec) 
select_counter is 433
Heartbeat CPU 0 instructions: 109000000 cycles: 143061861 heartbeat IPC: 0.748268 cumulative IPC: 0.741691 (Simulation time: 0 hr 42 min 54 sec) 
select_counter is 392
Heartbeat CPU 0 instructions: 110000000 cycles: 144391913 heartbeat IPC: 0.75185 cumulative IPC: 0.741791 (Simulation time: 0 hr 43 min 6 sec) 
select_counter is 353
Finished CPU 0 instructions: 100000003 cycles: 134808820 cummulative IPC: 0.741791 (Simulation time: 0 hr 43 min 6 sec) 

ChampSim completed all CPUs

Region of Interest Statistics

CPU 0 cummulative IPC: 0.741791 instructions: 100000003 cycles: 134808820
LLC TOTAL     ACCESS:   21346124  HIT:   21268774  MISS:      77350
LLC LOAD      ACCESS:     165900  HIT:     130793  MISS:      35107
LLC RFO       ACCESS:   10463422  HIT:   10457693  MISS:       5729
LLC PREFETCH  ACCESS:     183314  HIT:     147852  MISS:      35462
LLC WRITEBACK ACCESS:   10533488  HIT:   10532436  MISS:       1052
Ship samples: 
27, 54, 75, 97, 136, 170, 216, 228, 278, 298, 340, 358, 399, 447, 470, 504, 528, 562, 591, 637, 647, 678, 705, 767, 781, 813, 837, 892, 913, 951, 977, 1020, 1041, 1071, 1102, 1136, 1178, 1215, 1242, 1269, 1309, 1332, 1364, 1379, 1417, 1457, 1485, 1515, 1544, 1580, 1630, 1632, 1665, 1711, 1745, 1789, 1802, 1832, 1859, 1891, 1951, 1976, 2007, 2027, 
Lime duel samples: 
26, 49, 86, 100, 158, 190, 207, 226, 284, 311, 351, 383, 388, 444, 477, 506, 519, 558, 597, 624, 654, 701, 713, 739, 793, 831, 844, 882, 897, 953, 971, 1023, 1055, 1073, 1090, 1149, 1173, 1207, 1244, 1278, 1287, 1314, 1346, 1392, 1414, 1467, 1498, 1529, 1566, 1581, 1605, 1634, 1685, 1724, 1759, 1782, 1811, 1855, 1882, 1902, 1950, 1981, 1997, 2019, 
Lime samples: 
26, 158, 284, 388, 519, 654, 793, 897, 1055, 1173, 1287, 1414, 1566, 1685, 1811, 1950, 
Insertion Distribution: 
	LOAD 2433 0 0 0 0 0 9500 8119 
	RFO 0 0 0 0 0 0 1938 1790 
	PREF 0 2208 0 0 0 0 6845 10002 
	WRITEBACK 0 0 0 0 0 0 0 77 
Total Prefetch Downgrades: 2770
