
*** ChampSim Multicore Out-of-Order Simulator ***

Warmup Instructions: 10000000
Simulation Instructions: 100000000
Configuration: 2
Number of CPUs: 1
LLC sets: 2048
LLC ways: 16
Off-chip DRAM Channels: 1 Width: 64-bit Data Rate: 1600 MT/s

CPU 0 runs /datasets/cs240c-wi22-a00-public/data/Assignment2-gz/libquantum_1210B.trace.gz
CPU 0 L1D next line prefetcher
CPU 0 L2C IP-based stride prefetcher
Heartbeat CPU 0 instructions: 1000003 cycles: 314916 heartbeat IPC: 3.17546 cumulative IPC: 3.17546 (Simulation time: 0 hr 0 min 12 sec) 
select_counter is 462
Heartbeat CPU 0 instructions: 2000000 cycles: 630170 heartbeat IPC: 3.17204 cumulative IPC: 3.17375 (Simulation time: 0 hr 0 min 23 sec) 
select_counter is 453
Heartbeat CPU 0 instructions: 3000001 cycles: 945979 heartbeat IPC: 3.16647 cumulative IPC: 3.17132 (Simulation time: 0 hr 0 min 34 sec) 
select_counter is 449
Heartbeat CPU 0 instructions: 4000000 cycles: 1260333 heartbeat IPC: 3.18112 cumulative IPC: 3.17376 (Simulation time: 0 hr 0 min 46 sec) 
select_counter is 438
Heartbeat CPU 0 instructions: 5000001 cycles: 1576818 heartbeat IPC: 3.15971 cumulative IPC: 3.17094 (Simulation time: 0 hr 0 min 57 sec) 
select_counter is 450
Heartbeat CPU 0 instructions: 6000002 cycles: 1891318 heartbeat IPC: 3.17965 cumulative IPC: 3.17239 (Simulation time: 0 hr 1 min 8 sec) 
select_counter is 446
Heartbeat CPU 0 instructions: 7000001 cycles: 2206981 heartbeat IPC: 3.16793 cumulative IPC: 3.17175 (Simulation time: 0 hr 1 min 19 sec) 
select_counter is 441
Heartbeat CPU 0 instructions: 8000000 cycles: 2522385 heartbeat IPC: 3.17053 cumulative IPC: 3.1716 (Simulation time: 0 hr 1 min 30 sec) 
select_counter is 431
Heartbeat CPU 0 instructions: 9000002 cycles: 2837144 heartbeat IPC: 3.17704 cumulative IPC: 3.1722 (Simulation time: 0 hr 1 min 41 sec) 
select_counter is 411
Heartbeat CPU 0 instructions: 10000003 cycles: 3153454 heartbeat IPC: 3.16146 cumulative IPC: 3.17113 (Simulation time: 0 hr 1 min 52 sec) 
select_counter is 397

Warmup complete CPU 0 instructions: 10000003 cycles: 3153454 (Simulation time: 0 hr 1 min 52 sec) 

Heartbeat CPU 0 instructions: 11000001 cycles: 5323108 heartbeat IPC: 0.460902 cumulative IPC: 0.460902 (Simulation time: 0 hr 2 min 11 sec) 
select_counter is 354
Heartbeat CPU 0 instructions: 12000000 cycles: 7442501 heartbeat IPC: 0.471833 cumulative IPC: 0.466303 (Simulation time: 0 hr 2 min 32 sec) 
select_counter is 331
Heartbeat CPU 0 instructions: 13000003 cycles: 9979654 heartbeat IPC: 0.394144 cumulative IPC: 0.439483 (Simulation time: 0 hr 2 min 53 sec) 
select_counter is 96
Heartbeat CPU 0 instructions: 14000001 cycles: 12559106 heartbeat IPC: 0.387678 cumulative IPC: 0.425276 (Simulation time: 0 hr 3 min 16 sec) 
select_counter is 131
Heartbeat CPU 0 instructions: 15000001 cycles: 15126698 heartbeat IPC: 0.38947 cumulative IPC: 0.417598 (Simulation time: 0 hr 3 min 38 sec) 
select_counter is 175
Heartbeat CPU 0 instructions: 16000000 cycles: 17713207 heartbeat IPC: 0.386621 cumulative IPC: 0.412095 (Simulation time: 0 hr 4 min 0 sec) 
select_counter is 226
Heartbeat CPU 0 instructions: 17000000 cycles: 20310139 heartbeat IPC: 0.38507 cumulative IPC: 0.408004 (Simulation time: 0 hr 4 min 24 sec) 
select_counter is 268
Heartbeat CPU 0 instructions: 18000002 cycles: 22934115 heartbeat IPC: 0.381102 cumulative IPC: 0.404435 (Simulation time: 0 hr 4 min 47 sec) 
select_counter is 299
Heartbeat CPU 0 instructions: 19000000 cycles: 25527304 heartbeat IPC: 0.385625 cumulative IPC: 0.402255 (Simulation time: 0 hr 5 min 11 sec) 
select_counter is 136
Heartbeat CPU 0 instructions: 20000000 cycles: 28091620 heartbeat IPC: 0.389968 cumulative IPC: 0.400992 (Simulation time: 0 hr 5 min 32 sec) 
select_counter is 114
Heartbeat CPU 0 instructions: 21000001 cycles: 30653388 heartbeat IPC: 0.390356 cumulative IPC: 0.400001 (Simulation time: 0 hr 5 min 53 sec) 
select_counter is 98
Heartbeat CPU 0 instructions: 22000003 cycles: 33208228 heartbeat IPC: 0.391415 cumulative IPC: 0.399271 (Simulation time: 0 hr 6 min 14 sec) 
select_counter is 85
Heartbeat CPU 0 instructions: 23000000 cycles: 35790534 heartbeat IPC: 0.38725 cumulative IPC: 0.39832 (Simulation time: 0 hr 6 min 35 sec) 
select_counter is 75
Heartbeat CPU 0 instructions: 24000000 cycles: 38383661 heartbeat IPC: 0.385635 cumulative IPC: 0.397386 (Simulation time: 0 hr 6 min 59 sec) 
select_counter is 61
Heartbeat CPU 0 instructions: 25000000 cycles: 40980144 heartbeat IPC: 0.385136 cumulative IPC: 0.396545 (Simulation time: 0 hr 7 min 21 sec) 
select_counter is 41
Heartbeat CPU 0 instructions: 26000000 cycles: 43570194 heartbeat IPC: 0.386093 cumulative IPC: 0.395875 (Simulation time: 0 hr 7 min 45 sec) 
select_counter is 17
Heartbeat CPU 0 instructions: 27000003 cycles: 46181325 heartbeat IPC: 0.382977 cumulative IPC: 0.395093 (Simulation time: 0 hr 8 min 7 sec) 
select_counter is 373
Heartbeat CPU 0 instructions: 28000000 cycles: 48681742 heartbeat IPC: 0.399932 cumulative IPC: 0.395359 (Simulation time: 0 hr 8 min 31 sec) 
select_counter is 78
Heartbeat CPU 0 instructions: 29000002 cycles: 50251910 heartbeat IPC: 0.636876 cumulative IPC: 0.40341 (Simulation time: 0 hr 8 min 52 sec) 
select_counter is 111
Heartbeat CPU 0 instructions: 30000001 cycles: 51727084 heartbeat IPC: 0.677885 cumulative IPC: 0.411746 (Simulation time: 0 hr 9 min 12 sec) 
select_counter is 155
Heartbeat CPU 0 instructions: 31000000 cycles: 53198128 heartbeat IPC: 0.679789 cumulative IPC: 0.419625 (Simulation time: 0 hr 9 min 32 sec) 
select_counter is 217
Heartbeat CPU 0 instructions: 32000000 cycles: 54670317 heartbeat IPC: 0.679261 cumulative IPC: 0.427045 (Simulation time: 0 hr 9 min 53 sec) 
select_counter is 317
Heartbeat CPU 0 instructions: 33000000 cycles: 56142336 heartbeat IPC: 0.679339 cumulative IPC: 0.434053 (Simulation time: 0 hr 10 min 13 sec) 
select_counter is 439
Heartbeat CPU 0 instructions: 34000002 cycles: 57617077 heartbeat IPC: 0.678087 cumulative IPC: 0.440661 (Simulation time: 0 hr 10 min 35 sec) 
select_counter is 510
Heartbeat CPU 0 instructions: 35000001 cycles: 59091403 heartbeat IPC: 0.678275 cumulative IPC: 0.446924 (Simulation time: 0 hr 10 min 55 sec) 
select_counter is 510
Heartbeat CPU 0 instructions: 36000000 cycles: 60566043 heartbeat IPC: 0.678131 cumulative IPC: 0.452862 (Simulation time: 0 hr 11 min 16 sec) 
select_counter is 448
Heartbeat CPU 0 instructions: 37000001 cycles: 62036927 heartbeat IPC: 0.679864 cumulative IPC: 0.458533 (Simulation time: 0 hr 11 min 37 sec) 
select_counter is 449
Heartbeat CPU 0 instructions: 38000002 cycles: 63507883 heartbeat IPC: 0.679831 cumulative IPC: 0.463926 (Simulation time: 0 hr 11 min 58 sec) 
select_counter is 448
Heartbeat CPU 0 instructions: 39000001 cycles: 64978747 heartbeat IPC: 0.679872 cumulative IPC: 0.469064 (Simulation time: 0 hr 12 min 20 sec) 
select_counter is 448
Heartbeat CPU 0 instructions: 40000000 cycles: 66449681 heartbeat IPC: 0.679839 cumulative IPC: 0.473962 (Simulation time: 0 hr 12 min 41 sec) 
select_counter is 447
Heartbeat CPU 0 instructions: 41000000 cycles: 67920659 heartbeat IPC: 0.67982 cumulative IPC: 0.478637 (Simulation time: 0 hr 13 min 3 sec) 
select_counter is 449
Heartbeat CPU 0 instructions: 42000000 cycles: 69391520 heartbeat IPC: 0.679874 cumulative IPC: 0.483106 (Simulation time: 0 hr 13 min 25 sec) 
select_counter is 448
Heartbeat CPU 0 instructions: 43000002 cycles: 70862385 heartbeat IPC: 0.679873 cumulative IPC: 0.48738 (Simulation time: 0 hr 13 min 45 sec) 
select_counter is 449
Heartbeat CPU 0 instructions: 44000000 cycles: 72333319 heartbeat IPC: 0.679839 cumulative IPC: 0.491472 (Simulation time: 0 hr 14 min 5 sec) 
select_counter is 447
Heartbeat CPU 0 instructions: 45000000 cycles: 73804154 heartbeat IPC: 0.679886 cumulative IPC: 0.495395 (Simulation time: 0 hr 14 min 26 sec) 
select_counter is 425
Heartbeat CPU 0 instructions: 46000003 cycles: 75284696 heartbeat IPC: 0.67543 cumulative IPC: 0.49909 (Simulation time: 0 hr 14 min 47 sec) 
select_counter is 322
Heartbeat CPU 0 instructions: 47000002 cycles: 76880549 heartbeat IPC: 0.626624 cumulative IPC: 0.501851 (Simulation time: 0 hr 15 min 7 sec) 
select_counter is 124
Heartbeat CPU 0 instructions: 48000000 cycles: 79035302 heartbeat IPC: 0.464089 cumulative IPC: 0.500778 (Simulation time: 0 hr 15 min 29 sec) 
select_counter is 326
Heartbeat CPU 0 instructions: 49000000 cycles: 81346629 heartbeat IPC: 0.432652 cumulative IPC: 0.498765 (Simulation time: 0 hr 15 min 51 sec) 
select_counter is 434
Heartbeat CPU 0 instructions: 50000003 cycles: 83688644 heartbeat IPC: 0.426984 cumulative IPC: 0.496677 (Simulation time: 0 hr 16 min 13 sec) 
select_counter is 492
Heartbeat CPU 0 instructions: 51000000 cycles: 86038934 heartbeat IPC: 0.425478 cumulative IPC: 0.494658 (Simulation time: 0 hr 16 min 35 sec) 
select_counter is 505
Heartbeat CPU 0 instructions: 52000000 cycles: 88396855 heartbeat IPC: 0.424102 cumulative IPC: 0.492707 (Simulation time: 0 hr 16 min 58 sec) 
select_counter is 507
Heartbeat CPU 0 instructions: 53000003 cycles: 90728203 heartbeat IPC: 0.428938 cumulative IPC: 0.491009 (Simulation time: 0 hr 17 min 19 sec) 
select_counter is 501
Heartbeat CPU 0 instructions: 54000003 cycles: 93063504 heartbeat IPC: 0.42821 cumulative IPC: 0.489378 (Simulation time: 0 hr 17 min 42 sec) 
select_counter is 468
Heartbeat CPU 0 instructions: 55000002 cycles: 95405307 heartbeat IPC: 0.427021 cumulative IPC: 0.487795 (Simulation time: 0 hr 18 min 4 sec) 
select_counter is 471
Heartbeat CPU 0 instructions: 56000000 cycles: 97779804 heartbeat IPC: 0.421141 cumulative IPC: 0.486122 (Simulation time: 0 hr 18 min 26 sec) 
select_counter is 466
Heartbeat CPU 0 instructions: 57000001 cycles: 100130805 heartbeat IPC: 0.425351 cumulative IPC: 0.484649 (Simulation time: 0 hr 18 min 47 sec) 
select_counter is 451
Heartbeat CPU 0 instructions: 58000000 cycles: 102473735 heartbeat IPC: 0.426816 cumulative IPC: 0.483285 (Simulation time: 0 hr 19 min 9 sec) 
select_counter is 459
Heartbeat CPU 0 instructions: 59000000 cycles: 104813448 heartbeat IPC: 0.427403 cumulative IPC: 0.481999 (Simulation time: 0 hr 19 min 30 sec) 
select_counter is 440
Heartbeat CPU 0 instructions: 60000000 cycles: 107138770 heartbeat IPC: 0.430048 cumulative IPC: 0.480837 (Simulation time: 0 hr 19 min 52 sec) 
select_counter is 419
Heartbeat CPU 0 instructions: 61000001 cycles: 109482186 heartbeat IPC: 0.426728 cumulative IPC: 0.479645 (Simulation time: 0 hr 20 min 14 sec) 
select_counter is 357
Heartbeat CPU 0 instructions: 62000000 cycles: 111795383 heartbeat IPC: 0.432302 cumulative IPC: 0.478637 (Simulation time: 0 hr 20 min 35 sec) 
select_counter is 185
Heartbeat CPU 0 instructions: 63000001 cycles: 114034408 heartbeat IPC: 0.446623 cumulative IPC: 0.47799 (Simulation time: 0 hr 20 min 56 sec) 
select_counter is 301
Heartbeat CPU 0 instructions: 64000000 cycles: 116209779 heartbeat IPC: 0.459691 cumulative IPC: 0.477638 (Simulation time: 0 hr 21 min 16 sec) 
select_counter is 320
Heartbeat CPU 0 instructions: 65000000 cycles: 118362208 heartbeat IPC: 0.464591 cumulative IPC: 0.477394 (Simulation time: 0 hr 21 min 36 sec) 
select_counter is 461
Heartbeat CPU 0 instructions: 66000001 cycles: 120539454 heartbeat IPC: 0.459296 cumulative IPC: 0.477059 (Simulation time: 0 hr 21 min 56 sec) 
select_counter is 508
Heartbeat CPU 0 instructions: 67000000 cycles: 122658343 heartbeat IPC: 0.471945 cumulative IPC: 0.476968 (Simulation time: 0 hr 22 min 15 sec) 
select_counter is 510
Heartbeat CPU 0 instructions: 68000000 cycles: 124826858 heartbeat IPC: 0.461145 cumulative IPC: 0.476686 (Simulation time: 0 hr 22 min 35 sec) 
select_counter is 511
Heartbeat CPU 0 instructions: 69000002 cycles: 126978551 heartbeat IPC: 0.464751 cumulative IPC: 0.476479 (Simulation time: 0 hr 22 min 55 sec) 
select_counter is 509
Heartbeat CPU 0 instructions: 70000001 cycles: 129129135 heartbeat IPC: 0.46499 cumulative IPC: 0.476282 (Simulation time: 0 hr 23 min 15 sec) 
select_counter is 508
Heartbeat CPU 0 instructions: 71000000 cycles: 131285692 heartbeat IPC: 0.463702 cumulative IPC: 0.476071 (Simulation time: 0 hr 23 min 35 sec) 
select_counter is 495
Heartbeat CPU 0 instructions: 72000000 cycles: 133396834 heartbeat IPC: 0.473677 cumulative IPC: 0.476032 (Simulation time: 0 hr 23 min 57 sec) 
select_counter is 508
Heartbeat CPU 0 instructions: 73000002 cycles: 135550126 heartbeat IPC: 0.464406 cumulative IPC: 0.475843 (Simulation time: 0 hr 24 min 17 sec) 
select_counter is 507
Heartbeat CPU 0 instructions: 74000002 cycles: 137654991 heartbeat IPC: 0.47509 cumulative IPC: 0.475831 (Simulation time: 0 hr 24 min 38 sec) 
select_counter is 507
Heartbeat CPU 0 instructions: 75000001 cycles: 139799406 heartbeat IPC: 0.466327 cumulative IPC: 0.475682 (Simulation time: 0 hr 24 min 57 sec) 
select_counter is 507
Heartbeat CPU 0 instructions: 76000000 cycles: 141938264 heartbeat IPC: 0.467539 cumulative IPC: 0.475556 (Simulation time: 0 hr 25 min 20 sec) 
select_counter is 498
Heartbeat CPU 0 instructions: 77000000 cycles: 144053653 heartbeat IPC: 0.472726 cumulative IPC: 0.475514 (Simulation time: 0 hr 25 min 39 sec) 
select_counter is 505
Heartbeat CPU 0 instructions: 78000002 cycles: 146214683 heartbeat IPC: 0.462743 cumulative IPC: 0.475321 (Simulation time: 0 hr 25 min 58 sec) 
select_counter is 495
Heartbeat CPU 0 instructions: 79000001 cycles: 148328836 heartbeat IPC: 0.473002 cumulative IPC: 0.475287 (Simulation time: 0 hr 26 min 17 sec) 
select_counter is 476
Heartbeat CPU 0 instructions: 80000000 cycles: 150497416 heartbeat IPC: 0.461131 cumulative IPC: 0.475079 (Simulation time: 0 hr 26 min 36 sec) 
select_counter is 462
Heartbeat CPU 0 instructions: 81000000 cycles: 152626744 heartbeat IPC: 0.469632 cumulative IPC: 0.475001 (Simulation time: 0 hr 26 min 56 sec) 
select_counter is 344
Heartbeat CPU 0 instructions: 82000000 cycles: 154771782 heartbeat IPC: 0.466192 cumulative IPC: 0.474877 (Simulation time: 0 hr 27 min 15 sec) 
select_counter is 262
Heartbeat CPU 0 instructions: 83000001 cycles: 157141924 heartbeat IPC: 0.421916 cumulative IPC: 0.474061 (Simulation time: 0 hr 27 min 36 sec) 
select_counter is 263
Heartbeat CPU 0 instructions: 84000000 cycles: 159592981 heartbeat IPC: 0.407987 cumulative IPC: 0.473026 (Simulation time: 0 hr 27 min 59 sec) 
select_counter is 414
Heartbeat CPU 0 instructions: 85000001 cycles: 162081802 heartbeat IPC: 0.401797 cumulative IPC: 0.471911 (Simulation time: 0 hr 28 min 22 sec) 
select_counter is 509
Heartbeat CPU 0 instructions: 86000001 cycles: 164593346 heartbeat IPC: 0.398161 cumulative IPC: 0.470763 (Simulation time: 0 hr 28 min 44 sec) 
select_counter is 510
Heartbeat CPU 0 instructions: 87000003 cycles: 167121789 heartbeat IPC: 0.395501 cumulative IPC: 0.469603 (Simulation time: 0 hr 29 min 7 sec) 
select_counter is 508
Heartbeat CPU 0 instructions: 88000000 cycles: 169641875 heartbeat IPC: 0.396811 cumulative IPC: 0.468501 (Simulation time: 0 hr 29 min 29 sec) 
select_counter is 505
Heartbeat CPU 0 instructions: 89000001 cycles: 172171308 heartbeat IPC: 0.395346 cumulative IPC: 0.467406 (Simulation time: 0 hr 29 min 50 sec) 
select_counter is 506
Heartbeat CPU 0 instructions: 90000000 cycles: 174687498 heartbeat IPC: 0.397426 cumulative IPC: 0.46638 (Simulation time: 0 hr 30 min 13 sec) 
select_counter is 510
Heartbeat CPU 0 instructions: 91000002 cycles: 177194373 heartbeat IPC: 0.398904 cumulative IPC: 0.465408 (Simulation time: 0 hr 30 min 35 sec) 
select_counter is 507
Heartbeat CPU 0 instructions: 92000000 cycles: 179693116 heartbeat IPC: 0.4002 cumulative IPC: 0.464485 (Simulation time: 0 hr 30 min 58 sec) 
select_counter is 509
Heartbeat CPU 0 instructions: 93000003 cycles: 182198456 heartbeat IPC: 0.399149 cumulative IPC: 0.463571 (Simulation time: 0 hr 31 min 20 sec) 
select_counter is 500
Heartbeat CPU 0 instructions: 94000000 cycles: 184723269 heartbeat IPC: 0.396068 cumulative IPC: 0.462632 (Simulation time: 0 hr 31 min 41 sec) 
select_counter is 499
Heartbeat CPU 0 instructions: 95000002 cycles: 187249934 heartbeat IPC: 0.395779 cumulative IPC: 0.461714 (Simulation time: 0 hr 32 min 3 sec) 
select_counter is 493
Heartbeat CPU 0 instructions: 96000000 cycles: 189782925 heartbeat IPC: 0.394789 cumulative IPC: 0.460806 (Simulation time: 0 hr 32 min 23 sec) 
select_counter is 469
Heartbeat CPU 0 instructions: 97000001 cycles: 192311802 heartbeat IPC: 0.395433 cumulative IPC: 0.459932 (Simulation time: 0 hr 32 min 45 sec) 
select_counter is 357
Heartbeat CPU 0 instructions: 98000002 cycles: 194823207 heartbeat IPC: 0.398184 cumulative IPC: 0.459123 (Simulation time: 0 hr 33 min 7 sec) 
select_counter is 250
Heartbeat CPU 0 instructions: 99000002 cycles: 196457701 heartbeat IPC: 0.61181 cumulative IPC: 0.460414 (Simulation time: 0 hr 33 min 28 sec) 
select_counter is 371
Heartbeat CPU 0 instructions: 100000000 cycles: 197888297 heartbeat IPC: 0.699008 cumulative IPC: 0.462167 (Simulation time: 0 hr 33 min 48 sec) 
select_counter is 201
Heartbeat CPU 0 instructions: 101000000 cycles: 199318786 heartbeat IPC: 0.699062 cumulative IPC: 0.463894 (Simulation time: 0 hr 34 min 9 sec) 
select_counter is 345
Heartbeat CPU 0 instructions: 102000003 cycles: 200746536 heartbeat IPC: 0.700405 cumulative IPC: 0.465603 (Simulation time: 0 hr 34 min 29 sec) 
select_counter is 425
Heartbeat CPU 0 instructions: 103000002 cycles: 202174412 heartbeat IPC: 0.70034 cumulative IPC: 0.467287 (Simulation time: 0 hr 34 min 48 sec) 
select_counter is 511
Heartbeat CPU 0 instructions: 104000000 cycles: 203603369 heartbeat IPC: 0.69981 cumulative IPC: 0.468945 (Simulation time: 0 hr 35 min 7 sec) 
select_counter is 511
Heartbeat CPU 0 instructions: 105000000 cycles: 205031787 heartbeat IPC: 0.700075 cumulative IPC: 0.47058 (Simulation time: 0 hr 35 min 26 sec) 
select_counter is 510
Heartbeat CPU 0 instructions: 106000001 cycles: 206458621 heartbeat IPC: 0.700853 cumulative IPC: 0.472197 (Simulation time: 0 hr 35 min 43 sec) 
select_counter is 507
Heartbeat CPU 0 instructions: 107000000 cycles: 207885605 heartbeat IPC: 0.700778 cumulative IPC: 0.47379 (Simulation time: 0 hr 36 min 0 sec) 
select_counter is 511
Heartbeat CPU 0 instructions: 108000000 cycles: 209313068 heartbeat IPC: 0.700544 cumulative IPC: 0.47536 (Simulation time: 0 hr 36 min 17 sec) 
select_counter is 511
Heartbeat CPU 0 instructions: 109000001 cycles: 210739688 heartbeat IPC: 0.700958 cumulative IPC: 0.47691 (Simulation time: 0 hr 36 min 33 sec) 
select_counter is 510
Heartbeat CPU 0 instructions: 110000000 cycles: 212166366 heartbeat IPC: 0.700928 cumulative IPC: 0.478439 (Simulation time: 0 hr 36 min 50 sec) 
select_counter is 510
Finished CPU 0 instructions: 100000001 cycles: 209012916 cummulative IPC: 0.478439 (Simulation time: 0 hr 36 min 50 sec) 

ChampSim completed all CPUs

Region of Interest Statistics

CPU 0 cummulative IPC: 0.478439 instructions: 100000001 cycles: 209012916
LLC TOTAL     ACCESS:    4047262  HIT:     249271  MISS:    3797991
LLC LOAD      ACCESS:     834498  HIT:       8810  MISS:     825688
LLC RFO       ACCESS:         24  HIT:          3  MISS:         21
LLC PREFETCH  ACCESS:    2172304  HIT:      34050  MISS:    2138254
LLC WRITEBACK ACCESS:    1040436  HIT:     206408  MISS:     834028
Ship samples: 
6, 53, 69, 100, 144, 169, 223, 237, 285, 295, 324, 371, 387, 429, 466, 483, 528, 570, 599, 621, 652, 700, 719, 758, 792, 821, 854, 889, 918, 949, 989, 1011, 1031, 1069, 1109, 1138, 1169, 1211, 1235, 1267, 1309, 1318, 1368, 1385, 1434, 1457, 1483, 1517, 1548, 1593, 1615, 1646, 1672, 1724, 1745, 1771, 1823, 1845, 1873, 1894, 1949, 1955, 2012, 2044, 
Lime duel samples: 
1, 35, 66, 127, 152, 173, 212, 249, 267, 302, 329, 376, 397, 442, 449, 493, 536, 568, 597, 638, 648, 694, 715, 746, 780, 829, 860, 873, 899, 954, 963, 1005, 1045, 1064, 1094, 1141, 1164, 1213, 1243, 1256, 1296, 1327, 1350, 1407, 1422, 1470, 1495, 1508, 1555, 1594, 1602, 1643, 1664, 1705, 1755, 1775, 1807, 1842, 1879, 1919, 1931, 1975, 1993, 2032, 
Lime samples: 
1, 152, 267, 397, 536, 648, 780, 899, 1045, 1164, 1296, 1422, 1555, 1664, 1807, 1931, 
Insertion Distribution: 
	LOAD 20589 0 0 0 0 0 5996 153387 
	RFO 0 0 0 0 0 0 16 0 
	PREF 0 8231 0 0 0 0 38325 474841 
	WRITEBACK 0 0 0 0 0 0 0 238414 
Total Prefetch Downgrades: 2038
