
*** ChampSim Multicore Out-of-Order Simulator ***

Warmup Instructions: 10000000
Simulation Instructions: 100000000
Configuration: 2
Number of CPUs: 1
LLC sets: 2048
LLC ways: 16
Off-chip DRAM Channels: 1 Width: 64-bit Data Rate: 1600 MT/s

CPU 0 runs /datasets/cs240c-wi22-a00-public/data/Assignment2-gz/milc_409B.trace.gz
CPU 0 L1D next line prefetcher
CPU 0 L2C IP-based stride prefetcher
Heartbeat CPU 0 instructions: 1000002 cycles: 407040 heartbeat IPC: 2.45677 cumulative IPC: 2.45677 (Simulation time: 0 hr 0 min 21 sec) 
select_counter is 173
Heartbeat CPU 0 instructions: 2000002 cycles: 889868 heartbeat IPC: 2.07113 cumulative IPC: 2.24753 (Simulation time: 0 hr 0 min 43 sec) 
select_counter is 306
Heartbeat CPU 0 instructions: 3000003 cycles: 1672035 heartbeat IPC: 1.2785 cumulative IPC: 1.79422 (Simulation time: 0 hr 1 min 13 sec) 
select_counter is 511
Heartbeat CPU 0 instructions: 4000000 cycles: 2454292 heartbeat IPC: 1.27835 cumulative IPC: 1.6298 (Simulation time: 0 hr 1 min 40 sec) 
select_counter is 510
Heartbeat CPU 0 instructions: 5000000 cycles: 3135412 heartbeat IPC: 1.46817 cumulative IPC: 1.59469 (Simulation time: 0 hr 2 min 4 sec) 
select_counter is 320
Heartbeat CPU 0 instructions: 6000003 cycles: 3679804 heartbeat IPC: 1.83692 cumulative IPC: 1.63052 (Simulation time: 0 hr 2 min 30 sec) 
select_counter is 503
Heartbeat CPU 0 instructions: 7000002 cycles: 4224110 heartbeat IPC: 1.8372 cumulative IPC: 1.65715 (Simulation time: 0 hr 2 min 57 sec) 
select_counter is 20
Heartbeat CPU 0 instructions: 8000000 cycles: 4768518 heartbeat IPC: 1.83685 cumulative IPC: 1.67767 (Simulation time: 0 hr 3 min 19 sec) 
select_counter is 56
Heartbeat CPU 0 instructions: 9000003 cycles: 5312844 heartbeat IPC: 1.83714 cumulative IPC: 1.69401 (Simulation time: 0 hr 3 min 41 sec) 
select_counter is 457
Heartbeat CPU 0 instructions: 10000000 cycles: 5857232 heartbeat IPC: 1.83692 cumulative IPC: 1.70729 (Simulation time: 0 hr 4 min 3 sec) 
select_counter is 431

Warmup complete CPU 0 instructions: 10000002 cycles: 5857233 (Simulation time: 0 hr 4 min 3 sec) 

Heartbeat CPU 0 instructions: 11000002 cycles: 7525235 heartbeat IPC: 0.599521 cumulative IPC: 0.59952 (Simulation time: 0 hr 4 min 32 sec) 
select_counter is 6
Heartbeat CPU 0 instructions: 12000000 cycles: 9185782 heartbeat IPC: 0.60221 cumulative IPC: 0.600862 (Simulation time: 0 hr 4 min 59 sec) 
select_counter is 90
Heartbeat CPU 0 instructions: 13000003 cycles: 10846578 heartbeat IPC: 0.602123 cumulative IPC: 0.601282 (Simulation time: 0 hr 5 min 24 sec) 
select_counter is 39
Heartbeat CPU 0 instructions: 14000002 cycles: 12509525 heartbeat IPC: 0.601341 cumulative IPC: 0.601297 (Simulation time: 0 hr 5 min 51 sec) 
select_counter is 74
Heartbeat CPU 0 instructions: 15000001 cycles: 14169730 heartbeat IPC: 0.602335 cumulative IPC: 0.601504 (Simulation time: 0 hr 6 min 17 sec) 
select_counter is 47
Heartbeat CPU 0 instructions: 16000000 cycles: 15832741 heartbeat IPC: 0.601318 cumulative IPC: 0.601473 (Simulation time: 0 hr 6 min 42 sec) 
select_counter is 32
Heartbeat CPU 0 instructions: 17000002 cycles: 17488330 heartbeat IPC: 0.604016 cumulative IPC: 0.601835 (Simulation time: 0 hr 7 min 10 sec) 
select_counter is 71
Heartbeat CPU 0 instructions: 18000000 cycles: 19151397 heartbeat IPC: 0.601297 cumulative IPC: 0.601768 (Simulation time: 0 hr 7 min 35 sec) 
select_counter is 501
Heartbeat CPU 0 instructions: 19000003 cycles: 20811057 heartbeat IPC: 0.602535 cumulative IPC: 0.601853 (Simulation time: 0 hr 8 min 0 sec) 
select_counter is 457
Heartbeat CPU 0 instructions: 20000000 cycles: 22477102 heartbeat IPC: 0.600222 cumulative IPC: 0.601689 (Simulation time: 0 hr 8 min 25 sec) 
select_counter is 470
Heartbeat CPU 0 instructions: 21000001 cycles: 24137173 heartbeat IPC: 0.602384 cumulative IPC: 0.601752 (Simulation time: 0 hr 8 min 49 sec) 
select_counter is 439
Heartbeat CPU 0 instructions: 22000002 cycles: 25795590 heartbeat IPC: 0.602985 cumulative IPC: 0.601855 (Simulation time: 0 hr 9 min 14 sec) 
select_counter is 459
Heartbeat CPU 0 instructions: 23000002 cycles: 27460619 heartbeat IPC: 0.60059 cumulative IPC: 0.601758 (Simulation time: 0 hr 9 min 39 sec) 
select_counter is 396
Heartbeat CPU 0 instructions: 24000000 cycles: 29119630 heartbeat IPC: 0.602768 cumulative IPC: 0.60183 (Simulation time: 0 hr 10 min 6 sec) 
select_counter is 374
Heartbeat CPU 0 instructions: 25000002 cycles: 30782702 heartbeat IPC: 0.601298 cumulative IPC: 0.601794 (Simulation time: 0 hr 10 min 31 sec) 
select_counter is 340
Heartbeat CPU 0 instructions: 26000000 cycles: 32447787 heartbeat IPC: 0.600569 cumulative IPC: 0.601717 (Simulation time: 0 hr 10 min 57 sec) 
select_counter is 373
Heartbeat CPU 0 instructions: 27000002 cycles: 34109382 heartbeat IPC: 0.601833 cumulative IPC: 0.601724 (Simulation time: 0 hr 11 min 21 sec) 
select_counter is 408
Heartbeat CPU 0 instructions: 28000000 cycles: 35772277 heartbeat IPC: 0.60136 cumulative IPC: 0.601704 (Simulation time: 0 hr 11 min 51 sec) 
select_counter is 426
Heartbeat CPU 0 instructions: 29000002 cycles: 37428707 heartbeat IPC: 0.603709 cumulative IPC: 0.601809 (Simulation time: 0 hr 12 min 17 sec) 
select_counter is 486
Heartbeat CPU 0 instructions: 30000000 cycles: 39083491 heartbeat IPC: 0.604307 cumulative IPC: 0.601933 (Simulation time: 0 hr 12 min 44 sec) 
select_counter is 9
Heartbeat CPU 0 instructions: 31000000 cycles: 40751692 heartbeat IPC: 0.599448 cumulative IPC: 0.601815 (Simulation time: 0 hr 13 min 10 sec) 
select_counter is 16
Heartbeat CPU 0 instructions: 32000000 cycles: 42416494 heartbeat IPC: 0.600672 cumulative IPC: 0.601763 (Simulation time: 0 hr 13 min 41 sec) 
select_counter is 453
Heartbeat CPU 0 instructions: 33000000 cycles: 44081953 heartbeat IPC: 0.600435 cumulative IPC: 0.601705 (Simulation time: 0 hr 14 min 9 sec) 
select_counter is 447
Heartbeat CPU 0 instructions: 34000000 cycles: 45749358 heartbeat IPC: 0.599734 cumulative IPC: 0.601622 (Simulation time: 0 hr 14 min 34 sec) 
select_counter is 418
Heartbeat CPU 0 instructions: 35000002 cycles: 47409314 heartbeat IPC: 0.602427 cumulative IPC: 0.601655 (Simulation time: 0 hr 15 min 14 sec) 
select_counter is 475
Heartbeat CPU 0 instructions: 36000000 cycles: 49070799 heartbeat IPC: 0.60187 cumulative IPC: 0.601663 (Simulation time: 0 hr 15 min 41 sec) 
select_counter is 446
Heartbeat CPU 0 instructions: 37000000 cycles: 50730123 heartbeat IPC: 0.602655 cumulative IPC: 0.6017 (Simulation time: 0 hr 16 min 8 sec) 
select_counter is 494
Heartbeat CPU 0 instructions: 38000002 cycles: 52389534 heartbeat IPC: 0.602625 cumulative IPC: 0.601733 (Simulation time: 0 hr 16 min 40 sec) 
select_counter is 442
Heartbeat CPU 0 instructions: 39000001 cycles: 54050973 heartbeat IPC: 0.601887 cumulative IPC: 0.601738 (Simulation time: 0 hr 17 min 12 sec) 
select_counter is 417
Heartbeat CPU 0 instructions: 40000000 cycles: 55716083 heartbeat IPC: 0.60056 cumulative IPC: 0.601699 (Simulation time: 0 hr 17 min 38 sec) 
select_counter is 441
Heartbeat CPU 0 instructions: 41000002 cycles: 57374499 heartbeat IPC: 0.602986 cumulative IPC: 0.60174 (Simulation time: 0 hr 18 min 6 sec) 
select_counter is 449
Heartbeat CPU 0 instructions: 42000001 cycles: 59028972 heartbeat IPC: 0.604421 cumulative IPC: 0.601823 (Simulation time: 0 hr 18 min 35 sec) 
select_counter is 510
Heartbeat CPU 0 instructions: 43000000 cycles: 60691461 heartbeat IPC: 0.601507 cumulative IPC: 0.601814 (Simulation time: 0 hr 19 min 5 sec) 
select_counter is 442
Heartbeat CPU 0 instructions: 44000000 cycles: 62354735 heartbeat IPC: 0.601224 cumulative IPC: 0.601797 (Simulation time: 0 hr 19 min 36 sec) 
select_counter is 442
Heartbeat CPU 0 instructions: 45000000 cycles: 64014435 heartbeat IPC: 0.602518 cumulative IPC: 0.601817 (Simulation time: 0 hr 20 min 3 sec) 
select_counter is 35
Heartbeat CPU 0 instructions: 46000000 cycles: 65674086 heartbeat IPC: 0.602536 cumulative IPC: 0.601837 (Simulation time: 0 hr 20 min 29 sec) 
select_counter is 49
Heartbeat CPU 0 instructions: 47000002 cycles: 67332096 heartbeat IPC: 0.603134 cumulative IPC: 0.601872 (Simulation time: 0 hr 20 min 54 sec) 
select_counter is 39
Heartbeat CPU 0 instructions: 48000000 cycles: 68989018 heartbeat IPC: 0.603527 cumulative IPC: 0.601915 (Simulation time: 0 hr 21 min 22 sec) 
select_counter is 52
Heartbeat CPU 0 instructions: 49000000 cycles: 70646814 heartbeat IPC: 0.603211 cumulative IPC: 0.601949 (Simulation time: 0 hr 21 min 52 sec) 
select_counter is 53
Heartbeat CPU 0 instructions: 50000001 cycles: 72309604 heartbeat IPC: 0.601399 cumulative IPC: 0.601935 (Simulation time: 0 hr 22 min 18 sec) 
select_counter is 4
Heartbeat CPU 0 instructions: 51000002 cycles: 73972791 heartbeat IPC: 0.601256 cumulative IPC: 0.601918 (Simulation time: 0 hr 22 min 45 sec) 
select_counter is 482
Heartbeat CPU 0 instructions: 52000000 cycles: 76133229 heartbeat IPC: 0.462868 cumulative IPC: 0.597644 (Simulation time: 0 hr 23 min 15 sec) 
select_counter is 20
Heartbeat CPU 0 instructions: 53000001 cycles: 78353619 heartbeat IPC: 0.450372 cumulative IPC: 0.593133 (Simulation time: 0 hr 23 min 47 sec) 
select_counter is 425
Heartbeat CPU 0 instructions: 54000001 cycles: 80589333 heartbeat IPC: 0.447284 cumulative IPC: 0.58877 (Simulation time: 0 hr 24 min 20 sec) 
select_counter is 406
Heartbeat CPU 0 instructions: 55000002 cycles: 82844129 heartbeat IPC: 0.4435 cumulative IPC: 0.584515 (Simulation time: 0 hr 24 min 53 sec) 
select_counter is 388
Heartbeat CPU 0 instructions: 56000000 cycles: 85097872 heartbeat IPC: 0.443705 cumulative IPC: 0.58051 (Simulation time: 0 hr 25 min 23 sec) 
select_counter is 377
Heartbeat CPU 0 instructions: 57000000 cycles: 87343683 heartbeat IPC: 0.445273 cumulative IPC: 0.576783 (Simulation time: 0 hr 25 min 53 sec) 
select_counter is 510
Heartbeat CPU 0 instructions: 58000002 cycles: 89537027 heartbeat IPC: 0.455926 cumulative IPC: 0.573615 (Simulation time: 0 hr 26 min 24 sec) 
select_counter is 511
Heartbeat CPU 0 instructions: 59000001 cycles: 91311468 heartbeat IPC: 0.563557 cumulative IPC: 0.573406 (Simulation time: 0 hr 26 min 50 sec) 
select_counter is 428
Heartbeat CPU 0 instructions: 60000000 cycles: 92982170 heartbeat IPC: 0.59855 cumulative IPC: 0.573888 (Simulation time: 0 hr 27 min 19 sec) 
select_counter is 373
Heartbeat CPU 0 instructions: 61000000 cycles: 94647071 heartbeat IPC: 0.600636 cumulative IPC: 0.57439 (Simulation time: 0 hr 27 min 43 sec) 
select_counter is 292
Heartbeat CPU 0 instructions: 62000000 cycles: 96312953 heartbeat IPC: 0.600283 cumulative IPC: 0.574867 (Simulation time: 0 hr 28 min 8 sec) 
select_counter is 239
Heartbeat CPU 0 instructions: 63000003 cycles: 97977315 heartbeat IPC: 0.600833 cumulative IPC: 0.575336 (Simulation time: 0 hr 28 min 38 sec) 
select_counter is 115
Heartbeat CPU 0 instructions: 64000000 cycles: 99645565 heartbeat IPC: 0.599429 cumulative IPC: 0.575765 (Simulation time: 0 hr 29 min 3 sec) 
select_counter is 85
Heartbeat CPU 0 instructions: 65000002 cycles: 101319861 heartbeat IPC: 0.597267 cumulative IPC: 0.576142 (Simulation time: 0 hr 29 min 29 sec) 
select_counter is 32
Heartbeat CPU 0 instructions: 66000002 cycles: 102990474 heartbeat IPC: 0.598583 cumulative IPC: 0.576528 (Simulation time: 0 hr 29 min 57 sec) 
select_counter is 61
Heartbeat CPU 0 instructions: 67000001 cycles: 104658995 heartbeat IPC: 0.599333 cumulative IPC: 0.576913 (Simulation time: 0 hr 30 min 23 sec) 
select_counter is 28
Heartbeat CPU 0 instructions: 68000000 cycles: 106330198 heartbeat IPC: 0.598371 cumulative IPC: 0.57727 (Simulation time: 0 hr 30 min 49 sec) 
select_counter is 48
Heartbeat CPU 0 instructions: 69000000 cycles: 108003686 heartbeat IPC: 0.597554 cumulative IPC: 0.577602 (Simulation time: 0 hr 31 min 15 sec) 
select_counter is 30
Heartbeat CPU 0 instructions: 70000000 cycles: 109675917 heartbeat IPC: 0.598004 cumulative IPC: 0.577931 (Simulation time: 0 hr 31 min 41 sec) 
select_counter is 43
Heartbeat CPU 0 instructions: 71000002 cycles: 111344020 heartbeat IPC: 0.599485 cumulative IPC: 0.578271 (Simulation time: 0 hr 32 min 7 sec) 
select_counter is 29
Heartbeat CPU 0 instructions: 72000000 cycles: 113021218 heartbeat IPC: 0.596231 cumulative IPC: 0.578553 (Simulation time: 0 hr 32 min 33 sec) 
select_counter is 431
Heartbeat CPU 0 instructions: 73000003 cycles: 114692987 heartbeat IPC: 0.598171 cumulative IPC: 0.578854 (Simulation time: 0 hr 32 min 59 sec) 
select_counter is 441
Heartbeat CPU 0 instructions: 74000002 cycles: 116367397 heartbeat IPC: 0.597225 cumulative IPC: 0.579132 (Simulation time: 0 hr 33 min 28 sec) 
select_counter is 435
Heartbeat CPU 0 instructions: 75000003 cycles: 118032045 heartbeat IPC: 0.600728 cumulative IPC: 0.579453 (Simulation time: 0 hr 33 min 53 sec) 
select_counter is 501
Heartbeat CPU 0 instructions: 76000000 cycles: 119708376 heartbeat IPC: 0.596539 cumulative IPC: 0.579704 (Simulation time: 0 hr 34 min 16 sec) 
select_counter is 423
Heartbeat CPU 0 instructions: 77000003 cycles: 121380768 heartbeat IPC: 0.597948 cumulative IPC: 0.579968 (Simulation time: 0 hr 34 min 41 sec) 
select_counter is 408
Heartbeat CPU 0 instructions: 78000000 cycles: 123051183 heartbeat IPC: 0.598652 cumulative IPC: 0.580235 (Simulation time: 0 hr 35 min 5 sec) 
select_counter is 339
Heartbeat CPU 0 instructions: 79000000 cycles: 124728239 heartbeat IPC: 0.596283 cumulative IPC: 0.580461 (Simulation time: 0 hr 35 min 28 sec) 
select_counter is 296
Heartbeat CPU 0 instructions: 80000000 cycles: 126396042 heartbeat IPC: 0.599591 cumulative IPC: 0.580726 (Simulation time: 0 hr 35 min 48 sec) 
select_counter is 387
Heartbeat CPU 0 instructions: 81000000 cycles: 128064818 heartbeat IPC: 0.599242 cumulative IPC: 0.580979 (Simulation time: 0 hr 36 min 13 sec) 
select_counter is 342
Heartbeat CPU 0 instructions: 82000002 cycles: 129730653 heartbeat IPC: 0.600301 cumulative IPC: 0.581239 (Simulation time: 0 hr 36 min 35 sec) 
select_counter is 452
Heartbeat CPU 0 instructions: 83000003 cycles: 131392183 heartbeat IPC: 0.601856 cumulative IPC: 0.581511 (Simulation time: 0 hr 36 min 56 sec) 
select_counter is 470
Heartbeat CPU 0 instructions: 84000000 cycles: 133057363 heartbeat IPC: 0.600534 cumulative IPC: 0.58176 (Simulation time: 0 hr 37 min 16 sec) 
select_counter is 6
Heartbeat CPU 0 instructions: 85000001 cycles: 134725126 heartbeat IPC: 0.599606 cumulative IPC: 0.581991 (Simulation time: 0 hr 37 min 41 sec) 
select_counter is 458
Heartbeat CPU 0 instructions: 86000002 cycles: 136392659 heartbeat IPC: 0.599689 cumulative IPC: 0.582217 (Simulation time: 0 hr 38 min 2 sec) 
select_counter is 404
Heartbeat CPU 0 instructions: 87000003 cycles: 138064317 heartbeat IPC: 0.598209 cumulative IPC: 0.58242 (Simulation time: 0 hr 38 min 18 sec) 
select_counter is 437
Heartbeat CPU 0 instructions: 88000000 cycles: 139731163 heartbeat IPC: 0.599934 cumulative IPC: 0.582638 (Simulation time: 0 hr 38 min 34 sec) 
select_counter is 453
Heartbeat CPU 0 instructions: 89000001 cycles: 141398783 heartbeat IPC: 0.599658 cumulative IPC: 0.582847 (Simulation time: 0 hr 38 min 49 sec) 
select_counter is 434
Heartbeat CPU 0 instructions: 90000002 cycles: 143064912 heartbeat IPC: 0.600194 cumulative IPC: 0.583058 (Simulation time: 0 hr 39 min 5 sec) 
select_counter is 458
Heartbeat CPU 0 instructions: 91000000 cycles: 144732153 heartbeat IPC: 0.599792 cumulative IPC: 0.583259 (Simulation time: 0 hr 39 min 21 sec) 
select_counter is 402
Heartbeat CPU 0 instructions: 92000000 cycles: 146401057 heartbeat IPC: 0.599196 cumulative IPC: 0.583448 (Simulation time: 0 hr 39 min 37 sec) 
select_counter is 420
Heartbeat CPU 0 instructions: 93000003 cycles: 148066335 heartbeat IPC: 0.600502 cumulative IPC: 0.583648 (Simulation time: 0 hr 39 min 52 sec) 
select_counter is 365
Heartbeat CPU 0 instructions: 94000002 cycles: 149731093 heartbeat IPC: 0.600687 cumulative IPC: 0.583845 (Simulation time: 0 hr 40 min 8 sec) 
select_counter is 425
Heartbeat CPU 0 instructions: 95000003 cycles: 151394159 heartbeat IPC: 0.6013 cumulative IPC: 0.584044 (Simulation time: 0 hr 40 min 22 sec) 
select_counter is 481
Heartbeat CPU 0 instructions: 96000000 cycles: 153061296 heartbeat IPC: 0.599829 cumulative IPC: 0.584223 (Simulation time: 0 hr 40 min 37 sec) 
select_counter is 449
Heartbeat CPU 0 instructions: 97000001 cycles: 154730739 heartbeat IPC: 0.599003 cumulative IPC: 0.584389 (Simulation time: 0 hr 40 min 51 sec) 
select_counter is 449
Heartbeat CPU 0 instructions: 98000002 cycles: 156394928 heartbeat IPC: 0.600894 cumulative IPC: 0.584571 (Simulation time: 0 hr 41 min 6 sec) 
select_counter is 10
Heartbeat CPU 0 instructions: 99000003 cycles: 158063991 heartbeat IPC: 0.599139 cumulative IPC: 0.584731 (Simulation time: 0 hr 41 min 22 sec) 
select_counter is 476
Heartbeat CPU 0 instructions: 100000000 cycles: 159727733 heartbeat IPC: 0.601053 cumulative IPC: 0.584907 (Simulation time: 0 hr 41 min 37 sec) 
select_counter is 57
Heartbeat CPU 0 instructions: 101000001 cycles: 161391873 heartbeat IPC: 0.600912 cumulative IPC: 0.585079 (Simulation time: 0 hr 41 min 53 sec) 
select_counter is 492
Heartbeat CPU 0 instructions: 102000002 cycles: 163056570 heartbeat IPC: 0.600711 cumulative IPC: 0.585244 (Simulation time: 0 hr 42 min 9 sec) 
select_counter is 61
Heartbeat CPU 0 instructions: 103000000 cycles: 164719745 heartbeat IPC: 0.601258 cumulative IPC: 0.585412 (Simulation time: 0 hr 42 min 22 sec) 
select_counter is 510
Heartbeat CPU 0 instructions: 104000000 cycles: 166381359 heartbeat IPC: 0.601824 cumulative IPC: 0.585582 (Simulation time: 0 hr 42 min 34 sec) 
select_counter is 24
Heartbeat CPU 0 instructions: 105000003 cycles: 168251276 heartbeat IPC: 0.534785 cumulative IPC: 0.584997 (Simulation time: 0 hr 42 min 46 sec) 
select_counter is 83
Heartbeat CPU 0 instructions: 106000003 cycles: 172358164 heartbeat IPC: 0.243493 cumulative IPC: 0.576573 (Simulation time: 0 hr 43 min 5 sec) 
select_counter is 451
Heartbeat CPU 0 instructions: 107000000 cycles: 174138806 heartbeat IPC: 0.561594 cumulative IPC: 0.576415 (Simulation time: 0 hr 43 min 14 sec) 
select_counter is 138
Heartbeat CPU 0 instructions: 108000000 cycles: 175912991 heartbeat IPC: 0.563639 cumulative IPC: 0.576282 (Simulation time: 0 hr 43 min 22 sec) 
select_counter is 164
Heartbeat CPU 0 instructions: 109000001 cycles: 177691124 heartbeat IPC: 0.562388 cumulative IPC: 0.576138 (Simulation time: 0 hr 43 min 30 sec) 
select_counter is 385
Heartbeat CPU 0 instructions: 110000001 cycles: 179468335 heartbeat IPC: 0.562679 cumulative IPC: 0.576 (Simulation time: 0 hr 43 min 38 sec) 
select_counter is 119
Finished CPU 0 instructions: 100000003 cycles: 173611103 cummulative IPC: 0.576 (Simulation time: 0 hr 43 min 38 sec) 

ChampSim completed all CPUs

Region of Interest Statistics

CPU 0 cummulative IPC: 0.576 instructions: 100000003 cycles: 173611103
LLC TOTAL     ACCESS:    3300884  HIT:     567063  MISS:    2733821
LLC LOAD      ACCESS:     971483  HIT:        106  MISS:     971377
LLC RFO       ACCESS:     136847  HIT:        268  MISS:     136579
LLC PREFETCH  ACCESS:    1334465  HIT:      11595  MISS:    1322870
LLC WRITEBACK ACCESS:     858089  HIT:     555094  MISS:     302995
Ship samples: 
6, 53, 66, 120, 130, 173, 220, 237, 276, 302, 326, 381, 406, 430, 454, 509, 529, 551, 607, 621, 642, 700, 709, 746, 796, 808, 862, 895, 902, 959, 975, 1017, 1039, 1077, 1088, 1136, 1180, 1185, 1237, 1274, 1283, 1333, 1352, 1397, 1409, 1467, 1492, 1504, 1543, 1588, 1631, 1637, 1688, 1696, 1729, 1766, 1799, 1836, 1884, 1917, 1941, 1955, 1984, 2046, 
Lime duel samples: 
18, 47, 91, 109, 153, 163, 218, 234, 267, 307, 335, 358, 412, 417, 459, 482, 524, 562, 596, 639, 641, 698, 734, 745, 793, 824, 835, 869, 916, 941, 972, 1020, 1025, 1056, 1102, 1122, 1154, 1196, 1217, 1259, 1298, 1314, 1345, 1396, 1422, 1461, 1489, 1522, 1556, 1583, 1609, 1655, 1675, 1703, 1731, 1778, 1796, 1831, 1883, 1914, 1937, 1966, 1993, 2019, 
Lime samples: 
18, 153, 267, 412, 524, 641, 793, 916, 1025, 1154, 1298, 1422, 1556, 1675, 1796, 1937, 
Insertion Distribution: 
	LOAD 0 0 0 0 0 0 156807 332736 
	RFO 0 0 0 0 0 0 25998 29424 
	PREF 0 0 0 0 0 0 44072 586732 
	WRITEBACK 0 0 0 0 0 0 0 166477 
Total Prefetch Downgrades: 0
