
*** ChampSim Multicore Out-of-Order Simulator ***

Warmup Instructions: 10000000
Simulation Instructions: 100000000
Configuration: 2
Number of CPUs: 1
LLC sets: 2048
LLC ways: 16
Off-chip DRAM Channels: 1 Width: 64-bit Data Rate: 1600 MT/s

CPU 0 runs /datasets/cs240c-wi22-a00-public/data/Assignment2-gz/cactusADM_1039B.trace.gz
CPU 0 L1D next line prefetcher
CPU 0 L2C IP-based stride prefetcher
Heartbeat CPU 0 instructions: 1000000 cycles: 595518 heartbeat IPC: 1.67921 cumulative IPC: 1.67921 (Simulation time: 0 hr 0 min 28 sec) 
select_counter is 248
Heartbeat CPU 0 instructions: 2000002 cycles: 1190937 heartbeat IPC: 1.67949 cumulative IPC: 1.67935 (Simulation time: 0 hr 0 min 57 sec) 
select_counter is 244
Heartbeat CPU 0 instructions: 3000003 cycles: 1786622 heartbeat IPC: 1.67874 cumulative IPC: 1.67915 (Simulation time: 0 hr 1 min 25 sec) 
select_counter is 244
Heartbeat CPU 0 instructions: 4000000 cycles: 2382046 heartbeat IPC: 1.67947 cumulative IPC: 1.67923 (Simulation time: 0 hr 1 min 53 sec) 
select_counter is 246
Heartbeat CPU 0 instructions: 5000001 cycles: 2977457 heartbeat IPC: 1.67951 cumulative IPC: 1.67929 (Simulation time: 0 hr 2 min 18 sec) 
select_counter is 248
Heartbeat CPU 0 instructions: 6000002 cycles: 3572930 heartbeat IPC: 1.67934 cumulative IPC: 1.67929 (Simulation time: 0 hr 2 min 44 sec) 
select_counter is 255
Heartbeat CPU 0 instructions: 7000000 cycles: 4168306 heartbeat IPC: 1.67961 cumulative IPC: 1.67934 (Simulation time: 0 hr 3 min 11 sec) 
select_counter is 272
Heartbeat CPU 0 instructions: 8000000 cycles: 4763681 heartbeat IPC: 1.67961 cumulative IPC: 1.67937 (Simulation time: 0 hr 3 min 36 sec) 
select_counter is 286
Heartbeat CPU 0 instructions: 9000002 cycles: 5359336 heartbeat IPC: 1.67883 cumulative IPC: 1.67931 (Simulation time: 0 hr 3 min 59 sec) 
select_counter is 311
Heartbeat CPU 0 instructions: 10000003 cycles: 5974113 heartbeat IPC: 1.62661 cumulative IPC: 1.67389 (Simulation time: 0 hr 4 min 27 sec) 
select_counter is 341

Warmup complete CPU 0 instructions: 10000003 cycles: 5974113 (Simulation time: 0 hr 4 min 27 sec) 

Heartbeat CPU 0 instructions: 11000003 cycles: 12094837 heartbeat IPC: 0.163379 cumulative IPC: 0.163379 (Simulation time: 0 hr 5 min 0 sec) 
select_counter is 509
Heartbeat CPU 0 instructions: 12000000 cycles: 13837272 heartbeat IPC: 0.573908 cumulative IPC: 0.25435 (Simulation time: 0 hr 5 min 28 sec) 
select_counter is 507
Heartbeat CPU 0 instructions: 13000002 cycles: 15505794 heartbeat IPC: 0.599334 cumulative IPC: 0.31474 (Simulation time: 0 hr 5 min 59 sec) 
select_counter is 506
Heartbeat CPU 0 instructions: 14000001 cycles: 17214494 heartbeat IPC: 0.58524 cumulative IPC: 0.35586 (Simulation time: 0 hr 6 min 28 sec) 
select_counter is 511
Heartbeat CPU 0 instructions: 15000002 cycles: 18958578 heartbeat IPC: 0.573367 cumulative IPC: 0.385075 (Simulation time: 0 hr 6 min 57 sec) 
select_counter is 508
Heartbeat CPU 0 instructions: 16000000 cycles: 20705115 heartbeat IPC: 0.57256 cumulative IPC: 0.407304 (Simulation time: 0 hr 7 min 25 sec) 
select_counter is 511
Heartbeat CPU 0 instructions: 17000003 cycles: 22429055 heartbeat IPC: 0.580068 cumulative IPC: 0.425404 (Simulation time: 0 hr 7 min 52 sec) 
select_counter is 502
Heartbeat CPU 0 instructions: 18000002 cycles: 24083591 heartbeat IPC: 0.604398 cumulative IPC: 0.441758 (Simulation time: 0 hr 8 min 19 sec) 
select_counter is 505
Heartbeat CPU 0 instructions: 19000003 cycles: 25819997 heartbeat IPC: 0.575903 cumulative IPC: 0.453495 (Simulation time: 0 hr 8 min 51 sec) 
select_counter is 510
Heartbeat CPU 0 instructions: 20000000 cycles: 27563567 heartbeat IPC: 0.573534 cumulative IPC: 0.463189 (Simulation time: 0 hr 9 min 20 sec) 
select_counter is 506
Heartbeat CPU 0 instructions: 21000002 cycles: 29307181 heartbeat IPC: 0.573523 cumulative IPC: 0.471434 (Simulation time: 0 hr 9 min 50 sec) 
select_counter is 508
Heartbeat CPU 0 instructions: 22000003 cycles: 30997639 heartbeat IPC: 0.591556 cumulative IPC: 0.479549 (Simulation time: 0 hr 10 min 19 sec) 
select_counter is 508
Heartbeat CPU 0 instructions: 23000001 cycles: 32683086 heartbeat IPC: 0.593313 cumulative IPC: 0.486728 (Simulation time: 0 hr 10 min 48 sec) 
select_counter is 508
Heartbeat CPU 0 instructions: 24000000 cycles: 39451790 heartbeat IPC: 0.147739 cumulative IPC: 0.418189 (Simulation time: 0 hr 11 min 24 sec) 
select_counter is 453
Heartbeat CPU 0 instructions: 25000002 cycles: 41192982 heartbeat IPC: 0.57432 cumulative IPC: 0.425908 (Simulation time: 0 hr 11 min 53 sec) 
select_counter is 474
Heartbeat CPU 0 instructions: 26000002 cycles: 42920756 heartbeat IPC: 0.578779 cumulative IPC: 0.433057 (Simulation time: 0 hr 12 min 20 sec) 
select_counter is 482
Heartbeat CPU 0 instructions: 27000002 cycles: 44588714 heartbeat IPC: 0.599535 cumulative IPC: 0.440248 (Simulation time: 0 hr 12 min 49 sec) 
select_counter is 477
Heartbeat CPU 0 instructions: 28000000 cycles: 46322057 heartbeat IPC: 0.576919 cumulative IPC: 0.446119 (Simulation time: 0 hr 13 min 15 sec) 
select_counter is 467
Heartbeat CPU 0 instructions: 29000000 cycles: 48065536 heartbeat IPC: 0.573566 cumulative IPC: 0.451398 (Simulation time: 0 hr 13 min 42 sec) 
select_counter is 462
Heartbeat CPU 0 instructions: 30000003 cycles: 49806648 heartbeat IPC: 0.574347 cumulative IPC: 0.456282 (Simulation time: 0 hr 14 min 10 sec) 
select_counter is 466
Heartbeat CPU 0 instructions: 31000001 cycles: 51505633 heartbeat IPC: 0.588586 cumulative IPC: 0.461219 (Simulation time: 0 hr 14 min 37 sec) 
select_counter is 473
Heartbeat CPU 0 instructions: 32000000 cycles: 53183500 heartbeat IPC: 0.595994 cumulative IPC: 0.466009 (Simulation time: 0 hr 15 min 5 sec) 
select_counter is 511
Heartbeat CPU 0 instructions: 33000001 cycles: 54923311 heartbeat IPC: 0.574776 cumulative IPC: 0.469875 (Simulation time: 0 hr 15 min 31 sec) 
select_counter is 505
Heartbeat CPU 0 instructions: 34000000 cycles: 56665369 heartbeat IPC: 0.574033 cumulative IPC: 0.473454 (Simulation time: 0 hr 15 min 59 sec) 
select_counter is 509
Heartbeat CPU 0 instructions: 35000001 cycles: 58402819 heartbeat IPC: 0.575557 cumulative IPC: 0.476838 (Simulation time: 0 hr 16 min 28 sec) 
select_counter is 511
Heartbeat CPU 0 instructions: 36000000 cycles: 60068077 heartbeat IPC: 0.600507 cumulative IPC: 0.480645 (Simulation time: 0 hr 16 min 58 sec) 
select_counter is 509
Heartbeat CPU 0 instructions: 37000002 cycles: 66769641 heartbeat IPC: 0.149219 cumulative IPC: 0.444112 (Simulation time: 0 hr 17 min 38 sec) 
select_counter is 492
Heartbeat CPU 0 instructions: 38000001 cycles: 68513339 heartbeat IPC: 0.573493 cumulative IPC: 0.447719 (Simulation time: 0 hr 18 min 13 sec) 
select_counter is 491
Heartbeat CPU 0 instructions: 39000002 cycles: 70258089 heartbeat IPC: 0.573149 cumulative IPC: 0.451123 (Simulation time: 0 hr 18 min 43 sec) 
select_counter is 495
Heartbeat CPU 0 instructions: 40000000 cycles: 71959472 heartbeat IPC: 0.587756 cumulative IPC: 0.454646 (Simulation time: 0 hr 19 min 9 sec) 
select_counter is 495
Heartbeat CPU 0 instructions: 41000003 cycles: 73633944 heartbeat IPC: 0.597205 cumulative IPC: 0.458174 (Simulation time: 0 hr 19 min 35 sec) 
select_counter is 490
Heartbeat CPU 0 instructions: 42000000 cycles: 75374305 heartbeat IPC: 0.574592 cumulative IPC: 0.461094 (Simulation time: 0 hr 20 min 1 sec) 
select_counter is 485
Heartbeat CPU 0 instructions: 43000000 cycles: 77119018 heartbeat IPC: 0.57316 cumulative IPC: 0.463842 (Simulation time: 0 hr 20 min 29 sec) 
select_counter is 492
Heartbeat CPU 0 instructions: 44000000 cycles: 78859737 heartbeat IPC: 0.574475 cumulative IPC: 0.466484 (Simulation time: 0 hr 20 min 58 sec) 
select_counter is 509
Heartbeat CPU 0 instructions: 45000000 cycles: 80531023 heartbeat IPC: 0.598342 cumulative IPC: 0.46944 (Simulation time: 0 hr 21 min 28 sec) 
select_counter is 502
Heartbeat CPU 0 instructions: 46000003 cycles: 82238719 heartbeat IPC: 0.585586 cumulative IPC: 0.472041 (Simulation time: 0 hr 22 min 0 sec) 
select_counter is 508
Heartbeat CPU 0 instructions: 47000001 cycles: 83981304 heartbeat IPC: 0.573859 cumulative IPC: 0.474315 (Simulation time: 0 hr 22 min 34 sec) 
select_counter is 505
Heartbeat CPU 0 instructions: 48000000 cycles: 85724480 heartbeat IPC: 0.573665 cumulative IPC: 0.476487 (Simulation time: 0 hr 23 min 2 sec) 
select_counter is 511
Heartbeat CPU 0 instructions: 49000001 cycles: 87451486 heartbeat IPC: 0.579037 cumulative IPC: 0.47866 (Simulation time: 0 hr 23 min 33 sec) 
select_counter is 510
Heartbeat CPU 0 instructions: 50000000 cycles: 94180316 heartbeat IPC: 0.148614 cumulative IPC: 0.453483 (Simulation time: 0 hr 24 min 10 sec) 
select_counter is 470
Heartbeat CPU 0 instructions: 51000003 cycles: 95947298 heartbeat IPC: 0.565938 cumulative IPC: 0.455691 (Simulation time: 0 hr 24 min 37 sec) 
select_counter is 482
Heartbeat CPU 0 instructions: 52000000 cycles: 97721690 heartbeat IPC: 0.563572 cumulative IPC: 0.457778 (Simulation time: 0 hr 25 min 3 sec) 
select_counter is 484
Heartbeat CPU 0 instructions: 53000003 cycles: 99493937 heartbeat IPC: 0.564257 cumulative IPC: 0.459796 (Simulation time: 0 hr 25 min 29 sec) 
select_counter is 481
Heartbeat CPU 0 instructions: 54000002 cycles: 101211270 heartbeat IPC: 0.582298 cumulative IPC: 0.462005 (Simulation time: 0 hr 25 min 57 sec) 
select_counter is 463
Heartbeat CPU 0 instructions: 55000001 cycles: 102938483 heartbeat IPC: 0.578967 cumulative IPC: 0.464088 (Simulation time: 0 hr 26 min 26 sec) 
select_counter is 452
Heartbeat CPU 0 instructions: 56000000 cycles: 104710036 heartbeat IPC: 0.564476 cumulative IPC: 0.465889 (Simulation time: 0 hr 26 min 58 sec) 
select_counter is 452
Heartbeat CPU 0 instructions: 57000000 cycles: 106485063 heartbeat IPC: 0.563372 cumulative IPC: 0.467611 (Simulation time: 0 hr 27 min 27 sec) 
select_counter is 447
Heartbeat CPU 0 instructions: 58000000 cycles: 108250544 heartbeat IPC: 0.566418 cumulative IPC: 0.469316 (Simulation time: 0 hr 27 min 58 sec) 
select_counter is 471
Heartbeat CPU 0 instructions: 59000002 cycles: 109938479 heartbeat IPC: 0.592441 cumulative IPC: 0.471315 (Simulation time: 0 hr 28 min 29 sec) 
select_counter is 488
Heartbeat CPU 0 instructions: 60000000 cycles: 111698440 heartbeat IPC: 0.568193 cumulative IPC: 0.472928 (Simulation time: 0 hr 29 min 1 sec) 
select_counter is 504
Heartbeat CPU 0 instructions: 61000001 cycles: 113473178 heartbeat IPC: 0.563464 cumulative IPC: 0.474423 (Simulation time: 0 hr 29 min 32 sec) 
select_counter is 508
Heartbeat CPU 0 instructions: 62000000 cycles: 115246462 heartbeat IPC: 0.563925 cumulative IPC: 0.475875 (Simulation time: 0 hr 30 min 3 sec) 
select_counter is 505
Heartbeat CPU 0 instructions: 63000001 cycles: 121542225 heartbeat IPC: 0.158837 cumulative IPC: 0.458604 (Simulation time: 0 hr 30 min 39 sec) 
select_counter is 482
Heartbeat CPU 0 instructions: 64000000 cycles: 123821684 heartbeat IPC: 0.4387 cumulative IPC: 0.458219 (Simulation time: 0 hr 31 min 9 sec) 
select_counter is 494
Heartbeat CPU 0 instructions: 65000002 cycles: 125594171 heartbeat IPC: 0.56418 cumulative IPC: 0.459789 (Simulation time: 0 hr 31 min 43 sec) 
select_counter is 500
Heartbeat CPU 0 instructions: 66000001 cycles: 127367869 heartbeat IPC: 0.563793 cumulative IPC: 0.461309 (Simulation time: 0 hr 32 min 9 sec) 
select_counter is 499
Heartbeat CPU 0 instructions: 67000003 cycles: 129135132 heartbeat IPC: 0.565848 cumulative IPC: 0.462809 (Simulation time: 0 hr 32 min 37 sec) 
select_counter is 497
Heartbeat CPU 0 instructions: 68000000 cycles: 130863677 heartbeat IPC: 0.57852 cumulative IPC: 0.46441 (Simulation time: 0 hr 33 min 5 sec) 
select_counter is 498
Heartbeat CPU 0 instructions: 69000003 cycles: 132642419 heartbeat IPC: 0.562197 cumulative IPC: 0.465783 (Simulation time: 0 hr 33 min 43 sec) 
select_counter is 487
Heartbeat CPU 0 instructions: 70000002 cycles: 134415515 heartbeat IPC: 0.563985 cumulative IPC: 0.467139 (Simulation time: 0 hr 34 min 18 sec) 
select_counter is 505
Heartbeat CPU 0 instructions: 71000000 cycles: 136188668 heartbeat IPC: 0.563966 cumulative IPC: 0.468458 (Simulation time: 0 hr 34 min 46 sec) 
select_counter is 509
Heartbeat CPU 0 instructions: 72000000 cycles: 137935990 heartbeat IPC: 0.572304 cumulative IPC: 0.469833 (Simulation time: 0 hr 35 min 14 sec) 
select_counter is 509
Heartbeat CPU 0 instructions: 73000001 cycles: 139636658 heartbeat IPC: 0.588005 cumulative IPC: 0.471336 (Simulation time: 0 hr 35 min 39 sec) 
select_counter is 509
Heartbeat CPU 0 instructions: 74000003 cycles: 141404605 heartbeat IPC: 0.565629 cumulative IPC: 0.472567 (Simulation time: 0 hr 36 min 4 sec) 
select_counter is 511
Heartbeat CPU 0 instructions: 75000002 cycles: 143178521 heartbeat IPC: 0.563724 cumulative IPC: 0.473746 (Simulation time: 0 hr 36 min 28 sec) 
select_counter is 505
Heartbeat CPU 0 instructions: 76000000 cycles: 148515852 heartbeat IPC: 0.187359 cumulative IPC: 0.463022 (Simulation time: 0 hr 36 min 54 sec) 
select_counter is 356
Heartbeat CPU 0 instructions: 77000001 cycles: 151715549 heartbeat IPC: 0.31253 cumulative IPC: 0.459718 (Simulation time: 0 hr 37 min 15 sec) 
select_counter is 154
Heartbeat CPU 0 instructions: 78000000 cycles: 153467299 heartbeat IPC: 0.570857 cumulative IPC: 0.461038 (Simulation time: 0 hr 37 min 35 sec) 
select_counter is 129
Heartbeat CPU 0 instructions: 79000002 cycles: 155238598 heartbeat IPC: 0.564559 cumulative IPC: 0.462267 (Simulation time: 0 hr 37 min 56 sec) 
select_counter is 89
Heartbeat CPU 0 instructions: 80000000 cycles: 157008986 heartbeat IPC: 0.564847 cumulative IPC: 0.463469 (Simulation time: 0 hr 38 min 17 sec) 
select_counter is 70
Heartbeat CPU 0 instructions: 81000002 cycles: 158758768 heartbeat IPC: 0.571501 cumulative IPC: 0.464706 (Simulation time: 0 hr 38 min 37 sec) 
select_counter is 52
Heartbeat CPU 0 instructions: 82000002 cycles: 160454921 heartbeat IPC: 0.589569 cumulative IPC: 0.466077 (Simulation time: 0 hr 38 min 54 sec) 
select_counter is 29
Heartbeat CPU 0 instructions: 83000003 cycles: 162221804 heartbeat IPC: 0.565969 cumulative IPC: 0.467207 (Simulation time: 0 hr 39 min 11 sec) 
select_counter is 24
Heartbeat CPU 0 instructions: 84000000 cycles: 163993494 heartbeat IPC: 0.564431 cumulative IPC: 0.468297 (Simulation time: 0 hr 39 min 29 sec) 
select_counter is 22
Heartbeat CPU 0 instructions: 85000002 cycles: 165764630 heartbeat IPC: 0.56461 cumulative IPC: 0.469365 (Simulation time: 0 hr 39 min 46 sec) 
select_counter is 35
Heartbeat CPU 0 instructions: 86000003 cycles: 167479579 heartbeat IPC: 0.583108 cumulative IPC: 0.470572 (Simulation time: 0 hr 40 min 3 sec) 
select_counter is 21
Heartbeat CPU 0 instructions: 87000000 cycles: 169222629 heartbeat IPC: 0.573705 cumulative IPC: 0.471673 (Simulation time: 0 hr 40 min 19 sec) 
select_counter is 17
Heartbeat CPU 0 instructions: 88000000 cycles: 170991413 heartbeat IPC: 0.56536 cumulative IPC: 0.472678 (Simulation time: 0 hr 40 min 35 sec) 
select_counter is 18
Heartbeat CPU 0 instructions: 89000001 cycles: 175332627 heartbeat IPC: 0.230351 cumulative IPC: 0.466466 (Simulation time: 0 hr 40 min 53 sec) 
select_counter is 328
Heartbeat CPU 0 instructions: 90000002 cycles: 179463226 heartbeat IPC: 0.242096 cumulative IPC: 0.461124 (Simulation time: 0 hr 41 min 9 sec) 
select_counter is 197
Heartbeat CPU 0 instructions: 91000000 cycles: 181156988 heartbeat IPC: 0.590401 cumulative IPC: 0.462374 (Simulation time: 0 hr 41 min 25 sec) 
select_counter is 181
Heartbeat CPU 0 instructions: 92000000 cycles: 182919762 heartbeat IPC: 0.567288 cumulative IPC: 0.463419 (Simulation time: 0 hr 41 min 39 sec) 
select_counter is 174
Heartbeat CPU 0 instructions: 93000001 cycles: 184689306 heartbeat IPC: 0.565118 cumulative IPC: 0.464426 (Simulation time: 0 hr 41 min 54 sec) 
select_counter is 167
Heartbeat CPU 0 instructions: 94000003 cycles: 186462304 heartbeat IPC: 0.564018 cumulative IPC: 0.465404 (Simulation time: 0 hr 42 min 8 sec) 
select_counter is 157
Heartbeat CPU 0 instructions: 95000001 cycles: 188181464 heartbeat IPC: 0.581678 cumulative IPC: 0.466501 (Simulation time: 0 hr 42 min 21 sec) 
select_counter is 162
Heartbeat CPU 0 instructions: 96000000 cycles: 189899479 heartbeat IPC: 0.582067 cumulative IPC: 0.467581 (Simulation time: 0 hr 42 min 35 sec) 
select_counter is 167
Heartbeat CPU 0 instructions: 97000002 cycles: 191667056 heartbeat IPC: 0.565747 cumulative IPC: 0.468515 (Simulation time: 0 hr 42 min 48 sec) 
select_counter is 179
Heartbeat CPU 0 instructions: 98000000 cycles: 193438712 heartbeat IPC: 0.564443 cumulative IPC: 0.469422 (Simulation time: 0 hr 43 min 0 sec) 
select_counter is 186
Heartbeat CPU 0 instructions: 99000002 cycles: 195203905 heartbeat IPC: 0.566511 cumulative IPC: 0.470328 (Simulation time: 0 hr 43 min 12 sec) 
select_counter is 196
Heartbeat CPU 0 instructions: 100000000 cycles: 196892983 heartbeat IPC: 0.592038 cumulative IPC: 0.471404 (Simulation time: 0 hr 43 min 23 sec) 
select_counter is 207
Heartbeat CPU 0 instructions: 101000002 cycles: 198645804 heartbeat IPC: 0.57051 cumulative IPC: 0.472306 (Simulation time: 0 hr 43 min 33 sec) 
select_counter is 209
Heartbeat CPU 0 instructions: 102000000 cycles: 201991274 heartbeat IPC: 0.298911 cumulative IPC: 0.469347 (Simulation time: 0 hr 43 min 43 sec) 
select_counter is 119
Heartbeat CPU 0 instructions: 103000002 cycles: 207118821 heartbeat IPC: 0.195025 cumulative IPC: 0.462354 (Simulation time: 0 hr 43 min 54 sec) 
select_counter is 486
Heartbeat CPU 0 instructions: 104000000 cycles: 208844004 heartbeat IPC: 0.579647 cumulative IPC: 0.463351 (Simulation time: 0 hr 44 min 2 sec) 
select_counter is 499
Heartbeat CPU 0 instructions: 105000002 cycles: 210558351 heartbeat IPC: 0.583314 cumulative IPC: 0.464356 (Simulation time: 0 hr 44 min 11 sec) 
select_counter is 491
Heartbeat CPU 0 instructions: 106000001 cycles: 212330275 heartbeat IPC: 0.564358 cumulative IPC: 0.465215 (Simulation time: 0 hr 44 min 19 sec) 
select_counter is 493
Heartbeat CPU 0 instructions: 107000003 cycles: 214100248 heartbeat IPC: 0.564982 cumulative IPC: 0.466064 (Simulation time: 0 hr 44 min 26 sec) 
select_counter is 489
Heartbeat CPU 0 instructions: 108000000 cycles: 215869424 heartbeat IPC: 0.565233 cumulative IPC: 0.466899 (Simulation time: 0 hr 44 min 32 sec) 
select_counter is 491
Heartbeat CPU 0 instructions: 109000003 cycles: 217566903 heartbeat IPC: 0.589111 cumulative IPC: 0.46788 (Simulation time: 0 hr 44 min 37 sec) 
select_counter is 495
Heartbeat CPU 0 instructions: 110000002 cycles: 219318421 heartbeat IPC: 0.570933 cumulative IPC: 0.468726 (Simulation time: 0 hr 44 min 42 sec) 
select_counter is 500
Finished CPU 0 instructions: 100000003 cycles: 213344309 cummulative IPC: 0.468726 (Simulation time: 0 hr 44 min 42 sec) 

ChampSim completed all CPUs

Region of Interest Statistics

CPU 0 cummulative IPC: 0.468726 instructions: 100000003 cycles: 213344309
LLC TOTAL     ACCESS:    1172437  HIT:     388552  MISS:     783885
LLC LOAD      ACCESS:      29014  HIT:       3243  MISS:      25771
LLC RFO       ACCESS:     265309  HIT:      27864  MISS:     237445
LLC PREFETCH  ACCESS:     610773  HIT:     126362  MISS:     484411
LLC WRITEBACK ACCESS:     267341  HIT:     231083  MISS:      36258
Ship samples: 
24, 48, 79, 124, 129, 187, 207, 242, 271, 294, 347, 373, 391, 433, 461, 494, 514, 566, 606, 611, 662, 672, 708, 755, 797, 821, 859, 882, 897, 953, 981, 1013, 1034, 1082, 1115, 1132, 1181, 1206, 1247, 1268, 1282, 1333, 1363, 1377, 1419, 1442, 1474, 1529, 1540, 1588, 1617, 1649, 1671, 1709, 1731, 1779, 1792, 1824, 1874, 1907, 1943, 1967, 1997, 2035, 
Lime duel samples: 
1, 58, 83, 96, 153, 166, 220, 229, 270, 299, 322, 354, 410, 438, 470, 498, 519, 546, 578, 623, 644, 703, 709, 754, 787, 825, 856, 874, 899, 931, 974, 1000, 1048, 1068, 1096, 1150, 1169, 1197, 1217, 1257, 1309, 1321, 1374, 1384, 1428, 1466, 1473, 1528, 1548, 1587, 1631, 1633, 1678, 1711, 1745, 1770, 1804, 1841, 1864, 1908, 1933, 1972, 1999, 2044, 
Lime samples: 
1, 153, 270, 410, 519, 644, 787, 899, 1048, 1169, 1309, 1428, 1548, 1678, 1804, 1933, 
Insertion Distribution: 
	LOAD 0 0 0 0 0 0 1205 3931 
	RFO 3893 0 0 0 0 0 4505 38198 
	PREF 0 17857 0 0 0 0 29707 91212 
	WRITEBACK 0 0 0 0 0 0 0 32229 
Total Prefetch Downgrades: 11465
