
*** ChampSim Multicore Out-of-Order Simulator ***

Warmup Instructions: 10000000
Simulation Instructions: 100000000
Configuration: 2
Number of CPUs: 1
LLC sets: 2048
LLC ways: 16
Off-chip DRAM Channels: 1 Width: 64-bit Data Rate: 1600 MT/s

CPU 0 runs /datasets/cs240c-wi22-a00-public/data/Assignment2-gz/astar_313B.trace.gz
CPU 0 L1D next line prefetcher
CPU 0 L2C IP-based stride prefetcher
Heartbeat CPU 0 instructions: 1000001 cycles: 675788 heartbeat IPC: 1.47976 cumulative IPC: 1.47976 (Simulation time: 0 hr 0 min 27 sec) 
select_counter is 159
Heartbeat CPU 0 instructions: 2000003 cycles: 1263214 heartbeat IPC: 1.70235 cumulative IPC: 1.58327 (Simulation time: 0 hr 0 min 53 sec) 
select_counter is 505
Heartbeat CPU 0 instructions: 3000003 cycles: 1937715 heartbeat IPC: 1.48258 cumulative IPC: 1.54822 (Simulation time: 0 hr 1 min 20 sec) 
select_counter is 317
Heartbeat CPU 0 instructions: 4000000 cycles: 2612185 heartbeat IPC: 1.48264 cumulative IPC: 1.53129 (Simulation time: 0 hr 1 min 45 sec) 
select_counter is 367
Heartbeat CPU 0 instructions: 5000002 cycles: 3287387 heartbeat IPC: 1.48104 cumulative IPC: 1.52097 (Simulation time: 0 hr 2 min 15 sec) 
select_counter is 492
Heartbeat CPU 0 instructions: 6000001 cycles: 3874718 heartbeat IPC: 1.70262 cumulative IPC: 1.5485 (Simulation time: 0 hr 2 min 45 sec) 
select_counter is 299
Heartbeat CPU 0 instructions: 7000001 cycles: 4443737 heartbeat IPC: 1.75741 cumulative IPC: 1.57525 (Simulation time: 0 hr 3 min 12 sec) 
select_counter is 304
Heartbeat CPU 0 instructions: 8000000 cycles: 4995835 heartbeat IPC: 1.81127 cumulative IPC: 1.60133 (Simulation time: 0 hr 3 min 39 sec) 
select_counter is 225
Heartbeat CPU 0 instructions: 9000001 cycles: 5557375 heartbeat IPC: 1.78082 cumulative IPC: 1.61947 (Simulation time: 0 hr 4 min 6 sec) 
select_counter is 169
Heartbeat CPU 0 instructions: 10000002 cycles: 6231992 heartbeat IPC: 1.48232 cumulative IPC: 1.60462 (Simulation time: 0 hr 4 min 34 sec) 
select_counter is 460

Warmup complete CPU 0 instructions: 10000002 cycles: 6231992 (Simulation time: 0 hr 4 min 34 sec) 

Heartbeat CPU 0 instructions: 11000000 cycles: 12971307 heartbeat IPC: 0.148383 cumulative IPC: 0.148383 (Simulation time: 0 hr 5 min 6 sec) 
select_counter is 500
Heartbeat CPU 0 instructions: 12000000 cycles: 20295850 heartbeat IPC: 0.136527 cumulative IPC: 0.142208 (Simulation time: 0 hr 5 min 35 sec) 
select_counter is 351
Heartbeat CPU 0 instructions: 13000003 cycles: 28987068 heartbeat IPC: 0.115059 cumulative IPC: 0.131839 (Simulation time: 0 hr 6 min 9 sec) 
select_counter is 168
Heartbeat CPU 0 instructions: 14000002 cycles: 35495964 heartbeat IPC: 0.153636 cumulative IPC: 0.136687 (Simulation time: 0 hr 6 min 37 sec) 
select_counter is 219
Heartbeat CPU 0 instructions: 15000000 cycles: 42277118 heartbeat IPC: 0.147467 cumulative IPC: 0.138715 (Simulation time: 0 hr 7 min 6 sec) 
select_counter is 350
Heartbeat CPU 0 instructions: 16000000 cycles: 48934609 heartbeat IPC: 0.150207 cumulative IPC: 0.140507 (Simulation time: 0 hr 7 min 34 sec) 
select_counter is 336
Heartbeat CPU 0 instructions: 17000001 cycles: 55499085 heartbeat IPC: 0.152335 cumulative IPC: 0.142083 (Simulation time: 0 hr 8 min 2 sec) 
select_counter is 308
Heartbeat CPU 0 instructions: 18000000 cycles: 64715338 heartbeat IPC: 0.108504 cumulative IPC: 0.136791 (Simulation time: 0 hr 8 min 35 sec) 
select_counter is 440
Heartbeat CPU 0 instructions: 19000000 cycles: 71410929 heartbeat IPC: 0.149352 cumulative IPC: 0.138081 (Simulation time: 0 hr 9 min 2 sec) 
select_counter is 379
Heartbeat CPU 0 instructions: 20000000 cycles: 78433765 heartbeat IPC: 0.142393 cumulative IPC: 0.138501 (Simulation time: 0 hr 9 min 30 sec) 
select_counter is 298
Heartbeat CPU 0 instructions: 21000001 cycles: 87449604 heartbeat IPC: 0.110916 cumulative IPC: 0.135439 (Simulation time: 0 hr 10 min 0 sec) 
select_counter is 265
Heartbeat CPU 0 instructions: 22000002 cycles: 94873359 heartbeat IPC: 0.134703 cumulative IPC: 0.135377 (Simulation time: 0 hr 10 min 31 sec) 
select_counter is 170
Heartbeat CPU 0 instructions: 23000002 cycles: 101117736 heartbeat IPC: 0.160144 cumulative IPC: 0.137007 (Simulation time: 0 hr 11 min 0 sec) 
select_counter is 130
Heartbeat CPU 0 instructions: 24000000 cycles: 108192224 heartbeat IPC: 0.141353 cumulative IPC: 0.137308 (Simulation time: 0 hr 11 min 28 sec) 
select_counter is 230
Heartbeat CPU 0 instructions: 25000001 cycles: 116478439 heartbeat IPC: 0.120682 cumulative IPC: 0.136059 (Simulation time: 0 hr 12 min 1 sec) 
select_counter is 510
Heartbeat CPU 0 instructions: 26000002 cycles: 123367758 heartbeat IPC: 0.145152 cumulative IPC: 0.136594 (Simulation time: 0 hr 12 min 31 sec) 
select_counter is 439
Heartbeat CPU 0 instructions: 27000003 cycles: 133119029 heartbeat IPC: 0.102551 cumulative IPC: 0.133977 (Simulation time: 0 hr 13 min 7 sec) 
select_counter is 303
Heartbeat CPU 0 instructions: 28000000 cycles: 139580310 heartbeat IPC: 0.154768 cumulative IPC: 0.134985 (Simulation time: 0 hr 13 min 37 sec) 
select_counter is 169
Heartbeat CPU 0 instructions: 29000001 cycles: 148424085 heartbeat IPC: 0.113074 cumulative IPC: 0.133622 (Simulation time: 0 hr 14 min 13 sec) 
select_counter is 5
Heartbeat CPU 0 instructions: 30000001 cycles: 154600353 heartbeat IPC: 0.16191 cumulative IPC: 0.1348 (Simulation time: 0 hr 14 min 42 sec) 
select_counter is 480
Heartbeat CPU 0 instructions: 31000002 cycles: 160948620 heartbeat IPC: 0.157523 cumulative IPC: 0.135732 (Simulation time: 0 hr 15 min 11 sec) 
select_counter is 497
Heartbeat CPU 0 instructions: 32000000 cycles: 167125769 heartbeat IPC: 0.161887 cumulative IPC: 0.136736 (Simulation time: 0 hr 15 min 42 sec) 
select_counter is 492
Heartbeat CPU 0 instructions: 33000000 cycles: 173252143 heartbeat IPC: 0.163229 cumulative IPC: 0.137708 (Simulation time: 0 hr 16 min 11 sec) 
select_counter is 503
Heartbeat CPU 0 instructions: 34000000 cycles: 182353551 heartbeat IPC: 0.109873 cumulative IPC: 0.13627 (Simulation time: 0 hr 16 min 47 sec) 
select_counter is 452
Heartbeat CPU 0 instructions: 35000000 cycles: 189024347 heartbeat IPC: 0.149907 cumulative IPC: 0.136767 (Simulation time: 0 hr 17 min 17 sec) 
select_counter is 223
Heartbeat CPU 0 instructions: 36000000 cycles: 195612863 heartbeat IPC: 0.151779 cumulative IPC: 0.137289 (Simulation time: 0 hr 17 min 47 sec) 
select_counter is 89
Heartbeat CPU 0 instructions: 37000002 cycles: 204529788 heartbeat IPC: 0.112147 cumulative IPC: 0.136159 (Simulation time: 0 hr 18 min 21 sec) 
select_counter is 334
Heartbeat CPU 0 instructions: 38000000 cycles: 210690569 heartbeat IPC: 0.162317 cumulative IPC: 0.136947 (Simulation time: 0 hr 18 min 51 sec) 
select_counter is 218
Heartbeat CPU 0 instructions: 39000001 cycles: 219585157 heartbeat IPC: 0.112428 cumulative IPC: 0.135925 (Simulation time: 0 hr 19 min 25 sec) 
select_counter is 127
Heartbeat CPU 0 instructions: 40000000 cycles: 228111835 heartbeat IPC: 0.117279 cumulative IPC: 0.135208 (Simulation time: 0 hr 20 min 0 sec) 
select_counter is 324
Heartbeat CPU 0 instructions: 41000001 cycles: 234454803 heartbeat IPC: 0.157655 cumulative IPC: 0.135832 (Simulation time: 0 hr 20 min 31 sec) 
select_counter is 135
Heartbeat CPU 0 instructions: 42000003 cycles: 241761420 heartbeat IPC: 0.136863 cumulative IPC: 0.135864 (Simulation time: 0 hr 21 min 2 sec) 
select_counter is 20
Heartbeat CPU 0 instructions: 43000002 cycles: 251404528 heartbeat IPC: 0.103701 cumulative IPC: 0.134599 (Simulation time: 0 hr 21 min 37 sec) 
select_counter is 477
Heartbeat CPU 0 instructions: 44000000 cycles: 257548926 heartbeat IPC: 0.16275 cumulative IPC: 0.135287 (Simulation time: 0 hr 22 min 7 sec) 
select_counter is 403
Heartbeat CPU 0 instructions: 45000000 cycles: 264246954 heartbeat IPC: 0.149298 cumulative IPC: 0.135651 (Simulation time: 0 hr 22 min 37 sec) 
select_counter is 392
Heartbeat CPU 0 instructions: 46000002 cycles: 271285441 heartbeat IPC: 0.142076 cumulative IPC: 0.135822 (Simulation time: 0 hr 23 min 6 sec) 
select_counter is 224
Heartbeat CPU 0 instructions: 47000000 cycles: 278384665 heartbeat IPC: 0.14086 cumulative IPC: 0.135953 (Simulation time: 0 hr 23 min 35 sec) 
select_counter is 262
Heartbeat CPU 0 instructions: 48000000 cycles: 286999741 heartbeat IPC: 0.116076 cumulative IPC: 0.135343 (Simulation time: 0 hr 24 min 7 sec) 
select_counter is 290
Heartbeat CPU 0 instructions: 49000000 cycles: 292964909 heartbeat IPC: 0.16764 cumulative IPC: 0.136015 (Simulation time: 0 hr 24 min 36 sec) 
select_counter is 167
Heartbeat CPU 0 instructions: 50000000 cycles: 299162797 heartbeat IPC: 0.161345 cumulative IPC: 0.136551 (Simulation time: 0 hr 25 min 3 sec) 
select_counter is 103
Heartbeat CPU 0 instructions: 51000000 cycles: 306216318 heartbeat IPC: 0.141773 cumulative IPC: 0.136674 (Simulation time: 0 hr 25 min 31 sec) 
select_counter is 159
Heartbeat CPU 0 instructions: 52000000 cycles: 313999640 heartbeat IPC: 0.12848 cumulative IPC: 0.136467 (Simulation time: 0 hr 26 min 3 sec) 
select_counter is 110
Heartbeat CPU 0 instructions: 53000000 cycles: 320444773 heartbeat IPC: 0.155156 cumulative IPC: 0.13685 (Simulation time: 0 hr 26 min 32 sec) 
select_counter is 44
Heartbeat CPU 0 instructions: 54000000 cycles: 328099631 heartbeat IPC: 0.130636 cumulative IPC: 0.136702 (Simulation time: 0 hr 27 min 2 sec) 
select_counter is 454
Heartbeat CPU 0 instructions: 55000001 cycles: 336315271 heartbeat IPC: 0.121719 cumulative IPC: 0.136329 (Simulation time: 0 hr 27 min 31 sec) 
select_counter is 385
Heartbeat CPU 0 instructions: 56000000 cycles: 346194708 heartbeat IPC: 0.10122 cumulative IPC: 0.135309 (Simulation time: 0 hr 28 min 9 sec) 
select_counter is 355
Heartbeat CPU 0 instructions: 57000000 cycles: 352428229 heartbeat IPC: 0.160423 cumulative IPC: 0.135761 (Simulation time: 0 hr 28 min 38 sec) 
select_counter is 223
Heartbeat CPU 0 instructions: 58000001 cycles: 358895301 heartbeat IPC: 0.15463 cumulative IPC: 0.136107 (Simulation time: 0 hr 29 min 8 sec) 
select_counter is 108
Heartbeat CPU 0 instructions: 59000002 cycles: 367245975 heartbeat IPC: 0.119751 cumulative IPC: 0.135729 (Simulation time: 0 hr 29 min 40 sec) 
select_counter is 506
Heartbeat CPU 0 instructions: 60000000 cycles: 374784673 heartbeat IPC: 0.132649 cumulative IPC: 0.135666 (Simulation time: 0 hr 30 min 13 sec) 
select_counter is 384
Heartbeat CPU 0 instructions: 61000000 cycles: 381249101 heartbeat IPC: 0.154693 cumulative IPC: 0.135994 (Simulation time: 0 hr 30 min 42 sec) 
select_counter is 275
Heartbeat CPU 0 instructions: 62000001 cycles: 388028323 heartbeat IPC: 0.14751 cumulative IPC: 0.136198 (Simulation time: 0 hr 31 min 10 sec) 
select_counter is 384
Heartbeat CPU 0 instructions: 63000000 cycles: 395123901 heartbeat IPC: 0.140933 cumulative IPC: 0.136285 (Simulation time: 0 hr 31 min 40 sec) 
select_counter is 460
Heartbeat CPU 0 instructions: 64000000 cycles: 404211765 heartbeat IPC: 0.110037 cumulative IPC: 0.135685 (Simulation time: 0 hr 32 min 14 sec) 
select_counter is 404
Heartbeat CPU 0 instructions: 65000000 cycles: 411227563 heartbeat IPC: 0.142535 cumulative IPC: 0.135804 (Simulation time: 0 hr 32 min 45 sec) 
select_counter is 251
Heartbeat CPU 0 instructions: 66000001 cycles: 418031939 heartbeat IPC: 0.146964 cumulative IPC: 0.135988 (Simulation time: 0 hr 33 min 15 sec) 
select_counter is 189
Heartbeat CPU 0 instructions: 67000000 cycles: 425213208 heartbeat IPC: 0.139251 cumulative IPC: 0.136044 (Simulation time: 0 hr 33 min 44 sec) 
select_counter is 134
Heartbeat CPU 0 instructions: 68000000 cycles: 432643544 heartbeat IPC: 0.134583 cumulative IPC: 0.136019 (Simulation time: 0 hr 34 min 11 sec) 
select_counter is 41
Heartbeat CPU 0 instructions: 69000000 cycles: 444391498 heartbeat IPC: 0.0851212 cumulative IPC: 0.134654 (Simulation time: 0 hr 34 min 48 sec) 
select_counter is 330
Heartbeat CPU 0 instructions: 70000000 cycles: 451076773 heartbeat IPC: 0.149582 cumulative IPC: 0.134879 (Simulation time: 0 hr 35 min 13 sec) 
select_counter is 305
Heartbeat CPU 0 instructions: 71000002 cycles: 458188035 heartbeat IPC: 0.140622 cumulative IPC: 0.134969 (Simulation time: 0 hr 35 min 38 sec) 
select_counter is 213
Heartbeat CPU 0 instructions: 72000000 cycles: 465560654 heartbeat IPC: 0.135637 cumulative IPC: 0.13498 (Simulation time: 0 hr 36 min 1 sec) 
select_counter is 317
Heartbeat CPU 0 instructions: 73000003 cycles: 473016769 heartbeat IPC: 0.134119 cumulative IPC: 0.134966 (Simulation time: 0 hr 36 min 25 sec) 
select_counter is 453
Heartbeat CPU 0 instructions: 74000001 cycles: 482100470 heartbeat IPC: 0.110087 cumulative IPC: 0.134491 (Simulation time: 0 hr 36 min 51 sec) 
select_counter is 505
Heartbeat CPU 0 instructions: 75000000 cycles: 488949217 heartbeat IPC: 0.146012 cumulative IPC: 0.134654 (Simulation time: 0 hr 37 min 15 sec) 
select_counter is 299
Heartbeat CPU 0 instructions: 76000000 cycles: 495212521 heartbeat IPC: 0.15966 cumulative IPC: 0.134975 (Simulation time: 0 hr 37 min 36 sec) 
select_counter is 326
Heartbeat CPU 0 instructions: 77000000 cycles: 501710200 heartbeat IPC: 0.153901 cumulative IPC: 0.135223 (Simulation time: 0 hr 37 min 57 sec) 
select_counter is 415
Heartbeat CPU 0 instructions: 78000001 cycles: 508127784 heartbeat IPC: 0.155822 cumulative IPC: 0.135486 (Simulation time: 0 hr 38 min 16 sec) 
select_counter is 509
Heartbeat CPU 0 instructions: 79000000 cycles: 517142373 heartbeat IPC: 0.110931 cumulative IPC: 0.135053 (Simulation time: 0 hr 38 min 39 sec) 
select_counter is 499
Heartbeat CPU 0 instructions: 80000000 cycles: 523273836 heartbeat IPC: 0.163093 cumulative IPC: 0.135386 (Simulation time: 0 hr 38 min 56 sec) 
select_counter is 337
Heartbeat CPU 0 instructions: 81000001 cycles: 531011904 heartbeat IPC: 0.129231 cumulative IPC: 0.135295 (Simulation time: 0 hr 39 min 14 sec) 
select_counter is 388
Heartbeat CPU 0 instructions: 82000001 cycles: 538516614 heartbeat IPC: 0.13325 cumulative IPC: 0.135266 (Simulation time: 0 hr 39 min 34 sec) 
select_counter is 55
Heartbeat CPU 0 instructions: 83000002 cycles: 544529501 heartbeat IPC: 0.16631 cumulative IPC: 0.135613 (Simulation time: 0 hr 39 min 50 sec) 
select_counter is 265
Heartbeat CPU 0 instructions: 84000000 cycles: 551022279 heartbeat IPC: 0.154017 cumulative IPC: 0.135832 (Simulation time: 0 hr 40 min 6 sec) 
select_counter is 313
Heartbeat CPU 0 instructions: 85000000 cycles: 558230970 heartbeat IPC: 0.138721 cumulative IPC: 0.13587 (Simulation time: 0 hr 40 min 23 sec) 
select_counter is 362
Heartbeat CPU 0 instructions: 86000001 cycles: 566620529 heartbeat IPC: 0.119196 cumulative IPC: 0.13562 (Simulation time: 0 hr 40 min 42 sec) 
select_counter is 349
Heartbeat CPU 0 instructions: 87000000 cycles: 572745318 heartbeat IPC: 0.163271 cumulative IPC: 0.135919 (Simulation time: 0 hr 40 min 58 sec) 
select_counter is 335
Heartbeat CPU 0 instructions: 88000000 cycles: 579178960 heartbeat IPC: 0.155433 cumulative IPC: 0.136138 (Simulation time: 0 hr 41 min 13 sec) 
select_counter is 224
Heartbeat CPU 0 instructions: 89000002 cycles: 585716124 heartbeat IPC: 0.152972 cumulative IPC: 0.136328 (Simulation time: 0 hr 41 min 28 sec) 
select_counter is 139
Heartbeat CPU 0 instructions: 90000002 cycles: 591882219 heartbeat IPC: 0.162177 cumulative IPC: 0.1366 (Simulation time: 0 hr 41 min 43 sec) 
select_counter is 202
Heartbeat CPU 0 instructions: 91000001 cycles: 600844530 heartbeat IPC: 0.111578 cumulative IPC: 0.136223 (Simulation time: 0 hr 42 min 0 sec) 
select_counter is 505
Heartbeat CPU 0 instructions: 92000000 cycles: 607651681 heartbeat IPC: 0.146904 cumulative IPC: 0.136344 (Simulation time: 0 hr 42 min 14 sec) 
select_counter is 397
Heartbeat CPU 0 instructions: 93000003 cycles: 615125849 heartbeat IPC: 0.133795 cumulative IPC: 0.136313 (Simulation time: 0 hr 42 min 29 sec) 
select_counter is 229
Heartbeat CPU 0 instructions: 94000000 cycles: 622968048 heartbeat IPC: 0.127515 cumulative IPC: 0.136201 (Simulation time: 0 hr 42 min 44 sec) 
select_counter is 292
Heartbeat CPU 0 instructions: 95000000 cycles: 629686483 heartbeat IPC: 0.148844 cumulative IPC: 0.136337 (Simulation time: 0 hr 42 min 57 sec) 
select_counter is 356
Heartbeat CPU 0 instructions: 96000000 cycles: 638836832 heartbeat IPC: 0.109285 cumulative IPC: 0.135946 (Simulation time: 0 hr 43 min 12 sec) 
select_counter is 417
Heartbeat CPU 0 instructions: 97000000 cycles: 645868076 heartbeat IPC: 0.142222 cumulative IPC: 0.136015 (Simulation time: 0 hr 43 min 24 sec) 
select_counter is 245
Heartbeat CPU 0 instructions: 98000003 cycles: 653668384 heartbeat IPC: 0.1282 cumulative IPC: 0.135921 (Simulation time: 0 hr 43 min 35 sec) 
select_counter is 220
Heartbeat CPU 0 instructions: 99000001 cycles: 661620049 heartbeat IPC: 0.12576 cumulative IPC: 0.135797 (Simulation time: 0 hr 43 min 45 sec) 
select_counter is 296
Heartbeat CPU 0 instructions: 100000000 cycles: 669234082 heartbeat IPC: 0.131336 cumulative IPC: 0.135746 (Simulation time: 0 hr 43 min 55 sec) 
select_counter is 266
Heartbeat CPU 0 instructions: 101000000 cycles: 678286597 heartbeat IPC: 0.110467 cumulative IPC: 0.135406 (Simulation time: 0 hr 44 min 6 sec) 
select_counter is 386
Heartbeat CPU 0 instructions: 102000001 cycles: 684456631 heartbeat IPC: 0.162074 cumulative IPC: 0.135648 (Simulation time: 0 hr 44 min 15 sec) 
select_counter is 230
Heartbeat CPU 0 instructions: 103000001 cycles: 690887881 heartbeat IPC: 0.155491 cumulative IPC: 0.135835 (Simulation time: 0 hr 44 min 23 sec) 
select_counter is 245
Heartbeat CPU 0 instructions: 104000000 cycles: 697274694 heartbeat IPC: 0.156572 cumulative IPC: 0.136026 (Simulation time: 0 hr 44 min 30 sec) 
select_counter is 231
Heartbeat CPU 0 instructions: 105000000 cycles: 703370605 heartbeat IPC: 0.164044 cumulative IPC: 0.136271 (Simulation time: 0 hr 44 min 36 sec) 
select_counter is 501
Heartbeat CPU 0 instructions: 106000000 cycles: 712349216 heartbeat IPC: 0.111376 cumulative IPC: 0.135955 (Simulation time: 0 hr 44 min 42 sec) 
select_counter is 494
Heartbeat CPU 0 instructions: 107000002 cycles: 719110475 heartbeat IPC: 0.147902 cumulative IPC: 0.136068 (Simulation time: 0 hr 44 min 46 sec) 
select_counter is 452
Heartbeat CPU 0 instructions: 108000000 cycles: 728506751 heartbeat IPC: 0.106425 cumulative IPC: 0.135682 (Simulation time: 0 hr 44 min 50 sec) 
select_counter is 211
Heartbeat CPU 0 instructions: 109000003 cycles: 734653078 heartbeat IPC: 0.162699 cumulative IPC: 0.13591 (Simulation time: 0 hr 44 min 54 sec) 
select_counter is 133
Heartbeat CPU 0 instructions: 110000003 cycles: 740804148 heartbeat IPC: 0.162573 cumulative IPC: 0.136134 (Simulation time: 0 hr 44 min 58 sec) 
select_counter is 482
Finished CPU 0 instructions: 100000001 cycles: 734572156 cummulative IPC: 0.136134 (Simulation time: 0 hr 44 min 58 sec) 

ChampSim completed all CPUs

Region of Interest Statistics

CPU 0 cummulative IPC: 0.136134 instructions: 100000001 cycles: 734572156
LLC TOTAL     ACCESS:    8752102  HIT:    3502016  MISS:    5250086
LLC LOAD      ACCESS:    1888194  HIT:     418923  MISS:    1469271
LLC RFO       ACCESS:    1828608  HIT:     461525  MISS:    1367083
LLC PREFETCH  ACCESS:    2272528  HIT:     223783  MISS:    2048745
LLC WRITEBACK ACCESS:    2762772  HIT:    2397785  MISS:     364987
Ship samples: 
17, 62, 72, 119, 153, 184, 213, 226, 269, 308, 322, 379, 413, 439, 479, 493, 538, 551, 585, 614, 669, 688, 728, 761, 790, 822, 855, 880, 910, 957, 982, 1021, 1046, 1076, 1092, 1121, 1177, 1204, 1220, 1272, 1308, 1332, 1375, 1383, 1419, 1467, 1486, 1523, 1566, 1571, 1601, 1635, 1687, 1709, 1734, 1782, 1811, 1845, 1870, 1888, 1920, 1966, 1999, 2038, 
Lime duel samples: 
4, 43, 87, 125, 131, 190, 206, 249, 262, 292, 336, 361, 407, 445, 457, 495, 528, 555, 579, 639, 642, 703, 723, 754, 774, 814, 857, 881, 916, 935, 973, 1002, 1041, 1061, 1119, 1146, 1153, 1202, 1234, 1262, 1307, 1326, 1363, 1380, 1422, 1444, 1474, 1529, 1540, 1575, 1602, 1637, 1691, 1720, 1755, 1765, 1794, 1834, 1874, 1916, 1946, 1980, 2005, 2035, 
Lime samples: 
4, 131, 262, 407, 528, 642, 774, 916, 1041, 1153, 1307, 1422, 1540, 1691, 1794, 1946, 
Insertion Distribution: 
	LOAD 179457 0 0 0 0 0 115291 267754 
	RFO 15835 0 0 0 0 0 17189 365116 
	PREF 0 11905 0 0 0 0 62257 780003 
	WRITEBACK 0 0 0 0 0 0 0 358379 
Total Prefetch Downgrades: 41067
