
*** ChampSim Multicore Out-of-Order Simulator ***

Warmup Instructions: 10000000
Simulation Instructions: 100000000
Configuration: 2
Number of CPUs: 1
LLC sets: 2048
LLC ways: 16
Off-chip DRAM Channels: 1 Width: 64-bit Data Rate: 1600 MT/s

CPU 0 runs /datasets/cs240c-wi22-a00-public/data/Assignment2-gz/GemsFDTD_716B.trace.gz
CPU 0 L1D next line prefetcher
CPU 0 L2C IP-based stride prefetcher
Heartbeat CPU 0 instructions: 1000000 cycles: 415045 heartbeat IPC: 2.40938 cumulative IPC: 2.40938 (Simulation time: 0 hr 0 min 22 sec) 
select_counter is 256
Heartbeat CPU 0 instructions: 2000003 cycles: 829979 heartbeat IPC: 2.41003 cumulative IPC: 2.4097 (Simulation time: 0 hr 0 min 44 sec) 
select_counter is 255
Heartbeat CPU 0 instructions: 3000000 cycles: 1280244 heartbeat IPC: 2.22091 cumulative IPC: 2.3433 (Simulation time: 0 hr 1 min 3 sec) 
select_counter is 489
Heartbeat CPU 0 instructions: 4000000 cycles: 1737275 heartbeat IPC: 2.18804 cumulative IPC: 2.30246 (Simulation time: 0 hr 1 min 26 sec) 
select_counter is 447
Heartbeat CPU 0 instructions: 5000000 cycles: 2152256 heartbeat IPC: 2.40975 cumulative IPC: 2.32314 (Simulation time: 0 hr 1 min 48 sec) 
select_counter is 450
Heartbeat CPU 0 instructions: 6000000 cycles: 2567272 heartbeat IPC: 2.40955 cumulative IPC: 2.33711 (Simulation time: 0 hr 2 min 7 sec) 
select_counter is 462
Heartbeat CPU 0 instructions: 7000000 cycles: 2982275 heartbeat IPC: 2.40962 cumulative IPC: 2.3472 (Simulation time: 0 hr 2 min 26 sec) 
select_counter is 477
Heartbeat CPU 0 instructions: 8000000 cycles: 3395201 heartbeat IPC: 2.42174 cumulative IPC: 2.35627 (Simulation time: 0 hr 2 min 46 sec) 
select_counter is 497
Heartbeat CPU 0 instructions: 9000003 cycles: 3840326 heartbeat IPC: 2.24657 cumulative IPC: 2.34355 (Simulation time: 0 hr 3 min 10 sec) 
select_counter is 273
Heartbeat CPU 0 instructions: 10000002 cycles: 4354973 heartbeat IPC: 1.94308 cumulative IPC: 2.29623 (Simulation time: 0 hr 3 min 43 sec) 
select_counter is 375

Warmup complete CPU 0 instructions: 10000002 cycles: 4354973 (Simulation time: 0 hr 3 min 43 sec) 

Heartbeat CPU 0 instructions: 11000000 cycles: 7821464 heartbeat IPC: 0.288476 cumulative IPC: 0.288476 (Simulation time: 0 hr 4 min 27 sec) 
select_counter is 137
Heartbeat CPU 0 instructions: 12000000 cycles: 11270755 heartbeat IPC: 0.289915 cumulative IPC: 0.289193 (Simulation time: 0 hr 5 min 13 sec) 
select_counter is 235
Heartbeat CPU 0 instructions: 13000001 cycles: 14741981 heartbeat IPC: 0.288083 cumulative IPC: 0.288822 (Simulation time: 0 hr 5 min 52 sec) 
select_counter is 195
Heartbeat CPU 0 instructions: 14000000 cycles: 18385860 heartbeat IPC: 0.274433 cumulative IPC: 0.285085 (Simulation time: 0 hr 6 min 32 sec) 
select_counter is 122
Heartbeat CPU 0 instructions: 15000000 cycles: 22166630 heartbeat IPC: 0.264496 cumulative IPC: 0.280715 (Simulation time: 0 hr 7 min 14 sec) 
select_counter is 14
Heartbeat CPU 0 instructions: 16000000 cycles: 25900935 heartbeat IPC: 0.267787 cumulative IPC: 0.278474 (Simulation time: 0 hr 7 min 59 sec) 
select_counter is 54
Heartbeat CPU 0 instructions: 17000002 cycles: 29633389 heartbeat IPC: 0.267921 cumulative IPC: 0.276916 (Simulation time: 0 hr 8 min 43 sec) 
select_counter is 424
Heartbeat CPU 0 instructions: 18000003 cycles: 33357974 heartbeat IPC: 0.268487 cumulative IPC: 0.275834 (Simulation time: 0 hr 9 min 27 sec) 
select_counter is 285
Heartbeat CPU 0 instructions: 19000000 cycles: 37098776 heartbeat IPC: 0.267322 cumulative IPC: 0.274861 (Simulation time: 0 hr 10 min 8 sec) 
select_counter is 414
Heartbeat CPU 0 instructions: 20000000 cycles: 39856671 heartbeat IPC: 0.362595 cumulative IPC: 0.281677 (Simulation time: 0 hr 10 min 42 sec) 
select_counter is 311
Heartbeat CPU 0 instructions: 21000000 cycles: 42218039 heartbeat IPC: 0.423483 cumulative IPC: 0.290521 (Simulation time: 0 hr 11 min 18 sec) 
select_counter is 187
Heartbeat CPU 0 instructions: 22000000 cycles: 44548275 heartbeat IPC: 0.429141 cumulative IPC: 0.298557 (Simulation time: 0 hr 11 min 54 sec) 
select_counter is 469
Heartbeat CPU 0 instructions: 23000000 cycles: 46856265 heartbeat IPC: 0.433277 cumulative IPC: 0.305873 (Simulation time: 0 hr 12 min 29 sec) 
select_counter is 332
Heartbeat CPU 0 instructions: 24000000 cycles: 49212116 heartbeat IPC: 0.424475 cumulative IPC: 0.312102 (Simulation time: 0 hr 13 min 7 sec) 
select_counter is 181
Heartbeat CPU 0 instructions: 25000002 cycles: 51673774 heartbeat IPC: 0.406231 cumulative IPC: 0.316999 (Simulation time: 0 hr 13 min 48 sec) 
select_counter is 346
Heartbeat CPU 0 instructions: 26000002 cycles: 53731036 heartbeat IPC: 0.486083 cumulative IPC: 0.324044 (Simulation time: 0 hr 14 min 27 sec) 
select_counter is 332
Heartbeat CPU 0 instructions: 27000002 cycles: 55737065 heartbeat IPC: 0.498497 cumulative IPC: 0.330855 (Simulation time: 0 hr 15 min 3 sec) 
select_counter is 177
Heartbeat CPU 0 instructions: 28000000 cycles: 57637431 heartbeat IPC: 0.526213 cumulative IPC: 0.337822 (Simulation time: 0 hr 15 min 41 sec) 
select_counter is 190
Heartbeat CPU 0 instructions: 29000003 cycles: 59597327 heartbeat IPC: 0.510233 cumulative IPC: 0.343939 (Simulation time: 0 hr 16 min 15 sec) 
select_counter is 254
Heartbeat CPU 0 instructions: 30000002 cycles: 61611476 heartbeat IPC: 0.496487 cumulative IPC: 0.349305 (Simulation time: 0 hr 16 min 51 sec) 
select_counter is 385
Heartbeat CPU 0 instructions: 31000002 cycles: 63163174 heartbeat IPC: 0.644455 cumulative IPC: 0.357093 (Simulation time: 0 hr 17 min 26 sec) 
select_counter is 348
Heartbeat CPU 0 instructions: 32000000 cycles: 64646578 heartbeat IPC: 0.674124 cumulative IPC: 0.364893 (Simulation time: 0 hr 18 min 0 sec) 
select_counter is 137
Heartbeat CPU 0 instructions: 33000000 cycles: 66127898 heartbeat IPC: 0.675074 cumulative IPC: 0.372331 (Simulation time: 0 hr 18 min 34 sec) 
select_counter is 275
Heartbeat CPU 0 instructions: 34000001 cycles: 67619260 heartbeat IPC: 0.670529 cumulative IPC: 0.379361 (Simulation time: 0 hr 19 min 7 sec) 
select_counter is 370
Heartbeat CPU 0 instructions: 35000001 cycles: 69103313 heartbeat IPC: 0.67383 cumulative IPC: 0.38611 (Simulation time: 0 hr 19 min 40 sec) 
select_counter is 382
Heartbeat CPU 0 instructions: 36000000 cycles: 70654895 heartbeat IPC: 0.644503 cumulative IPC: 0.392157 (Simulation time: 0 hr 20 min 15 sec) 
select_counter is 321
Heartbeat CPU 0 instructions: 37000002 cycles: 72466503 heartbeat IPC: 0.551997 cumulative IPC: 0.396409 (Simulation time: 0 hr 20 min 49 sec) 
select_counter is 134
Heartbeat CPU 0 instructions: 38000002 cycles: 73983446 heartbeat IPC: 0.659221 cumulative IPC: 0.402134 (Simulation time: 0 hr 21 min 21 sec) 
select_counter is 414
Heartbeat CPU 0 instructions: 39000000 cycles: 75501420 heartbeat IPC: 0.658772 cumulative IPC: 0.40761 (Simulation time: 0 hr 21 min 52 sec) 
select_counter is 461
Heartbeat CPU 0 instructions: 40000000 cycles: 76996443 heartbeat IPC: 0.668886 cumulative IPC: 0.412987 (Simulation time: 0 hr 22 min 23 sec) 
select_counter is 227
Heartbeat CPU 0 instructions: 41000003 cycles: 78507870 heartbeat IPC: 0.661628 cumulative IPC: 0.418055 (Simulation time: 0 hr 22 min 54 sec) 
select_counter is 188
Heartbeat CPU 0 instructions: 42000000 cycles: 80021330 heartbeat IPC: 0.660736 cumulative IPC: 0.422909 (Simulation time: 0 hr 23 min 25 sec) 
select_counter is 47
Heartbeat CPU 0 instructions: 43000002 cycles: 82948169 heartbeat IPC: 0.341666 cumulative IPC: 0.419884 (Simulation time: 0 hr 24 min 5 sec) 
select_counter is 106
Heartbeat CPU 0 instructions: 44000000 cycles: 86399077 heartbeat IPC: 0.289778 cumulative IPC: 0.414411 (Simulation time: 0 hr 24 min 47 sec) 
select_counter is 396
Heartbeat CPU 0 instructions: 45000003 cycles: 89846708 heartbeat IPC: 0.290055 cumulative IPC: 0.409396 (Simulation time: 0 hr 25 min 27 sec) 
select_counter is 473
Heartbeat CPU 0 instructions: 46000000 cycles: 93296882 heartbeat IPC: 0.28984 cumulative IPC: 0.404759 (Simulation time: 0 hr 26 min 9 sec) 
select_counter is 89
Heartbeat CPU 0 instructions: 47000000 cycles: 96748360 heartbeat IPC: 0.289731 cumulative IPC: 0.400462 (Simulation time: 0 hr 26 min 50 sec) 
select_counter is 292
Heartbeat CPU 0 instructions: 48000000 cycles: 100419120 heartbeat IPC: 0.272423 cumulative IPC: 0.395569 (Simulation time: 0 hr 27 min 35 sec) 
select_counter is 354
Heartbeat CPU 0 instructions: 49000000 cycles: 104119808 heartbeat IPC: 0.27022 cumulative IPC: 0.390919 (Simulation time: 0 hr 28 min 16 sec) 
select_counter is 360
Heartbeat CPU 0 instructions: 50000001 cycles: 107825992 heartbeat IPC: 0.26982 cumulative IPC: 0.386582 (Simulation time: 0 hr 28 min 56 sec) 
select_counter is 170
Heartbeat CPU 0 instructions: 51000002 cycles: 111532615 heartbeat IPC: 0.269788 cumulative IPC: 0.382542 (Simulation time: 0 hr 29 min 36 sec) 
select_counter is 229
Heartbeat CPU 0 instructions: 52000000 cycles: 115248275 heartbeat IPC: 0.269131 cumulative IPC: 0.378742 (Simulation time: 0 hr 30 min 16 sec) 
select_counter is 402
Heartbeat CPU 0 instructions: 53000000 cycles: 119043024 heartbeat IPC: 0.263522 cumulative IPC: 0.37493 (Simulation time: 0 hr 30 min 58 sec) 
select_counter is 268
Heartbeat CPU 0 instructions: 54000001 cycles: 121053689 heartbeat IPC: 0.497348 cumulative IPC: 0.377039 (Simulation time: 0 hr 31 min 33 sec) 
select_counter is 102
Heartbeat CPU 0 instructions: 55000000 cycles: 123013962 heartbeat IPC: 0.510132 cumulative IPC: 0.379238 (Simulation time: 0 hr 32 min 10 sec) 
select_counter is 390
Heartbeat CPU 0 instructions: 56000000 cycles: 125026711 heartbeat IPC: 0.496833 cumulative IPC: 0.381199 (Simulation time: 0 hr 32 min 46 sec) 
select_counter is 440
Heartbeat CPU 0 instructions: 57000002 cycles: 127023461 heartbeat IPC: 0.500815 cumulative IPC: 0.383146 (Simulation time: 0 hr 33 min 29 sec) 
select_counter is 59
Heartbeat CPU 0 instructions: 58000001 cycles: 128948741 heartbeat IPC: 0.519404 cumulative IPC: 0.385252 (Simulation time: 0 hr 34 min 3 sec) 
select_counter is 30
Heartbeat CPU 0 instructions: 59000002 cycles: 130906072 heartbeat IPC: 0.5109 cumulative IPC: 0.387195 (Simulation time: 0 hr 34 min 36 sec) 
select_counter is 140
Heartbeat CPU 0 instructions: 60000000 cycles: 132610156 heartbeat IPC: 0.586824 cumulative IPC: 0.389848 (Simulation time: 0 hr 35 min 9 sec) 
select_counter is 373
Heartbeat CPU 0 instructions: 61000002 cycles: 134323889 heartbeat IPC: 0.583523 cumulative IPC: 0.392402 (Simulation time: 0 hr 35 min 44 sec) 
select_counter is 322
Heartbeat CPU 0 instructions: 62000000 cycles: 136060078 heartbeat IPC: 0.575973 cumulative IPC: 0.394821 (Simulation time: 0 hr 36 min 14 sec) 
select_counter is 399
Heartbeat CPU 0 instructions: 63000000 cycles: 137783689 heartbeat IPC: 0.580177 cumulative IPC: 0.397216 (Simulation time: 0 hr 36 min 43 sec) 
select_counter is 157
Heartbeat CPU 0 instructions: 64000000 cycles: 139512258 heartbeat IPC: 0.578513 cumulative IPC: 0.399534 (Simulation time: 0 hr 37 min 12 sec) 
select_counter is 130
Heartbeat CPU 0 instructions: 65000001 cycles: 140993963 heartbeat IPC: 0.674899 cumulative IPC: 0.402521 (Simulation time: 0 hr 37 min 35 sec) 
select_counter is 381
Heartbeat CPU 0 instructions: 66000001 cycles: 142470326 heartbeat IPC: 0.67734 cumulative IPC: 0.405458 (Simulation time: 0 hr 37 min 58 sec) 
select_counter is 183
Heartbeat CPU 0 instructions: 67000003 cycles: 143946066 heartbeat IPC: 0.677628 cumulative IPC: 0.408336 (Simulation time: 0 hr 38 min 20 sec) 
select_counter is 214
Heartbeat CPU 0 instructions: 68000000 cycles: 145424856 heartbeat IPC: 0.676226 cumulative IPC: 0.411144 (Simulation time: 0 hr 38 min 41 sec) 
select_counter is 365
Heartbeat CPU 0 instructions: 69000002 cycles: 146912310 heartbeat IPC: 0.672291 cumulative IPC: 0.413869 (Simulation time: 0 hr 39 min 1 sec) 
select_counter is 383
Heartbeat CPU 0 instructions: 70000000 cycles: 148598319 heartbeat IPC: 0.593115 cumulative IPC: 0.415964 (Simulation time: 0 hr 39 min 21 sec) 
select_counter is 37
Heartbeat CPU 0 instructions: 71000000 cycles: 150120578 heartbeat IPC: 0.656918 cumulative IPC: 0.41848 (Simulation time: 0 hr 39 min 41 sec) 
select_counter is 188
Heartbeat CPU 0 instructions: 72000000 cycles: 151620509 heartbeat IPC: 0.666697 cumulative IPC: 0.421008 (Simulation time: 0 hr 40 min 1 sec) 
select_counter is 489
Heartbeat CPU 0 instructions: 73000002 cycles: 153117716 heartbeat IPC: 0.667912 cumulative IPC: 0.423493 (Simulation time: 0 hr 40 min 20 sec) 
select_counter is 260
Heartbeat CPU 0 instructions: 74000000 cycles: 154630046 heartbeat IPC: 0.66123 cumulative IPC: 0.425886 (Simulation time: 0 hr 40 min 37 sec) 
select_counter is 488
Heartbeat CPU 0 instructions: 75000000 cycles: 156132574 heartbeat IPC: 0.665545 cumulative IPC: 0.428258 (Simulation time: 0 hr 40 min 55 sec) 
select_counter is 73
Heartbeat CPU 0 instructions: 76000000 cycles: 157626531 heartbeat IPC: 0.669363 cumulative IPC: 0.430608 (Simulation time: 0 hr 41 min 13 sec) 
select_counter is 269
Heartbeat CPU 0 instructions: 77000001 cycles: 161027852 heartbeat IPC: 0.294004 cumulative IPC: 0.427643 (Simulation time: 0 hr 41 min 35 sec) 
select_counter is 207
Heartbeat CPU 0 instructions: 78000000 cycles: 164547735 heartbeat IPC: 0.2841 cumulative IPC: 0.424489 (Simulation time: 0 hr 41 min 56 sec) 
select_counter is 461
Heartbeat CPU 0 instructions: 79000002 cycles: 168049135 heartbeat IPC: 0.285601 cumulative IPC: 0.421518 (Simulation time: 0 hr 42 min 17 sec) 
select_counter is 38
Heartbeat CPU 0 instructions: 80000000 cycles: 171557969 heartbeat IPC: 0.284994 cumulative IPC: 0.418653 (Simulation time: 0 hr 42 min 38 sec) 
select_counter is 421
Heartbeat CPU 0 instructions: 81000000 cycles: 175055862 heartbeat IPC: 0.285886 cumulative IPC: 0.415932 (Simulation time: 0 hr 42 min 58 sec) 
select_counter is 32
Heartbeat CPU 0 instructions: 82000002 cycles: 178807392 heartbeat IPC: 0.266558 cumulative IPC: 0.41272 (Simulation time: 0 hr 43 min 16 sec) 
select_counter is 209
Heartbeat CPU 0 instructions: 83000002 cycles: 182559287 heartbeat IPC: 0.266532 cumulative IPC: 0.409642 (Simulation time: 0 hr 43 min 32 sec) 
select_counter is 488
Heartbeat CPU 0 instructions: 84000000 cycles: 186301014 heartbeat IPC: 0.267256 cumulative IPC: 0.406714 (Simulation time: 0 hr 43 min 46 sec) 
select_counter is 151
Heartbeat CPU 0 instructions: 85000000 cycles: 190036541 heartbeat IPC: 0.2677 cumulative IPC: 0.403917 (Simulation time: 0 hr 44 min 0 sec) 
select_counter is 174
Heartbeat CPU 0 instructions: 86000000 cycles: 193786668 heartbeat IPC: 0.266658 cumulative IPC: 0.4012 (Simulation time: 0 hr 44 min 13 sec) 
select_counter is 236
Heartbeat CPU 0 instructions: 87000000 cycles: 197223408 heartbeat IPC: 0.290973 cumulative IPC: 0.399236 (Simulation time: 0 hr 44 min 24 sec) 
select_counter is 375
Heartbeat CPU 0 instructions: 88000000 cycles: 199029216 heartbeat IPC: 0.553769 cumulative IPC: 0.400669 (Simulation time: 0 hr 44 min 31 sec) 
select_counter is 68
Heartbeat CPU 0 instructions: 89000001 cycles: 200790475 heartbeat IPC: 0.567776 cumulative IPC: 0.402168 (Simulation time: 0 hr 44 min 38 sec) 
select_counter is 387
Heartbeat CPU 0 instructions: 90000001 cycles: 202566481 heartbeat IPC: 0.563061 cumulative IPC: 0.403609 (Simulation time: 0 hr 44 min 43 sec) 
select_counter is 150
Heartbeat CPU 0 instructions: 91000001 cycles: 204344007 heartbeat IPC: 0.56258 cumulative IPC: 0.405022 (Simulation time: 0 hr 44 min 48 sec) 
select_counter is 300
Heartbeat CPU 0 instructions: 92000000 cycles: 206110177 heartbeat IPC: 0.566196 cumulative IPC: 0.406433 (Simulation time: 0 hr 44 min 52 sec) 
select_counter is 415
Heartbeat CPU 0 instructions: 93000002 cycles: 207983535 heartbeat IPC: 0.533802 cumulative IPC: 0.407605 (Simulation time: 0 hr 44 min 56 sec) 
select_counter is 371
Heartbeat CPU 0 instructions: 94000001 cycles: 209574854 heartbeat IPC: 0.628409 cumulative IPC: 0.409317 (Simulation time: 0 hr 45 min 0 sec) 
select_counter is 272
Heartbeat CPU 0 instructions: 95000000 cycles: 211156207 heartbeat IPC: 0.632369 cumulative IPC: 0.411023 (Simulation time: 0 hr 45 min 5 sec) 
select_counter is 200
Heartbeat CPU 0 instructions: 96000000 cycles: 212754432 heartbeat IPC: 0.625694 cumulative IPC: 0.412669 (Simulation time: 0 hr 45 min 9 sec) 
select_counter is 8
Heartbeat CPU 0 instructions: 97000001 cycles: 214349695 heartbeat IPC: 0.626857 cumulative IPC: 0.414296 (Simulation time: 0 hr 45 min 13 sec) 
select_counter is 1
Heartbeat CPU 0 instructions: 98000000 cycles: 216032126 heartbeat IPC: 0.594377 cumulative IPC: 0.415727 (Simulation time: 0 hr 45 min 17 sec) 
select_counter is 442
Heartbeat CPU 0 instructions: 99000001 cycles: 217524699 heartbeat IPC: 0.669985 cumulative IPC: 0.417508 (Simulation time: 0 hr 45 min 21 sec) 
select_counter is 71
Heartbeat CPU 0 instructions: 100000000 cycles: 219004234 heartbeat IPC: 0.675887 cumulative IPC: 0.419289 (Simulation time: 0 hr 45 min 25 sec) 
select_counter is 309
Heartbeat CPU 0 instructions: 101000002 cycles: 220499273 heartbeat IPC: 0.66888 cumulative IPC: 0.421015 (Simulation time: 0 hr 45 min 29 sec) 
select_counter is 190
Heartbeat CPU 0 instructions: 102000003 cycles: 221999839 heartbeat IPC: 0.666416 cumulative IPC: 0.422707 (Simulation time: 0 hr 45 min 33 sec) 
select_counter is 260
Heartbeat CPU 0 instructions: 103000001 cycles: 223501587 heartbeat IPC: 0.665889 cumulative IPC: 0.424373 (Simulation time: 0 hr 45 min 37 sec) 
select_counter is 191
Heartbeat CPU 0 instructions: 104000000 cycles: 225160374 heartbeat IPC: 0.60285 cumulative IPC: 0.425714 (Simulation time: 0 hr 45 min 41 sec) 
select_counter is 510
Heartbeat CPU 0 instructions: 105000003 cycles: 226665794 heartbeat IPC: 0.664268 cumulative IPC: 0.42733 (Simulation time: 0 hr 45 min 45 sec) 
select_counter is 221
Heartbeat CPU 0 instructions: 106000001 cycles: 228201005 heartbeat IPC: 0.651375 cumulative IPC: 0.428866 (Simulation time: 0 hr 45 min 49 sec) 
select_counter is 495
Heartbeat CPU 0 instructions: 107000001 cycles: 229716828 heartbeat IPC: 0.659708 cumulative IPC: 0.430419 (Simulation time: 0 hr 45 min 53 sec) 
select_counter is 122
Heartbeat CPU 0 instructions: 108000000 cycles: 231210906 heartbeat IPC: 0.669308 cumulative IPC: 0.431992 (Simulation time: 0 hr 45 min 57 sec) 
select_counter is 376
Heartbeat CPU 0 instructions: 109000000 cycles: 232743789 heartbeat IPC: 0.652366 cumulative IPC: 0.433471 (Simulation time: 0 hr 46 min 1 sec) 
select_counter is 31
Heartbeat CPU 0 instructions: 110000002 cycles: 234574274 heartbeat IPC: 0.546304 cumulative IPC: 0.434368 (Simulation time: 0 hr 46 min 6 sec) 
select_counter is 406
Finished CPU 0 instructions: 100000000 cycles: 230219301 cummulative IPC: 0.434368 (Simulation time: 0 hr 46 min 6 sec) 

ChampSim completed all CPUs

Region of Interest Statistics

CPU 0 cummulative IPC: 0.434368 instructions: 100000000 cycles: 230219301
LLC TOTAL     ACCESS:   12999957  HIT:   10090103  MISS:    2909854
LLC LOAD      ACCESS:    5288699  HIT:    4344115  MISS:     944584
LLC RFO       ACCESS:          0  HIT:          0  MISS:          0
LLC PREFETCH  ACCESS:    6798736  HIT:    4847443  MISS:    1951293
LLC WRITEBACK ACCESS:     912522  HIT:     898545  MISS:      13977
Ship samples: 
4, 42, 77, 104, 159, 188, 207, 237, 273, 303, 321, 377, 392, 442, 473, 503, 521, 548, 587, 614, 669, 696, 734, 767, 782, 816, 835, 887, 904, 941, 961, 1008, 1032, 1070, 1098, 1137, 1169, 1195, 1244, 1253, 1284, 1338, 1347, 1403, 1436, 1458, 1485, 1504, 1542, 1577, 1607, 1661, 1687, 1710, 1730, 1790, 1801, 1837, 1867, 1912, 1938, 1957, 1997, 2036, 
Lime duel samples: 
5, 61, 74, 106, 147, 177, 206, 251, 275, 297, 346, 353, 414, 433, 467, 511, 534, 545, 595, 620, 650, 675, 716, 741, 783, 809, 847, 878, 916, 938, 967, 996, 1026, 1059, 1108, 1144, 1165, 1213, 1238, 1274, 1291, 1333, 1351, 1394, 1419, 1449, 1502, 1506, 1557, 1582, 1616, 1658, 1688, 1704, 1747, 1780, 1798, 1849, 1869, 1897, 1927, 1963, 2015, 2022, 
Lime samples: 
5, 147, 275, 414, 534, 650, 783, 916, 1026, 1165, 1291, 1419, 1557, 1688, 1798, 1927, 
Insertion Distribution: 
	LOAD 98880 0 0 0 0 0 23078 390674 
	RFO 0 0 0 0 0 0 5629 0 
	PREF 0 440444 0 0 0 0 53640 401217 
	WRITEBACK 0 0 0 0 0 0 0 5654 
Total Prefetch Downgrades: 406028
