
*** ChampSim Multicore Out-of-Order Simulator ***

Warmup Instructions: 10000000
Simulation Instructions: 100000000
Configuration: 2
Number of CPUs: 1
LLC sets: 2048
LLC ways: 16
Off-chip DRAM Channels: 1 Width: 64-bit Data Rate: 1600 MT/s

CPU 0 runs /datasets/cs240c-wi22-a00-public/data/Assignment2-gz/soplex_217B.trace.gz
CPU 0 L1D next line prefetcher
CPU 0 L2C IP-based stride prefetcher
Heartbeat CPU 0 instructions: 1000002 cycles: 441534 heartbeat IPC: 2.26484 cumulative IPC: 2.26484 (Simulation time: 0 hr 0 min 30 sec) 
select_counter is 407
Heartbeat CPU 0 instructions: 2000003 cycles: 800626 heartbeat IPC: 2.7848 cumulative IPC: 2.49805 (Simulation time: 0 hr 0 min 50 sec) 
select_counter is 461
Heartbeat CPU 0 instructions: 3000002 cycles: 1245720 heartbeat IPC: 2.24671 cumulative IPC: 2.40825 (Simulation time: 0 hr 1 min 13 sec) 
select_counter is 509
Heartbeat CPU 0 instructions: 4000000 cycles: 1673694 heartbeat IPC: 2.33659 cumulative IPC: 2.38992 (Simulation time: 0 hr 1 min 36 sec) 
select_counter is 508
Heartbeat CPU 0 instructions: 5000001 cycles: 2057745 heartbeat IPC: 2.60382 cumulative IPC: 2.42984 (Simulation time: 0 hr 1 min 55 sec) 
select_counter is 510
Heartbeat CPU 0 instructions: 6000000 cycles: 2432080 heartbeat IPC: 2.6714 cumulative IPC: 2.46702 (Simulation time: 0 hr 2 min 15 sec) 
select_counter is 473
Heartbeat CPU 0 instructions: 7000003 cycles: 2961706 heartbeat IPC: 1.88813 cumulative IPC: 2.3635 (Simulation time: 0 hr 2 min 36 sec) 
select_counter is 508
Heartbeat CPU 0 instructions: 8000000 cycles: 3409225 heartbeat IPC: 2.23454 cumulative IPC: 2.34657 (Simulation time: 0 hr 3 min 1 sec) 
select_counter is 446
Heartbeat CPU 0 instructions: 9000001 cycles: 3833613 heartbeat IPC: 2.35634 cumulative IPC: 2.34766 (Simulation time: 0 hr 3 min 24 sec) 
select_counter is 438
Heartbeat CPU 0 instructions: 10000000 cycles: 4245954 heartbeat IPC: 2.42517 cumulative IPC: 2.35518 (Simulation time: 0 hr 3 min 44 sec) 
select_counter is 507

Warmup complete CPU 0 instructions: 10000004 cycles: 4245955 (Simulation time: 0 hr 3 min 44 sec) 

Heartbeat CPU 0 instructions: 11000002 cycles: 8175849 heartbeat IPC: 0.25446 cumulative IPC: 0.254459 (Simulation time: 0 hr 4 min 19 sec) 
select_counter is 37
Heartbeat CPU 0 instructions: 12000000 cycles: 10856428 heartbeat IPC: 0.373053 cumulative IPC: 0.30255 (Simulation time: 0 hr 4 min 42 sec) 
select_counter is 211
Heartbeat CPU 0 instructions: 13000000 cycles: 12223042 heartbeat IPC: 0.731736 cumulative IPC: 0.376077 (Simulation time: 0 hr 5 min 0 sec) 
select_counter is 95
Heartbeat CPU 0 instructions: 14000000 cycles: 14945900 heartbeat IPC: 0.367261 cumulative IPC: 0.373833 (Simulation time: 0 hr 5 min 25 sec) 
select_counter is 444
Heartbeat CPU 0 instructions: 15000000 cycles: 17626503 heartbeat IPC: 0.37305 cumulative IPC: 0.373676 (Simulation time: 0 hr 5 min 55 sec) 
select_counter is 213
Heartbeat CPU 0 instructions: 16000000 cycles: 21350168 heartbeat IPC: 0.268553 cumulative IPC: 0.350791 (Simulation time: 0 hr 6 min 32 sec) 
select_counter is 452
Heartbeat CPU 0 instructions: 17000002 cycles: 23718254 heartbeat IPC: 0.422283 cumulative IPC: 0.359485 (Simulation time: 0 hr 6 min 59 sec) 
select_counter is 203
Heartbeat CPU 0 instructions: 18000002 cycles: 26358326 heartbeat IPC: 0.378778 cumulative IPC: 0.361788 (Simulation time: 0 hr 7 min 31 sec) 
select_counter is 201
Heartbeat CPU 0 instructions: 19000000 cycles: 29903832 heartbeat IPC: 0.282047 cumulative IPC: 0.350769 (Simulation time: 0 hr 8 min 6 sec) 
select_counter is 265
Heartbeat CPU 0 instructions: 20000000 cycles: 31254299 heartbeat IPC: 0.740485 cumulative IPC: 0.370256 (Simulation time: 0 hr 8 min 29 sec) 
select_counter is 214
Heartbeat CPU 0 instructions: 21000000 cycles: 32711950 heartbeat IPC: 0.686035 cumulative IPC: 0.386426 (Simulation time: 0 hr 8 min 48 sec) 
select_counter is 161
Heartbeat CPU 0 instructions: 22000001 cycles: 35922375 heartbeat IPC: 0.311486 cumulative IPC: 0.378831 (Simulation time: 0 hr 9 min 16 sec) 
select_counter is 462
Heartbeat CPU 0 instructions: 23000003 cycles: 39342957 heartbeat IPC: 0.292349 cumulative IPC: 0.370402 (Simulation time: 0 hr 9 min 51 sec) 
select_counter is 17
Heartbeat CPU 0 instructions: 24000000 cycles: 42844993 heartbeat IPC: 0.285547 cumulative IPC: 0.362703 (Simulation time: 0 hr 10 min 28 sec) 
select_counter is 447
Heartbeat CPU 0 instructions: 25000001 cycles: 44352891 heartbeat IPC: 0.663175 cumulative IPC: 0.374 (Simulation time: 0 hr 10 min 55 sec) 
select_counter is 83
Heartbeat CPU 0 instructions: 26000002 cycles: 48337662 heartbeat IPC: 0.250956 cumulative IPC: 0.36288 (Simulation time: 0 hr 11 min 31 sec) 
select_counter is 15
Heartbeat CPU 0 instructions: 27000002 cycles: 50780587 heartbeat IPC: 0.409345 cumulative IPC: 0.365319 (Simulation time: 0 hr 11 min 54 sec) 
select_counter is 403
Heartbeat CPU 0 instructions: 28000000 cycles: 52127319 heartbeat IPC: 0.742537 cumulative IPC: 0.375929 (Simulation time: 0 hr 12 min 10 sec) 
select_counter is 355
Heartbeat CPU 0 instructions: 29000002 cycles: 54969862 heartbeat IPC: 0.351798 cumulative IPC: 0.374577 (Simulation time: 0 hr 12 min 36 sec) 
select_counter is 280
Heartbeat CPU 0 instructions: 30000002 cycles: 57785375 heartbeat IPC: 0.355175 cumulative IPC: 0.373556 (Simulation time: 0 hr 13 min 6 sec) 
select_counter is 96
Heartbeat CPU 0 instructions: 31000000 cycles: 61066204 heartbeat IPC: 0.3048 cumulative IPC: 0.369586 (Simulation time: 0 hr 13 min 47 sec) 
select_counter is 226
Heartbeat CPU 0 instructions: 32000000 cycles: 62874435 heartbeat IPC: 0.553027 cumulative IPC: 0.375244 (Simulation time: 0 hr 14 min 15 sec) 
select_counter is 416
Heartbeat CPU 0 instructions: 33000001 cycles: 66517714 heartbeat IPC: 0.274478 cumulative IPC: 0.369349 (Simulation time: 0 hr 14 min 57 sec) 
select_counter is 74
Heartbeat CPU 0 instructions: 34000000 cycles: 69352780 heartbeat IPC: 0.352725 cumulative IPC: 0.368625 (Simulation time: 0 hr 15 min 24 sec) 
select_counter is 225
Heartbeat CPU 0 instructions: 35000002 cycles: 70688721 heartbeat IPC: 0.748538 cumulative IPC: 0.376264 (Simulation time: 0 hr 15 min 44 sec) 
select_counter is 158
Heartbeat CPU 0 instructions: 36000000 cycles: 72946140 heartbeat IPC: 0.442983 cumulative IPC: 0.378456 (Simulation time: 0 hr 16 min 11 sec) 
select_counter is 77
Heartbeat CPU 0 instructions: 37000002 cycles: 75566460 heartbeat IPC: 0.381634 cumulative IPC: 0.378573 (Simulation time: 0 hr 16 min 43 sec) 
select_counter is 504
Heartbeat CPU 0 instructions: 38000000 cycles: 79277993 heartbeat IPC: 0.26943 cumulative IPC: 0.373174 (Simulation time: 0 hr 17 min 18 sec) 
select_counter is 180
Heartbeat CPU 0 instructions: 39000001 cycles: 81337691 heartbeat IPC: 0.485509 cumulative IPC: 0.376175 (Simulation time: 0 hr 17 min 44 sec) 
select_counter is 386
Heartbeat CPU 0 instructions: 40000000 cycles: 84653011 heartbeat IPC: 0.30163 cumulative IPC: 0.373102 (Simulation time: 0 hr 18 min 15 sec) 
select_counter is 277
Heartbeat CPU 0 instructions: 41000000 cycles: 87793142 heartbeat IPC: 0.318458 cumulative IPC: 0.371048 (Simulation time: 0 hr 18 min 45 sec) 
select_counter is 284
Heartbeat CPU 0 instructions: 42000002 cycles: 89156515 heartbeat IPC: 0.733476 cumulative IPC: 0.376867 (Simulation time: 0 hr 19 min 1 sec) 
select_counter is 229
Heartbeat CPU 0 instructions: 43000001 cycles: 90998898 heartbeat IPC: 0.542775 cumulative IPC: 0.380391 (Simulation time: 0 hr 19 min 21 sec) 
select_counter is 156
Heartbeat CPU 0 instructions: 44000000 cycles: 93885931 heartbeat IPC: 0.346376 cumulative IPC: 0.379295 (Simulation time: 0 hr 19 min 49 sec) 
select_counter is 109
Heartbeat CPU 0 instructions: 45000003 cycles: 97478217 heartbeat IPC: 0.278375 cumulative IPC: 0.375407 (Simulation time: 0 hr 20 min 22 sec) 
select_counter is 399
Heartbeat CPU 0 instructions: 46000000 cycles: 100563579 heartbeat IPC: 0.32411 cumulative IPC: 0.373763 (Simulation time: 0 hr 20 min 57 sec) 
select_counter is 423
Heartbeat CPU 0 instructions: 47000001 cycles: 102282740 heartbeat IPC: 0.58168 cumulative IPC: 0.377409 (Simulation time: 0 hr 21 min 22 sec) 
select_counter is 30
Heartbeat CPU 0 instructions: 48000000 cycles: 106107104 heartbeat IPC: 0.261481 cumulative IPC: 0.373057 (Simulation time: 0 hr 21 min 58 sec) 
select_counter is 88
Heartbeat CPU 0 instructions: 49000000 cycles: 108780915 heartbeat IPC: 0.373998 cumulative IPC: 0.373081 (Simulation time: 0 hr 22 min 25 sec) 
select_counter is 454
Heartbeat CPU 0 instructions: 50000001 cycles: 110148588 heartbeat IPC: 0.73117 cumulative IPC: 0.377705 (Simulation time: 0 hr 22 min 43 sec) 
select_counter is 397
Heartbeat CPU 0 instructions: 51000000 cycles: 112799083 heartbeat IPC: 0.377288 cumulative IPC: 0.377695 (Simulation time: 0 hr 23 min 9 sec) 
select_counter is 334
Heartbeat CPU 0 instructions: 52000000 cycles: 115480432 heartbeat IPC: 0.372947 cumulative IPC: 0.377581 (Simulation time: 0 hr 23 min 40 sec) 
select_counter is 273
Heartbeat CPU 0 instructions: 53000000 cycles: 118821887 heartbeat IPC: 0.299271 cumulative IPC: 0.375297 (Simulation time: 0 hr 24 min 12 sec) 
select_counter is 501
Heartbeat CPU 0 instructions: 54000000 cycles: 120823842 heartbeat IPC: 0.499512 cumulative IPC: 0.37743 (Simulation time: 0 hr 24 min 49 sec) 
select_counter is 194
Heartbeat CPU 0 instructions: 55000000 cycles: 124186092 heartbeat IPC: 0.29742 cumulative IPC: 0.375187 (Simulation time: 0 hr 25 min 36 sec) 
select_counter is 81
Heartbeat CPU 0 instructions: 56000000 cycles: 127082480 heartbeat IPC: 0.345258 cumulative IPC: 0.374481 (Simulation time: 0 hr 26 min 3 sec) 
select_counter is 257
Heartbeat CPU 0 instructions: 57000003 cycles: 128428748 heartbeat IPC: 0.742796 cumulative IPC: 0.378474 (Simulation time: 0 hr 26 min 20 sec) 
select_counter is 186
Heartbeat CPU 0 instructions: 58000000 cycles: 130621226 heartbeat IPC: 0.456104 cumulative IPC: 0.379821 (Simulation time: 0 hr 26 min 44 sec) 
select_counter is 113
Heartbeat CPU 0 instructions: 59000000 cycles: 133285796 heartbeat IPC: 0.375295 cumulative IPC: 0.379728 (Simulation time: 0 hr 27 min 12 sec) 
select_counter is 89
Heartbeat CPU 0 instructions: 60000000 cycles: 136819224 heartbeat IPC: 0.283011 cumulative IPC: 0.37715 (Simulation time: 0 hr 27 min 47 sec) 
select_counter is 439
Heartbeat CPU 0 instructions: 61000000 cycles: 139138457 heartbeat IPC: 0.431177 cumulative IPC: 0.378079 (Simulation time: 0 hr 28 min 14 sec) 
select_counter is 60
Heartbeat CPU 0 instructions: 62000001 cycles: 142054663 heartbeat IPC: 0.342912 cumulative IPC: 0.377335 (Simulation time: 0 hr 28 min 44 sec) 
select_counter is 503
Heartbeat CPU 0 instructions: 63000001 cycles: 145573076 heartbeat IPC: 0.284219 cumulative IPC: 0.375016 (Simulation time: 0 hr 29 min 18 sec) 
select_counter is 499
Heartbeat CPU 0 instructions: 64000000 cycles: 146918594 heartbeat IPC: 0.743207 cumulative IPC: 0.378489 (Simulation time: 0 hr 29 min 37 sec) 
select_counter is 431
Heartbeat CPU 0 instructions: 65000000 cycles: 148454167 heartbeat IPC: 0.651223 cumulative IPC: 0.381393 (Simulation time: 0 hr 29 min 59 sec) 
select_counter is 329
Heartbeat CPU 0 instructions: 66000002 cycles: 151665352 heartbeat IPC: 0.311412 cumulative IPC: 0.379869 (Simulation time: 0 hr 30 min 25 sec) 
select_counter is 265
Heartbeat CPU 0 instructions: 67000000 cycles: 155045812 heartbeat IPC: 0.295817 cumulative IPC: 0.377984 (Simulation time: 0 hr 31 min 0 sec) 
select_counter is 199
Heartbeat CPU 0 instructions: 68000000 cycles: 161056523 heartbeat IPC: 0.16637 cumulative IPC: 0.369873 (Simulation time: 0 hr 31 min 39 sec) 
select_counter is 272
Heartbeat CPU 0 instructions: 69000001 cycles: 165259740 heartbeat IPC: 0.237913 cumulative IPC: 0.366428 (Simulation time: 0 hr 32 min 14 sec) 
select_counter is 509
Heartbeat CPU 0 instructions: 70000002 cycles: 169473634 heartbeat IPC: 0.23731 cumulative IPC: 0.363135 (Simulation time: 0 hr 32 min 53 sec) 
select_counter is 508
Heartbeat CPU 0 instructions: 71000002 cycles: 174008829 heartbeat IPC: 0.220498 cumulative IPC: 0.359325 (Simulation time: 0 hr 33 min 32 sec) 
select_counter is 500
Heartbeat CPU 0 instructions: 72000000 cycles: 177477900 heartbeat IPC: 0.288261 cumulative IPC: 0.357902 (Simulation time: 0 hr 34 min 2 sec) 
select_counter is 509
Heartbeat CPU 0 instructions: 73000000 cycles: 180850047 heartbeat IPC: 0.296547 cumulative IPC: 0.35673 (Simulation time: 0 hr 34 min 33 sec) 
select_counter is 409
Heartbeat CPU 0 instructions: 74000000 cycles: 184711899 heartbeat IPC: 0.258943 cumulative IPC: 0.354638 (Simulation time: 0 hr 34 min 57 sec) 
select_counter is 241
Heartbeat CPU 0 instructions: 75000002 cycles: 188597027 heartbeat IPC: 0.257392 cumulative IPC: 0.352588 (Simulation time: 0 hr 35 min 26 sec) 
select_counter is 243
Heartbeat CPU 0 instructions: 76000000 cycles: 191171779 heartbeat IPC: 0.388386 cumulative IPC: 0.353081 (Simulation time: 0 hr 35 min 47 sec) 
select_counter is 242
Heartbeat CPU 0 instructions: 77000000 cycles: 194866435 heartbeat IPC: 0.270661 cumulative IPC: 0.351484 (Simulation time: 0 hr 36 min 12 sec) 
select_counter is 337
Heartbeat CPU 0 instructions: 78000002 cycles: 197083995 heartbeat IPC: 0.450947 cumulative IPC: 0.352628 (Simulation time: 0 hr 36 min 34 sec) 
select_counter is 451
Heartbeat CPU 0 instructions: 79000002 cycles: 198965076 heartbeat IPC: 0.531609 cumulative IPC: 0.354357 (Simulation time: 0 hr 36 min 56 sec) 
select_counter is 511
Heartbeat CPU 0 instructions: 80000000 cycles: 200130604 heartbeat IPC: 0.857979 cumulative IPC: 0.357353 (Simulation time: 0 hr 37 min 15 sec) 
select_counter is 511
Heartbeat CPU 0 instructions: 81000003 cycles: 202349941 heartbeat IPC: 0.450586 cumulative IPC: 0.358398 (Simulation time: 0 hr 37 min 34 sec) 
select_counter is 508
Heartbeat CPU 0 instructions: 82000001 cycles: 205310210 heartbeat IPC: 0.337806 cumulative IPC: 0.358094 (Simulation time: 0 hr 37 min 56 sec) 
select_counter is 255
Heartbeat CPU 0 instructions: 83000002 cycles: 207952865 heartbeat IPC: 0.378408 cumulative IPC: 0.358358 (Simulation time: 0 hr 38 min 17 sec) 
select_counter is 77
Heartbeat CPU 0 instructions: 84000000 cycles: 210236400 heartbeat IPC: 0.437917 cumulative IPC: 0.35924 (Simulation time: 0 hr 38 min 36 sec) 
select_counter is 271
Heartbeat CPU 0 instructions: 85000000 cycles: 211831764 heartbeat IPC: 0.626816 cumulative IPC: 0.361296 (Simulation time: 0 hr 38 min 52 sec) 
select_counter is 87
Heartbeat CPU 0 instructions: 86000001 cycles: 215613240 heartbeat IPC: 0.264447 cumulative IPC: 0.359564 (Simulation time: 0 hr 39 min 15 sec) 
select_counter is 480
Heartbeat CPU 0 instructions: 87000000 cycles: 218217002 heartbeat IPC: 0.384059 cumulative IPC: 0.359862 (Simulation time: 0 hr 39 min 31 sec) 
select_counter is 266
Heartbeat CPU 0 instructions: 88000000 cycles: 219552312 heartbeat IPC: 0.74889 cumulative IPC: 0.362274 (Simulation time: 0 hr 39 min 40 sec) 
select_counter is 196
Heartbeat CPU 0 instructions: 89000003 cycles: 222169067 heartbeat IPC: 0.382154 cumulative IPC: 0.362513 (Simulation time: 0 hr 39 min 54 sec) 
select_counter is 94
Heartbeat CPU 0 instructions: 90000002 cycles: 224981335 heartbeat IPC: 0.355585 cumulative IPC: 0.362425 (Simulation time: 0 hr 40 min 10 sec) 
select_counter is 314
Heartbeat CPU 0 instructions: 91000001 cycles: 228364261 heartbeat IPC: 0.295602 cumulative IPC: 0.361416 (Simulation time: 0 hr 40 min 27 sec) 
select_counter is 391
Heartbeat CPU 0 instructions: 92000000 cycles: 230295464 heartbeat IPC: 0.517811 cumulative IPC: 0.362752 (Simulation time: 0 hr 40 min 41 sec) 
select_counter is 104
Heartbeat CPU 0 instructions: 93000000 cycles: 233824304 heartbeat IPC: 0.283379 cumulative IPC: 0.361532 (Simulation time: 0 hr 40 min 59 sec) 
select_counter is 373
Heartbeat CPU 0 instructions: 94000001 cycles: 236728708 heartbeat IPC: 0.344305 cumulative IPC: 0.361317 (Simulation time: 0 hr 41 min 13 sec) 
select_counter is 435
Heartbeat CPU 0 instructions: 95000003 cycles: 238079514 heartbeat IPC: 0.7403 cumulative IPC: 0.363506 (Simulation time: 0 hr 41 min 21 sec) 
select_counter is 360
Heartbeat CPU 0 instructions: 96000000 cycles: 240381316 heartbeat IPC: 0.434441 cumulative IPC: 0.364198 (Simulation time: 0 hr 41 min 33 sec) 
select_counter is 260
Heartbeat CPU 0 instructions: 97000002 cycles: 242925313 heartbeat IPC: 0.393083 cumulative IPC: 0.364506 (Simulation time: 0 hr 41 min 46 sec) 
select_counter is 189
Heartbeat CPU 0 instructions: 98000003 cycles: 246886240 heartbeat IPC: 0.252466 cumulative IPC: 0.362677 (Simulation time: 0 hr 42 min 6 sec) 
select_counter is 12
Heartbeat CPU 0 instructions: 99000000 cycles: 249898273 heartbeat IPC: 0.332001 cumulative IPC: 0.362301 (Simulation time: 0 hr 42 min 21 sec) 
select_counter is 485
Heartbeat CPU 0 instructions: 100000000 cycles: 251752209 heartbeat IPC: 0.539393 cumulative IPC: 0.363627 (Simulation time: 0 hr 42 min 34 sec) 
select_counter is 105
Heartbeat CPU 0 instructions: 101000001 cycles: 255632371 heartbeat IPC: 0.257721 cumulative IPC: 0.361993 (Simulation time: 0 hr 42 min 50 sec) 
select_counter is 401
Heartbeat CPU 0 instructions: 102000000 cycles: 257258597 heartbeat IPC: 0.61492 cumulative IPC: 0.363618 (Simulation time: 0 hr 42 min 57 sec) 
select_counter is 368
Heartbeat CPU 0 instructions: 103000001 cycles: 258585485 heartbeat IPC: 0.753644 cumulative IPC: 0.365653 (Simulation time: 0 hr 43 min 5 sec) 
select_counter is 324
Heartbeat CPU 0 instructions: 104000000 cycles: 261986340 heartbeat IPC: 0.294043 cumulative IPC: 0.364708 (Simulation time: 0 hr 43 min 16 sec) 
select_counter is 255
Heartbeat CPU 0 instructions: 105000003 cycles: 265129109 heartbeat IPC: 0.318192 cumulative IPC: 0.364148 (Simulation time: 0 hr 43 min 28 sec) 
select_counter is 216
Heartbeat CPU 0 instructions: 106000000 cycles: 267941987 heartbeat IPC: 0.355507 cumulative IPC: 0.364056 (Simulation time: 0 hr 43 min 38 sec) 
select_counter is 242
Heartbeat CPU 0 instructions: 107000000 cycles: 269714115 heartbeat IPC: 0.564293 cumulative IPC: 0.365392 (Simulation time: 0 hr 43 min 47 sec) 
select_counter is 416
Heartbeat CPU 0 instructions: 108000000 cycles: 273757263 heartbeat IPC: 0.247332 cumulative IPC: 0.363621 (Simulation time: 0 hr 43 min 58 sec) 
select_counter is 211
Heartbeat CPU 0 instructions: 109000000 cycles: 275680311 heartbeat IPC: 0.520008 cumulative IPC: 0.364729 (Simulation time: 0 hr 44 min 4 sec) 
select_counter is 84
Heartbeat CPU 0 instructions: 110000002 cycles: 276982617 heartbeat IPC: 0.76787 cumulative IPC: 0.366654 (Simulation time: 0 hr 44 min 9 sec) 
select_counter is 484
Finished CPU 0 instructions: 100000000 cycles: 272736666 cummulative IPC: 0.366654 (Simulation time: 0 hr 44 min 9 sec) 

ChampSim completed all CPUs

Region of Interest Statistics

CPU 0 cummulative IPC: 0.366654 instructions: 100000000 cycles: 272736666
LLC TOTAL     ACCESS:    8717806  HIT:    4593083  MISS:    4124723
LLC LOAD      ACCESS:    2240153  HIT:    1001548  MISS:    1238605
LLC RFO       ACCESS:     764923  HIT:     279137  MISS:     485786
LLC PREFETCH  ACCESS:    3552229  HIT:    1461958  MISS:    2090271
LLC WRITEBACK ACCESS:    2160501  HIT:    1850440  MISS:     310061
Ship samples: 
26, 57, 81, 97, 144, 160, 213, 241, 263, 293, 349, 355, 407, 434, 464, 488, 521, 549, 597, 615, 666, 684, 725, 754, 797, 813, 842, 875, 900, 943, 973, 1001, 1036, 1069, 1096, 1144, 1176, 1196, 1243, 1260, 1311, 1330, 1355, 1386, 1435, 1444, 1488, 1535, 1563, 1598, 1601, 1637, 1690, 1702, 1744, 1774, 1805, 1848, 1886, 1895, 1947, 1953, 2008, 2024, 
Lime duel samples: 
29, 36, 76, 109, 148, 161, 220, 240, 267, 298, 334, 361, 401, 435, 462, 496, 532, 564, 598, 633, 662, 675, 714, 759, 799, 800, 858, 881, 897, 957, 980, 1015, 1047, 1070, 1089, 1140, 1154, 1188, 1229, 1278, 1304, 1338, 1353, 1405, 1423, 1465, 1480, 1517, 1564, 1581, 1603, 1654, 1689, 1714, 1749, 1779, 1807, 1824, 1880, 1890, 1945, 1963, 1996, 2017, 
Lime samples: 
29, 148, 267, 401, 532, 662, 799, 897, 1047, 1154, 1304, 1423, 1564, 1689, 1807, 1945, 
Insertion Distribution: 
	LOAD 185899 0 0 0 0 0 49273 311167 
	RFO 98217 0 0 0 0 0 40845 89283 
	PREF 0 63138 0 0 0 0 135401 750550 
	WRITEBACK 0 0 0 0 0 0 0 155719 
Total Prefetch Downgrades: 86672
