
*** ChampSim Multicore Out-of-Order Simulator ***

Warmup Instructions: 10000000
Simulation Instructions: 100000000
Configuration: 2
Number of CPUs: 1
LLC sets: 2048
LLC ways: 16
Off-chip DRAM Channels: 1 Width: 64-bit Data Rate: 1600 MT/s

CPU 0 runs /datasets/cs240c-wi22-a00-public/data/Assignment2-gz/lbm_94B.trace.gz
CPU 0 L1D next line prefetcher
CPU 0 L2C IP-based stride prefetcher
Heartbeat CPU 0 instructions: 1000000 cycles: 422068 heartbeat IPC: 2.36929 cumulative IPC: 2.36929 (Simulation time: 0 hr 0 min 22 sec) 
select_counter is 398
Heartbeat CPU 0 instructions: 2000000 cycles: 812399 heartbeat IPC: 2.56193 cumulative IPC: 2.46184 (Simulation time: 0 hr 0 min 43 sec) 
select_counter is 511
Heartbeat CPU 0 instructions: 3000000 cycles: 1211540 heartbeat IPC: 2.50538 cumulative IPC: 2.47619 (Simulation time: 0 hr 1 min 4 sec) 
select_counter is 510
Heartbeat CPU 0 instructions: 4000000 cycles: 1631535 heartbeat IPC: 2.38098 cumulative IPC: 2.45168 (Simulation time: 0 hr 1 min 26 sec) 
select_counter is 412
Heartbeat CPU 0 instructions: 5000001 cycles: 2021787 heartbeat IPC: 2.56245 cumulative IPC: 2.47306 (Simulation time: 0 hr 1 min 48 sec) 
select_counter is 511
Heartbeat CPU 0 instructions: 6000000 cycles: 2422465 heartbeat IPC: 2.49577 cumulative IPC: 2.47682 (Simulation time: 0 hr 2 min 8 sec) 
select_counter is 439
Heartbeat CPU 0 instructions: 7000001 cycles: 2840614 heartbeat IPC: 2.39149 cumulative IPC: 2.46426 (Simulation time: 0 hr 2 min 29 sec) 
select_counter is 101
Heartbeat CPU 0 instructions: 8000000 cycles: 3230846 heartbeat IPC: 2.56258 cumulative IPC: 2.47613 (Simulation time: 0 hr 2 min 48 sec) 
select_counter is 425
Heartbeat CPU 0 instructions: 9000003 cycles: 3631875 heartbeat IPC: 2.49359 cumulative IPC: 2.47806 (Simulation time: 0 hr 3 min 9 sec) 
select_counter is 460
Heartbeat CPU 0 instructions: 10000000 cycles: 4048448 heartbeat IPC: 2.40053 cumulative IPC: 2.47008 (Simulation time: 0 hr 3 min 32 sec) 
select_counter is 454

Warmup complete CPU 0 instructions: 10000004 cycles: 4048449 (Simulation time: 0 hr 3 min 32 sec) 

Heartbeat CPU 0 instructions: 11000003 cycles: 5650387 heartbeat IPC: 0.624245 cumulative IPC: 0.624243 (Simulation time: 0 hr 3 min 58 sec) 
select_counter is 511
Heartbeat CPU 0 instructions: 12000000 cycles: 7387851 heartbeat IPC: 0.57555 cumulative IPC: 0.598908 (Simulation time: 0 hr 4 min 26 sec) 
select_counter is 507
Heartbeat CPU 0 instructions: 13000000 cycles: 9282434 heartbeat IPC: 0.527821 cumulative IPC: 0.573176 (Simulation time: 0 hr 4 min 58 sec) 
select_counter is 511
Heartbeat CPU 0 instructions: 14000000 cycles: 10824528 heartbeat IPC: 0.648469 cumulative IPC: 0.590311 (Simulation time: 0 hr 5 min 25 sec) 
select_counter is 506
Heartbeat CPU 0 instructions: 15000003 cycles: 12563905 heartbeat IPC: 0.57492 cumulative IPC: 0.587168 (Simulation time: 0 hr 5 min 52 sec) 
select_counter is 484
Heartbeat CPU 0 instructions: 16000000 cycles: 14479375 heartbeat IPC: 0.522063 cumulative IPC: 0.575212 (Simulation time: 0 hr 6 min 20 sec) 
select_counter is 511
Heartbeat CPU 0 instructions: 17000001 cycles: 16024157 heartbeat IPC: 0.647341 cumulative IPC: 0.584516 (Simulation time: 0 hr 6 min 43 sec) 
select_counter is 507
Heartbeat CPU 0 instructions: 18000001 cycles: 17736065 heartbeat IPC: 0.584144 cumulative IPC: 0.58447 (Simulation time: 0 hr 7 min 9 sec) 
select_counter is 493
Heartbeat CPU 0 instructions: 19000000 cycles: 19615225 heartbeat IPC: 0.532152 cumulative IPC: 0.578154 (Simulation time: 0 hr 7 min 36 sec) 
select_counter is 509
Heartbeat CPU 0 instructions: 20000000 cycles: 21206584 heartbeat IPC: 0.628394 cumulative IPC: 0.582814 (Simulation time: 0 hr 8 min 1 sec) 
select_counter is 497
Heartbeat CPU 0 instructions: 21000001 cycles: 22890879 heartbeat IPC: 0.593721 cumulative IPC: 0.583789 (Simulation time: 0 hr 8 min 30 sec) 
select_counter is 504
Heartbeat CPU 0 instructions: 22000000 cycles: 24824695 heartbeat IPC: 0.517112 cumulative IPC: 0.577582 (Simulation time: 0 hr 8 min 57 sec) 
select_counter is 510
Heartbeat CPU 0 instructions: 23000000 cycles: 26418027 heartbeat IPC: 0.627616 cumulative IPC: 0.581146 (Simulation time: 0 hr 9 min 22 sec) 
select_counter is 510
Heartbeat CPU 0 instructions: 24000000 cycles: 28088299 heartbeat IPC: 0.598705 cumulative IPC: 0.582366 (Simulation time: 0 hr 9 min 50 sec) 
select_counter is 511
Heartbeat CPU 0 instructions: 25000000 cycles: 29988597 heartbeat IPC: 0.526233 cumulative IPC: 0.578254 (Simulation time: 0 hr 10 min 17 sec) 
select_counter is 510
Heartbeat CPU 0 instructions: 26000000 cycles: 31572404 heartbeat IPC: 0.63139 cumulative IPC: 0.581312 (Simulation time: 0 hr 10 min 44 sec) 
select_counter is 508
Heartbeat CPU 0 instructions: 27000002 cycles: 33235221 heartbeat IPC: 0.60139 cumulative IPC: 0.582456 (Simulation time: 0 hr 11 min 12 sec) 
select_counter is 489
Heartbeat CPU 0 instructions: 28000000 cycles: 35138314 heartbeat IPC: 0.525459 cumulative IPC: 0.578967 (Simulation time: 0 hr 11 min 42 sec) 
select_counter is 511
Heartbeat CPU 0 instructions: 29000000 cycles: 36729722 heartbeat IPC: 0.628374 cumulative IPC: 0.581373 (Simulation time: 0 hr 12 min 8 sec) 
select_counter is 510
Heartbeat CPU 0 instructions: 30000000 cycles: 38389832 heartbeat IPC: 0.60237 cumulative IPC: 0.582388 (Simulation time: 0 hr 12 min 34 sec) 
select_counter is 436
Heartbeat CPU 0 instructions: 31000003 cycles: 40250350 heartbeat IPC: 0.537486 cumulative IPC: 0.58008 (Simulation time: 0 hr 13 min 3 sec) 
select_counter is 508
Heartbeat CPU 0 instructions: 32000000 cycles: 41834762 heartbeat IPC: 0.631147 cumulative IPC: 0.582221 (Simulation time: 0 hr 13 min 32 sec) 
select_counter is 511
Heartbeat CPU 0 instructions: 33000000 cycles: 43500831 heartbeat IPC: 0.600215 cumulative IPC: 0.582981 (Simulation time: 0 hr 13 min 57 sec) 
select_counter is 475
Heartbeat CPU 0 instructions: 34000003 cycles: 45341573 heartbeat IPC: 0.543261 cumulative IPC: 0.581211 (Simulation time: 0 hr 14 min 24 sec) 
select_counter is 465
Heartbeat CPU 0 instructions: 35000003 cycles: 46947652 heartbeat IPC: 0.622634 cumulative IPC: 0.582761 (Simulation time: 0 hr 14 min 53 sec) 
select_counter is 511
Heartbeat CPU 0 instructions: 36000000 cycles: 48588721 heartbeat IPC: 0.609357 cumulative IPC: 0.583741 (Simulation time: 0 hr 15 min 21 sec) 
select_counter is 498
Heartbeat CPU 0 instructions: 37000003 cycles: 50328600 heartbeat IPC: 0.574754 cumulative IPC: 0.583403 (Simulation time: 0 hr 15 min 51 sec) 
select_counter is 499
Heartbeat CPU 0 instructions: 38000001 cycles: 51956218 heartbeat IPC: 0.614394 cumulative IPC: 0.584456 (Simulation time: 0 hr 16 min 18 sec) 
select_counter is 511
Heartbeat CPU 0 instructions: 39000002 cycles: 53549425 heartbeat IPC: 0.627665 cumulative IPC: 0.585847 (Simulation time: 0 hr 16 min 42 sec) 
select_counter is 508
Heartbeat CPU 0 instructions: 40000000 cycles: 55296652 heartbeat IPC: 0.572334 cumulative IPC: 0.585386 (Simulation time: 0 hr 17 min 7 sec) 
select_counter is 466
Heartbeat CPU 0 instructions: 41000003 cycles: 57007035 heartbeat IPC: 0.584666 cumulative IPC: 0.585363 (Simulation time: 0 hr 17 min 32 sec) 
select_counter is 509
Heartbeat CPU 0 instructions: 42000000 cycles: 58581988 heartbeat IPC: 0.634938 cumulative IPC: 0.586795 (Simulation time: 0 hr 17 min 57 sec) 
select_counter is 511
Heartbeat CPU 0 instructions: 43000001 cycles: 60244815 heartbeat IPC: 0.601386 cumulative IPC: 0.587227 (Simulation time: 0 hr 18 min 22 sec) 
select_counter is 483
Heartbeat CPU 0 instructions: 44000000 cycles: 61970669 heartbeat IPC: 0.579423 cumulative IPC: 0.586994 (Simulation time: 0 hr 18 min 49 sec) 
select_counter is 502
Heartbeat CPU 0 instructions: 45000002 cycles: 63542647 heartbeat IPC: 0.636142 cumulative IPC: 0.588293 (Simulation time: 0 hr 19 min 14 sec) 
select_counter is 508
Heartbeat CPU 0 instructions: 46000003 cycles: 65182733 heartbeat IPC: 0.609725 cumulative IPC: 0.588868 (Simulation time: 0 hr 19 min 40 sec) 
select_counter is 497
Heartbeat CPU 0 instructions: 47000001 cycles: 66871267 heartbeat IPC: 0.592229 cumulative IPC: 0.588958 (Simulation time: 0 hr 20 min 6 sec) 
select_counter is 501
Heartbeat CPU 0 instructions: 48000000 cycles: 68447146 heartbeat IPC: 0.634566 cumulative IPC: 0.590074 (Simulation time: 0 hr 20 min 31 sec) 
select_counter is 510
Heartbeat CPU 0 instructions: 49000000 cycles: 70076170 heartbeat IPC: 0.613864 cumulative IPC: 0.590661 (Simulation time: 0 hr 20 min 58 sec) 
select_counter is 510
Heartbeat CPU 0 instructions: 50000003 cycles: 71698204 heartbeat IPC: 0.616512 cumulative IPC: 0.591281 (Simulation time: 0 hr 21 min 23 sec) 
select_counter is 495
Heartbeat CPU 0 instructions: 51000003 cycles: 73280538 heartbeat IPC: 0.631978 cumulative IPC: 0.592211 (Simulation time: 0 hr 21 min 46 sec) 
select_counter is 508
Heartbeat CPU 0 instructions: 52000000 cycles: 74868266 heartbeat IPC: 0.629829 cumulative IPC: 0.593054 (Simulation time: 0 hr 22 min 15 sec) 
select_counter is 510
Heartbeat CPU 0 instructions: 53000001 cycles: 76539948 heartbeat IPC: 0.598201 cumulative IPC: 0.593173 (Simulation time: 0 hr 22 min 41 sec) 
select_counter is 454
Heartbeat CPU 0 instructions: 54000000 cycles: 78148182 heartbeat IPC: 0.621799 cumulative IPC: 0.593794 (Simulation time: 0 hr 23 min 5 sec) 
select_counter is 478
Heartbeat CPU 0 instructions: 55000003 cycles: 79741543 heartbeat IPC: 0.627606 cumulative IPC: 0.594506 (Simulation time: 0 hr 23 min 38 sec) 
select_counter is 505
Heartbeat CPU 0 instructions: 56000000 cycles: 81393003 heartbeat IPC: 0.605523 cumulative IPC: 0.594741 (Simulation time: 0 hr 24 min 6 sec) 
select_counter is 511
Heartbeat CPU 0 instructions: 57000003 cycles: 82978560 heartbeat IPC: 0.630695 cumulative IPC: 0.595464 (Simulation time: 0 hr 24 min 33 sec) 
select_counter is 507
Heartbeat CPU 0 instructions: 58000003 cycles: 84581288 heartbeat IPC: 0.623936 cumulative IPC: 0.59603 (Simulation time: 0 hr 25 min 0 sec) 
select_counter is 507
Heartbeat CPU 0 instructions: 59000002 cycles: 86201899 heartbeat IPC: 0.617051 cumulative IPC: 0.596445 (Simulation time: 0 hr 25 min 27 sec) 
select_counter is 506
Heartbeat CPU 0 instructions: 60000000 cycles: 87800217 heartbeat IPC: 0.625656 cumulative IPC: 0.597002 (Simulation time: 0 hr 25 min 51 sec) 
select_counter is 489
Heartbeat CPU 0 instructions: 61000000 cycles: 89389376 heartbeat IPC: 0.629264 cumulative IPC: 0.597603 (Simulation time: 0 hr 26 min 16 sec) 
select_counter is 460
Heartbeat CPU 0 instructions: 62000000 cycles: 90977895 heartbeat IPC: 0.629517 cumulative IPC: 0.598186 (Simulation time: 0 hr 26 min 42 sec) 
select_counter is 500
Heartbeat CPU 0 instructions: 63000001 cycles: 92625288 heartbeat IPC: 0.60702 cumulative IPC: 0.598351 (Simulation time: 0 hr 27 min 8 sec) 
select_counter is 511
Heartbeat CPU 0 instructions: 64000000 cycles: 94206260 heartbeat IPC: 0.632522 cumulative IPC: 0.59895 (Simulation time: 0 hr 27 min 34 sec) 
select_counter is 507
Heartbeat CPU 0 instructions: 65000003 cycles: 95800662 heartbeat IPC: 0.627196 cumulative IPC: 0.599441 (Simulation time: 0 hr 27 min 59 sec) 
select_counter is 510
Heartbeat CPU 0 instructions: 66000002 cycles: 97441808 heartbeat IPC: 0.60933 cumulative IPC: 0.599614 (Simulation time: 0 hr 28 min 23 sec) 
select_counter is 510
Heartbeat CPU 0 instructions: 67000002 cycles: 99025276 heartbeat IPC: 0.631525 cumulative IPC: 0.600146 (Simulation time: 0 hr 28 min 49 sec) 
select_counter is 500
Heartbeat CPU 0 instructions: 68000000 cycles: 100597108 heartbeat IPC: 0.636199 cumulative IPC: 0.600733 (Simulation time: 0 hr 29 min 18 sec) 
select_counter is 509
Heartbeat CPU 0 instructions: 69000000 cycles: 102196458 heartbeat IPC: 0.625254 cumulative IPC: 0.601133 (Simulation time: 0 hr 29 min 47 sec) 
select_counter is 511
Heartbeat CPU 0 instructions: 70000001 cycles: 103869730 heartbeat IPC: 0.597632 cumulative IPC: 0.601074 (Simulation time: 0 hr 30 min 18 sec) 
select_counter is 463
Heartbeat CPU 0 instructions: 71000001 cycles: 105445206 heartbeat IPC: 0.634729 cumulative IPC: 0.601597 (Simulation time: 0 hr 30 min 48 sec) 
select_counter is 510
Heartbeat CPU 0 instructions: 72000000 cycles: 107043514 heartbeat IPC: 0.625661 cumulative IPC: 0.601971 (Simulation time: 0 hr 31 min 17 sec) 
select_counter is 509
Heartbeat CPU 0 instructions: 73000001 cycles: 108703006 heartbeat IPC: 0.602595 cumulative IPC: 0.60198 (Simulation time: 0 hr 31 min 52 sec) 
select_counter is 484
Heartbeat CPU 0 instructions: 74000001 cycles: 110292062 heartbeat IPC: 0.629304 cumulative IPC: 0.602389 (Simulation time: 0 hr 32 min 18 sec) 
select_counter is 510
Heartbeat CPU 0 instructions: 75000003 cycles: 111882866 heartbeat IPC: 0.628614 cumulative IPC: 0.602776 (Simulation time: 0 hr 32 min 45 sec) 
select_counter is 511
Heartbeat CPU 0 instructions: 76000000 cycles: 113537038 heartbeat IPC: 0.60453 cumulative IPC: 0.602803 (Simulation time: 0 hr 33 min 9 sec) 
select_counter is 510
Heartbeat CPU 0 instructions: 77000002 cycles: 115114903 heartbeat IPC: 0.633769 cumulative IPC: 0.603242 (Simulation time: 0 hr 33 min 35 sec) 
select_counter is 511
Heartbeat CPU 0 instructions: 78000003 cycles: 116721102 heartbeat IPC: 0.622588 cumulative IPC: 0.603518 (Simulation time: 0 hr 33 min 59 sec) 
select_counter is 505
Heartbeat CPU 0 instructions: 79000000 cycles: 118324157 heartbeat IPC: 0.623807 cumulative IPC: 0.603803 (Simulation time: 0 hr 34 min 23 sec) 
select_counter is 506
Heartbeat CPU 0 instructions: 80000000 cycles: 119968567 heartbeat IPC: 0.608121 cumulative IPC: 0.603864 (Simulation time: 0 hr 34 min 47 sec) 
select_counter is 507
Heartbeat CPU 0 instructions: 81000000 cycles: 121543193 heartbeat IPC: 0.635071 cumulative IPC: 0.604282 (Simulation time: 0 hr 35 min 10 sec) 
select_counter is 493
Heartbeat CPU 0 instructions: 82000000 cycles: 123144730 heartbeat IPC: 0.6244 cumulative IPC: 0.604553 (Simulation time: 0 hr 35 min 34 sec) 
select_counter is 504
Heartbeat CPU 0 instructions: 83000003 cycles: 124794746 heartbeat IPC: 0.606057 cumulative IPC: 0.604573 (Simulation time: 0 hr 35 min 57 sec) 
select_counter is 509
Heartbeat CPU 0 instructions: 84000000 cycles: 126368760 heartbeat IPC: 0.635316 cumulative IPC: 0.604969 (Simulation time: 0 hr 36 min 22 sec) 
select_counter is 506
Heartbeat CPU 0 instructions: 85000001 cycles: 127947441 heartbeat IPC: 0.633441 cumulative IPC: 0.605332 (Simulation time: 0 hr 36 min 44 sec) 
select_counter is 465
Heartbeat CPU 0 instructions: 86000003 cycles: 129605806 heartbeat IPC: 0.603005 cumulative IPC: 0.605301 (Simulation time: 0 hr 37 min 6 sec) 
select_counter is 499
Heartbeat CPU 0 instructions: 87000000 cycles: 131204902 heartbeat IPC: 0.625351 cumulative IPC: 0.605553 (Simulation time: 0 hr 37 min 25 sec) 
select_counter is 509
Heartbeat CPU 0 instructions: 88000000 cycles: 132768588 heartbeat IPC: 0.639515 cumulative IPC: 0.605966 (Simulation time: 0 hr 37 min 44 sec) 
select_counter is 505
Heartbeat CPU 0 instructions: 89000003 cycles: 134337699 heartbeat IPC: 0.637305 cumulative IPC: 0.606343 (Simulation time: 0 hr 38 min 0 sec) 
select_counter is 508
Heartbeat CPU 0 instructions: 90000003 cycles: 135989872 heartbeat IPC: 0.605263 cumulative IPC: 0.60633 (Simulation time: 0 hr 38 min 17 sec) 
select_counter is 500
Heartbeat CPU 0 instructions: 91000002 cycles: 137566065 heartbeat IPC: 0.634439 cumulative IPC: 0.606661 (Simulation time: 0 hr 38 min 32 sec) 
select_counter is 508
Heartbeat CPU 0 instructions: 92000000 cycles: 139156392 heartbeat IPC: 0.6288 cumulative IPC: 0.606922 (Simulation time: 0 hr 38 min 47 sec) 
select_counter is 492
Heartbeat CPU 0 instructions: 93000003 cycles: 140797629 heartbeat IPC: 0.609298 cumulative IPC: 0.606951 (Simulation time: 0 hr 39 min 3 sec) 
select_counter is 509
Heartbeat CPU 0 instructions: 94000001 cycles: 142392273 heartbeat IPC: 0.627098 cumulative IPC: 0.607183 (Simulation time: 0 hr 39 min 19 sec) 
select_counter is 509
Heartbeat CPU 0 instructions: 95000003 cycles: 143984440 heartbeat IPC: 0.628076 cumulative IPC: 0.607421 (Simulation time: 0 hr 39 min 33 sec) 
select_counter is 503
Heartbeat CPU 0 instructions: 96000000 cycles: 145575828 heartbeat IPC: 0.62838 cumulative IPC: 0.607656 (Simulation time: 0 hr 39 min 47 sec) 
select_counter is 504
Heartbeat CPU 0 instructions: 97000000 cycles: 147253080 heartbeat IPC: 0.596213 cumulative IPC: 0.607522 (Simulation time: 0 hr 40 min 1 sec) 
select_counter is 507
Heartbeat CPU 0 instructions: 98000002 cycles: 148834606 heartbeat IPC: 0.632302 cumulative IPC: 0.607793 (Simulation time: 0 hr 40 min 14 sec) 
select_counter is 508
Heartbeat CPU 0 instructions: 99000001 cycles: 150416027 heartbeat IPC: 0.632342 cumulative IPC: 0.608058 (Simulation time: 0 hr 40 min 27 sec) 
select_counter is 510
Heartbeat CPU 0 instructions: 100000000 cycles: 152058699 heartbeat IPC: 0.608764 cumulative IPC: 0.608066 (Simulation time: 0 hr 40 min 40 sec) 
select_counter is 510
Heartbeat CPU 0 instructions: 101000003 cycles: 153638221 heartbeat IPC: 0.633105 cumulative IPC: 0.60833 (Simulation time: 0 hr 40 min 54 sec) 
select_counter is 502
Heartbeat CPU 0 instructions: 102000002 cycles: 155228379 heartbeat IPC: 0.628868 cumulative IPC: 0.608546 (Simulation time: 0 hr 41 min 8 sec) 
select_counter is 508
Heartbeat CPU 0 instructions: 103000000 cycles: 156863229 heartbeat IPC: 0.611676 cumulative IPC: 0.60858 (Simulation time: 0 hr 41 min 21 sec) 
select_counter is 509
Heartbeat CPU 0 instructions: 104000000 cycles: 158437330 heartbeat IPC: 0.635283 cumulative IPC: 0.608852 (Simulation time: 0 hr 41 min 34 sec) 
select_counter is 511
Heartbeat CPU 0 instructions: 105000002 cycles: 160035593 heartbeat IPC: 0.625681 cumulative IPC: 0.609025 (Simulation time: 0 hr 41 min 47 sec) 
select_counter is 509
Heartbeat CPU 0 instructions: 106000001 cycles: 161608746 heartbeat IPC: 0.635665 cumulative IPC: 0.609291 (Simulation time: 0 hr 41 min 59 sec) 
select_counter is 506
Heartbeat CPU 0 instructions: 107000000 cycles: 163261905 heartbeat IPC: 0.604902 cumulative IPC: 0.609245 (Simulation time: 0 hr 42 min 11 sec) 
select_counter is 507
Heartbeat CPU 0 instructions: 108000000 cycles: 164869079 heartbeat IPC: 0.62221 cumulative IPC: 0.609375 (Simulation time: 0 hr 42 min 23 sec) 
select_counter is 465
Heartbeat CPU 0 instructions: 109000002 cycles: 166461307 heartbeat IPC: 0.628052 cumulative IPC: 0.609558 (Simulation time: 0 hr 42 min 36 sec) 
select_counter is 506
Heartbeat CPU 0 instructions: 110000000 cycles: 168116315 heartbeat IPC: 0.604225 cumulative IPC: 0.609504 (Simulation time: 0 hr 42 min 48 sec) 
select_counter is 483
Finished CPU 0 instructions: 100000000 cycles: 164067867 cummulative IPC: 0.609504 (Simulation time: 0 hr 42 min 48 sec) 

ChampSim completed all CPUs

Region of Interest Statistics

CPU 0 cummulative IPC: 0.609504 instructions: 100000000 cycles: 164067867
LLC TOTAL     ACCESS:    5501977  HIT:    2429079  MISS:    3072898
LLC LOAD      ACCESS:     396343  HIT:      19745  MISS:     376598
LLC RFO       ACCESS:    2345810  HIT:     129015  MISS:    2216795
LLC PREFETCH  ACCESS:     413686  HIT:      25118  MISS:     388568
LLC WRITEBACK ACCESS:    2346138  HIT:    2255201  MISS:      90937
Ship samples: 
17, 47, 77, 119, 147, 179, 209, 235, 263, 309, 338, 352, 385, 447, 450, 497, 543, 549, 581, 633, 654, 687, 718, 765, 797, 808, 848, 887, 899, 946, 966, 1022, 1041, 1068, 1119, 1140, 1160, 1206, 1217, 1257, 1309, 1336, 1360, 1385, 1436, 1453, 1484, 1521, 1567, 1583, 1629, 1646, 1668, 1697, 1750, 1783, 1793, 1855, 1862, 1896, 1938, 1953, 2010, 2021, 
Lime duel samples: 
16, 54, 92, 103, 150, 184, 201, 231, 281, 305, 329, 361, 391, 442, 448, 496, 536, 558, 582, 635, 669, 674, 726, 744, 799, 807, 847, 872, 914, 950, 965, 995, 1030, 1059, 1111, 1126, 1165, 1187, 1228, 1269, 1288, 1337, 1350, 1386, 1414, 1454, 1472, 1523, 1552, 1576, 1605, 1660, 1664, 1708, 1754, 1769, 1807, 1853, 1868, 1893, 1941, 1960, 1989, 2033, 
Lime samples: 
16, 150, 281, 391, 536, 669, 799, 914, 1030, 1165, 1288, 1414, 1552, 1664, 1807, 1941, 
Insertion Distribution: 
	LOAD 0 0 0 0 0 0 1249 15676 
	RFO 4023 0 0 0 0 0 26341 71116 
	PREF 0 273 0 0 0 0 3392 16308 
	WRITEBACK 0 0 0 0 0 0 0 65719 
Total Prefetch Downgrades: 741
