
*** ChampSim Multicore Out-of-Order Simulator ***

Warmup Instructions: 10000000
Simulation Instructions: 100000000
Configuration: 2
Number of CPUs: 1
LLC sets: 2048
LLC ways: 16
Off-chip DRAM Channels: 1 Width: 64-bit Data Rate: 1600 MT/s

CPU 0 runs /datasets/cs240c-wi22-a00-public/data/Assignment2-gz/bzip2_259B.trace.gz
CPU 0 L1D next line prefetcher
CPU 0 L2C IP-based stride prefetcher
Heartbeat CPU 0 instructions: 1000002 cycles: 428875 heartbeat IPC: 2.33169 cumulative IPC: 2.33169 (Simulation time: 0 hr 0 min 22 sec) 
select_counter is 254
Heartbeat CPU 0 instructions: 2000003 cycles: 861057 heartbeat IPC: 2.31384 cumulative IPC: 2.32273 (Simulation time: 0 hr 0 min 42 sec) 
select_counter is 254
Heartbeat CPU 0 instructions: 3000001 cycles: 1286790 heartbeat IPC: 2.34889 cumulative IPC: 2.33138 (Simulation time: 0 hr 1 min 2 sec) 
select_counter is 254
Heartbeat CPU 0 instructions: 4000000 cycles: 1685062 heartbeat IPC: 2.51084 cumulative IPC: 2.3738 (Simulation time: 0 hr 1 min 19 sec) 
select_counter is 255
Heartbeat CPU 0 instructions: 5000001 cycles: 2103495 heartbeat IPC: 2.38987 cumulative IPC: 2.377 (Simulation time: 0 hr 1 min 40 sec) 
select_counter is 255
Heartbeat CPU 0 instructions: 6000001 cycles: 2532858 heartbeat IPC: 2.32903 cumulative IPC: 2.36887 (Simulation time: 0 hr 1 min 59 sec) 
select_counter is 255
Heartbeat CPU 0 instructions: 7000003 cycles: 2961906 heartbeat IPC: 2.33075 cumulative IPC: 2.36334 (Simulation time: 0 hr 2 min 19 sec) 
select_counter is 255
Heartbeat CPU 0 instructions: 8000000 cycles: 3391719 heartbeat IPC: 2.32659 cumulative IPC: 2.35869 (Simulation time: 0 hr 2 min 41 sec) 
select_counter is 255
Heartbeat CPU 0 instructions: 9000000 cycles: 3819845 heartbeat IPC: 2.33576 cumulative IPC: 2.35612 (Simulation time: 0 hr 3 min 0 sec) 
select_counter is 255
Heartbeat CPU 0 instructions: 10000002 cycles: 4193917 heartbeat IPC: 2.67329 cumulative IPC: 2.38441 (Simulation time: 0 hr 3 min 17 sec) 
select_counter is 254

Warmup complete CPU 0 instructions: 10000002 cycles: 4193917 (Simulation time: 0 hr 3 min 17 sec) 

Heartbeat CPU 0 instructions: 11000002 cycles: 5033370 heartbeat IPC: 1.19125 cumulative IPC: 1.19125 (Simulation time: 0 hr 3 min 36 sec) 
select_counter is 303
Heartbeat CPU 0 instructions: 12000000 cycles: 6136402 heartbeat IPC: 0.90659 cumulative IPC: 1.02961 (Simulation time: 0 hr 3 min 58 sec) 
select_counter is 141
Heartbeat CPU 0 instructions: 13000002 cycles: 7067763 heartbeat IPC: 1.0737 cumulative IPC: 1.0439 (Simulation time: 0 hr 4 min 20 sec) 
select_counter is 485
Heartbeat CPU 0 instructions: 14000003 cycles: 8000051 heartbeat IPC: 1.07263 cumulative IPC: 1.05094 (Simulation time: 0 hr 4 min 43 sec) 
select_counter is 222
Heartbeat CPU 0 instructions: 15000002 cycles: 9050854 heartbeat IPC: 0.951652 cumulative IPC: 1.02946 (Simulation time: 0 hr 5 min 7 sec) 
select_counter is 140
Heartbeat CPU 0 instructions: 16000000 cycles: 10043340 heartbeat IPC: 1.00757 cumulative IPC: 1.02574 (Simulation time: 0 hr 5 min 30 sec) 
select_counter is 67
Heartbeat CPU 0 instructions: 17000002 cycles: 11148168 heartbeat IPC: 0.90512 cumulative IPC: 1.00658 (Simulation time: 0 hr 5 min 53 sec) 
select_counter is 296
Heartbeat CPU 0 instructions: 18000001 cycles: 12234805 heartbeat IPC: 0.92027 cumulative IPC: 0.994915 (Simulation time: 0 hr 6 min 17 sec) 
select_counter is 412
Heartbeat CPU 0 instructions: 19000003 cycles: 13193554 heartbeat IPC: 1.04303 cumulative IPC: 1.00004 (Simulation time: 0 hr 6 min 36 sec) 
select_counter is 335
Heartbeat CPU 0 instructions: 20000000 cycles: 14180095 heartbeat IPC: 1.01364 cumulative IPC: 1.00138 (Simulation time: 0 hr 6 min 56 sec) 
select_counter is 316
Heartbeat CPU 0 instructions: 21000001 cycles: 15081427 heartbeat IPC: 1.10947 cumulative IPC: 1.01033 (Simulation time: 0 hr 7 min 15 sec) 
select_counter is 277
Heartbeat CPU 0 instructions: 22000001 cycles: 15985137 heartbeat IPC: 1.10655 cumulative IPC: 1.01771 (Simulation time: 0 hr 7 min 34 sec) 
select_counter is 271
Heartbeat CPU 0 instructions: 23000002 cycles: 16883126 heartbeat IPC: 1.1136 cumulative IPC: 1.02449 (Simulation time: 0 hr 7 min 55 sec) 
select_counter is 237
Heartbeat CPU 0 instructions: 24000000 cycles: 17783426 heartbeat IPC: 1.11074 cumulative IPC: 1.03021 (Simulation time: 0 hr 8 min 13 sec) 
select_counter is 199
Heartbeat CPU 0 instructions: 25000000 cycles: 18690516 heartbeat IPC: 1.10243 cumulative IPC: 1.03473 (Simulation time: 0 hr 8 min 32 sec) 
select_counter is 168
Heartbeat CPU 0 instructions: 26000000 cycles: 19619055 heartbeat IPC: 1.07696 cumulative IPC: 1.03727 (Simulation time: 0 hr 8 min 51 sec) 
select_counter is 122
Heartbeat CPU 0 instructions: 27000003 cycles: 20576277 heartbeat IPC: 1.04469 cumulative IPC: 1.0377 (Simulation time: 0 hr 9 min 10 sec) 
select_counter is 59
Heartbeat CPU 0 instructions: 28000000 cycles: 21506781 heartbeat IPC: 1.07468 cumulative IPC: 1.03969 (Simulation time: 0 hr 9 min 30 sec) 
select_counter is 7
Heartbeat CPU 0 instructions: 29000000 cycles: 22419020 heartbeat IPC: 1.0962 cumulative IPC: 1.04252 (Simulation time: 0 hr 9 min 50 sec) 
select_counter is 457
Heartbeat CPU 0 instructions: 30000000 cycles: 23382680 heartbeat IPC: 1.03771 cumulative IPC: 1.04228 (Simulation time: 0 hr 10 min 10 sec) 
select_counter is 415
Heartbeat CPU 0 instructions: 31000001 cycles: 24284656 heartbeat IPC: 1.10868 cumulative IPC: 1.04526 (Simulation time: 0 hr 10 min 33 sec) 
select_counter is 378
Heartbeat CPU 0 instructions: 32000000 cycles: 25179622 heartbeat IPC: 1.11736 cumulative IPC: 1.04833 (Simulation time: 0 hr 10 min 52 sec) 
select_counter is 377
Heartbeat CPU 0 instructions: 33000002 cycles: 26319801 heartbeat IPC: 0.877057 cumulative IPC: 1.03951 (Simulation time: 0 hr 11 min 11 sec) 
select_counter is 316
Heartbeat CPU 0 instructions: 34000003 cycles: 27585560 heartbeat IPC: 0.790041 cumulative IPC: 1.02601 (Simulation time: 0 hr 11 min 34 sec) 
select_counter is 186
Heartbeat CPU 0 instructions: 35000001 cycles: 28668166 heartbeat IPC: 0.923695 cumulative IPC: 1.02148 (Simulation time: 0 hr 11 min 55 sec) 
select_counter is 116
Heartbeat CPU 0 instructions: 36000000 cycles: 29853864 heartbeat IPC: 0.843384 cumulative IPC: 1.01325 (Simulation time: 0 hr 12 min 13 sec) 
select_counter is 122
Heartbeat CPU 0 instructions: 37000002 cycles: 30896878 heartbeat IPC: 0.958762 cumulative IPC: 1.01112 (Simulation time: 0 hr 12 min 30 sec) 
select_counter is 120
Heartbeat CPU 0 instructions: 38000003 cycles: 32012266 heartbeat IPC: 0.89655 cumulative IPC: 1.00653 (Simulation time: 0 hr 12 min 48 sec) 
select_counter is 121
Heartbeat CPU 0 instructions: 39000001 cycles: 33156238 heartbeat IPC: 0.874146 cumulative IPC: 1.0013 (Simulation time: 0 hr 13 min 5 sec) 
select_counter is 119
Heartbeat CPU 0 instructions: 40000000 cycles: 34226049 heartbeat IPC: 0.934744 cumulative IPC: 0.99893 (Simulation time: 0 hr 13 min 22 sec) 
select_counter is 124
Heartbeat CPU 0 instructions: 41000001 cycles: 35415534 heartbeat IPC: 0.840701 cumulative IPC: 0.992902 (Simulation time: 0 hr 13 min 40 sec) 
select_counter is 131
Heartbeat CPU 0 instructions: 42000000 cycles: 36625028 heartbeat IPC: 0.826791 cumulative IPC: 0.986707 (Simulation time: 0 hr 13 min 58 sec) 
select_counter is 131
Heartbeat CPU 0 instructions: 43000003 cycles: 37841537 heartbeat IPC: 0.822027 cumulative IPC: 0.980753 (Simulation time: 0 hr 14 min 17 sec) 
select_counter is 131
Heartbeat CPU 0 instructions: 44000000 cycles: 39055475 heartbeat IPC: 0.823763 cumulative IPC: 0.975286 (Simulation time: 0 hr 14 min 34 sec) 
select_counter is 130
Heartbeat CPU 0 instructions: 45000000 cycles: 40277216 heartbeat IPC: 0.818504 cumulative IPC: 0.969978 (Simulation time: 0 hr 14 min 52 sec) 
select_counter is 135
Heartbeat CPU 0 instructions: 46000002 cycles: 41517364 heartbeat IPC: 0.806357 cumulative IPC: 0.964541 (Simulation time: 0 hr 15 min 10 sec) 
select_counter is 134
Heartbeat CPU 0 instructions: 47000000 cycles: 42748193 heartbeat IPC: 0.812459 cumulative IPC: 0.959686 (Simulation time: 0 hr 15 min 28 sec) 
select_counter is 142
Heartbeat CPU 0 instructions: 48000000 cycles: 43986183 heartbeat IPC: 0.807761 cumulative IPC: 0.954959 (Simulation time: 0 hr 15 min 46 sec) 
select_counter is 144
Heartbeat CPU 0 instructions: 49000003 cycles: 45255187 heartbeat IPC: 0.788022 cumulative IPC: 0.9498 (Simulation time: 0 hr 16 min 5 sec) 
select_counter is 140
Heartbeat CPU 0 instructions: 50000001 cycles: 46294482 heartbeat IPC: 0.962189 cumulative IPC: 0.950106 (Simulation time: 0 hr 16 min 23 sec) 
select_counter is 149
Heartbeat CPU 0 instructions: 51000002 cycles: 47459215 heartbeat IPC: 0.858567 cumulative IPC: 0.947642 (Simulation time: 0 hr 16 min 41 sec) 
select_counter is 147
Heartbeat CPU 0 instructions: 52000000 cycles: 48577380 heartbeat IPC: 0.894321 cumulative IPC: 0.946298 (Simulation time: 0 hr 16 min 59 sec) 
select_counter is 146
Heartbeat CPU 0 instructions: 53000001 cycles: 49773594 heartbeat IPC: 0.835972 cumulative IPC: 0.943403 (Simulation time: 0 hr 17 min 18 sec) 
select_counter is 153
Heartbeat CPU 0 instructions: 54000000 cycles: 50999282 heartbeat IPC: 0.815867 cumulative IPC: 0.940063 (Simulation time: 0 hr 17 min 36 sec) 
select_counter is 152
Heartbeat CPU 0 instructions: 55000000 cycles: 52150887 heartbeat IPC: 0.868353 cumulative IPC: 0.938341 (Simulation time: 0 hr 17 min 55 sec) 
select_counter is 159
Heartbeat CPU 0 instructions: 56000000 cycles: 53375588 heartbeat IPC: 0.816526 cumulative IPC: 0.935308 (Simulation time: 0 hr 18 min 14 sec) 
select_counter is 157
Heartbeat CPU 0 instructions: 57000000 cycles: 54596638 heartbeat IPC: 0.818967 cumulative IPC: 0.932489 (Simulation time: 0 hr 18 min 32 sec) 
select_counter is 155
Heartbeat CPU 0 instructions: 58000002 cycles: 55629004 heartbeat IPC: 0.968651 cumulative IPC: 0.933215 (Simulation time: 0 hr 18 min 50 sec) 
select_counter is 169
Heartbeat CPU 0 instructions: 59000000 cycles: 56730044 heartbeat IPC: 0.90823 cumulative IPC: 0.932691 (Simulation time: 0 hr 19 min 9 sec) 
select_counter is 179
Heartbeat CPU 0 instructions: 60000000 cycles: 57909522 heartbeat IPC: 0.847833 cumulative IPC: 0.930828 (Simulation time: 0 hr 19 min 27 sec) 
select_counter is 189
Heartbeat CPU 0 instructions: 61000000 cycles: 59053660 heartbeat IPC: 0.87402 cumulative IPC: 0.929643 (Simulation time: 0 hr 19 min 47 sec) 
select_counter is 190
Heartbeat CPU 0 instructions: 62000002 cycles: 59897126 heartbeat IPC: 1.18559 cumulative IPC: 0.933519 (Simulation time: 0 hr 20 min 6 sec) 
select_counter is 123
Heartbeat CPU 0 instructions: 63000003 cycles: 60805998 heartbeat IPC: 1.10027 cumulative IPC: 0.936196 (Simulation time: 0 hr 20 min 26 sec) 
select_counter is 20
Heartbeat CPU 0 instructions: 64000000 cycles: 61847965 heartbeat IPC: 0.95972 cumulative IPC: 0.936621 (Simulation time: 0 hr 20 min 50 sec) 
select_counter is 457
Heartbeat CPU 0 instructions: 65000003 cycles: 62823983 heartbeat IPC: 1.02457 cumulative IPC: 0.938085 (Simulation time: 0 hr 21 min 13 sec) 
select_counter is 461
Heartbeat CPU 0 instructions: 66000003 cycles: 63772431 heartbeat IPC: 1.05435 cumulative IPC: 0.939936 (Simulation time: 0 hr 21 min 35 sec) 
select_counter is 484
Heartbeat CPU 0 instructions: 67000003 cycles: 64825244 heartbeat IPC: 0.949836 cumulative IPC: 0.940108 (Simulation time: 0 hr 21 min 57 sec) 
select_counter is 511
Heartbeat CPU 0 instructions: 68000000 cycles: 65899056 heartbeat IPC: 0.931259 cumulative IPC: 0.939954 (Simulation time: 0 hr 22 min 20 sec) 
select_counter is 476
Heartbeat CPU 0 instructions: 69000003 cycles: 67003900 heartbeat IPC: 0.905108 cumulative IPC: 0.939341 (Simulation time: 0 hr 22 min 44 sec) 
select_counter is 498
Heartbeat CPU 0 instructions: 70000003 cycles: 68249918 heartbeat IPC: 0.802557 cumulative IPC: 0.93668 (Simulation time: 0 hr 23 min 7 sec) 
select_counter is 418
Heartbeat CPU 0 instructions: 71000000 cycles: 69602621 heartbeat IPC: 0.739258 cumulative IPC: 0.932598 (Simulation time: 0 hr 23 min 28 sec) 
select_counter is 311
Heartbeat CPU 0 instructions: 72000000 cycles: 70788881 heartbeat IPC: 0.842986 cumulative IPC: 0.931001 (Simulation time: 0 hr 23 min 48 sec) 
select_counter is 272
Heartbeat CPU 0 instructions: 73000003 cycles: 72093196 heartbeat IPC: 0.766688 cumulative IPC: 0.927845 (Simulation time: 0 hr 24 min 9 sec) 
select_counter is 203
Heartbeat CPU 0 instructions: 74000001 cycles: 73324525 heartbeat IPC: 0.812129 cumulative IPC: 0.925784 (Simulation time: 0 hr 24 min 30 sec) 
select_counter is 159
Heartbeat CPU 0 instructions: 75000000 cycles: 74475216 heartbeat IPC: 0.869042 cumulative IPC: 0.924855 (Simulation time: 0 hr 24 min 51 sec) 
select_counter is 102
Heartbeat CPU 0 instructions: 76000000 cycles: 75548265 heartbeat IPC: 0.931924 cumulative IPC: 0.924961 (Simulation time: 0 hr 25 min 11 sec) 
select_counter is 49
Heartbeat CPU 0 instructions: 77000003 cycles: 76508365 heartbeat IPC: 1.04156 cumulative IPC: 0.926509 (Simulation time: 0 hr 25 min 30 sec) 
select_counter is 32
Heartbeat CPU 0 instructions: 78000000 cycles: 77462870 heartbeat IPC: 1.04766 cumulative IPC: 0.928087 (Simulation time: 0 hr 25 min 49 sec) 
select_counter is 8
Heartbeat CPU 0 instructions: 79000003 cycles: 78524641 heartbeat IPC: 0.941826 cumulative IPC: 0.928284 (Simulation time: 0 hr 26 min 9 sec) 
select_counter is 471
Heartbeat CPU 0 instructions: 80000000 cycles: 79740980 heartbeat IPC: 0.822137 cumulative IPC: 0.926575 (Simulation time: 0 hr 26 min 30 sec) 
select_counter is 402
Heartbeat CPU 0 instructions: 81000001 cycles: 80915059 heartbeat IPC: 0.851732 cumulative IPC: 0.925429 (Simulation time: 0 hr 26 min 51 sec) 
select_counter is 360
Heartbeat CPU 0 instructions: 82000000 cycles: 82041377 heartbeat IPC: 0.887848 cumulative IPC: 0.924886 (Simulation time: 0 hr 27 min 13 sec) 
select_counter is 313
Heartbeat CPU 0 instructions: 83000002 cycles: 83097895 heartbeat IPC: 0.946507 cumulative IPC: 0.925175 (Simulation time: 0 hr 27 min 33 sec) 
select_counter is 259
Heartbeat CPU 0 instructions: 84000000 cycles: 84044786 heartbeat IPC: 1.05609 cumulative IPC: 0.926728 (Simulation time: 0 hr 27 min 53 sec) 
select_counter is 244
Heartbeat CPU 0 instructions: 85000003 cycles: 84990915 heartbeat IPC: 1.05694 cumulative IPC: 0.928252 (Simulation time: 0 hr 28 min 12 sec) 
select_counter is 213
Heartbeat CPU 0 instructions: 86000003 cycles: 86034312 heartbeat IPC: 0.958408 cumulative IPC: 0.928637 (Simulation time: 0 hr 28 min 32 sec) 
select_counter is 206
Heartbeat CPU 0 instructions: 87000002 cycles: 87100070 heartbeat IPC: 0.938298 cumulative IPC: 0.928761 (Simulation time: 0 hr 28 min 51 sec) 
select_counter is 153
Heartbeat CPU 0 instructions: 88000000 cycles: 88200482 heartbeat IPC: 0.908749 cumulative IPC: 0.928499 (Simulation time: 0 hr 29 min 8 sec) 
select_counter is 151
Heartbeat CPU 0 instructions: 89000002 cycles: 89207370 heartbeat IPC: 0.993161 cumulative IPC: 0.929265 (Simulation time: 0 hr 29 min 26 sec) 
select_counter is 148
Heartbeat CPU 0 instructions: 90000001 cycles: 90330410 heartbeat IPC: 0.890439 cumulative IPC: 0.928759 (Simulation time: 0 hr 29 min 42 sec) 
select_counter is 147
Heartbeat CPU 0 instructions: 91000002 cycles: 91444287 heartbeat IPC: 0.897766 cumulative IPC: 0.928363 (Simulation time: 0 hr 29 min 59 sec) 
select_counter is 145
Heartbeat CPU 0 instructions: 92000000 cycles: 92484191 heartbeat IPC: 0.961625 cumulative IPC: 0.928755 (Simulation time: 0 hr 30 min 16 sec) 
select_counter is 143
Heartbeat CPU 0 instructions: 93000000 cycles: 93672836 heartbeat IPC: 0.841294 cumulative IPC: 0.927593 (Simulation time: 0 hr 30 min 33 sec) 
select_counter is 140
Heartbeat CPU 0 instructions: 94000003 cycles: 94849034 heartbeat IPC: 0.8502 cumulative IPC: 0.926589 (Simulation time: 0 hr 30 min 51 sec) 
select_counter is 137
Heartbeat CPU 0 instructions: 95000002 cycles: 96033449 heartbeat IPC: 0.844298 cumulative IPC: 0.925527 (Simulation time: 0 hr 31 min 8 sec) 
select_counter is 137
Heartbeat CPU 0 instructions: 96000000 cycles: 97203630 heartbeat IPC: 0.854567 cumulative IPC: 0.924635 (Simulation time: 0 hr 31 min 26 sec) 
select_counter is 136
Heartbeat CPU 0 instructions: 97000002 cycles: 98420736 heartbeat IPC: 0.821623 cumulative IPC: 0.923304 (Simulation time: 0 hr 31 min 47 sec) 
select_counter is 135
Heartbeat CPU 0 instructions: 98000000 cycles: 99653912 heartbeat IPC: 0.810913 cumulative IPC: 0.921852 (Simulation time: 0 hr 32 min 5 sec) 
select_counter is 132
Heartbeat CPU 0 instructions: 99000000 cycles: 100893252 heartbeat IPC: 0.806881 cumulative IPC: 0.920379 (Simulation time: 0 hr 32 min 23 sec) 
select_counter is 127
Heartbeat CPU 0 instructions: 100000000 cycles: 102135315 heartbeat IPC: 0.805112 cumulative IPC: 0.918917 (Simulation time: 0 hr 32 min 41 sec) 
select_counter is 126
Heartbeat CPU 0 instructions: 101000003 cycles: 103282982 heartbeat IPC: 0.871336 cumulative IPC: 0.918366 (Simulation time: 0 hr 33 min 0 sec) 
select_counter is 119
Heartbeat CPU 0 instructions: 102000000 cycles: 104402190 heartbeat IPC: 0.893486 cumulative IPC: 0.918088 (Simulation time: 0 hr 33 min 18 sec) 
select_counter is 115
Heartbeat CPU 0 instructions: 103000000 cycles: 105503546 heartbeat IPC: 0.907972 cumulative IPC: 0.917978 (Simulation time: 0 hr 33 min 35 sec) 
select_counter is 114
Heartbeat CPU 0 instructions: 104000000 cycles: 106657093 heartbeat IPC: 0.866891 cumulative IPC: 0.917403 (Simulation time: 0 hr 33 min 52 sec) 
select_counter is 112
Heartbeat CPU 0 instructions: 105000002 cycles: 107867565 heartbeat IPC: 0.826126 cumulative IPC: 0.916337 (Simulation time: 0 hr 34 min 8 sec) 
select_counter is 104
Heartbeat CPU 0 instructions: 106000001 cycles: 109001125 heartbeat IPC: 0.882176 cumulative IPC: 0.915968 (Simulation time: 0 hr 34 min 26 sec) 
select_counter is 100
Heartbeat CPU 0 instructions: 107000000 cycles: 110204150 heartbeat IPC: 0.831237 cumulative IPC: 0.915006 (Simulation time: 0 hr 34 min 43 sec) 
select_counter is 101
Heartbeat CPU 0 instructions: 108000000 cycles: 111402889 heartbeat IPC: 0.83421 cumulative IPC: 0.914103 (Simulation time: 0 hr 34 min 59 sec) 
select_counter is 97
Heartbeat CPU 0 instructions: 109000000 cycles: 112415234 heartbeat IPC: 0.987806 cumulative IPC: 0.914792 (Simulation time: 0 hr 35 min 15 sec) 
select_counter is 78
Heartbeat CPU 0 instructions: 110000000 cycles: 113576523 heartbeat IPC: 0.861112 cumulative IPC: 0.914222 (Simulation time: 0 hr 35 min 30 sec) 
select_counter is 84
Finished CPU 0 instructions: 100000002 cycles: 109382608 cummulative IPC: 0.914222 (Simulation time: 0 hr 35 min 30 sec) 

ChampSim completed all CPUs

Region of Interest Statistics

CPU 0 cummulative IPC: 0.914222 instructions: 100000002 cycles: 109382608
LLC TOTAL     ACCESS:    1373512  HIT:    1048966  MISS:     324546
LLC LOAD      ACCESS:     396194  HIT:     347430  MISS:      48764
LLC RFO       ACCESS:     104383  HIT:      43850  MISS:      60533
LLC PREFETCH  ACCESS:     675955  HIT:     501531  MISS:     174424
LLC WRITEBACK ACCESS:     196980  HIT:     156155  MISS:      40825
Ship samples: 
18, 41, 64, 122, 145, 166, 216, 228, 275, 318, 331, 355, 408, 430, 473, 498, 541, 565, 593, 620, 645, 672, 725, 743, 792, 816, 855, 890, 899, 943, 962, 1018, 1030, 1067, 1090, 1130, 1172, 1192, 1221, 1253, 1309, 1319, 1347, 1395, 1414, 1448, 1473, 1505, 1559, 1581, 1600, 1644, 1686, 1697, 1730, 1771, 1807, 1839, 1865, 1918, 1939, 1975, 1992, 2044, 
Lime duel samples: 
6, 59, 69, 126, 138, 183, 196, 238, 281, 303, 324, 363, 407, 431, 448, 500, 533, 567, 603, 639, 648, 689, 723, 761, 772, 811, 835, 883, 911, 936, 988, 1009, 1049, 1077, 1093, 1139, 1171, 1214, 1229, 1261, 1296, 1320, 1360, 1398, 1419, 1456, 1480, 1506, 1544, 1580, 1625, 1656, 1684, 1717, 1755, 1767, 1823, 1843, 1874, 1891, 1935, 1958, 2004, 2041, 
Lime samples: 
6, 138, 281, 407, 533, 648, 772, 911, 1049, 1171, 1296, 1419, 1544, 1684, 1823, 1935, 
Insertion Distribution: 
	LOAD 16804 0 0 0 0 0 3701 61 
	RFO 14264 0 0 0 0 0 23879 23042 
	PREF 0 6487 0 0 0 0 24421 51407 
	WRITEBACK 0 0 0 0 0 0 0 23464 
Total Prefetch Downgrades: 18628
