
*** ChampSim Multicore Out-of-Order Simulator ***

Warmup Instructions: 10000000
Simulation Instructions: 100000000
Configuration: 2
Number of CPUs: 1
LLC sets: 2048
LLC ways: 16
Off-chip DRAM Channels: 1 Width: 64-bit Data Rate: 1600 MT/s

CPU 0 runs /datasets/cs240c-wi22-a00-public/data/Assignment2-gz/omnetpp_4B.trace.gz
CPU 0 L1D next line prefetcher
CPU 0 L2C IP-based stride prefetcher
Heartbeat CPU 0 instructions: 1000001 cycles: 566984 heartbeat IPC: 1.76372 cumulative IPC: 1.76372 (Simulation time: 0 hr 0 min 19 sec) 
select_counter is 270
Heartbeat CPU 0 instructions: 2000001 cycles: 1135541 heartbeat IPC: 1.75884 cumulative IPC: 1.76128 (Simulation time: 0 hr 0 min 36 sec) 
select_counter is 504
Heartbeat CPU 0 instructions: 3000001 cycles: 1722588 heartbeat IPC: 1.70344 cumulative IPC: 1.74157 (Simulation time: 0 hr 0 min 54 sec) 
select_counter is 270
Heartbeat CPU 0 instructions: 4000000 cycles: 2291816 heartbeat IPC: 1.75676 cumulative IPC: 1.74534 (Simulation time: 0 hr 1 min 12 sec) 
select_counter is 175
Heartbeat CPU 0 instructions: 5000000 cycles: 2865919 heartbeat IPC: 1.74185 cumulative IPC: 1.74464 (Simulation time: 0 hr 1 min 29 sec) 
select_counter is 57
Heartbeat CPU 0 instructions: 6000000 cycles: 3442095 heartbeat IPC: 1.73558 cumulative IPC: 1.74312 (Simulation time: 0 hr 1 min 46 sec) 
select_counter is 476
Heartbeat CPU 0 instructions: 7000000 cycles: 4011426 heartbeat IPC: 1.75645 cumulative IPC: 1.74502 (Simulation time: 0 hr 2 min 4 sec) 
select_counter is 384
Heartbeat CPU 0 instructions: 8000000 cycles: 4564932 heartbeat IPC: 1.80667 cumulative IPC: 1.75249 (Simulation time: 0 hr 2 min 22 sec) 
select_counter is 188
Heartbeat CPU 0 instructions: 9000001 cycles: 5147010 heartbeat IPC: 1.71798 cumulative IPC: 1.74859 (Simulation time: 0 hr 2 min 40 sec) 
select_counter is 80
Heartbeat CPU 0 instructions: 10000000 cycles: 5700947 heartbeat IPC: 1.80526 cumulative IPC: 1.75409 (Simulation time: 0 hr 2 min 58 sec) 
select_counter is 78

Warmup complete CPU 0 instructions: 10000003 cycles: 5700948 (Simulation time: 0 hr 2 min 58 sec) 

Heartbeat CPU 0 instructions: 11000000 cycles: 8876265 heartbeat IPC: 0.314929 cumulative IPC: 0.314928 (Simulation time: 0 hr 3 min 20 sec) 
select_counter is 508
Heartbeat CPU 0 instructions: 12000000 cycles: 10031202 heartbeat IPC: 0.865848 cumulative IPC: 0.461866 (Simulation time: 0 hr 3 min 36 sec) 
select_counter is 510
Heartbeat CPU 0 instructions: 13000003 cycles: 11176160 heartbeat IPC: 0.873397 cumulative IPC: 0.547924 (Simulation time: 0 hr 3 min 53 sec) 
select_counter is 507
Heartbeat CPU 0 instructions: 14000000 cycles: 12296426 heartbeat IPC: 0.892642 cumulative IPC: 0.606476 (Simulation time: 0 hr 4 min 9 sec) 
select_counter is 508
Heartbeat CPU 0 instructions: 15000000 cycles: 13435634 heartbeat IPC: 0.877803 cumulative IPC: 0.646438 (Simulation time: 0 hr 4 min 27 sec) 
select_counter is 504
Heartbeat CPU 0 instructions: 16000000 cycles: 16315622 heartbeat IPC: 0.347224 cumulative IPC: 0.565255 (Simulation time: 0 hr 4 min 49 sec) 
select_counter is 446
Heartbeat CPU 0 instructions: 17000003 cycles: 19206126 heartbeat IPC: 0.345961 cumulative IPC: 0.51832 (Simulation time: 0 hr 5 min 12 sec) 
select_counter is 384
Heartbeat CPU 0 instructions: 18000002 cycles: 22033358 heartbeat IPC: 0.353702 cumulative IPC: 0.489824 (Simulation time: 0 hr 5 min 34 sec) 
select_counter is 312
Heartbeat CPU 0 instructions: 19000002 cycles: 24880067 heartbeat IPC: 0.351283 cumulative IPC: 0.46926 (Simulation time: 0 hr 5 min 55 sec) 
select_counter is 268
Heartbeat CPU 0 instructions: 20000000 cycles: 28222483 heartbeat IPC: 0.299184 cumulative IPC: 0.444019 (Simulation time: 0 hr 6 min 18 sec) 
select_counter is 177
Heartbeat CPU 0 instructions: 21000000 cycles: 31549700 heartbeat IPC: 0.300551 cumulative IPC: 0.425552 (Simulation time: 0 hr 6 min 40 sec) 
select_counter is 114
Heartbeat CPU 0 instructions: 22000001 cycles: 34743788 heartbeat IPC: 0.313079 cumulative IPC: 0.413183 (Simulation time: 0 hr 7 min 2 sec) 
select_counter is 78
Heartbeat CPU 0 instructions: 23000000 cycles: 37584443 heartbeat IPC: 0.352031 cumulative IPC: 0.407734 (Simulation time: 0 hr 7 min 23 sec) 
select_counter is 17
Heartbeat CPU 0 instructions: 24000000 cycles: 40393264 heartbeat IPC: 0.356021 cumulative IPC: 0.403547 (Simulation time: 0 hr 7 min 46 sec) 
select_counter is 485
Heartbeat CPU 0 instructions: 25000000 cycles: 43203552 heartbeat IPC: 0.355835 cumulative IPC: 0.399972 (Simulation time: 0 hr 8 min 7 sec) 
select_counter is 462
Heartbeat CPU 0 instructions: 26000002 cycles: 46001028 heartbeat IPC: 0.357466 cumulative IPC: 0.397022 (Simulation time: 0 hr 8 min 30 sec) 
select_counter is 427
Heartbeat CPU 0 instructions: 27000001 cycles: 48853112 heartbeat IPC: 0.35062 cumulative IPC: 0.393955 (Simulation time: 0 hr 8 min 53 sec) 
select_counter is 392
Heartbeat CPU 0 instructions: 28000000 cycles: 51653588 heartbeat IPC: 0.357082 cumulative IPC: 0.391708 (Simulation time: 0 hr 9 min 14 sec) 
select_counter is 349
Heartbeat CPU 0 instructions: 29000001 cycles: 54531138 heartbeat IPC: 0.347518 cumulative IPC: 0.389104 (Simulation time: 0 hr 9 min 36 sec) 
select_counter is 294
Heartbeat CPU 0 instructions: 30000000 cycles: 57351292 heartbeat IPC: 0.35459 cumulative IPC: 0.387219 (Simulation time: 0 hr 9 min 57 sec) 
select_counter is 281
Heartbeat CPU 0 instructions: 31000002 cycles: 60141111 heartbeat IPC: 0.358447 cumulative IPC: 0.385745 (Simulation time: 0 hr 10 min 17 sec) 
select_counter is 290
Heartbeat CPU 0 instructions: 32000000 cycles: 62994544 heartbeat IPC: 0.350454 cumulative IPC: 0.383987 (Simulation time: 0 hr 10 min 37 sec) 
select_counter is 295
Heartbeat CPU 0 instructions: 33000000 cycles: 66210866 heartbeat IPC: 0.310914 cumulative IPC: 0.380103 (Simulation time: 0 hr 10 min 57 sec) 
select_counter is 285
Heartbeat CPU 0 instructions: 34000001 cycles: 69544927 heartbeat IPC: 0.299935 cumulative IPC: 0.375916 (Simulation time: 0 hr 11 min 19 sec) 
select_counter is 223
Heartbeat CPU 0 instructions: 35000001 cycles: 72587607 heartbeat IPC: 0.328658 cumulative IPC: 0.373767 (Simulation time: 0 hr 11 min 41 sec) 
select_counter is 200
Heartbeat CPU 0 instructions: 36000000 cycles: 75877594 heartbeat IPC: 0.303952 cumulative IPC: 0.370494 (Simulation time: 0 hr 12 min 4 sec) 
select_counter is 262
Heartbeat CPU 0 instructions: 37000001 cycles: 78678108 heartbeat IPC: 0.357078 cumulative IPC: 0.369979 (Simulation time: 0 hr 12 min 27 sec) 
select_counter is 261
Heartbeat CPU 0 instructions: 38000001 cycles: 81860724 heartbeat IPC: 0.314207 cumulative IPC: 0.367648 (Simulation time: 0 hr 12 min 50 sec) 
select_counter is 231
Heartbeat CPU 0 instructions: 39000001 cycles: 84384639 heartbeat IPC: 0.39621 cumulative IPC: 0.368564 (Simulation time: 0 hr 13 min 10 sec) 
select_counter is 226
Heartbeat CPU 0 instructions: 40000000 cycles: 85506865 heartbeat IPC: 0.891085 cumulative IPC: 0.375912 (Simulation time: 0 hr 13 min 27 sec) 
select_counter is 224
Heartbeat CPU 0 instructions: 41000001 cycles: 86633129 heartbeat IPC: 0.887892 cumulative IPC: 0.383037 (Simulation time: 0 hr 13 min 42 sec) 
select_counter is 226
Heartbeat CPU 0 instructions: 42000001 cycles: 87767448 heartbeat IPC: 0.881586 cumulative IPC: 0.389928 (Simulation time: 0 hr 13 min 58 sec) 
select_counter is 225
Heartbeat CPU 0 instructions: 43000002 cycles: 88978530 heartbeat IPC: 0.825709 cumulative IPC: 0.396265 (Simulation time: 0 hr 14 min 15 sec) 
select_counter is 215
Heartbeat CPU 0 instructions: 44000000 cycles: 91888775 heartbeat IPC: 0.343613 cumulative IPC: 0.394487 (Simulation time: 0 hr 14 min 37 sec) 
select_counter is 183
Heartbeat CPU 0 instructions: 45000000 cycles: 94767346 heartbeat IPC: 0.347395 cumulative IPC: 0.392965 (Simulation time: 0 hr 14 min 57 sec) 
select_counter is 183
Heartbeat CPU 0 instructions: 46000000 cycles: 98116269 heartbeat IPC: 0.298603 cumulative IPC: 0.389546 (Simulation time: 0 hr 15 min 20 sec) 
select_counter is 162
Heartbeat CPU 0 instructions: 47000000 cycles: 101438523 heartbeat IPC: 0.301 cumulative IPC: 0.386473 (Simulation time: 0 hr 15 min 42 sec) 
select_counter is 137
Heartbeat CPU 0 instructions: 48000000 cycles: 104600299 heartbeat IPC: 0.316278 cumulative IPC: 0.384229 (Simulation time: 0 hr 16 min 4 sec) 
select_counter is 133
Heartbeat CPU 0 instructions: 49000000 cycles: 107523226 heartbeat IPC: 0.342123 cumulative IPC: 0.38302 (Simulation time: 0 hr 16 min 26 sec) 
select_counter is 109
Heartbeat CPU 0 instructions: 50000001 cycles: 110322383 heartbeat IPC: 0.357251 cumulative IPC: 0.382331 (Simulation time: 0 hr 16 min 46 sec) 
select_counter is 121
Heartbeat CPU 0 instructions: 51000003 cycles: 113134590 heartbeat IPC: 0.355593 cumulative IPC: 0.381631 (Simulation time: 0 hr 17 min 6 sec) 
select_counter is 117
Heartbeat CPU 0 instructions: 52000000 cycles: 115915938 heartbeat IPC: 0.359537 cumulative IPC: 0.381073 (Simulation time: 0 hr 17 min 27 sec) 
select_counter is 107
Heartbeat CPU 0 instructions: 53000003 cycles: 118710194 heartbeat IPC: 0.357878 cumulative IPC: 0.3805 (Simulation time: 0 hr 17 min 48 sec) 
select_counter is 87
Heartbeat CPU 0 instructions: 54000001 cycles: 121480066 heartbeat IPC: 0.361027 cumulative IPC: 0.380034 (Simulation time: 0 hr 18 min 10 sec) 
select_counter is 68
Heartbeat CPU 0 instructions: 55000001 cycles: 124391446 heartbeat IPC: 0.34348 cumulative IPC: 0.379137 (Simulation time: 0 hr 18 min 35 sec) 
select_counter is 17
Heartbeat CPU 0 instructions: 56000000 cycles: 127207565 heartbeat IPC: 0.355098 cumulative IPC: 0.37858 (Simulation time: 0 hr 18 min 58 sec) 
select_counter is 510
Heartbeat CPU 0 instructions: 57000003 cycles: 130013102 heartbeat IPC: 0.356439 cumulative IPC: 0.37808 (Simulation time: 0 hr 19 min 19 sec) 
select_counter is 510
Heartbeat CPU 0 instructions: 58000001 cycles: 133039064 heartbeat IPC: 0.330473 cumulative IPC: 0.376949 (Simulation time: 0 hr 19 min 40 sec) 
select_counter is 505
Heartbeat CPU 0 instructions: 59000001 cycles: 136374552 heartbeat IPC: 0.299806 cumulative IPC: 0.37498 (Simulation time: 0 hr 20 min 2 sec) 
select_counter is 487
Heartbeat CPU 0 instructions: 60000000 cycles: 139402632 heartbeat IPC: 0.330242 cumulative IPC: 0.373967 (Simulation time: 0 hr 20 min 23 sec) 
select_counter is 483
Heartbeat CPU 0 instructions: 61000001 cycles: 142505228 heartbeat IPC: 0.322311 cumulative IPC: 0.372795 (Simulation time: 0 hr 20 min 45 sec) 
select_counter is 444
Heartbeat CPU 0 instructions: 62000000 cycles: 145889411 heartbeat IPC: 0.295492 cumulative IPC: 0.370929 (Simulation time: 0 hr 21 min 7 sec) 
select_counter is 488
Heartbeat CPU 0 instructions: 63000001 cycles: 148767828 heartbeat IPC: 0.347414 cumulative IPC: 0.370456 (Simulation time: 0 hr 21 min 28 sec) 
select_counter is 503
Heartbeat CPU 0 instructions: 64000000 cycles: 151622292 heartbeat IPC: 0.350328 cumulative IPC: 0.370062 (Simulation time: 0 hr 21 min 49 sec) 
select_counter is 497
Heartbeat CPU 0 instructions: 65000001 cycles: 154461513 heartbeat IPC: 0.35221 cumulative IPC: 0.369722 (Simulation time: 0 hr 22 min 10 sec) 
select_counter is 500
Heartbeat CPU 0 instructions: 66000002 cycles: 158666883 heartbeat IPC: 0.237791 cumulative IPC: 0.366095 (Simulation time: 0 hr 22 min 36 sec) 
select_counter is 478
Heartbeat CPU 0 instructions: 67000001 cycles: 160336255 heartbeat IPC: 0.599027 cumulative IPC: 0.368609 (Simulation time: 0 hr 22 min 56 sec) 
select_counter is 476
Heartbeat CPU 0 instructions: 68000000 cycles: 161461480 heartbeat IPC: 0.88871 cumulative IPC: 0.372366 (Simulation time: 0 hr 23 min 12 sec) 
select_counter is 481
Heartbeat CPU 0 instructions: 69000003 cycles: 162603523 heartbeat IPC: 0.875626 cumulative IPC: 0.37603 (Simulation time: 0 hr 23 min 29 sec) 
select_counter is 477
Heartbeat CPU 0 instructions: 70000000 cycles: 163723771 heartbeat IPC: 0.892657 cumulative IPC: 0.379692 (Simulation time: 0 hr 23 min 49 sec) 
select_counter is 476
Heartbeat CPU 0 instructions: 71000001 cycles: 164898958 heartbeat IPC: 0.850929 cumulative IPC: 0.383171 (Simulation time: 0 hr 24 min 5 sec) 
select_counter is 471
Heartbeat CPU 0 instructions: 72000000 cycles: 168286474 heartbeat IPC: 0.295201 cumulative IPC: 0.381338 (Simulation time: 0 hr 24 min 28 sec) 
select_counter is 499
Heartbeat CPU 0 instructions: 73000000 cycles: 171732125 heartbeat IPC: 0.290221 cumulative IPC: 0.379447 (Simulation time: 0 hr 24 min 50 sec) 
select_counter is 488
Heartbeat CPU 0 instructions: 74000001 cycles: 175123763 heartbeat IPC: 0.294843 cumulative IPC: 0.377753 (Simulation time: 0 hr 25 min 14 sec) 
select_counter is 477
Heartbeat CPU 0 instructions: 75000001 cycles: 178076560 heartbeat IPC: 0.338662 cumulative IPC: 0.377083 (Simulation time: 0 hr 25 min 37 sec) 
select_counter is 464
Heartbeat CPU 0 instructions: 76000000 cycles: 180898864 heartbeat IPC: 0.35432 cumulative IPC: 0.376717 (Simulation time: 0 hr 25 min 58 sec) 
select_counter is 486
Heartbeat CPU 0 instructions: 77000000 cycles: 183753672 heartbeat IPC: 0.350286 cumulative IPC: 0.376293 (Simulation time: 0 hr 26 min 22 sec) 
select_counter is 509
Heartbeat CPU 0 instructions: 78000001 cycles: 186603052 heartbeat IPC: 0.350954 cumulative IPC: 0.375894 (Simulation time: 0 hr 26 min 43 sec) 
select_counter is 501
Heartbeat CPU 0 instructions: 79000001 cycles: 189447688 heartbeat IPC: 0.351539 cumulative IPC: 0.375517 (Simulation time: 0 hr 27 min 3 sec) 
select_counter is 504
Heartbeat CPU 0 instructions: 80000000 cycles: 192266894 heartbeat IPC: 0.354709 cumulative IPC: 0.375202 (Simulation time: 0 hr 27 min 24 sec) 
select_counter is 501
Heartbeat CPU 0 instructions: 81000002 cycles: 195167839 heartbeat IPC: 0.344716 cumulative IPC: 0.374736 (Simulation time: 0 hr 27 min 46 sec) 
select_counter is 460
Heartbeat CPU 0 instructions: 82000001 cycles: 198007936 heartbeat IPC: 0.3521 cumulative IPC: 0.374401 (Simulation time: 0 hr 28 min 7 sec) 
select_counter is 491
Heartbeat CPU 0 instructions: 83000002 cycles: 200888398 heartbeat IPC: 0.347167 cumulative IPC: 0.373999 (Simulation time: 0 hr 28 min 28 sec) 
select_counter is 510
Heartbeat CPU 0 instructions: 84000000 cycles: 203788959 heartbeat IPC: 0.34476 cumulative IPC: 0.373571 (Simulation time: 0 hr 28 min 50 sec) 
select_counter is 497
Heartbeat CPU 0 instructions: 85000002 cycles: 207157595 heartbeat IPC: 0.296857 cumulative IPC: 0.372289 (Simulation time: 0 hr 29 min 13 sec) 
select_counter is 496
Heartbeat CPU 0 instructions: 86000002 cycles: 210517318 heartbeat IPC: 0.297644 cumulative IPC: 0.371064 (Simulation time: 0 hr 29 min 36 sec) 
select_counter is 484
Heartbeat CPU 0 instructions: 87000000 cycles: 213601596 heartbeat IPC: 0.324224 cumulative IPC: 0.370369 (Simulation time: 0 hr 30 min 0 sec) 
select_counter is 447
Heartbeat CPU 0 instructions: 88000000 cycles: 216656839 heartbeat IPC: 0.327306 cumulative IPC: 0.369746 (Simulation time: 0 hr 30 min 21 sec) 
select_counter is 493
Heartbeat CPU 0 instructions: 89000002 cycles: 219786850 heartbeat IPC: 0.319488 cumulative IPC: 0.369011 (Simulation time: 0 hr 30 min 44 sec) 
select_counter is 495
Heartbeat CPU 0 instructions: 90000001 cycles: 222614362 heartbeat IPC: 0.353667 cumulative IPC: 0.368811 (Simulation time: 0 hr 31 min 6 sec) 
select_counter is 491
Heartbeat CPU 0 instructions: 91000001 cycles: 225471259 heartbeat IPC: 0.35003 cumulative IPC: 0.368567 (Simulation time: 0 hr 31 min 27 sec) 
select_counter is 490
Heartbeat CPU 0 instructions: 92000000 cycles: 228419761 heartbeat IPC: 0.339155 cumulative IPC: 0.368177 (Simulation time: 0 hr 31 min 50 sec) 
select_counter is 471
Heartbeat CPU 0 instructions: 93000000 cycles: 231291145 heartbeat IPC: 0.348264 cumulative IPC: 0.367924 (Simulation time: 0 hr 32 min 11 sec) 
select_counter is 510
Heartbeat CPU 0 instructions: 94000000 cycles: 235882322 heartbeat IPC: 0.217809 cumulative IPC: 0.36493 (Simulation time: 0 hr 32 min 37 sec) 
select_counter is 508
Heartbeat CPU 0 instructions: 95000000 cycles: 237070339 heartbeat IPC: 0.841739 cumulative IPC: 0.367378 (Simulation time: 0 hr 32 min 54 sec) 
select_counter is 510
Heartbeat CPU 0 instructions: 96000000 cycles: 238213306 heartbeat IPC: 0.874916 cumulative IPC: 0.369873 (Simulation time: 0 hr 33 min 10 sec) 
select_counter is 506
Heartbeat CPU 0 instructions: 97000002 cycles: 239332009 heartbeat IPC: 0.893894 cumulative IPC: 0.372382 (Simulation time: 0 hr 33 min 25 sec) 
select_counter is 507
Heartbeat CPU 0 instructions: 98000001 cycles: 240473990 heartbeat IPC: 0.87567 cumulative IPC: 0.37483 (Simulation time: 0 hr 33 min 40 sec) 
select_counter is 504
Heartbeat CPU 0 instructions: 99000002 cycles: 242365220 heartbeat IPC: 0.528757 cumulative IPC: 0.37606 (Simulation time: 0 hr 33 min 57 sec) 
select_counter is 488
Heartbeat CPU 0 instructions: 100000000 cycles: 245810322 heartbeat IPC: 0.290267 cumulative IPC: 0.374829 (Simulation time: 0 hr 34 min 18 sec) 
select_counter is 475
Heartbeat CPU 0 instructions: 101000002 cycles: 248942369 heartbeat IPC: 0.319281 cumulative IPC: 0.374114 (Simulation time: 0 hr 34 min 39 sec) 
select_counter is 448
Heartbeat CPU 0 instructions: 102000001 cycles: 251980354 heartbeat IPC: 0.329165 cumulative IPC: 0.373559 (Simulation time: 0 hr 34 min 59 sec) 
select_counter is 491
Heartbeat CPU 0 instructions: 103000000 cycles: 254830115 heartbeat IPC: 0.350906 cumulative IPC: 0.3733 (Simulation time: 0 hr 35 min 17 sec) 
select_counter is 494
Heartbeat CPU 0 instructions: 104000000 cycles: 257694474 heartbeat IPC: 0.349118 cumulative IPC: 0.373025 (Simulation time: 0 hr 35 min 36 sec) 
select_counter is 489
Heartbeat CPU 0 instructions: 105000001 cycles: 260536980 heartbeat IPC: 0.351803 cumulative IPC: 0.372789 (Simulation time: 0 hr 35 min 54 sec) 
select_counter is 487
Heartbeat CPU 0 instructions: 106000000 cycles: 263494810 heartbeat IPC: 0.338085 cumulative IPC: 0.372391 (Simulation time: 0 hr 36 min 12 sec) 
select_counter is 454
Heartbeat CPU 0 instructions: 107000002 cycles: 266360770 heartbeat IPC: 0.348924 cumulative IPC: 0.372133 (Simulation time: 0 hr 36 min 29 sec) 
select_counter is 441
Heartbeat CPU 0 instructions: 108000000 cycles: 269209429 heartbeat IPC: 0.351042 cumulative IPC: 0.371905 (Simulation time: 0 hr 36 min 45 sec) 
select_counter is 462
Heartbeat CPU 0 instructions: 109000002 cycles: 272045355 heartbeat IPC: 0.352619 cumulative IPC: 0.371699 (Simulation time: 0 hr 37 min 1 sec) 
select_counter is 488
Heartbeat CPU 0 instructions: 110000001 cycles: 274928531 heartbeat IPC: 0.346839 cumulative IPC: 0.371433 (Simulation time: 0 hr 37 min 17 sec) 
select_counter is 502
Finished CPU 0 instructions: 100000001 cycles: 269227585 cummulative IPC: 0.371433 (Simulation time: 0 hr 37 min 17 sec) 

ChampSim completed all CPUs

Region of Interest Statistics

CPU 0 cummulative IPC: 0.371433 instructions: 100000001 cycles: 269227585
LLC TOTAL     ACCESS:    4665933  HIT:    2259341  MISS:    2406592
LLC LOAD      ACCESS:    2182420  HIT:    1965999  MISS:     216421
LLC RFO       ACCESS:      24961  HIT:      11796  MISS:      13165
LLC PREFETCH  ACCESS:    2378183  HIT:     230702  MISS:    2147481
LLC WRITEBACK ACCESS:      80369  HIT:      50844  MISS:      29525
Ship samples: 
17, 59, 78, 105, 147, 177, 211, 252, 259, 303, 351, 355, 392, 433, 468, 505, 522, 559, 587, 637, 651, 692, 722, 744, 793, 806, 859, 877, 925, 957, 985, 996, 1029, 1079, 1114, 1128, 1162, 1211, 1230, 1268, 1304, 1313, 1369, 1407, 1410, 1464, 1492, 1516, 1563, 1579, 1618, 1658, 1679, 1703, 1737, 1785, 1806, 1838, 1881, 1909, 1942, 1969, 2001, 2043, 
Lime duel samples: 
0, 47, 74, 118, 133, 179, 214, 227, 266, 296, 336, 356, 405, 436, 473, 507, 517, 565, 600, 632, 670, 687, 734, 753, 790, 823, 856, 873, 900, 958, 977, 1014, 1035, 1084, 1117, 1141, 1161, 1190, 1243, 1265, 1285, 1324, 1345, 1381, 1431, 1456, 1479, 1508, 1553, 1578, 1616, 1652, 1689, 1717, 1729, 1773, 1813, 1850, 1875, 1893, 1930, 1965, 1994, 2045, 
Lime samples: 
0, 133, 266, 405, 517, 670, 790, 900, 1035, 1161, 1285, 1431, 1553, 1689, 1813, 1930, 
Insertion Distribution: 
	LOAD 12803 0 0 0 0 0 17087 21254 
	RFO 1527 0 0 0 0 0 1485 1546 
	PREF 0 5689 0 0 0 0 22635 691141 
	WRITEBACK 0 0 0 0 0 0 0 9142 
Total Prefetch Downgrades: 6228
