
*** ChampSim Multicore Out-of-Order Simulator ***

Warmup Instructions: 10000000
Simulation Instructions: 100000000
Configuration: 2
Number of CPUs: 1
LLC sets: 2048
LLC ways: 16
Off-chip DRAM Channels: 1 Width: 64-bit Data Rate: 1600 MT/s

CPU 0 runs /datasets/cs240c-wi22-a00-public/data/Assignment2-gz/perlbench_105B.trace.gz
CPU 0 L1D next line prefetcher
CPU 0 L2C IP-based stride prefetcher
Heartbeat CPU 0 instructions: 1000000 cycles: 578016 heartbeat IPC: 1.73006 cumulative IPC: 1.73006 (Simulation time: 0 hr 0 min 22 sec) 
select_counter is 262
Heartbeat CPU 0 instructions: 2000001 cycles: 1164321 heartbeat IPC: 1.7056 cumulative IPC: 1.71774 (Simulation time: 0 hr 0 min 43 sec) 
select_counter is 260
Heartbeat CPU 0 instructions: 3000001 cycles: 1726557 heartbeat IPC: 1.77861 cumulative IPC: 1.73756 (Simulation time: 0 hr 1 min 3 sec) 
select_counter is 260
Heartbeat CPU 0 instructions: 4000000 cycles: 2305993 heartbeat IPC: 1.72581 cumulative IPC: 1.73461 (Simulation time: 0 hr 1 min 25 sec) 
select_counter is 260
Heartbeat CPU 0 instructions: 5000003 cycles: 2884260 heartbeat IPC: 1.72931 cumulative IPC: 1.73355 (Simulation time: 0 hr 1 min 46 sec) 
select_counter is 262
Heartbeat CPU 0 instructions: 6000003 cycles: 3447519 heartbeat IPC: 1.77538 cumulative IPC: 1.74038 (Simulation time: 0 hr 2 min 7 sec) 
select_counter is 263
Heartbeat CPU 0 instructions: 7000000 cycles: 4019987 heartbeat IPC: 1.74682 cumulative IPC: 1.7413 (Simulation time: 0 hr 2 min 29 sec) 
select_counter is 263
Heartbeat CPU 0 instructions: 8000000 cycles: 4598049 heartbeat IPC: 1.72992 cumulative IPC: 1.73987 (Simulation time: 0 hr 2 min 52 sec) 
select_counter is 263
Heartbeat CPU 0 instructions: 9000000 cycles: 5176571 heartbeat IPC: 1.72854 cumulative IPC: 1.7386 (Simulation time: 0 hr 3 min 14 sec) 
select_counter is 262
Heartbeat CPU 0 instructions: 10000002 cycles: 5745489 heartbeat IPC: 1.75773 cumulative IPC: 1.7405 (Simulation time: 0 hr 3 min 37 sec) 
select_counter is 262

Warmup complete CPU 0 instructions: 10000002 cycles: 5745489 (Simulation time: 0 hr 3 min 37 sec) 

Heartbeat CPU 0 instructions: 11000002 cycles: 8079760 heartbeat IPC: 0.428399 cumulative IPC: 0.428399 (Simulation time: 0 hr 4 min 9 sec) 
select_counter is 265
Heartbeat CPU 0 instructions: 12000000 cycles: 10435599 heartbeat IPC: 0.424476 cumulative IPC: 0.426429 (Simulation time: 0 hr 4 min 42 sec) 
select_counter is 263
Heartbeat CPU 0 instructions: 13000000 cycles: 12866632 heartbeat IPC: 0.411348 cumulative IPC: 0.42128 (Simulation time: 0 hr 5 min 13 sec) 
select_counter is 263
Heartbeat CPU 0 instructions: 14000000 cycles: 15244606 heartbeat IPC: 0.420526 cumulative IPC: 0.421092 (Simulation time: 0 hr 5 min 44 sec) 
select_counter is 262
Heartbeat CPU 0 instructions: 15000000 cycles: 17595618 heartbeat IPC: 0.425349 cumulative IPC: 0.421936 (Simulation time: 0 hr 6 min 13 sec) 
select_counter is 263
Heartbeat CPU 0 instructions: 16000000 cycles: 19976093 heartbeat IPC: 0.420084 cumulative IPC: 0.421626 (Simulation time: 0 hr 6 min 42 sec) 
select_counter is 267
Heartbeat CPU 0 instructions: 17000003 cycles: 22368505 heartbeat IPC: 0.417989 cumulative IPC: 0.421103 (Simulation time: 0 hr 7 min 14 sec) 
select_counter is 267
Heartbeat CPU 0 instructions: 18000000 cycles: 24612402 heartbeat IPC: 0.445652 cumulative IPC: 0.424023 (Simulation time: 0 hr 7 min 44 sec) 
select_counter is 269
Heartbeat CPU 0 instructions: 19000000 cycles: 27117282 heartbeat IPC: 0.399221 cumulative IPC: 0.421116 (Simulation time: 0 hr 8 min 13 sec) 
select_counter is 269
Heartbeat CPU 0 instructions: 20000000 cycles: 29620732 heartbeat IPC: 0.399449 cumulative IPC: 0.418844 (Simulation time: 0 hr 8 min 44 sec) 
select_counter is 269
Heartbeat CPU 0 instructions: 21000001 cycles: 32122235 heartbeat IPC: 0.39976 cumulative IPC: 0.417034 (Simulation time: 0 hr 9 min 14 sec) 
select_counter is 269
Heartbeat CPU 0 instructions: 22000001 cycles: 34618056 heartbeat IPC: 0.40067 cumulative IPC: 0.415619 (Simulation time: 0 hr 9 min 44 sec) 
select_counter is 269
Heartbeat CPU 0 instructions: 23000000 cycles: 37109945 heartbeat IPC: 0.401302 cumulative IPC: 0.414482 (Simulation time: 0 hr 10 min 14 sec) 
select_counter is 269
Heartbeat CPU 0 instructions: 24000000 cycles: 39592832 heartbeat IPC: 0.402757 cumulative IPC: 0.413622 (Simulation time: 0 hr 10 min 43 sec) 
select_counter is 269
Heartbeat CPU 0 instructions: 25000001 cycles: 42055416 heartbeat IPC: 0.406078 cumulative IPC: 0.41311 (Simulation time: 0 hr 11 min 13 sec) 
select_counter is 269
Heartbeat CPU 0 instructions: 26000001 cycles: 44327979 heartbeat IPC: 0.440032 cumulative IPC: 0.414696 (Simulation time: 0 hr 11 min 43 sec) 
select_counter is 269
Heartbeat CPU 0 instructions: 27000003 cycles: 46822809 heartbeat IPC: 0.40083 cumulative IPC: 0.413854 (Simulation time: 0 hr 12 min 14 sec) 
select_counter is 269
Heartbeat CPU 0 instructions: 28000000 cycles: 49326095 heartbeat IPC: 0.399474 cumulative IPC: 0.413028 (Simulation time: 0 hr 12 min 46 sec) 
select_counter is 269
Heartbeat CPU 0 instructions: 29000001 cycles: 51827756 heartbeat IPC: 0.399735 cumulative IPC: 0.412306 (Simulation time: 0 hr 13 min 17 sec) 
select_counter is 269
Heartbeat CPU 0 instructions: 30000001 cycles: 54325160 heartbeat IPC: 0.400416 cumulative IPC: 0.411695 (Simulation time: 0 hr 13 min 47 sec) 
select_counter is 269
Heartbeat CPU 0 instructions: 31000000 cycles: 56816976 heartbeat IPC: 0.401313 cumulative IPC: 0.411188 (Simulation time: 0 hr 14 min 18 sec) 
select_counter is 269
Heartbeat CPU 0 instructions: 32000000 cycles: 59302103 heartbeat IPC: 0.402394 cumulative IPC: 0.41078 (Simulation time: 0 hr 14 min 48 sec) 
select_counter is 269
Heartbeat CPU 0 instructions: 33000001 cycles: 61770175 heartbeat IPC: 0.405175 cumulative IPC: 0.410533 (Simulation time: 0 hr 15 min 19 sec) 
select_counter is 269
Heartbeat CPU 0 instructions: 34000002 cycles: 64180929 heartbeat IPC: 0.414808 cumulative IPC: 0.41071 (Simulation time: 0 hr 15 min 50 sec) 
select_counter is 267
Heartbeat CPU 0 instructions: 35000002 cycles: 66644069 heartbeat IPC: 0.405986 cumulative IPC: 0.410519 (Simulation time: 0 hr 16 min 19 sec) 
select_counter is 265
Heartbeat CPU 0 instructions: 36000000 cycles: 69158371 heartbeat IPC: 0.397724 cumulative IPC: 0.410011 (Simulation time: 0 hr 16 min 44 sec) 
select_counter is 217
Heartbeat CPU 0 instructions: 37000001 cycles: 72160261 heartbeat IPC: 0.333124 cumulative IPC: 0.406536 (Simulation time: 0 hr 17 min 19 sec) 
select_counter is 181
Heartbeat CPU 0 instructions: 38000000 cycles: 74792894 heartbeat IPC: 0.379847 cumulative IPC: 0.405518 (Simulation time: 0 hr 17 min 46 sec) 
select_counter is 143
Heartbeat CPU 0 instructions: 39000000 cycles: 77567781 heartbeat IPC: 0.360375 cumulative IPC: 0.403774 (Simulation time: 0 hr 18 min 15 sec) 
select_counter is 107
Heartbeat CPU 0 instructions: 40000000 cycles: 80217691 heartbeat IPC: 0.377371 cumulative IPC: 0.402835 (Simulation time: 0 hr 18 min 43 sec) 
select_counter is 53
Heartbeat CPU 0 instructions: 41000000 cycles: 82854118 heartbeat IPC: 0.379301 cumulative IPC: 0.40203 (Simulation time: 0 hr 19 min 9 sec) 
select_counter is 0
Heartbeat CPU 0 instructions: 42000002 cycles: 85488759 heartbeat IPC: 0.379559 cumulative IPC: 0.401288 (Simulation time: 0 hr 19 min 36 sec) 
select_counter is 461
Heartbeat CPU 0 instructions: 43000000 cycles: 88135520 heartbeat IPC: 0.37782 cumulative IPC: 0.400534 (Simulation time: 0 hr 20 min 2 sec) 
select_counter is 398
Heartbeat CPU 0 instructions: 44000000 cycles: 90754940 heartbeat IPC: 0.381764 cumulative IPC: 0.399956 (Simulation time: 0 hr 20 min 29 sec) 
select_counter is 347
Heartbeat CPU 0 instructions: 45000001 cycles: 93392584 heartbeat IPC: 0.379127 cumulative IPC: 0.399329 (Simulation time: 0 hr 20 min 56 sec) 
select_counter is 317
Heartbeat CPU 0 instructions: 46000003 cycles: 95994637 heartbeat IPC: 0.384313 cumulative IPC: 0.398896 (Simulation time: 0 hr 21 min 23 sec) 
select_counter is 297
Heartbeat CPU 0 instructions: 47000002 cycles: 98602668 heartbeat IPC: 0.383431 cumulative IPC: 0.398461 (Simulation time: 0 hr 21 min 49 sec) 
select_counter is 230
Heartbeat CPU 0 instructions: 48000000 cycles: 101195457 heartbeat IPC: 0.385684 cumulative IPC: 0.398114 (Simulation time: 0 hr 22 min 17 sec) 
select_counter is 177
Heartbeat CPU 0 instructions: 49000002 cycles: 103792908 heartbeat IPC: 0.384994 cumulative IPC: 0.397767 (Simulation time: 0 hr 22 min 44 sec) 
select_counter is 128
Heartbeat CPU 0 instructions: 50000002 cycles: 106393210 heartbeat IPC: 0.384571 cumulative IPC: 0.397426 (Simulation time: 0 hr 23 min 11 sec) 
select_counter is 76
Heartbeat CPU 0 instructions: 51000003 cycles: 109002353 heartbeat IPC: 0.383268 cumulative IPC: 0.397068 (Simulation time: 0 hr 23 min 39 sec) 
select_counter is 30
Heartbeat CPU 0 instructions: 52000000 cycles: 111590602 heartbeat IPC: 0.38636 cumulative IPC: 0.396806 (Simulation time: 0 hr 24 min 6 sec) 
select_counter is 495
Heartbeat CPU 0 instructions: 53000000 cycles: 114169822 heartbeat IPC: 0.387714 cumulative IPC: 0.39659 (Simulation time: 0 hr 24 min 34 sec) 
select_counter is 442
Heartbeat CPU 0 instructions: 54000000 cycles: 116787524 heartbeat IPC: 0.382014 cumulative IPC: 0.396246 (Simulation time: 0 hr 25 min 1 sec) 
select_counter is 381
Heartbeat CPU 0 instructions: 55000003 cycles: 119349082 heartbeat IPC: 0.390389 cumulative IPC: 0.396114 (Simulation time: 0 hr 25 min 29 sec) 
select_counter is 337
Heartbeat CPU 0 instructions: 56000000 cycles: 121727997 heartbeat IPC: 0.420358 cumulative IPC: 0.396612 (Simulation time: 0 hr 25 min 57 sec) 
select_counter is 320
Heartbeat CPU 0 instructions: 57000002 cycles: 124003281 heartbeat IPC: 0.439506 cumulative IPC: 0.397437 (Simulation time: 0 hr 26 min 27 sec) 
select_counter is 317
Heartbeat CPU 0 instructions: 58000001 cycles: 125324321 heartbeat IPC: 0.756979 cumulative IPC: 0.401409 (Simulation time: 0 hr 26 min 48 sec) 
select_counter is 310
Heartbeat CPU 0 instructions: 59000002 cycles: 127556931 heartbeat IPC: 0.447907 cumulative IPC: 0.402261 (Simulation time: 0 hr 27 min 16 sec) 
select_counter is 297
Heartbeat CPU 0 instructions: 60000000 cycles: 129905716 heartbeat IPC: 0.425751 cumulative IPC: 0.402705 (Simulation time: 0 hr 27 min 48 sec) 
select_counter is 297
Heartbeat CPU 0 instructions: 61000002 cycles: 132355206 heartbeat IPC: 0.408249 cumulative IPC: 0.402813 (Simulation time: 0 hr 28 min 19 sec) 
select_counter is 297
Heartbeat CPU 0 instructions: 62000000 cycles: 134721494 heartbeat IPC: 0.422602 cumulative IPC: 0.403176 (Simulation time: 0 hr 28 min 48 sec) 
select_counter is 298
Heartbeat CPU 0 instructions: 63000000 cycles: 137084011 heartbeat IPC: 0.423277 cumulative IPC: 0.403537 (Simulation time: 0 hr 29 min 17 sec) 
select_counter is 299
Heartbeat CPU 0 instructions: 64000000 cycles: 139503505 heartbeat IPC: 0.41331 cumulative IPC: 0.403714 (Simulation time: 0 hr 29 min 47 sec) 
select_counter is 299
Heartbeat CPU 0 instructions: 65000003 cycles: 141827711 heartbeat IPC: 0.430256 cumulative IPC: 0.404167 (Simulation time: 0 hr 30 min 17 sec) 
select_counter is 299
Heartbeat CPU 0 instructions: 66000002 cycles: 144170944 heartbeat IPC: 0.42676 cumulative IPC: 0.40455 (Simulation time: 0 hr 30 min 50 sec) 
select_counter is 299
Heartbeat CPU 0 instructions: 67000001 cycles: 146526344 heartbeat IPC: 0.424556 cumulative IPC: 0.404885 (Simulation time: 0 hr 31 min 19 sec) 
select_counter is 300
Heartbeat CPU 0 instructions: 68000000 cycles: 148974535 heartbeat IPC: 0.408464 cumulative IPC: 0.404946 (Simulation time: 0 hr 31 min 51 sec) 
select_counter is 300
Heartbeat CPU 0 instructions: 69000001 cycles: 151326817 heartbeat IPC: 0.42512 cumulative IPC: 0.405272 (Simulation time: 0 hr 32 min 22 sec) 
select_counter is 300
Heartbeat CPU 0 instructions: 70000000 cycles: 153742655 heartbeat IPC: 0.413935 cumulative IPC: 0.405413 (Simulation time: 0 hr 32 min 52 sec) 
select_counter is 300
Heartbeat CPU 0 instructions: 71000000 cycles: 156128945 heartbeat IPC: 0.419061 cumulative IPC: 0.40563 (Simulation time: 0 hr 33 min 22 sec) 
select_counter is 300
Heartbeat CPU 0 instructions: 72000000 cycles: 158457767 heartbeat IPC: 0.429402 cumulative IPC: 0.405992 (Simulation time: 0 hr 33 min 50 sec) 
select_counter is 300
Heartbeat CPU 0 instructions: 73000000 cycles: 160790450 heartbeat IPC: 0.428691 cumulative IPC: 0.406334 (Simulation time: 0 hr 34 min 20 sec) 
select_counter is 299
Heartbeat CPU 0 instructions: 74000002 cycles: 163175589 heartbeat IPC: 0.419264 cumulative IPC: 0.40653 (Simulation time: 0 hr 34 min 49 sec) 
select_counter is 299
Heartbeat CPU 0 instructions: 75000000 cycles: 165599038 heartbeat IPC: 0.412634 cumulative IPC: 0.406622 (Simulation time: 0 hr 35 min 18 sec) 
select_counter is 299
Heartbeat CPU 0 instructions: 76000000 cycles: 167958320 heartbeat IPC: 0.423858 cumulative IPC: 0.406873 (Simulation time: 0 hr 35 min 44 sec) 
select_counter is 299
Heartbeat CPU 0 instructions: 77000000 cycles: 170392815 heartbeat IPC: 0.410763 cumulative IPC: 0.40693 (Simulation time: 0 hr 36 min 10 sec) 
select_counter is 299
Heartbeat CPU 0 instructions: 78000002 cycles: 172757896 heartbeat IPC: 0.422819 cumulative IPC: 0.407155 (Simulation time: 0 hr 36 min 36 sec) 
select_counter is 299
Heartbeat CPU 0 instructions: 79000001 cycles: 175094378 heartbeat IPC: 0.427993 cumulative IPC: 0.407443 (Simulation time: 0 hr 36 min 59 sec) 
select_counter is 298
Heartbeat CPU 0 instructions: 80000000 cycles: 177425611 heartbeat IPC: 0.428957 cumulative IPC: 0.407735 (Simulation time: 0 hr 37 min 22 sec) 
select_counter is 298
Heartbeat CPU 0 instructions: 81000000 cycles: 179849295 heartbeat IPC: 0.412595 cumulative IPC: 0.407803 (Simulation time: 0 hr 37 min 45 sec) 
select_counter is 298
Heartbeat CPU 0 instructions: 82000000 cycles: 182212333 heartbeat IPC: 0.423184 cumulative IPC: 0.408009 (Simulation time: 0 hr 38 min 6 sec) 
select_counter is 298
Heartbeat CPU 0 instructions: 83000002 cycles: 184533075 heartbeat IPC: 0.430898 cumulative IPC: 0.408306 (Simulation time: 0 hr 38 min 27 sec) 
select_counter is 298
Heartbeat CPU 0 instructions: 84000000 cycles: 186955627 heartbeat IPC: 0.412787 cumulative IPC: 0.408366 (Simulation time: 0 hr 38 min 47 sec) 
select_counter is 298
Heartbeat CPU 0 instructions: 85000000 cycles: 189329995 heartbeat IPC: 0.421165 cumulative IPC: 0.408531 (Simulation time: 0 hr 39 min 7 sec) 
select_counter is 297
Heartbeat CPU 0 instructions: 86000000 cycles: 191679649 heartbeat IPC: 0.425595 cumulative IPC: 0.408747 (Simulation time: 0 hr 39 min 26 sec) 
select_counter is 296
Heartbeat CPU 0 instructions: 87000001 cycles: 194125968 heartbeat IPC: 0.408778 cumulative IPC: 0.408747 (Simulation time: 0 hr 39 min 44 sec) 
select_counter is 296
Heartbeat CPU 0 instructions: 88000000 cycles: 196491622 heartbeat IPC: 0.422716 cumulative IPC: 0.40892 (Simulation time: 0 hr 40 min 2 sec) 
select_counter is 296
Heartbeat CPU 0 instructions: 89000002 cycles: 198816957 heartbeat IPC: 0.430046 cumulative IPC: 0.409175 (Simulation time: 0 hr 40 min 19 sec) 
select_counter is 296
Heartbeat CPU 0 instructions: 90000002 cycles: 201180751 heartbeat IPC: 0.423049 cumulative IPC: 0.409343 (Simulation time: 0 hr 40 min 37 sec) 
select_counter is 296
Heartbeat CPU 0 instructions: 91000003 cycles: 203597314 heartbeat IPC: 0.413811 cumulative IPC: 0.409397 (Simulation time: 0 hr 40 min 54 sec) 
select_counter is 296
Heartbeat CPU 0 instructions: 92000000 cycles: 205956071 heartbeat IPC: 0.423951 cumulative IPC: 0.409569 (Simulation time: 0 hr 41 min 11 sec) 
select_counter is 296
Heartbeat CPU 0 instructions: 93000001 cycles: 208302811 heartbeat IPC: 0.426123 cumulative IPC: 0.409761 (Simulation time: 0 hr 41 min 27 sec) 
select_counter is 296
Heartbeat CPU 0 instructions: 94000002 cycles: 210755273 heartbeat IPC: 0.407754 cumulative IPC: 0.409737 (Simulation time: 0 hr 41 min 43 sec) 
select_counter is 296
Heartbeat CPU 0 instructions: 95000000 cycles: 213116290 heartbeat IPC: 0.423545 cumulative IPC: 0.409894 (Simulation time: 0 hr 41 min 58 sec) 
select_counter is 296
Heartbeat CPU 0 instructions: 96000000 cycles: 215439581 heartbeat IPC: 0.430424 cumulative IPC: 0.410121 (Simulation time: 0 hr 42 min 13 sec) 
select_counter is 295
Heartbeat CPU 0 instructions: 97000000 cycles: 217826412 heartbeat IPC: 0.418966 cumulative IPC: 0.410221 (Simulation time: 0 hr 42 min 28 sec) 
select_counter is 295
Heartbeat CPU 0 instructions: 98000001 cycles: 220226425 heartbeat IPC: 0.416665 cumulative IPC: 0.410293 (Simulation time: 0 hr 42 min 43 sec) 
select_counter is 295
Heartbeat CPU 0 instructions: 99000002 cycles: 222585014 heartbeat IPC: 0.423983 cumulative IPC: 0.410442 (Simulation time: 0 hr 42 min 57 sec) 
select_counter is 294
Heartbeat CPU 0 instructions: 100000000 cycles: 224937543 heartbeat IPC: 0.425074 cumulative IPC: 0.410599 (Simulation time: 0 hr 43 min 10 sec) 
select_counter is 291
Heartbeat CPU 0 instructions: 101000000 cycles: 227352995 heartbeat IPC: 0.414001 cumulative IPC: 0.410636 (Simulation time: 0 hr 43 min 22 sec) 
select_counter is 291
Heartbeat CPU 0 instructions: 102000000 cycles: 229585758 heartbeat IPC: 0.447876 cumulative IPC: 0.411007 (Simulation time: 0 hr 43 min 34 sec) 
select_counter is 291
Heartbeat CPU 0 instructions: 103000001 cycles: 232090358 heartbeat IPC: 0.399266 cumulative IPC: 0.410877 (Simulation time: 0 hr 43 min 45 sec) 
select_counter is 291
Heartbeat CPU 0 instructions: 104000000 cycles: 234592878 heartbeat IPC: 0.399597 cumulative IPC: 0.410754 (Simulation time: 0 hr 43 min 55 sec) 
select_counter is 291
Heartbeat CPU 0 instructions: 105000000 cycles: 237092751 heartbeat IPC: 0.40002 cumulative IPC: 0.410638 (Simulation time: 0 hr 44 min 5 sec) 
select_counter is 291
Heartbeat CPU 0 instructions: 106000000 cycles: 239588956 heartbeat IPC: 0.400608 cumulative IPC: 0.410531 (Simulation time: 0 hr 44 min 15 sec) 
select_counter is 291
Heartbeat CPU 0 instructions: 107000001 cycles: 242079548 heartbeat IPC: 0.401511 cumulative IPC: 0.410436 (Simulation time: 0 hr 44 min 23 sec) 
select_counter is 291
Heartbeat CPU 0 instructions: 108000000 cycles: 244559954 heartbeat IPC: 0.403159 cumulative IPC: 0.41036 (Simulation time: 0 hr 44 min 30 sec) 
select_counter is 291
Heartbeat CPU 0 instructions: 109000002 cycles: 247016103 heartbeat IPC: 0.407142 cumulative IPC: 0.410328 (Simulation time: 0 hr 44 min 36 sec) 
select_counter is 291
Heartbeat CPU 0 instructions: 110000000 cycles: 249335550 heartbeat IPC: 0.431136 cumulative IPC: 0.410526 (Simulation time: 0 hr 44 min 42 sec) 
select_counter is 291
Finished CPU 0 instructions: 100000000 cycles: 243590087 cummulative IPC: 0.410526 (Simulation time: 0 hr 44 min 42 sec) 

ChampSim completed all CPUs

Region of Interest Statistics

CPU 0 cummulative IPC: 0.410526 instructions: 100000000 cycles: 243590087
LLC TOTAL     ACCESS:     157869  HIT:     132001  MISS:      25868
LLC LOAD      ACCESS:      71019  HIT:      61688  MISS:       9331
LLC RFO       ACCESS:      11273  HIT:       5539  MISS:       5734
LLC PREFETCH  ACCESS:      50724  HIT:      40350  MISS:      10374
LLC WRITEBACK ACCESS:      24853  HIT:      24424  MISS:        429
Ship samples: 
20, 43, 75, 115, 151, 171, 202, 236, 271, 303, 333, 372, 399, 443, 467, 481, 514, 572, 603, 636, 668, 678, 727, 761, 769, 808, 860, 885, 911, 937, 982, 1016, 1031, 1074, 1089, 1138, 1162, 1184, 1234, 1278, 1296, 1335, 1345, 1404, 1420, 1447, 1481, 1517, 1540, 1574, 1604, 1647, 1681, 1707, 1751, 1790, 1813, 1844, 1880, 1895, 1934, 1978, 1997, 2023, 
Lime duel samples: 
3, 60, 84, 110, 142, 172, 211, 240, 275, 302, 321, 371, 391, 434, 478, 486, 520, 556, 589, 623, 658, 679, 710, 754, 775, 809, 846, 893, 907, 944, 962, 1002, 1047, 1061, 1110, 1124, 1161, 1208, 1245, 1255, 1307, 1324, 1357, 1378, 1425, 1470, 1494, 1535, 1552, 1599, 1606, 1657, 1678, 1711, 1731, 1769, 1799, 1845, 1878, 1904, 1924, 1966, 2007, 2024, 
Lime samples: 
3, 142, 275, 391, 520, 658, 775, 907, 1047, 1161, 1307, 1425, 1552, 1678, 1799, 1924, 
Insertion Distribution: 
	LOAD 217 0 0 0 0 0 6162 8 
	RFO 1 0 0 0 0 0 3978 0 
	PREF 0 103 0 0 0 0 6624 3 
	WRITEBACK 0 0 0 0 0 0 0 234 
Total Prefetch Downgrades: 379
