
*** ChampSim Multicore Out-of-Order Simulator ***

Warmup Instructions: 10000000
Simulation Instructions: 100000000
Configuration: 2
Number of CPUs: 1
LLC sets: 2048
LLC ways: 16
Off-chip DRAM Channels: 1 Width: 64-bit Data Rate: 1600 MT/s

CPU 0 runs /datasets/cs240c-wi22-a00-public/data/Assignment2-gz/cactusADM_734B.trace.gz
CPU 0 L1D next line prefetcher
CPU 0 L2C IP-based stride prefetcher
Heartbeat CPU 0 instructions: 1000003 cycles: 592726 heartbeat IPC: 1.68713 cumulative IPC: 1.68713 (Simulation time: 0 hr 0 min 29 sec) 
select_counter is 249
Heartbeat CPU 0 instructions: 2000001 cycles: 1185927 heartbeat IPC: 1.68577 cumulative IPC: 1.68645 (Simulation time: 0 hr 0 min 56 sec) 
select_counter is 258
Heartbeat CPU 0 instructions: 3000003 cycles: 1778979 heartbeat IPC: 1.6862 cumulative IPC: 1.68636 (Simulation time: 0 hr 1 min 24 sec) 
select_counter is 253
Heartbeat CPU 0 instructions: 4000000 cycles: 2371929 heartbeat IPC: 1.68648 cumulative IPC: 1.68639 (Simulation time: 0 hr 1 min 51 sec) 
select_counter is 249
Heartbeat CPU 0 instructions: 5000000 cycles: 2965279 heartbeat IPC: 1.68535 cumulative IPC: 1.68618 (Simulation time: 0 hr 2 min 18 sec) 
select_counter is 258
Heartbeat CPU 0 instructions: 6000002 cycles: 3558551 heartbeat IPC: 1.68557 cumulative IPC: 1.68608 (Simulation time: 0 hr 2 min 46 sec) 
select_counter is 252
Heartbeat CPU 0 instructions: 7000000 cycles: 4151394 heartbeat IPC: 1.68678 cumulative IPC: 1.68618 (Simulation time: 0 hr 3 min 15 sec) 
select_counter is 261
Heartbeat CPU 0 instructions: 8000000 cycles: 4744343 heartbeat IPC: 1.68649 cumulative IPC: 1.68622 (Simulation time: 0 hr 3 min 41 sec) 
select_counter is 272
Heartbeat CPU 0 instructions: 9000001 cycles: 5337493 heartbeat IPC: 1.68592 cumulative IPC: 1.68619 (Simulation time: 0 hr 4 min 6 sec) 
select_counter is 301
Heartbeat CPU 0 instructions: 10000003 cycles: 5958967 heartbeat IPC: 1.60908 cumulative IPC: 1.67814 (Simulation time: 0 hr 4 min 32 sec) 
select_counter is 326

Warmup complete CPU 0 instructions: 10000003 cycles: 5958967 (Simulation time: 0 hr 4 min 32 sec) 

Heartbeat CPU 0 instructions: 11000002 cycles: 12539621 heartbeat IPC: 0.15196 cumulative IPC: 0.15196 (Simulation time: 0 hr 5 min 5 sec) 
select_counter is 485
Heartbeat CPU 0 instructions: 12000000 cycles: 14282338 heartbeat IPC: 0.573815 cumulative IPC: 0.240287 (Simulation time: 0 hr 5 min 34 sec) 
select_counter is 506
Heartbeat CPU 0 instructions: 13000002 cycles: 15970112 heartbeat IPC: 0.592498 cumulative IPC: 0.299666 (Simulation time: 0 hr 6 min 4 sec) 
select_counter is 499
Heartbeat CPU 0 instructions: 14000000 cycles: 17655814 heartbeat IPC: 0.593223 cumulative IPC: 0.341972 (Simulation time: 0 hr 6 min 31 sec) 
select_counter is 510
Heartbeat CPU 0 instructions: 15000003 cycles: 19395474 heartbeat IPC: 0.574827 cumulative IPC: 0.372121 (Simulation time: 0 hr 6 min 58 sec) 
select_counter is 511
Heartbeat CPU 0 instructions: 16000000 cycles: 21138298 heartbeat IPC: 0.57378 cumulative IPC: 0.395274 (Simulation time: 0 hr 7 min 27 sec) 
select_counter is 508
Heartbeat CPU 0 instructions: 17000002 cycles: 22872748 heartbeat IPC: 0.576553 cumulative IPC: 0.413864 (Simulation time: 0 hr 8 min 1 sec) 
select_counter is 509
Heartbeat CPU 0 instructions: 18000001 cycles: 24531565 heartbeat IPC: 0.602839 cumulative IPC: 0.430742 (Simulation time: 0 hr 8 min 29 sec) 
select_counter is 509
Heartbeat CPU 0 instructions: 19000000 cycles: 26249050 heartbeat IPC: 0.582246 cumulative IPC: 0.443566 (Simulation time: 0 hr 8 min 56 sec) 
select_counter is 507
Heartbeat CPU 0 instructions: 20000000 cycles: 27991915 heartbeat IPC: 0.573768 cumulative IPC: 0.453866 (Simulation time: 0 hr 9 min 21 sec) 
select_counter is 507
Heartbeat CPU 0 instructions: 21000002 cycles: 29735592 heartbeat IPC: 0.573502 cumulative IPC: 0.462639 (Simulation time: 0 hr 9 min 46 sec) 
select_counter is 508
Heartbeat CPU 0 instructions: 22000000 cycles: 31445118 heartbeat IPC: 0.584956 cumulative IPC: 0.470844 (Simulation time: 0 hr 10 min 14 sec) 
select_counter is 511
Heartbeat CPU 0 instructions: 23000001 cycles: 33109416 heartbeat IPC: 0.600855 cumulative IPC: 0.478813 (Simulation time: 0 hr 10 min 41 sec) 
select_counter is 510
Heartbeat CPU 0 instructions: 24000000 cycles: 40756840 heartbeat IPC: 0.130763 cumulative IPC: 0.402323 (Simulation time: 0 hr 11 min 15 sec) 
select_counter is 450
Heartbeat CPU 0 instructions: 25000000 cycles: 42498721 heartbeat IPC: 0.574092 cumulative IPC: 0.410512 (Simulation time: 0 hr 11 min 42 sec) 
select_counter is 483
Heartbeat CPU 0 instructions: 26000002 cycles: 44233508 heartbeat IPC: 0.576441 cumulative IPC: 0.418032 (Simulation time: 0 hr 12 min 10 sec) 
select_counter is 472
Heartbeat CPU 0 instructions: 27000002 cycles: 45897423 heartbeat IPC: 0.600992 cumulative IPC: 0.425655 (Simulation time: 0 hr 12 min 38 sec) 
select_counter is 461
Heartbeat CPU 0 instructions: 28000000 cycles: 47623349 heartbeat IPC: 0.579398 cumulative IPC: 0.432024 (Simulation time: 0 hr 13 min 6 sec) 
select_counter is 453
Heartbeat CPU 0 instructions: 29000001 cycles: 49382915 heartbeat IPC: 0.568323 cumulative IPC: 0.437547 (Simulation time: 0 hr 13 min 37 sec) 
select_counter is 452
Heartbeat CPU 0 instructions: 30000001 cycles: 51125281 heartbeat IPC: 0.573932 cumulative IPC: 0.442808 (Simulation time: 0 hr 14 min 3 sec) 
select_counter is 464
Heartbeat CPU 0 instructions: 31000003 cycles: 52838480 heartbeat IPC: 0.583705 cumulative IPC: 0.447957 (Simulation time: 0 hr 14 min 32 sec) 
select_counter is 477
Heartbeat CPU 0 instructions: 32000000 cycles: 54497336 heartbeat IPC: 0.602823 cumulative IPC: 0.45325 (Simulation time: 0 hr 15 min 0 sec) 
select_counter is 497
Heartbeat CPU 0 instructions: 33000000 cycles: 56232563 heartbeat IPC: 0.576293 cumulative IPC: 0.457497 (Simulation time: 0 hr 15 min 30 sec) 
select_counter is 509
Heartbeat CPU 0 instructions: 34000001 cycles: 57976978 heartbeat IPC: 0.573259 cumulative IPC: 0.461379 (Simulation time: 0 hr 15 min 58 sec) 
select_counter is 509
Heartbeat CPU 0 instructions: 35000000 cycles: 59715225 heartbeat IPC: 0.575292 cumulative IPC: 0.465062 (Simulation time: 0 hr 16 min 25 sec) 
select_counter is 507
Heartbeat CPU 0 instructions: 36000000 cycles: 61398215 heartbeat IPC: 0.594181 cumulative IPC: 0.468982 (Simulation time: 0 hr 16 min 52 sec) 
select_counter is 509
Heartbeat CPU 0 instructions: 37000003 cycles: 68992266 heartbeat IPC: 0.131682 cumulative IPC: 0.428345 (Simulation time: 0 hr 17 min 27 sec) 
select_counter is 462
Heartbeat CPU 0 instructions: 38000001 cycles: 70733996 heartbeat IPC: 0.574141 cumulative IPC: 0.432265 (Simulation time: 0 hr 17 min 54 sec) 
select_counter is 463
Heartbeat CPU 0 instructions: 39000001 cycles: 72475205 heartbeat IPC: 0.574314 cumulative IPC: 0.435984 (Simulation time: 0 hr 18 min 23 sec) 
select_counter is 455
Heartbeat CPU 0 instructions: 40000000 cycles: 74193288 heartbeat IPC: 0.582043 cumulative IPC: 0.439661 (Simulation time: 0 hr 18 min 52 sec) 
select_counter is 437
Heartbeat CPU 0 instructions: 41000001 cycles: 75848896 heartbeat IPC: 0.604008 cumulative IPC: 0.443555 (Simulation time: 0 hr 19 min 20 sec) 
select_counter is 420
Heartbeat CPU 0 instructions: 42000002 cycles: 77584738 heartbeat IPC: 0.57609 cumulative IPC: 0.446767 (Simulation time: 0 hr 19 min 47 sec) 
select_counter is 415
Heartbeat CPU 0 instructions: 43000000 cycles: 79326462 heartbeat IPC: 0.574143 cumulative IPC: 0.44979 (Simulation time: 0 hr 20 min 15 sec) 
select_counter is 418
Heartbeat CPU 0 instructions: 44000000 cycles: 81066356 heartbeat IPC: 0.574748 cumulative IPC: 0.452685 (Simulation time: 0 hr 20 min 42 sec) 
select_counter is 431
Heartbeat CPU 0 instructions: 45000000 cycles: 82751945 heartbeat IPC: 0.593264 cumulative IPC: 0.455771 (Simulation time: 0 hr 21 min 9 sec) 
select_counter is 441
Heartbeat CPU 0 instructions: 46000003 cycles: 84435904 heartbeat IPC: 0.59384 cumulative IPC: 0.458733 (Simulation time: 0 hr 21 min 38 sec) 
select_counter is 466
Heartbeat CPU 0 instructions: 47000001 cycles: 86174395 heartbeat IPC: 0.57521 cumulative IPC: 0.461258 (Simulation time: 0 hr 22 min 7 sec) 
select_counter is 487
Heartbeat CPU 0 instructions: 48000000 cycles: 87915962 heartbeat IPC: 0.574195 cumulative IPC: 0.463658 (Simulation time: 0 hr 22 min 35 sec) 
select_counter is 509
Heartbeat CPU 0 instructions: 49000000 cycles: 89652239 heartbeat IPC: 0.575945 cumulative IPC: 0.465987 (Simulation time: 0 hr 23 min 3 sec) 
select_counter is 511
Heartbeat CPU 0 instructions: 50000001 cycles: 97147106 heartbeat IPC: 0.133425 cumulative IPC: 0.438654 (Simulation time: 0 hr 23 min 37 sec) 
select_counter is 449
Heartbeat CPU 0 instructions: 51000000 cycles: 98877083 heartbeat IPC: 0.578042 cumulative IPC: 0.441249 (Simulation time: 0 hr 24 min 3 sec) 
select_counter is 461
Heartbeat CPU 0 instructions: 52000000 cycles: 100616288 heartbeat IPC: 0.574975 cumulative IPC: 0.443706 (Simulation time: 0 hr 24 min 29 sec) 
select_counter is 453
Heartbeat CPU 0 instructions: 53000003 cycles: 102354708 heartbeat IPC: 0.575237 cumulative IPC: 0.446078 (Simulation time: 0 hr 24 min 56 sec) 
select_counter is 440
Heartbeat CPU 0 instructions: 54000000 cycles: 104042242 heartbeat IPC: 0.592579 cumulative IPC: 0.448598 (Simulation time: 0 hr 25 min 23 sec) 
select_counter is 421
Heartbeat CPU 0 instructions: 55000001 cycles: 105718282 heartbeat IPC: 0.596645 cumulative IPC: 0.451086 (Simulation time: 0 hr 25 min 51 sec) 
select_counter is 416
Heartbeat CPU 0 instructions: 56000000 cycles: 107470128 heartbeat IPC: 0.570826 cumulative IPC: 0.453152 (Simulation time: 0 hr 26 min 21 sec) 
select_counter is 409
Heartbeat CPU 0 instructions: 57000000 cycles: 109218941 heartbeat IPC: 0.571816 cumulative IPC: 0.455162 (Simulation time: 0 hr 26 min 50 sec) 
select_counter is 414
Heartbeat CPU 0 instructions: 58000001 cycles: 110953093 heartbeat IPC: 0.576651 cumulative IPC: 0.457168 (Simulation time: 0 hr 27 min 18 sec) 
select_counter is 441
Heartbeat CPU 0 instructions: 59000000 cycles: 112611487 heartbeat IPC: 0.602992 cumulative IPC: 0.459436 (Simulation time: 0 hr 27 min 45 sec) 
select_counter is 445
Heartbeat CPU 0 instructions: 60000000 cycles: 114318027 heartbeat IPC: 0.585981 cumulative IPC: 0.461429 (Simulation time: 0 hr 28 min 13 sec) 
select_counter is 470
Heartbeat CPU 0 instructions: 61000002 cycles: 116057628 heartbeat IPC: 0.574846 cumulative IPC: 0.463221 (Simulation time: 0 hr 28 min 42 sec) 
select_counter is 473
Heartbeat CPU 0 instructions: 62000002 cycles: 117798084 heartbeat IPC: 0.574562 cumulative IPC: 0.464954 (Simulation time: 0 hr 29 min 11 sec) 
select_counter is 510
Heartbeat CPU 0 instructions: 63000002 cycles: 125224780 heartbeat IPC: 0.134649 cumulative IPC: 0.444385 (Simulation time: 0 hr 29 min 45 sec) 
select_counter is 474
Heartbeat CPU 0 instructions: 64000000 cycles: 127177875 heartbeat IPC: 0.512007 cumulative IPC: 0.445475 (Simulation time: 0 hr 30 min 13 sec) 
select_counter is 493
Heartbeat CPU 0 instructions: 65000003 cycles: 128914832 heartbeat IPC: 0.575721 cumulative IPC: 0.447315 (Simulation time: 0 hr 30 min 40 sec) 
select_counter is 453
Heartbeat CPU 0 instructions: 66000001 cycles: 130656323 heartbeat IPC: 0.574219 cumulative IPC: 0.449087 (Simulation time: 0 hr 31 min 7 sec) 
select_counter is 442
Heartbeat CPU 0 instructions: 67000000 cycles: 132392481 heartbeat IPC: 0.575984 cumulative IPC: 0.45083 (Simulation time: 0 hr 31 min 33 sec) 
select_counter is 416
Heartbeat CPU 0 instructions: 68000000 cycles: 134056053 heartbeat IPC: 0.601116 cumulative IPC: 0.452782 (Simulation time: 0 hr 32 min 0 sec) 
select_counter is 401
Heartbeat CPU 0 instructions: 69000000 cycles: 135757449 heartbeat IPC: 0.587753 cumulative IPC: 0.454551 (Simulation time: 0 hr 32 min 27 sec) 
select_counter is 400
Heartbeat CPU 0 instructions: 70000001 cycles: 137498952 heartbeat IPC: 0.574217 cumulative IPC: 0.456135 (Simulation time: 0 hr 32 min 53 sec) 
select_counter is 384
Heartbeat CPU 0 instructions: 71000001 cycles: 139241138 heartbeat IPC: 0.573992 cumulative IPC: 0.457676 (Simulation time: 0 hr 33 min 20 sec) 
select_counter is 390
Heartbeat CPU 0 instructions: 72000000 cycles: 140962450 heartbeat IPC: 0.580952 cumulative IPC: 0.459247 (Simulation time: 0 hr 33 min 48 sec) 
select_counter is 390
Heartbeat CPU 0 instructions: 73000003 cycles: 142611863 heartbeat IPC: 0.606278 cumulative IPC: 0.461022 (Simulation time: 0 hr 34 min 16 sec) 
select_counter is 403
Heartbeat CPU 0 instructions: 74000002 cycles: 144344097 heartbeat IPC: 0.577289 cumulative IPC: 0.462477 (Simulation time: 0 hr 34 min 42 sec) 
select_counter is 419
Heartbeat CPU 0 instructions: 75000002 cycles: 146084794 heartbeat IPC: 0.574483 cumulative IPC: 0.463869 (Simulation time: 0 hr 35 min 9 sec) 
select_counter is 454
Heartbeat CPU 0 instructions: 76000000 cycles: 152302708 heartbeat IPC: 0.160825 cumulative IPC: 0.450993 (Simulation time: 0 hr 35 min 36 sec) 
select_counter is 49
Heartbeat CPU 0 instructions: 77000000 cycles: 155498827 heartbeat IPC: 0.312879 cumulative IPC: 0.448041 (Simulation time: 0 hr 36 min 0 sec) 
select_counter is 407
Heartbeat CPU 0 instructions: 78000002 cycles: 157195166 heartbeat IPC: 0.589506 cumulative IPC: 0.449628 (Simulation time: 0 hr 36 min 25 sec) 
select_counter is 382
Heartbeat CPU 0 instructions: 79000002 cycles: 158937272 heartbeat IPC: 0.574018 cumulative IPC: 0.451044 (Simulation time: 0 hr 36 min 51 sec) 
select_counter is 358
Heartbeat CPU 0 instructions: 80000000 cycles: 160676395 heartbeat IPC: 0.575001 cumulative IPC: 0.452438 (Simulation time: 0 hr 37 min 14 sec) 
select_counter is 336
Heartbeat CPU 0 instructions: 81000000 cycles: 162404500 heartbeat IPC: 0.578669 cumulative IPC: 0.453832 (Simulation time: 0 hr 37 min 36 sec) 
select_counter is 317
Heartbeat CPU 0 instructions: 82000003 cycles: 164051316 heartbeat IPC: 0.607234 cumulative IPC: 0.45543 (Simulation time: 0 hr 37 min 56 sec) 
select_counter is 314
Heartbeat CPU 0 instructions: 83000003 cycles: 165781457 heartbeat IPC: 0.577988 cumulative IPC: 0.456757 (Simulation time: 0 hr 38 min 16 sec) 
select_counter is 296
Heartbeat CPU 0 instructions: 84000000 cycles: 167521637 heartbeat IPC: 0.574651 cumulative IPC: 0.458027 (Simulation time: 0 hr 38 min 35 sec) 
select_counter is 282
Heartbeat CPU 0 instructions: 85000003 cycles: 169261535 heartbeat IPC: 0.574748 cumulative IPC: 0.45927 (Simulation time: 0 hr 38 min 54 sec) 
select_counter is 270
Heartbeat CPU 0 instructions: 86000000 cycles: 170956764 heartbeat IPC: 0.589889 cumulative IPC: 0.460612 (Simulation time: 0 hr 39 min 14 sec) 
select_counter is 274
Heartbeat CPU 0 instructions: 87000000 cycles: 172631533 heartbeat IPC: 0.597097 cumulative IPC: 0.461984 (Simulation time: 0 hr 39 min 31 sec) 
select_counter is 282
Heartbeat CPU 0 instructions: 88000000 cycles: 174399509 heartbeat IPC: 0.565619 cumulative IPC: 0.463071 (Simulation time: 0 hr 39 min 49 sec) 
select_counter is 294
Heartbeat CPU 0 instructions: 89000002 cycles: 179537457 heartbeat IPC: 0.194631 cumulative IPC: 0.455126 (Simulation time: 0 hr 40 min 11 sec) 
select_counter is 86
Heartbeat CPU 0 instructions: 90000002 cycles: 183821688 heartbeat IPC: 0.233414 cumulative IPC: 0.449785 (Simulation time: 0 hr 40 min 28 sec) 
select_counter is 475
Heartbeat CPU 0 instructions: 91000003 cycles: 185469464 heartbeat IPC: 0.606879 cumulative IPC: 0.451227 (Simulation time: 0 hr 40 min 43 sec) 
select_counter is 478
Heartbeat CPU 0 instructions: 92000000 cycles: 187196933 heartbeat IPC: 0.57888 cumulative IPC: 0.452444 (Simulation time: 0 hr 40 min 58 sec) 
select_counter is 475
Heartbeat CPU 0 instructions: 93000000 cycles: 188936702 heartbeat IPC: 0.574789 cumulative IPC: 0.453607 (Simulation time: 0 hr 41 min 14 sec) 
select_counter is 460
Heartbeat CPU 0 instructions: 94000003 cycles: 190677926 heartbeat IPC: 0.57431 cumulative IPC: 0.454745 (Simulation time: 0 hr 41 min 29 sec) 
select_counter is 463
Heartbeat CPU 0 instructions: 95000000 cycles: 192378191 heartbeat IPC: 0.588142 cumulative IPC: 0.455962 (Simulation time: 0 hr 41 min 44 sec) 
select_counter is 455
Heartbeat CPU 0 instructions: 96000000 cycles: 194047870 heartbeat IPC: 0.598918 cumulative IPC: 0.457231 (Simulation time: 0 hr 41 min 58 sec) 
select_counter is 441
Heartbeat CPU 0 instructions: 97000001 cycles: 195783799 heartbeat IPC: 0.576061 cumulative IPC: 0.458317 (Simulation time: 0 hr 42 min 13 sec) 
select_counter is 449
Heartbeat CPU 0 instructions: 98000000 cycles: 197524643 heartbeat IPC: 0.574433 cumulative IPC: 0.459372 (Simulation time: 0 hr 42 min 26 sec) 
select_counter is 456
Heartbeat CPU 0 instructions: 99000001 cycles: 199263215 heartbeat IPC: 0.575185 cumulative IPC: 0.460414 (Simulation time: 0 hr 42 min 40 sec) 
select_counter is 477
Heartbeat CPU 0 instructions: 100000000 cycles: 200932574 heartbeat IPC: 0.599032 cumulative IPC: 0.461601 (Simulation time: 0 hr 42 min 53 sec) 
select_counter is 484
Heartbeat CPU 0 instructions: 101000000 cycles: 202634705 heartbeat IPC: 0.587499 cumulative IPC: 0.462691 (Simulation time: 0 hr 43 min 5 sec) 
select_counter is 504
Heartbeat CPU 0 instructions: 102000002 cycles: 206670778 heartbeat IPC: 0.247766 cumulative IPC: 0.458369 (Simulation time: 0 hr 43 min 17 sec) 
select_counter is 426
Heartbeat CPU 0 instructions: 103000000 cycles: 212049675 heartbeat IPC: 0.185911 cumulative IPC: 0.451258 (Simulation time: 0 hr 43 min 29 sec) 
select_counter is 369
Heartbeat CPU 0 instructions: 104000000 cycles: 213754429 heartbeat IPC: 0.586595 cumulative IPC: 0.452368 (Simulation time: 0 hr 43 min 40 sec) 
select_counter is 366
Heartbeat CPU 0 instructions: 105000000 cycles: 215419345 heartbeat IPC: 0.600631 cumulative IPC: 0.453546 (Simulation time: 0 hr 43 min 48 sec) 
select_counter is 368
Heartbeat CPU 0 instructions: 106000002 cycles: 217154616 heartbeat IPC: 0.57628 cumulative IPC: 0.454555 (Simulation time: 0 hr 43 min 57 sec) 
select_counter is 359
Heartbeat CPU 0 instructions: 107000001 cycles: 218895829 heartbeat IPC: 0.574312 cumulative IPC: 0.455534 (Simulation time: 0 hr 44 min 6 sec) 
select_counter is 362
Heartbeat CPU 0 instructions: 108000000 cycles: 220632697 heartbeat IPC: 0.575748 cumulative IPC: 0.456507 (Simulation time: 0 hr 44 min 14 sec) 
select_counter is 357
Heartbeat CPU 0 instructions: 109000001 cycles: 222306695 heartbeat IPC: 0.597373 cumulative IPC: 0.457597 (Simulation time: 0 hr 44 min 22 sec) 
select_counter is 348
Heartbeat CPU 0 instructions: 110000003 cycles: 224002300 heartbeat IPC: 0.589761 cumulative IPC: 0.458624 (Simulation time: 0 hr 44 min 28 sec) 
select_counter is 363
Finished CPU 0 instructions: 100000000 cycles: 218043333 cummulative IPC: 0.458624 (Simulation time: 0 hr 44 min 28 sec) 

ChampSim completed all CPUs

Region of Interest Statistics

CPU 0 cummulative IPC: 0.458624 instructions: 100000000 cycles: 218043333
LLC TOTAL     ACCESS:    1167266  HIT:     386298  MISS:     780968
LLC LOAD      ACCESS:      25538  HIT:       2388  MISS:      23150
LLC RFO       ACCESS:     264086  HIT:       8653  MISS:     255433
LLC PREFETCH  ACCESS:     611532  HIT:     128265  MISS:     483267
LLC WRITEBACK ACCESS:     266110  HIT:     246992  MISS:      19118
Ship samples: 
18, 45, 95, 111, 142, 171, 199, 244, 280, 315, 351, 358, 410, 433, 475, 501, 515, 558, 596, 621, 642, 677, 713, 767, 795, 803, 836, 895, 900, 954, 984, 1022, 1046, 1073, 1099, 1135, 1153, 1205, 1233, 1262, 1298, 1334, 1361, 1385, 1422, 1452, 1474, 1517, 1562, 1578, 1610, 1633, 1670, 1712, 1753, 1772, 1807, 1840, 1879, 1908, 1950, 1980, 1993, 2047, 
Lime duel samples: 
4, 51, 79, 124, 137, 191, 205, 227, 269, 303, 350, 362, 399, 442, 451, 502, 526, 549, 607, 631, 660, 699, 719, 765, 772, 829, 837, 883, 926, 930, 986, 1000, 1053, 1085, 1101, 1125, 1158, 1204, 1226, 1268, 1292, 1330, 1349, 1396, 1428, 1444, 1495, 1513, 1567, 1595, 1600, 1648, 1695, 1707, 1754, 1789, 1803, 1826, 1856, 1914, 1925, 1952, 1984, 2026, 
Lime samples: 
4, 137, 269, 399, 526, 660, 772, 926, 1053, 1158, 1292, 1428, 1567, 1695, 1803, 1925, 
Insertion Distribution: 
	LOAD 0 0 0 0 0 0 1122 2415 
	RFO 12404 0 0 0 0 0 6343 17975 
	PREF 0 1623 0 0 0 0 20691 39937 
	WRITEBACK 0 0 0 0 0 0 0 14695 
Total Prefetch Downgrades: 1828
