
*** ChampSim Multicore Out-of-Order Simulator ***

Warmup Instructions: 10000000
Simulation Instructions: 100000000
Configuration: 2
Number of CPUs: 1
LLC sets: 2048
LLC ways: 16
Off-chip DRAM Channels: 1 Width: 64-bit Data Rate: 1600 MT/s

CPU 0 runs /datasets/cs240c-wi22-a00-public/data/Assignment2-gz/zeusmp_300B.trace.gz
CPU 0 L1D next line prefetcher
CPU 0 L2C IP-based stride prefetcher
Heartbeat CPU 0 instructions: 1000003 cycles: 509565 heartbeat IPC: 1.96246 cumulative IPC: 1.96246 (Simulation time: 0 hr 0 min 20 sec) 
select_counter is 254
Heartbeat CPU 0 instructions: 2000003 cycles: 1061807 heartbeat IPC: 1.8108 cumulative IPC: 1.88358 (Simulation time: 0 hr 0 min 38 sec) 
select_counter is 205
Heartbeat CPU 0 instructions: 3000002 cycles: 1605747 heartbeat IPC: 1.83844 cumulative IPC: 1.86829 (Simulation time: 0 hr 0 min 56 sec) 
select_counter is 217
Heartbeat CPU 0 instructions: 4000000 cycles: 2092536 heartbeat IPC: 2.05427 cumulative IPC: 1.91156 (Simulation time: 0 hr 1 min 13 sec) 
select_counter is 204
Heartbeat CPU 0 instructions: 5000001 cycles: 2575218 heartbeat IPC: 2.07176 cumulative IPC: 1.94158 (Simulation time: 0 hr 1 min 32 sec) 
select_counter is 186
Heartbeat CPU 0 instructions: 6000000 cycles: 3061915 heartbeat IPC: 2.05466 cumulative IPC: 1.95956 (Simulation time: 0 hr 1 min 49 sec) 
select_counter is 174
Heartbeat CPU 0 instructions: 7000001 cycles: 3590078 heartbeat IPC: 1.89336 cumulative IPC: 1.94982 (Simulation time: 0 hr 2 min 7 sec) 
select_counter is 154
Heartbeat CPU 0 instructions: 8000000 cycles: 4144109 heartbeat IPC: 1.80495 cumulative IPC: 1.93045 (Simulation time: 0 hr 2 min 24 sec) 
select_counter is 158
Heartbeat CPU 0 instructions: 9000000 cycles: 4672011 heartbeat IPC: 1.89429 cumulative IPC: 1.92637 (Simulation time: 0 hr 2 min 42 sec) 
select_counter is 161
Heartbeat CPU 0 instructions: 10000002 cycles: 5158307 heartbeat IPC: 2.05636 cumulative IPC: 1.93862 (Simulation time: 0 hr 2 min 59 sec) 
select_counter is 148

Warmup complete CPU 0 instructions: 10000002 cycles: 5158307 (Simulation time: 0 hr 2 min 59 sec) 

Heartbeat CPU 0 instructions: 11000003 cycles: 5846957 heartbeat IPC: 1.45212 cumulative IPC: 1.45212 (Simulation time: 0 hr 3 min 18 sec) 
select_counter is 163
Heartbeat CPU 0 instructions: 12000000 cycles: 6528234 heartbeat IPC: 1.46783 cumulative IPC: 1.45993 (Simulation time: 0 hr 3 min 36 sec) 
select_counter is 186
Heartbeat CPU 0 instructions: 13000000 cycles: 7322966 heartbeat IPC: 1.25829 cumulative IPC: 1.3859 (Simulation time: 0 hr 3 min 56 sec) 
select_counter is 204
Heartbeat CPU 0 instructions: 14000000 cycles: 8137051 heartbeat IPC: 1.22837 cumulative IPC: 1.34285 (Simulation time: 0 hr 4 min 18 sec) 
select_counter is 211
Heartbeat CPU 0 instructions: 15000002 cycles: 8865425 heartbeat IPC: 1.37292 cumulative IPC: 1.34876 (Simulation time: 0 hr 4 min 36 sec) 
select_counter is 225
Heartbeat CPU 0 instructions: 16000000 cycles: 9555536 heartbeat IPC: 1.44904 cumulative IPC: 1.3645 (Simulation time: 0 hr 4 min 56 sec) 
select_counter is 232
Heartbeat CPU 0 instructions: 17000003 cycles: 10248349 heartbeat IPC: 1.4434 cumulative IPC: 1.37523 (Simulation time: 0 hr 5 min 17 sec) 
select_counter is 247
Heartbeat CPU 0 instructions: 18000000 cycles: 10948600 heartbeat IPC: 1.42806 cumulative IPC: 1.38162 (Simulation time: 0 hr 5 min 35 sec) 
select_counter is 268
Heartbeat CPU 0 instructions: 19000003 cycles: 11765079 heartbeat IPC: 1.22477 cumulative IPC: 1.36224 (Simulation time: 0 hr 5 min 54 sec) 
select_counter is 280
Heartbeat CPU 0 instructions: 20000000 cycles: 12576376 heartbeat IPC: 1.23259 cumulative IPC: 1.34806 (Simulation time: 0 hr 6 min 14 sec) 
select_counter is 285
Heartbeat CPU 0 instructions: 21000001 cycles: 13285611 heartbeat IPC: 1.40997 cumulative IPC: 1.35346 (Simulation time: 0 hr 6 min 33 sec) 
select_counter is 276
Heartbeat CPU 0 instructions: 22000000 cycles: 13988043 heartbeat IPC: 1.42362 cumulative IPC: 1.35904 (Simulation time: 0 hr 6 min 53 sec) 
select_counter is 286
Heartbeat CPU 0 instructions: 23000001 cycles: 14691213 heartbeat IPC: 1.42213 cumulative IPC: 1.3637 (Simulation time: 0 hr 7 min 13 sec) 
select_counter is 315
Heartbeat CPU 0 instructions: 24000000 cycles: 15438688 heartbeat IPC: 1.33784 cumulative IPC: 1.36182 (Simulation time: 0 hr 7 min 36 sec) 
select_counter is 322
Heartbeat CPU 0 instructions: 25000000 cycles: 16249957 heartbeat IPC: 1.23264 cumulative IPC: 1.35237 (Simulation time: 0 hr 7 min 55 sec) 
select_counter is 340
Heartbeat CPU 0 instructions: 26000000 cycles: 17049813 heartbeat IPC: 1.25023 cumulative IPC: 1.3455 (Simulation time: 0 hr 8 min 17 sec) 
select_counter is 329
Heartbeat CPU 0 instructions: 27000002 cycles: 17749892 heartbeat IPC: 1.42841 cumulative IPC: 1.35011 (Simulation time: 0 hr 8 min 37 sec) 
select_counter is 324
Heartbeat CPU 0 instructions: 28000000 cycles: 18454371 heartbeat IPC: 1.41949 cumulative IPC: 1.35378 (Simulation time: 0 hr 8 min 57 sec) 
select_counter is 331
Heartbeat CPU 0 instructions: 29000003 cycles: 19159306 heartbeat IPC: 1.41857 cumulative IPC: 1.35705 (Simulation time: 0 hr 9 min 15 sec) 
select_counter is 343
Heartbeat CPU 0 instructions: 30000002 cycles: 19932200 heartbeat IPC: 1.29384 cumulative IPC: 1.35374 (Simulation time: 0 hr 9 min 34 sec) 
select_counter is 376
Heartbeat CPU 0 instructions: 31000001 cycles: 20746179 heartbeat IPC: 1.22853 cumulative IPC: 1.3472 (Simulation time: 0 hr 9 min 53 sec) 
select_counter is 383
Heartbeat CPU 0 instructions: 32000000 cycles: 21519360 heartbeat IPC: 1.29336 cumulative IPC: 1.34466 (Simulation time: 0 hr 10 min 12 sec) 
select_counter is 383
Heartbeat CPU 0 instructions: 33000000 cycles: 22219332 heartbeat IPC: 1.42863 cumulative IPC: 1.3481 (Simulation time: 0 hr 10 min 31 sec) 
select_counter is 384
Heartbeat CPU 0 instructions: 34000000 cycles: 22928057 heartbeat IPC: 1.41098 cumulative IPC: 1.35061 (Simulation time: 0 hr 10 min 51 sec) 
select_counter is 402
Heartbeat CPU 0 instructions: 35000000 cycles: 23629746 heartbeat IPC: 1.42513 cumulative IPC: 1.35344 (Simulation time: 0 hr 11 min 9 sec) 
select_counter is 422
Heartbeat CPU 0 instructions: 36000000 cycles: 24427060 heartbeat IPC: 1.25421 cumulative IPC: 1.34933 (Simulation time: 0 hr 11 min 31 sec) 
select_counter is 463
Heartbeat CPU 0 instructions: 37000003 cycles: 25241080 heartbeat IPC: 1.22847 cumulative IPC: 1.34444 (Simulation time: 0 hr 11 min 51 sec) 
select_counter is 452
Heartbeat CPU 0 instructions: 38000001 cycles: 25992125 heartbeat IPC: 1.33148 cumulative IPC: 1.34397 (Simulation time: 0 hr 12 min 10 sec) 
select_counter is 427
Heartbeat CPU 0 instructions: 39000002 cycles: 26692663 heartbeat IPC: 1.42748 cumulative IPC: 1.34669 (Simulation time: 0 hr 12 min 28 sec) 
select_counter is 424
Heartbeat CPU 0 instructions: 40000000 cycles: 27401337 heartbeat IPC: 1.41108 cumulative IPC: 1.34874 (Simulation time: 0 hr 12 min 47 sec) 
select_counter is 440
Heartbeat CPU 0 instructions: 41000001 cycles: 28103356 heartbeat IPC: 1.42446 cumulative IPC: 1.35105 (Simulation time: 0 hr 13 min 10 sec) 
select_counter is 457
Heartbeat CPU 0 instructions: 42000001 cycles: 28929583 heartbeat IPC: 1.21032 cumulative IPC: 1.34616 (Simulation time: 0 hr 13 min 31 sec) 
select_counter is 470
Heartbeat CPU 0 instructions: 43000000 cycles: 29739392 heartbeat IPC: 1.23486 cumulative IPC: 1.3425 (Simulation time: 0 hr 13 min 52 sec) 
select_counter is 470
Heartbeat CPU 0 instructions: 44000000 cycles: 30462161 heartbeat IPC: 1.38357 cumulative IPC: 1.34367 (Simulation time: 0 hr 14 min 10 sec) 
select_counter is 453
Heartbeat CPU 0 instructions: 45000002 cycles: 31167012 heartbeat IPC: 1.41874 cumulative IPC: 1.3457 (Simulation time: 0 hr 14 min 30 sec) 
select_counter is 444
Heartbeat CPU 0 instructions: 46000002 cycles: 31872386 heartbeat IPC: 1.41769 cumulative IPC: 1.3476 (Simulation time: 0 hr 14 min 50 sec) 
select_counter is 441
Heartbeat CPU 0 instructions: 47000001 cycles: 32615047 heartbeat IPC: 1.34651 cumulative IPC: 1.34757 (Simulation time: 0 hr 15 min 9 sec) 
select_counter is 450
Heartbeat CPU 0 instructions: 48000000 cycles: 33425688 heartbeat IPC: 1.23359 cumulative IPC: 1.34431 (Simulation time: 0 hr 15 min 30 sec) 
select_counter is 461
Heartbeat CPU 0 instructions: 49000003 cycles: 34232259 heartbeat IPC: 1.23982 cumulative IPC: 1.34141 (Simulation time: 0 hr 15 min 49 sec) 
select_counter is 460
Heartbeat CPU 0 instructions: 50000001 cycles: 34934360 heartbeat IPC: 1.42429 cumulative IPC: 1.34336 (Simulation time: 0 hr 16 min 8 sec) 
select_counter is 459
Heartbeat CPU 0 instructions: 51000002 cycles: 35639622 heartbeat IPC: 1.41791 cumulative IPC: 1.34509 (Simulation time: 0 hr 16 min 27 sec) 
select_counter is 477
Heartbeat CPU 0 instructions: 52000000 cycles: 36346668 heartbeat IPC: 1.41433 cumulative IPC: 1.34666 (Simulation time: 0 hr 16 min 45 sec) 
select_counter is 504
Heartbeat CPU 0 instructions: 53000000 cycles: 37112104 heartbeat IPC: 1.30645 cumulative IPC: 1.34569 (Simulation time: 0 hr 17 min 4 sec) 
select_counter is 511
Heartbeat CPU 0 instructions: 54000002 cycles: 37922578 heartbeat IPC: 1.23385 cumulative IPC: 1.34293 (Simulation time: 0 hr 17 min 25 sec) 
select_counter is 511
Heartbeat CPU 0 instructions: 55000001 cycles: 38703870 heartbeat IPC: 1.27993 cumulative IPC: 1.34146 (Simulation time: 0 hr 17 min 45 sec) 
select_counter is 501
Heartbeat CPU 0 instructions: 56000000 cycles: 39407924 heartbeat IPC: 1.42034 cumulative IPC: 1.34308 (Simulation time: 0 hr 18 min 8 sec) 
select_counter is 495
Heartbeat CPU 0 instructions: 57000000 cycles: 40115318 heartbeat IPC: 1.41364 cumulative IPC: 1.34451 (Simulation time: 0 hr 18 min 30 sec) 
select_counter is 492
Heartbeat CPU 0 instructions: 58000000 cycles: 40822099 heartbeat IPC: 1.41487 cumulative IPC: 1.3459 (Simulation time: 0 hr 18 min 50 sec) 
select_counter is 497
Heartbeat CPU 0 instructions: 59000003 cycles: 41608412 heartbeat IPC: 1.27176 cumulative IPC: 1.3443 (Simulation time: 0 hr 19 min 9 sec) 
select_counter is 488
Heartbeat CPU 0 instructions: 60000000 cycles: 42420203 heartbeat IPC: 1.23184 cumulative IPC: 1.34185 (Simulation time: 0 hr 19 min 29 sec) 
select_counter is 465
Heartbeat CPU 0 instructions: 61000000 cycles: 43177191 heartbeat IPC: 1.32102 cumulative IPC: 1.34144 (Simulation time: 0 hr 19 min 49 sec) 
select_counter is 437
Heartbeat CPU 0 instructions: 62000002 cycles: 43881007 heartbeat IPC: 1.42083 cumulative IPC: 1.34288 (Simulation time: 0 hr 20 min 8 sec) 
select_counter is 400
Heartbeat CPU 0 instructions: 63000003 cycles: 44588023 heartbeat IPC: 1.4144 cumulative IPC: 1.34416 (Simulation time: 0 hr 20 min 27 sec) 
select_counter is 389
Heartbeat CPU 0 instructions: 64000000 cycles: 45292589 heartbeat IPC: 1.41931 cumulative IPC: 1.34548 (Simulation time: 0 hr 20 min 46 sec) 
select_counter is 378
Heartbeat CPU 0 instructions: 65000003 cycles: 46107284 heartbeat IPC: 1.22746 cumulative IPC: 1.34313 (Simulation time: 0 hr 21 min 5 sec) 
select_counter is 398
Heartbeat CPU 0 instructions: 66000003 cycles: 46919059 heartbeat IPC: 1.23187 cumulative IPC: 1.34097 (Simulation time: 0 hr 21 min 26 sec) 
select_counter is 388
Heartbeat CPU 0 instructions: 67000002 cycles: 47651313 heartbeat IPC: 1.36564 cumulative IPC: 1.3414 (Simulation time: 0 hr 21 min 45 sec) 
select_counter is 391
Heartbeat CPU 0 instructions: 68000000 cycles: 48355633 heartbeat IPC: 1.41981 cumulative IPC: 1.34268 (Simulation time: 0 hr 22 min 5 sec) 
select_counter is 388
Heartbeat CPU 0 instructions: 69000000 cycles: 49062995 heartbeat IPC: 1.4137 cumulative IPC: 1.34382 (Simulation time: 0 hr 22 min 25 sec) 
select_counter is 361
Heartbeat CPU 0 instructions: 70000001 cycles: 49799153 heartbeat IPC: 1.35841 cumulative IPC: 1.34406 (Simulation time: 0 hr 22 min 45 sec) 
select_counter is 344
Heartbeat CPU 0 instructions: 71000001 cycles: 50606373 heartbeat IPC: 1.23882 cumulative IPC: 1.34219 (Simulation time: 0 hr 23 min 5 sec) 
select_counter is 347
Heartbeat CPU 0 instructions: 72000000 cycles: 51417002 heartbeat IPC: 1.23361 cumulative IPC: 1.34029 (Simulation time: 0 hr 23 min 25 sec) 
select_counter is 343
Heartbeat CPU 0 instructions: 73000003 cycles: 52127582 heartbeat IPC: 1.40731 cumulative IPC: 1.3413 (Simulation time: 0 hr 23 min 45 sec) 
select_counter is 331
Heartbeat CPU 0 instructions: 74000001 cycles: 52833675 heartbeat IPC: 1.41624 cumulative IPC: 1.34241 (Simulation time: 0 hr 24 min 5 sec) 
select_counter is 324
Heartbeat CPU 0 instructions: 75000003 cycles: 53541177 heartbeat IPC: 1.41343 cumulative IPC: 1.34345 (Simulation time: 0 hr 24 min 24 sec) 
select_counter is 312
Heartbeat CPU 0 instructions: 76000000 cycles: 54302791 heartbeat IPC: 1.313 cumulative IPC: 1.34298 (Simulation time: 0 hr 24 min 45 sec) 
select_counter is 285
Heartbeat CPU 0 instructions: 77000001 cycles: 55114041 heartbeat IPC: 1.23267 cumulative IPC: 1.34119 (Simulation time: 0 hr 25 min 5 sec) 
select_counter is 275
Heartbeat CPU 0 instructions: 78000003 cycles: 55902718 heartbeat IPC: 1.26795 cumulative IPC: 1.34005 (Simulation time: 0 hr 25 min 24 sec) 
select_counter is 280
Heartbeat CPU 0 instructions: 79000001 cycles: 56608116 heartbeat IPC: 1.41764 cumulative IPC: 1.34111 (Simulation time: 0 hr 25 min 44 sec) 
select_counter is 248
Heartbeat CPU 0 instructions: 80000000 cycles: 57313413 heartbeat IPC: 1.41784 cumulative IPC: 1.34215 (Simulation time: 0 hr 26 min 3 sec) 
select_counter is 194
Heartbeat CPU 0 instructions: 81000000 cycles: 58020027 heartbeat IPC: 1.4152 cumulative IPC: 1.34313 (Simulation time: 0 hr 26 min 22 sec) 
select_counter is 171
Heartbeat CPU 0 instructions: 82000002 cycles: 58800282 heartbeat IPC: 1.28163 cumulative IPC: 1.34223 (Simulation time: 0 hr 26 min 42 sec) 
select_counter is 157
Heartbeat CPU 0 instructions: 83000001 cycles: 59612458 heartbeat IPC: 1.23126 cumulative IPC: 1.34058 (Simulation time: 0 hr 27 min 1 sec) 
select_counter is 168
Heartbeat CPU 0 instructions: 84000000 cycles: 60371549 heartbeat IPC: 1.31736 cumulative IPC: 1.34026 (Simulation time: 0 hr 27 min 20 sec) 
select_counter is 176
Heartbeat CPU 0 instructions: 85000001 cycles: 61059827 heartbeat IPC: 1.4529 cumulative IPC: 1.34165 (Simulation time: 0 hr 27 min 39 sec) 
select_counter is 172
Heartbeat CPU 0 instructions: 86000002 cycles: 61749762 heartbeat IPC: 1.44941 cumulative IPC: 1.34296 (Simulation time: 0 hr 27 min 57 sec) 
select_counter is 151
Heartbeat CPU 0 instructions: 87000000 cycles: 62439097 heartbeat IPC: 1.45067 cumulative IPC: 1.34426 (Simulation time: 0 hr 28 min 16 sec) 
select_counter is 134
Heartbeat CPU 0 instructions: 88000000 cycles: 63238251 heartbeat IPC: 1.25132 cumulative IPC: 1.34298 (Simulation time: 0 hr 28 min 35 sec) 
select_counter is 90
Heartbeat CPU 0 instructions: 89000000 cycles: 64051694 heartbeat IPC: 1.22934 cumulative IPC: 1.34141 (Simulation time: 0 hr 28 min 55 sec) 
select_counter is 95
Heartbeat CPU 0 instructions: 90000002 cycles: 64785077 heartbeat IPC: 1.36355 cumulative IPC: 1.34168 (Simulation time: 0 hr 29 min 14 sec) 
select_counter is 73
Heartbeat CPU 0 instructions: 91000002 cycles: 65477059 heartbeat IPC: 1.44512 cumulative IPC: 1.34287 (Simulation time: 0 hr 29 min 32 sec) 
select_counter is 48
Heartbeat CPU 0 instructions: 92000000 cycles: 66169535 heartbeat IPC: 1.44409 cumulative IPC: 1.34401 (Simulation time: 0 hr 29 min 51 sec) 
select_counter is 27
Heartbeat CPU 0 instructions: 93000001 cycles: 66856442 heartbeat IPC: 1.4558 cumulative IPC: 1.34526 (Simulation time: 0 hr 30 min 9 sec) 
select_counter is 4
Heartbeat CPU 0 instructions: 94000000 cycles: 67681289 heartbeat IPC: 1.21234 cumulative IPC: 1.34351 (Simulation time: 0 hr 30 min 28 sec) 
select_counter is 503
Heartbeat CPU 0 instructions: 95000003 cycles: 68492953 heartbeat IPC: 1.23204 cumulative IPC: 1.34208 (Simulation time: 0 hr 30 min 47 sec) 
select_counter is 501
Heartbeat CPU 0 instructions: 96000000 cycles: 69211080 heartbeat IPC: 1.39251 cumulative IPC: 1.34264 (Simulation time: 0 hr 31 min 5 sec) 
select_counter is 491
Heartbeat CPU 0 instructions: 97000001 cycles: 69918453 heartbeat IPC: 1.41368 cumulative IPC: 1.34342 (Simulation time: 0 hr 31 min 24 sec) 
select_counter is 471
Heartbeat CPU 0 instructions: 98000000 cycles: 70629059 heartbeat IPC: 1.40725 cumulative IPC: 1.34411 (Simulation time: 0 hr 31 min 44 sec) 
select_counter is 469
Heartbeat CPU 0 instructions: 99000001 cycles: 71373074 heartbeat IPC: 1.34406 cumulative IPC: 1.34411 (Simulation time: 0 hr 32 min 2 sec) 
select_counter is 446
Heartbeat CPU 0 instructions: 100000000 cycles: 72184457 heartbeat IPC: 1.23246 cumulative IPC: 1.34276 (Simulation time: 0 hr 32 min 22 sec) 
select_counter is 447
Heartbeat CPU 0 instructions: 101000001 cycles: 72988358 heartbeat IPC: 1.24394 cumulative IPC: 1.34159 (Simulation time: 0 hr 32 min 43 sec) 
select_counter is 436
Heartbeat CPU 0 instructions: 102000003 cycles: 73690001 heartbeat IPC: 1.42523 cumulative IPC: 1.34244 (Simulation time: 0 hr 33 min 4 sec) 
select_counter is 425
Heartbeat CPU 0 instructions: 103000003 cycles: 74399034 heartbeat IPC: 1.41037 cumulative IPC: 1.34314 (Simulation time: 0 hr 33 min 23 sec) 
select_counter is 408
Heartbeat CPU 0 instructions: 104000000 cycles: 75103469 heartbeat IPC: 1.41957 cumulative IPC: 1.34391 (Simulation time: 0 hr 33 min 42 sec) 
select_counter is 356
Heartbeat CPU 0 instructions: 105000001 cycles: 75875902 heartbeat IPC: 1.29461 cumulative IPC: 1.34337 (Simulation time: 0 hr 34 min 0 sec) 
select_counter is 346
Heartbeat CPU 0 instructions: 106000002 cycles: 76682775 heartbeat IPC: 1.23935 cumulative IPC: 1.3422 (Simulation time: 0 hr 34 min 19 sec) 
select_counter is 348
Heartbeat CPU 0 instructions: 107000003 cycles: 77459845 heartbeat IPC: 1.28689 cumulative IPC: 1.3416 (Simulation time: 0 hr 34 min 37 sec) 
select_counter is 332
Heartbeat CPU 0 instructions: 108000000 cycles: 78162853 heartbeat IPC: 1.42245 cumulative IPC: 1.34238 (Simulation time: 0 hr 34 min 54 sec) 
select_counter is 306
Heartbeat CPU 0 instructions: 109000001 cycles: 78869467 heartbeat IPC: 1.4152 cumulative IPC: 1.34308 (Simulation time: 0 hr 35 min 11 sec) 
select_counter is 293
Heartbeat CPU 0 instructions: 110000000 cycles: 79575734 heartbeat IPC: 1.41589 cumulative IPC: 1.34377 (Simulation time: 0 hr 35 min 28 sec) 
select_counter is 297
Finished CPU 0 instructions: 100000002 cycles: 74417428 cummulative IPC: 1.34377 (Simulation time: 0 hr 35 min 28 sec) 

ChampSim completed all CPUs

Region of Interest Statistics

CPU 0 cummulative IPC: 1.34377 instructions: 100000002 cycles: 74417428
LLC TOTAL     ACCESS:     631702  HIT:     307512  MISS:     324190
LLC LOAD      ACCESS:      35616  HIT:      12197  MISS:      23419
LLC RFO       ACCESS:     152065  HIT:      76444  MISS:      75621
LLC PREFETCH  ACCESS:     288221  HIT:      79505  MISS:     208716
LLC WRITEBACK ACCESS:     155800  HIT:     139366  MISS:      16434
Ship samples: 
17, 59, 78, 105, 147, 177, 211, 252, 259, 303, 351, 355, 392, 433, 468, 505, 522, 559, 587, 637, 651, 692, 722, 744, 793, 806, 859, 877, 925, 957, 985, 996, 1029, 1079, 1114, 1128, 1162, 1211, 1230, 1268, 1304, 1313, 1369, 1407, 1410, 1464, 1492, 1516, 1563, 1579, 1618, 1658, 1679, 1703, 1737, 1785, 1806, 1838, 1881, 1909, 1942, 1969, 2001, 2043, 
Lime duel samples: 
0, 47, 74, 118, 133, 179, 214, 227, 266, 296, 336, 356, 405, 436, 473, 507, 517, 565, 600, 632, 670, 687, 734, 753, 790, 823, 856, 873, 900, 958, 977, 1014, 1035, 1084, 1117, 1141, 1161, 1190, 1243, 1265, 1285, 1324, 1345, 1381, 1431, 1456, 1479, 1508, 1553, 1578, 1616, 1652, 1689, 1717, 1729, 1773, 1813, 1850, 1875, 1893, 1930, 1965, 1994, 2045, 
Lime samples: 
0, 133, 266, 405, 517, 670, 790, 900, 1035, 1161, 1285, 1431, 1553, 1689, 1813, 1930, 
Insertion Distribution: 
	LOAD 449 0 0 0 0 0 1267 2829 
	RFO 105 0 0 0 0 0 7867 21185 
	PREF 0 5127 0 0 0 0 22456 34609 
	WRITEBACK 0 0 0 0 0 0 0 14764 
Total Prefetch Downgrades: 4922
