
*** ChampSim Multicore Out-of-Order Simulator ***

Warmup Instructions: 10000000
Simulation Instructions: 100000000
Configuration: 2
Number of CPUs: 1
LLC sets: 2048
LLC ways: 16
Off-chip DRAM Channels: 1 Width: 64-bit Data Rate: 1600 MT/s

CPU 0 runs /datasets/cs240c-wi22-a00-public/data/Assignment2-gz/leslie3d_1116B.trace.gz
CPU 0 L1D next line prefetcher
CPU 0 L2C IP-based stride prefetcher
Heartbeat CPU 0 instructions: 1000003 cycles: 535311 heartbeat IPC: 1.86808 cumulative IPC: 1.86808 (Simulation time: 0 hr 0 min 24 sec) 
select_counter is 270
Heartbeat CPU 0 instructions: 2000003 cycles: 1071188 heartbeat IPC: 1.8661 cumulative IPC: 1.86709 (Simulation time: 0 hr 0 min 45 sec) 
select_counter is 280
Heartbeat CPU 0 instructions: 3000003 cycles: 1607882 heartbeat IPC: 1.86326 cumulative IPC: 1.86581 (Simulation time: 0 hr 1 min 5 sec) 
select_counter is 340
Heartbeat CPU 0 instructions: 4000000 cycles: 2143243 heartbeat IPC: 1.86789 cumulative IPC: 1.86633 (Simulation time: 0 hr 1 min 29 sec) 
select_counter is 374
Heartbeat CPU 0 instructions: 5000001 cycles: 2678333 heartbeat IPC: 1.86885 cumulative IPC: 1.86683 (Simulation time: 0 hr 1 min 51 sec) 
select_counter is 262
Heartbeat CPU 0 instructions: 6000001 cycles: 3213731 heartbeat IPC: 1.86777 cumulative IPC: 1.86699 (Simulation time: 0 hr 2 min 12 sec) 
select_counter is 187
Heartbeat CPU 0 instructions: 7000001 cycles: 3749695 heartbeat IPC: 1.8658 cumulative IPC: 1.86682 (Simulation time: 0 hr 2 min 39 sec) 
select_counter is 233
Heartbeat CPU 0 instructions: 8000000 cycles: 4285731 heartbeat IPC: 1.86554 cumulative IPC: 1.86666 (Simulation time: 0 hr 3 min 1 sec) 
select_counter is 227
Heartbeat CPU 0 instructions: 9000003 cycles: 4820856 heartbeat IPC: 1.86873 cumulative IPC: 1.86689 (Simulation time: 0 hr 3 min 22 sec) 
select_counter is 169
Heartbeat CPU 0 instructions: 10000002 cycles: 5355891 heartbeat IPC: 1.86903 cumulative IPC: 1.8671 (Simulation time: 0 hr 3 min 43 sec) 
select_counter is 151

Warmup complete CPU 0 instructions: 10000002 cycles: 5355891 (Simulation time: 0 hr 3 min 43 sec) 

Heartbeat CPU 0 instructions: 11000001 cycles: 6446950 heartbeat IPC: 0.91654 cumulative IPC: 0.91654 (Simulation time: 0 hr 4 min 7 sec) 
select_counter is 175
Heartbeat CPU 0 instructions: 12000000 cycles: 7499060 heartbeat IPC: 0.95047 cumulative IPC: 0.933197 (Simulation time: 0 hr 4 min 30 sec) 
select_counter is 111
Heartbeat CPU 0 instructions: 13000002 cycles: 8538574 heartbeat IPC: 0.96199 cumulative IPC: 0.942601 (Simulation time: 0 hr 4 min 53 sec) 
select_counter is 21
Heartbeat CPU 0 instructions: 14000003 cycles: 9585321 heartbeat IPC: 0.955342 cumulative IPC: 0.945754 (Simulation time: 0 hr 5 min 16 sec) 
select_counter is 451
Heartbeat CPU 0 instructions: 15000000 cycles: 10650438 heartbeat IPC: 0.938861 cumulative IPC: 0.944367 (Simulation time: 0 hr 5 min 39 sec) 
select_counter is 387
Heartbeat CPU 0 instructions: 16000000 cycles: 11713550 heartbeat IPC: 0.940635 cumulative IPC: 0.943743 (Simulation time: 0 hr 6 min 1 sec) 
select_counter is 324
Heartbeat CPU 0 instructions: 17000003 cycles: 12741242 heartbeat IPC: 0.973057 cumulative IPC: 0.947822 (Simulation time: 0 hr 6 min 24 sec) 
select_counter is 206
Heartbeat CPU 0 instructions: 18000001 cycles: 13822333 heartbeat IPC: 0.92499 cumulative IPC: 0.944907 (Simulation time: 0 hr 6 min 48 sec) 
select_counter is 113
Heartbeat CPU 0 instructions: 19000001 cycles: 14909944 heartbeat IPC: 0.919446 cumulative IPC: 0.942008 (Simulation time: 0 hr 7 min 11 sec) 
select_counter is 49
Heartbeat CPU 0 instructions: 20000000 cycles: 15977142 heartbeat IPC: 0.937032 cumulative IPC: 0.941508 (Simulation time: 0 hr 7 min 34 sec) 
select_counter is 463
Heartbeat CPU 0 instructions: 21000000 cycles: 17040111 heartbeat IPC: 0.940761 cumulative IPC: 0.941441 (Simulation time: 0 hr 7 min 58 sec) 
select_counter is 374
Heartbeat CPU 0 instructions: 22000000 cycles: 18099653 heartbeat IPC: 0.943804 cumulative IPC: 0.941637 (Simulation time: 0 hr 8 min 22 sec) 
select_counter is 290
Heartbeat CPU 0 instructions: 23000003 cycles: 19163693 heartbeat IPC: 0.939817 cumulative IPC: 0.941497 (Simulation time: 0 hr 8 min 46 sec) 
select_counter is 198
Heartbeat CPU 0 instructions: 24000000 cycles: 20243479 heartbeat IPC: 0.926107 cumulative IPC: 0.940381 (Simulation time: 0 hr 9 min 10 sec) 
select_counter is 113
Heartbeat CPU 0 instructions: 25000001 cycles: 21316181 heartbeat IPC: 0.932226 cumulative IPC: 0.939833 (Simulation time: 0 hr 9 min 33 sec) 
select_counter is 39
Heartbeat CPU 0 instructions: 26000002 cycles: 22406729 heartbeat IPC: 0.916971 cumulative IPC: 0.93837 (Simulation time: 0 hr 9 min 56 sec) 
select_counter is 426
Heartbeat CPU 0 instructions: 27000001 cycles: 23454876 heartbeat IPC: 0.954064 cumulative IPC: 0.939279 (Simulation time: 0 hr 10 min 20 sec) 
select_counter is 308
Heartbeat CPU 0 instructions: 28000000 cycles: 24496628 heartbeat IPC: 0.95992 cumulative IPC: 0.940403 (Simulation time: 0 hr 10 min 42 sec) 
select_counter is 203
Heartbeat CPU 0 instructions: 29000003 cycles: 25561857 heartbeat IPC: 0.938768 cumulative IPC: 0.940316 (Simulation time: 0 hr 11 min 7 sec) 
select_counter is 104
Heartbeat CPU 0 instructions: 30000002 cycles: 26678276 heartbeat IPC: 0.89572 cumulative IPC: 0.937981 (Simulation time: 0 hr 11 min 30 sec) 
select_counter is 506
Heartbeat CPU 0 instructions: 31000001 cycles: 27739702 heartbeat IPC: 0.942128 cumulative IPC: 0.938178 (Simulation time: 0 hr 11 min 53 sec) 
select_counter is 378
Heartbeat CPU 0 instructions: 32000000 cycles: 28778883 heartbeat IPC: 0.962295 cumulative IPC: 0.939248 (Simulation time: 0 hr 12 min 15 sec) 
select_counter is 281
Heartbeat CPU 0 instructions: 33000002 cycles: 29838928 heartbeat IPC: 0.943358 cumulative IPC: 0.939426 (Simulation time: 0 hr 12 min 39 sec) 
select_counter is 179
Heartbeat CPU 0 instructions: 34000002 cycles: 30935044 heartbeat IPC: 0.912312 cumulative IPC: 0.938264 (Simulation time: 0 hr 13 min 3 sec) 
select_counter is 70
Heartbeat CPU 0 instructions: 35000000 cycles: 32024882 heartbeat IPC: 0.917566 cumulative IPC: 0.937418 (Simulation time: 0 hr 13 min 26 sec) 
select_counter is 446
Heartbeat CPU 0 instructions: 36000000 cycles: 33079621 heartbeat IPC: 0.948102 cumulative IPC: 0.937825 (Simulation time: 0 hr 13 min 49 sec) 
select_counter is 332
Heartbeat CPU 0 instructions: 37000003 cycles: 34490317 heartbeat IPC: 0.708872 cumulative IPC: 0.926739 (Simulation time: 0 hr 14 min 15 sec) 
select_counter is 363
Heartbeat CPU 0 instructions: 38000003 cycles: 36096784 heartbeat IPC: 0.622484 cumulative IPC: 0.910839 (Simulation time: 0 hr 14 min 39 sec) 
select_counter is 509
Heartbeat CPU 0 instructions: 39000003 cycles: 37722748 heartbeat IPC: 0.61502 cumulative IPC: 0.895978 (Simulation time: 0 hr 15 min 3 sec) 
select_counter is 511
Heartbeat CPU 0 instructions: 40000000 cycles: 39358383 heartbeat IPC: 0.611382 cumulative IPC: 0.882288 (Simulation time: 0 hr 15 min 28 sec) 
select_counter is 509
Heartbeat CPU 0 instructions: 41000002 cycles: 40972148 heartbeat IPC: 0.61967 cumulative IPC: 0.870389 (Simulation time: 0 hr 15 min 52 sec) 
select_counter is 511
Heartbeat CPU 0 instructions: 42000001 cycles: 42587411 heartbeat IPC: 0.619094 cumulative IPC: 0.859487 (Simulation time: 0 hr 16 min 17 sec) 
select_counter is 511
Heartbeat CPU 0 instructions: 43000003 cycles: 44177985 heartbeat IPC: 0.628705 cumulative IPC: 0.850031 (Simulation time: 0 hr 16 min 41 sec) 
select_counter is 510
Heartbeat CPU 0 instructions: 44000000 cycles: 45779094 heartbeat IPC: 0.624565 cumulative IPC: 0.841101 (Simulation time: 0 hr 17 min 6 sec) 
select_counter is 495
Heartbeat CPU 0 instructions: 45000002 cycles: 47370477 heartbeat IPC: 0.628385 cumulative IPC: 0.833044 (Simulation time: 0 hr 17 min 30 sec) 
select_counter is 509
Heartbeat CPU 0 instructions: 46000002 cycles: 48974599 heartbeat IPC: 0.623394 cumulative IPC: 0.825334 (Simulation time: 0 hr 17 min 56 sec) 
select_counter is 484
Heartbeat CPU 0 instructions: 47000001 cycles: 50581615 heartbeat IPC: 0.622271 cumulative IPC: 0.818118 (Simulation time: 0 hr 18 min 21 sec) 
select_counter is 489
Heartbeat CPU 0 instructions: 48000000 cycles: 52197835 heartbeat IPC: 0.618727 cumulative IPC: 0.811239 (Simulation time: 0 hr 18 min 45 sec) 
select_counter is 483
Heartbeat CPU 0 instructions: 49000000 cycles: 54402049 heartbeat IPC: 0.453676 cumulative IPC: 0.795169 (Simulation time: 0 hr 19 min 13 sec) 
select_counter is 507
Heartbeat CPU 0 instructions: 50000000 cycles: 56921683 heartbeat IPC: 0.396883 cumulative IPC: 0.775708 (Simulation time: 0 hr 19 min 43 sec) 
select_counter is 476
Heartbeat CPU 0 instructions: 51000003 cycles: 59381637 heartbeat IPC: 0.406513 cumulative IPC: 0.758897 (Simulation time: 0 hr 20 min 11 sec) 
select_counter is 510
Heartbeat CPU 0 instructions: 52000000 cycles: 61857462 heartbeat IPC: 0.403905 cumulative IPC: 0.743342 (Simulation time: 0 hr 20 min 40 sec) 
select_counter is 511
Heartbeat CPU 0 instructions: 53000003 cycles: 64336358 heartbeat IPC: 0.403407 cumulative IPC: 0.729055 (Simulation time: 0 hr 21 min 8 sec) 
select_counter is 478
Heartbeat CPU 0 instructions: 54000000 cycles: 66682589 heartbeat IPC: 0.426214 cumulative IPC: 0.717469 (Simulation time: 0 hr 21 min 40 sec) 
select_counter is 506
Heartbeat CPU 0 instructions: 55000002 cycles: 69013191 heartbeat IPC: 0.429075 cumulative IPC: 0.70691 (Simulation time: 0 hr 22 min 11 sec) 
select_counter is 509
Heartbeat CPU 0 instructions: 56000000 cycles: 71397549 heartbeat IPC: 0.419399 cumulative IPC: 0.69653 (Simulation time: 0 hr 22 min 45 sec) 
select_counter is 505
Heartbeat CPU 0 instructions: 57000001 cycles: 73763548 heartbeat IPC: 0.422655 cumulative IPC: 0.687058 (Simulation time: 0 hr 23 min 18 sec) 
select_counter is 480
Heartbeat CPU 0 instructions: 58000001 cycles: 76038057 heartbeat IPC: 0.439655 cumulative IPC: 0.679096 (Simulation time: 0 hr 23 min 50 sec) 
select_counter is 420
Heartbeat CPU 0 instructions: 59000000 cycles: 77345188 heartbeat IPC: 0.765033 cumulative IPC: 0.680657 (Simulation time: 0 hr 24 min 16 sec) 
select_counter is 371
Heartbeat CPU 0 instructions: 60000000 cycles: 78651036 heartbeat IPC: 0.765786 cumulative IPC: 0.682173 (Simulation time: 0 hr 24 min 43 sec) 
select_counter is 403
Heartbeat CPU 0 instructions: 61000000 cycles: 80015770 heartbeat IPC: 0.732744 cumulative IPC: 0.683098 (Simulation time: 0 hr 25 min 9 sec) 
select_counter is 473
Heartbeat CPU 0 instructions: 62000002 cycles: 81417046 heartbeat IPC: 0.713637 cumulative IPC: 0.68366 (Simulation time: 0 hr 25 min 35 sec) 
select_counter is 420
Heartbeat CPU 0 instructions: 63000003 cycles: 82661566 heartbeat IPC: 0.803523 cumulative IPC: 0.68559 (Simulation time: 0 hr 26 min 1 sec) 
select_counter is 374
Heartbeat CPU 0 instructions: 64000000 cycles: 83920648 heartbeat IPC: 0.794227 cumulative IPC: 0.687331 (Simulation time: 0 hr 26 min 27 sec) 
select_counter is 368
Heartbeat CPU 0 instructions: 65000001 cycles: 85391286 heartbeat IPC: 0.679978 cumulative IPC: 0.687196 (Simulation time: 0 hr 26 min 52 sec) 
select_counter is 457
Heartbeat CPU 0 instructions: 66000000 cycles: 86615554 heartbeat IPC: 0.816814 cumulative IPC: 0.689149 (Simulation time: 0 hr 27 min 19 sec) 
select_counter is 429
Heartbeat CPU 0 instructions: 67000001 cycles: 87858377 heartbeat IPC: 0.804621 cumulative IPC: 0.690888 (Simulation time: 0 hr 27 min 44 sec) 
select_counter is 428
Heartbeat CPU 0 instructions: 68000000 cycles: 89268579 heartbeat IPC: 0.709118 cumulative IPC: 0.691195 (Simulation time: 0 hr 28 min 9 sec) 
select_counter is 467
Heartbeat CPU 0 instructions: 69000002 cycles: 90568027 heartbeat IPC: 0.769559 cumulative IPC: 0.69239 (Simulation time: 0 hr 28 min 35 sec) 
select_counter is 465
Heartbeat CPU 0 instructions: 70000000 cycles: 91780307 heartbeat IPC: 0.82489 cumulative IPC: 0.694248 (Simulation time: 0 hr 29 min 0 sec) 
select_counter is 453
Heartbeat CPU 0 instructions: 71000002 cycles: 93016090 heartbeat IPC: 0.809205 cumulative IPC: 0.695869 (Simulation time: 0 hr 29 min 24 sec) 
select_counter is 444
Heartbeat CPU 0 instructions: 72000000 cycles: 94454323 heartbeat IPC: 0.695296 cumulative IPC: 0.69586 (Simulation time: 0 hr 29 min 48 sec) 
select_counter is 414
Heartbeat CPU 0 instructions: 73000000 cycles: 95688106 heartbeat IPC: 0.810515 cumulative IPC: 0.697426 (Simulation time: 0 hr 30 min 13 sec) 
select_counter is 392
Heartbeat CPU 0 instructions: 74000000 cycles: 96911822 heartbeat IPC: 0.817183 cumulative IPC: 0.699026 (Simulation time: 0 hr 30 min 37 sec) 
select_counter is 389
Heartbeat CPU 0 instructions: 75000002 cycles: 98360541 heartbeat IPC: 0.690266 cumulative IPC: 0.69889 (Simulation time: 0 hr 31 min 3 sec) 
select_counter is 357
Heartbeat CPU 0 instructions: 76000000 cycles: 99581943 heartbeat IPC: 0.81873 cumulative IPC: 0.700443 (Simulation time: 0 hr 31 min 28 sec) 
select_counter is 326
Heartbeat CPU 0 instructions: 77000001 cycles: 100792034 heartbeat IPC: 0.826385 cumulative IPC: 0.70204 (Simulation time: 0 hr 31 min 56 sec) 
select_counter is 306
Heartbeat CPU 0 instructions: 78000000 cycles: 102102594 heartbeat IPC: 0.763032 cumulative IPC: 0.702866 (Simulation time: 0 hr 32 min 21 sec) 
select_counter is 260
Heartbeat CPU 0 instructions: 79000001 cycles: 103454006 heartbeat IPC: 0.739968 cumulative IPC: 0.703377 (Simulation time: 0 hr 32 min 45 sec) 
select_counter is 218
Heartbeat CPU 0 instructions: 80000000 cycles: 104676878 heartbeat IPC: 0.817746 cumulative IPC: 0.704786 (Simulation time: 0 hr 33 min 9 sec) 
select_counter is 186
Heartbeat CPU 0 instructions: 81000003 cycles: 105893144 heartbeat IPC: 0.822191 cumulative IPC: 0.706206 (Simulation time: 0 hr 33 min 33 sec) 
select_counter is 188
Heartbeat CPU 0 instructions: 82000000 cycles: 107393322 heartbeat IPC: 0.666586 cumulative IPC: 0.705623 (Simulation time: 0 hr 33 min 56 sec) 
select_counter is 137
Heartbeat CPU 0 instructions: 83000001 cycles: 108597882 heartbeat IPC: 0.83018 cumulative IPC: 0.707077 (Simulation time: 0 hr 34 min 19 sec) 
select_counter is 102
Heartbeat CPU 0 instructions: 84000000 cycles: 109799478 heartbeat IPC: 0.832226 cumulative IPC: 0.708516 (Simulation time: 0 hr 34 min 41 sec) 
select_counter is 66
Heartbeat CPU 0 instructions: 85000003 cycles: 111230560 heartbeat IPC: 0.698774 cumulative IPC: 0.708385 (Simulation time: 0 hr 35 min 3 sec) 
select_counter is 19
Heartbeat CPU 0 instructions: 86000002 cycles: 112441774 heartbeat IPC: 0.825617 cumulative IPC: 0.709711 (Simulation time: 0 hr 35 min 25 sec) 
select_counter is 479
Heartbeat CPU 0 instructions: 87000001 cycles: 113632236 heartbeat IPC: 0.840009 cumulative IPC: 0.711143 (Simulation time: 0 hr 35 min 45 sec) 
select_counter is 451
Heartbeat CPU 0 instructions: 88000000 cycles: 114848396 heartbeat IPC: 0.822259 cumulative IPC: 0.712377 (Simulation time: 0 hr 36 min 6 sec) 
select_counter is 420
Heartbeat CPU 0 instructions: 89000001 cycles: 116242282 heartbeat IPC: 0.71742 cumulative IPC: 0.712441 (Simulation time: 0 hr 36 min 25 sec) 
select_counter is 348
Heartbeat CPU 0 instructions: 90000003 cycles: 117442246 heartbeat IPC: 0.83336 cumulative IPC: 0.713735 (Simulation time: 0 hr 36 min 45 sec) 
select_counter is 316
Heartbeat CPU 0 instructions: 91000000 cycles: 118652356 heartbeat IPC: 0.826369 cumulative IPC: 0.714938 (Simulation time: 0 hr 37 min 5 sec) 
select_counter is 287
Heartbeat CPU 0 instructions: 92000000 cycles: 120070880 heartbeat IPC: 0.704958 cumulative IPC: 0.714815 (Simulation time: 0 hr 37 min 23 sec) 
select_counter is 238
Heartbeat CPU 0 instructions: 93000002 cycles: 121276044 heartbeat IPC: 0.829764 cumulative IPC: 0.71601 (Simulation time: 0 hr 37 min 41 sec) 
select_counter is 177
Heartbeat CPU 0 instructions: 94000000 cycles: 122490792 heartbeat IPC: 0.823214 cumulative IPC: 0.717122 (Simulation time: 0 hr 37 min 59 sec) 
select_counter is 120
Heartbeat CPU 0 instructions: 95000003 cycles: 123830997 heartbeat IPC: 0.746157 cumulative IPC: 0.71745 (Simulation time: 0 hr 38 min 16 sec) 
select_counter is 66
Heartbeat CPU 0 instructions: 96000000 cycles: 125153743 heartbeat IPC: 0.756001 cumulative IPC: 0.717876 (Simulation time: 0 hr 38 min 32 sec) 
select_counter is 491
Heartbeat CPU 0 instructions: 97000000 cycles: 126338973 heartbeat IPC: 0.843718 cumulative IPC: 0.719109 (Simulation time: 0 hr 38 min 48 sec) 
select_counter is 416
Heartbeat CPU 0 instructions: 98000000 cycles: 127543875 heartbeat IPC: 0.829943 cumulative IPC: 0.720202 (Simulation time: 0 hr 39 min 4 sec) 
select_counter is 365
Heartbeat CPU 0 instructions: 99000003 cycles: 128949169 heartbeat IPC: 0.711597 cumulative IPC: 0.720104 (Simulation time: 0 hr 39 min 20 sec) 
select_counter is 335
Heartbeat CPU 0 instructions: 100000000 cycles: 130161109 heartbeat IPC: 0.825121 cumulative IPC: 0.721124 (Simulation time: 0 hr 39 min 35 sec) 
select_counter is 254
Heartbeat CPU 0 instructions: 101000001 cycles: 131369810 heartbeat IPC: 0.827335 cumulative IPC: 0.722142 (Simulation time: 0 hr 39 min 50 sec) 
select_counter is 189
Heartbeat CPU 0 instructions: 102000003 cycles: 132787520 heartbeat IPC: 0.705364 cumulative IPC: 0.721956 (Simulation time: 0 hr 40 min 4 sec) 
select_counter is 155
Heartbeat CPU 0 instructions: 103000002 cycles: 134004489 heartbeat IPC: 0.821713 cumulative IPC: 0.722899 (Simulation time: 0 hr 40 min 19 sec) 
select_counter is 63
Heartbeat CPU 0 instructions: 104000000 cycles: 135221922 heartbeat IPC: 0.821399 cumulative IPC: 0.723823 (Simulation time: 0 hr 40 min 33 sec) 
select_counter is 502
Heartbeat CPU 0 instructions: 105000000 cycles: 136457381 heartbeat IPC: 0.809416 cumulative IPC: 0.724629 (Simulation time: 0 hr 40 min 47 sec) 
select_counter is 437
Heartbeat CPU 0 instructions: 106000003 cycles: 138340918 heartbeat IPC: 0.530918 cumulative IPC: 0.721886 (Simulation time: 0 hr 41 min 2 sec) 
select_counter is 463
Heartbeat CPU 0 instructions: 107000002 cycles: 140331779 heartbeat IPC: 0.502295 cumulative IPC: 0.718647 (Simulation time: 0 hr 41 min 17 sec) 
select_counter is 508
Heartbeat CPU 0 instructions: 108000000 cycles: 142391553 heartbeat IPC: 0.485489 cumulative IPC: 0.715142 (Simulation time: 0 hr 41 min 32 sec) 
select_counter is 508
Heartbeat CPU 0 instructions: 109000003 cycles: 144481697 heartbeat IPC: 0.478437 cumulative IPC: 0.711586 (Simulation time: 0 hr 41 min 47 sec) 
select_counter is 468
Heartbeat CPU 0 instructions: 110000003 cycles: 146485005 heartbeat IPC: 0.499174 cumulative IPC: 0.708571 (Simulation time: 0 hr 42 min 2 sec) 
select_counter is 375
Finished CPU 0 instructions: 100000001 cycles: 141129114 cummulative IPC: 0.708571 (Simulation time: 0 hr 42 min 2 sec) 

ChampSim completed all CPUs

Region of Interest Statistics

CPU 0 cummulative IPC: 0.708571 instructions: 100000001 cycles: 141129114
LLC TOTAL     ACCESS:    3583713  HIT:     974466  MISS:    2609247
LLC LOAD      ACCESS:     296720  HIT:      44941  MISS:     251779
LLC RFO       ACCESS:     622464  HIT:     116468  MISS:     505996
LLC PREFETCH  ACCESS:    1901233  HIT:     210766  MISS:    1690467
LLC WRITEBACK ACCESS:     763296  HIT:     602291  MISS:     161005
Ship samples: 
14, 63, 93, 98, 154, 172, 195, 255, 287, 319, 342, 364, 410, 444, 458, 501, 528, 571, 595, 620, 651, 694, 721, 764, 776, 801, 838, 870, 917, 956, 976, 1015, 1030, 1069, 1104, 1127, 1169, 1194, 1234, 1268, 1282, 1337, 1346, 1385, 1409, 1462, 1495, 1522, 1536, 1591, 1625, 1645, 1691, 1710, 1758, 1768, 1815, 1832, 1856, 1904, 1943, 1971, 2003, 2028, 
Lime duel samples: 
26, 34, 67, 126, 159, 174, 200, 249, 269, 306, 336, 363, 391, 424, 475, 494, 536, 565, 589, 637, 653, 696, 718, 757, 785, 827, 862, 877, 897, 930, 991, 1009, 1024, 1075, 1113, 1145, 1180, 1213, 1219, 1254, 1306, 1333, 1352, 1407, 1431, 1445, 1490, 1517, 1565, 1568, 1617, 1662, 1675, 1719, 1741, 1762, 1792, 1825, 1881, 1906, 1921, 1958, 1998, 2022, 
Lime samples: 
26, 159, 269, 391, 536, 653, 785, 897, 1024, 1180, 1306, 1431, 1565, 1675, 1792, 1921, 
Insertion Distribution: 
	LOAD 4429 0 0 0 0 0 2397 42858 
	RFO 312 0 0 0 0 0 11842 65388 
	PREF 0 8874 0 0 0 0 44368 424368 
	WRITEBACK 0 0 0 0 0 0 0 100854 
Total Prefetch Downgrades: 7699
