
*** ChampSim Multicore Out-of-Order Simulator ***

Warmup Instructions: 10000000
Simulation Instructions: 100000000
Configuration: 2
Number of CPUs: 1
LLC sets: 2048
LLC ways: 16
Off-chip DRAM Channels: 1 Width: 64-bit Data Rate: 1600 MT/s

CPU 0 runs /datasets/cs240c-wi22-a00-public/data/Assignment2-gz/omnetpp_17B.trace.gz
CPU 0 L1D next line prefetcher
CPU 0 L2C IP-based stride prefetcher
Heartbeat CPU 0 instructions: 1000000 cycles: 559567 heartbeat IPC: 1.7871 cumulative IPC: 1.7871 (Simulation time: 0 hr 0 min 20 sec) 
select_counter is 638
Heartbeat CPU 0 instructions: 2000002 cycles: 1133679 heartbeat IPC: 1.74182 cumulative IPC: 1.76417 (Simulation time: 0 hr 0 min 40 sec) 
select_counter is 516
Heartbeat CPU 0 instructions: 3000001 cycles: 1769066 heartbeat IPC: 1.57384 cumulative IPC: 1.69581 (Simulation time: 0 hr 0 min 59 sec) 
select_counter is 566
Heartbeat CPU 0 instructions: 4000000 cycles: 2333882 heartbeat IPC: 1.77049 cumulative IPC: 1.71388 (Simulation time: 0 hr 1 min 19 sec) 
select_counter is 623
Heartbeat CPU 0 instructions: 5000002 cycles: 2892808 heartbeat IPC: 1.78915 cumulative IPC: 1.72843 (Simulation time: 0 hr 1 min 38 sec) 
select_counter is 687
Heartbeat CPU 0 instructions: 6000000 cycles: 3471302 heartbeat IPC: 1.72862 cumulative IPC: 1.72846 (Simulation time: 0 hr 1 min 57 sec) 
select_counter is 584
Heartbeat CPU 0 instructions: 7000000 cycles: 4035572 heartbeat IPC: 1.7722 cumulative IPC: 1.73457 (Simulation time: 0 hr 2 min 17 sec) 
select_counter is 844
Heartbeat CPU 0 instructions: 8000000 cycles: 4697305 heartbeat IPC: 1.51118 cumulative IPC: 1.7031 (Simulation time: 0 hr 2 min 34 sec) 
select_counter is 845
Heartbeat CPU 0 instructions: 9000000 cycles: 5359110 heartbeat IPC: 1.51102 cumulative IPC: 1.67938 (Simulation time: 0 hr 2 min 50 sec) 
select_counter is 846
Heartbeat CPU 0 instructions: 10000001 cycles: 6020679 heartbeat IPC: 1.51156 cumulative IPC: 1.66094 (Simulation time: 0 hr 3 min 6 sec) 
select_counter is 845

Warmup complete CPU 0 instructions: 10000001 cycles: 6020679 (Simulation time: 0 hr 3 min 6 sec) 

Heartbeat CPU 0 instructions: 11000001 cycles: 7065495 heartbeat IPC: 0.957106 cumulative IPC: 0.957106 (Simulation time: 0 hr 3 min 23 sec) 
select_counter is 849
Heartbeat CPU 0 instructions: 12000000 cycles: 8110038 heartbeat IPC: 0.957355 cumulative IPC: 0.957231 (Simulation time: 0 hr 3 min 39 sec) 
select_counter is 851
Heartbeat CPU 0 instructions: 13000000 cycles: 9179950 heartbeat IPC: 0.934656 cumulative IPC: 0.949586 (Simulation time: 0 hr 3 min 56 sec) 
select_counter is 848
Heartbeat CPU 0 instructions: 14000001 cycles: 10224201 heartbeat IPC: 0.957625 cumulative IPC: 0.951583 (Simulation time: 0 hr 4 min 13 sec) 
select_counter is 847
Heartbeat CPU 0 instructions: 15000000 cycles: 11268409 heartbeat IPC: 0.957663 cumulative IPC: 0.952793 (Simulation time: 0 hr 4 min 30 sec) 
select_counter is 847
Heartbeat CPU 0 instructions: 16000000 cycles: 12312576 heartbeat IPC: 0.957701 cumulative IPC: 0.953607 (Simulation time: 0 hr 4 min 47 sec) 
select_counter is 846
Heartbeat CPU 0 instructions: 17000000 cycles: 13358113 heartbeat IPC: 0.956446 cumulative IPC: 0.954012 (Simulation time: 0 hr 5 min 4 sec) 
select_counter is 846
Heartbeat CPU 0 instructions: 18000001 cycles: 14399457 heartbeat IPC: 0.960298 cumulative IPC: 0.954793 (Simulation time: 0 hr 5 min 21 sec) 
select_counter is 845
Heartbeat CPU 0 instructions: 19000002 cycles: 15434267 heartbeat IPC: 0.966362 cumulative IPC: 0.956065 (Simulation time: 0 hr 5 min 38 sec) 
select_counter is 841
Heartbeat CPU 0 instructions: 20000000 cycles: 18757432 heartbeat IPC: 0.300917 cumulative IPC: 0.785129 (Simulation time: 0 hr 6 min 1 sec) 
select_counter is 779
Heartbeat CPU 0 instructions: 21000000 cycles: 21268601 heartbeat IPC: 0.398221 cumulative IPC: 0.72141 (Simulation time: 0 hr 6 min 21 sec) 
select_counter is 583
Heartbeat CPU 0 instructions: 22000002 cycles: 23088205 heartbeat IPC: 0.549571 cumulative IPC: 0.70309 (Simulation time: 0 hr 6 min 39 sec) 
select_counter is 752
Heartbeat CPU 0 instructions: 23000000 cycles: 26375095 heartbeat IPC: 0.304238 cumulative IPC: 0.638682 (Simulation time: 0 hr 7 min 2 sec) 
select_counter is 835
Heartbeat CPU 0 instructions: 24000000 cycles: 29667514 heartbeat IPC: 0.303728 cumulative IPC: 0.592045 (Simulation time: 0 hr 7 min 27 sec) 
select_counter is 805
Heartbeat CPU 0 instructions: 25000001 cycles: 32327357 heartbeat IPC: 0.375962 cumulative IPC: 0.570197 (Simulation time: 0 hr 7 min 49 sec) 
select_counter is 741
Heartbeat CPU 0 instructions: 26000001 cycles: 33991354 heartbeat IPC: 0.600963 cumulative IPC: 0.572028 (Simulation time: 0 hr 8 min 8 sec) 
select_counter is 757
Heartbeat CPU 0 instructions: 27000000 cycles: 37283599 heartbeat IPC: 0.303744 cumulative IPC: 0.543775 (Simulation time: 0 hr 8 min 32 sec) 
select_counter is 697
Heartbeat CPU 0 instructions: 28000000 cycles: 40582846 heartbeat IPC: 0.303099 cumulative IPC: 0.520801 (Simulation time: 0 hr 8 min 57 sec) 
select_counter is 621
Heartbeat CPU 0 instructions: 29000000 cycles: 43417857 heartbeat IPC: 0.352732 cumulative IPC: 0.50806 (Simulation time: 0 hr 9 min 25 sec) 
select_counter is 590
Heartbeat CPU 0 instructions: 30000000 cycles: 44910332 heartbeat IPC: 0.670028 cumulative IPC: 0.514276 (Simulation time: 0 hr 9 min 43 sec) 
select_counter is 566
Heartbeat CPU 0 instructions: 31000000 cycles: 48122152 heartbeat IPC: 0.31135 cumulative IPC: 0.498795 (Simulation time: 0 hr 10 min 5 sec) 
select_counter is 513
Heartbeat CPU 0 instructions: 32000000 cycles: 51330377 heartbeat IPC: 0.311699 cumulative IPC: 0.485547 (Simulation time: 0 hr 10 min 27 sec) 
select_counter is 450
Heartbeat CPU 0 instructions: 33000001 cycles: 54282862 heartbeat IPC: 0.338698 cumulative IPC: 0.476564 (Simulation time: 0 hr 10 min 50 sec) 
select_counter is 422
Heartbeat CPU 0 instructions: 34000000 cycles: 55574976 heartbeat IPC: 0.773925 cumulative IPC: 0.484317 (Simulation time: 0 hr 11 min 8 sec) 
select_counter is 398
Heartbeat CPU 0 instructions: 35000003 cycles: 58778042 heartbeat IPC: 0.312202 cumulative IPC: 0.473868 (Simulation time: 0 hr 11 min 31 sec) 
select_counter is 329
Heartbeat CPU 0 instructions: 36000000 cycles: 62031509 heartbeat IPC: 0.307364 cumulative IPC: 0.464196 (Simulation time: 0 hr 11 min 54 sec) 
select_counter is 257
Heartbeat CPU 0 instructions: 37000001 cycles: 64882209 heartbeat IPC: 0.350791 cumulative IPC: 0.458704 (Simulation time: 0 hr 12 min 16 sec) 
select_counter is 233
Heartbeat CPU 0 instructions: 38000000 cycles: 66282121 heartbeat IPC: 0.71433 cumulative IPC: 0.464642 (Simulation time: 0 hr 12 min 38 sec) 
select_counter is 204
Heartbeat CPU 0 instructions: 39000000 cycles: 69490624 heartbeat IPC: 0.311672 cumulative IPC: 0.456909 (Simulation time: 0 hr 13 min 2 sec) 
select_counter is 167
Heartbeat CPU 0 instructions: 40000000 cycles: 72707470 heartbeat IPC: 0.310863 cumulative IPC: 0.449864 (Simulation time: 0 hr 13 min 25 sec) 
select_counter is 125
Heartbeat CPU 0 instructions: 41000002 cycles: 75457689 heartbeat IPC: 0.363608 cumulative IPC: 0.446448 (Simulation time: 0 hr 13 min 46 sec) 
select_counter is 116
Heartbeat CPU 0 instructions: 42000000 cycles: 76951248 heartbeat IPC: 0.66954 cumulative IPC: 0.451145 (Simulation time: 0 hr 14 min 6 sec) 
select_counter is 87
Heartbeat CPU 0 instructions: 43000003 cycles: 82298691 heartbeat IPC: 0.187006 cumulative IPC: 0.432628 (Simulation time: 0 hr 14 min 37 sec) 
select_counter is 991
Heartbeat CPU 0 instructions: 44000000 cycles: 83345425 heartbeat IPC: 0.95535 cumulative IPC: 0.439704 (Simulation time: 0 hr 14 min 53 sec) 
select_counter is 991
Heartbeat CPU 0 instructions: 45000003 cycles: 84388205 heartbeat IPC: 0.958978 cumulative IPC: 0.446614 (Simulation time: 0 hr 15 min 12 sec) 
select_counter is 995
Heartbeat CPU 0 instructions: 46000001 cycles: 85431272 heartbeat IPC: 0.958709 cumulative IPC: 0.45334 (Simulation time: 0 hr 15 min 29 sec) 
select_counter is 993
Heartbeat CPU 0 instructions: 47000001 cycles: 86475807 heartbeat IPC: 0.957364 cumulative IPC: 0.459884 (Simulation time: 0 hr 15 min 49 sec) 
select_counter is 994
Heartbeat CPU 0 instructions: 48000000 cycles: 87519005 heartbeat IPC: 0.95859 cumulative IPC: 0.466267 (Simulation time: 0 hr 16 min 5 sec) 
select_counter is 994
Heartbeat CPU 0 instructions: 49000000 cycles: 88560811 heartbeat IPC: 0.959872 cumulative IPC: 0.472497 (Simulation time: 0 hr 16 min 22 sec) 
select_counter is 996
Heartbeat CPU 0 instructions: 50000000 cycles: 89603810 heartbeat IPC: 0.958774 cumulative IPC: 0.478565 (Simulation time: 0 hr 16 min 40 sec) 
select_counter is 995
Heartbeat CPU 0 instructions: 51000002 cycles: 90646698 heartbeat IPC: 0.958878 cumulative IPC: 0.484485 (Simulation time: 0 hr 16 min 58 sec) 
select_counter is 996
Heartbeat CPU 0 instructions: 52000000 cycles: 91690937 heartbeat IPC: 0.957633 cumulative IPC: 0.490252 (Simulation time: 0 hr 17 min 16 sec) 
select_counter is 996
Heartbeat CPU 0 instructions: 53000001 cycles: 92733409 heartbeat IPC: 0.959259 cumulative IPC: 0.49589 (Simulation time: 0 hr 17 min 35 sec) 
select_counter is 997
Heartbeat CPU 0 instructions: 54000002 cycles: 93801554 heartbeat IPC: 0.936203 cumulative IPC: 0.501248 (Simulation time: 0 hr 17 min 54 sec) 
select_counter is 999
Heartbeat CPU 0 instructions: 55000003 cycles: 94841829 heartbeat IPC: 0.961285 cumulative IPC: 0.506636 (Simulation time: 0 hr 18 min 12 sec) 
select_counter is 997
Heartbeat CPU 0 instructions: 56000000 cycles: 97113184 heartbeat IPC: 0.440265 cumulative IPC: 0.504981 (Simulation time: 0 hr 18 min 32 sec) 
select_counter is 918
Heartbeat CPU 0 instructions: 57000003 cycles: 99158027 heartbeat IPC: 0.489037 cumulative IPC: 0.504631 (Simulation time: 0 hr 18 min 54 sec) 
select_counter is 936
Heartbeat CPU 0 instructions: 58000000 cycles: 102471987 heartbeat IPC: 0.301753 cumulative IPC: 0.49766 (Simulation time: 0 hr 19 min 19 sec) 
select_counter is 866
Heartbeat CPU 0 instructions: 59000003 cycles: 105774365 heartbeat IPC: 0.302813 cumulative IPC: 0.49121 (Simulation time: 0 hr 19 min 46 sec) 
select_counter is 800
Heartbeat CPU 0 instructions: 60000000 cycles: 108217368 heartbeat IPC: 0.409331 cumulative IPC: 0.489253 (Simulation time: 0 hr 20 min 12 sec) 
select_counter is 711
Heartbeat CPU 0 instructions: 61000001 cycles: 110100699 heartbeat IPC: 0.530975 cumulative IPC: 0.490008 (Simulation time: 0 hr 20 min 34 sec) 
select_counter is 735
Heartbeat CPU 0 instructions: 62000001 cycles: 113397541 heartbeat IPC: 0.303321 cumulative IPC: 0.484276 (Simulation time: 0 hr 20 min 59 sec) 
select_counter is 662
Heartbeat CPU 0 instructions: 63000000 cycles: 116696636 heartbeat IPC: 0.303113 cumulative IPC: 0.478875 (Simulation time: 0 hr 21 min 26 sec) 
select_counter is 585
Heartbeat CPU 0 instructions: 64000000 cycles: 119274929 heartbeat IPC: 0.387854 cumulative IPC: 0.476803 (Simulation time: 0 hr 21 min 51 sec) 
select_counter is 500
Heartbeat CPU 0 instructions: 65000000 cycles: 120959603 heartbeat IPC: 0.593587 cumulative IPC: 0.478515 (Simulation time: 0 hr 22 min 12 sec) 
select_counter is 515
Heartbeat CPU 0 instructions: 66000000 cycles: 124160597 heartbeat IPC: 0.312403 cumulative IPC: 0.474014 (Simulation time: 0 hr 22 min 35 sec) 
select_counter is 455
Heartbeat CPU 0 instructions: 67000001 cycles: 127386542 heartbeat IPC: 0.309987 cumulative IPC: 0.469654 (Simulation time: 0 hr 22 min 58 sec) 
select_counter is 406
Heartbeat CPU 0 instructions: 68000000 cycles: 130115794 heartbeat IPC: 0.3664 cumulative IPC: 0.467383 (Simulation time: 0 hr 23 min 21 sec) 
select_counter is 386
Heartbeat CPU 0 instructions: 69000001 cycles: 131628413 heartbeat IPC: 0.661106 cumulative IPC: 0.469716 (Simulation time: 0 hr 23 min 41 sec) 
select_counter is 358
Heartbeat CPU 0 instructions: 70000001 cycles: 134830323 heartbeat IPC: 0.312314 cumulative IPC: 0.465804 (Simulation time: 0 hr 24 min 4 sec) 
select_counter is 301
Heartbeat CPU 0 instructions: 71000001 cycles: 138038922 heartbeat IPC: 0.311662 cumulative IPC: 0.462057 (Simulation time: 0 hr 24 min 28 sec) 
select_counter is 246
Heartbeat CPU 0 instructions: 72000000 cycles: 140787241 heartbeat IPC: 0.363858 cumulative IPC: 0.460055 (Simulation time: 0 hr 24 min 50 sec) 
select_counter is 219
Heartbeat CPU 0 instructions: 73000000 cycles: 142305791 heartbeat IPC: 0.658523 cumulative IPC: 0.462266 (Simulation time: 0 hr 25 min 9 sec) 
select_counter is 193
Heartbeat CPU 0 instructions: 74000003 cycles: 145527385 heartbeat IPC: 0.310406 cumulative IPC: 0.458759 (Simulation time: 0 hr 25 min 32 sec) 
select_counter is 149
Heartbeat CPU 0 instructions: 75000001 cycles: 148744571 heartbeat IPC: 0.31083 cumulative IPC: 0.455425 (Simulation time: 0 hr 25 min 57 sec) 
select_counter is 107
Heartbeat CPU 0 instructions: 76000000 cycles: 151385320 heartbeat IPC: 0.37868 cumulative IPC: 0.454031 (Simulation time: 0 hr 26 min 21 sec) 
select_counter is 70
Heartbeat CPU 0 instructions: 77000001 cycles: 152995297 heartbeat IPC: 0.621127 cumulative IPC: 0.455861 (Simulation time: 0 hr 26 min 42 sec) 
select_counter is 69
Heartbeat CPU 0 instructions: 78000000 cycles: 156239671 heartbeat IPC: 0.308226 cumulative IPC: 0.452672 (Simulation time: 0 hr 27 min 7 sec) 
select_counter is 995
Heartbeat CPU 0 instructions: 79000000 cycles: 159700426 heartbeat IPC: 0.288954 cumulative IPC: 0.448986 (Simulation time: 0 hr 27 min 31 sec) 
select_counter is 957
Heartbeat CPU 0 instructions: 80000000 cycles: 161556275 heartbeat IPC: 0.538837 cumulative IPC: 0.450058 (Simulation time: 0 hr 27 min 50 sec) 
select_counter is 889
Heartbeat CPU 0 instructions: 81000001 cycles: 164014224 heartbeat IPC: 0.406844 cumulative IPC: 0.449385 (Simulation time: 0 hr 28 min 12 sec) 
select_counter is 936
Heartbeat CPU 0 instructions: 82000000 cycles: 167300514 heartbeat IPC: 0.304294 cumulative IPC: 0.446429 (Simulation time: 0 hr 28 min 36 sec) 
select_counter is 923
Heartbeat CPU 0 instructions: 83000000 cycles: 170583274 heartbeat IPC: 0.304622 cumulative IPC: 0.4436 (Simulation time: 0 hr 28 min 59 sec) 
select_counter is 914
Heartbeat CPU 0 instructions: 84000000 cycles: 172406590 heartbeat IPC: 0.548451 cumulative IPC: 0.444749 (Simulation time: 0 hr 29 min 19 sec) 
select_counter is 845
Heartbeat CPU 0 instructions: 85000003 cycles: 174891451 heartbeat IPC: 0.402438 cumulative IPC: 0.444127 (Simulation time: 0 hr 29 min 42 sec) 
select_counter is 887
Heartbeat CPU 0 instructions: 86000001 cycles: 178179865 heartbeat IPC: 0.304097 cumulative IPC: 0.441452 (Simulation time: 0 hr 30 min 8 sec) 
select_counter is 847
Heartbeat CPU 0 instructions: 87000000 cycles: 181464080 heartbeat IPC: 0.304486 cumulative IPC: 0.438888 (Simulation time: 0 hr 30 min 31 sec) 
select_counter is 824
Heartbeat CPU 0 instructions: 88000000 cycles: 183144254 heartbeat IPC: 0.595176 cumulative IPC: 0.440371 (Simulation time: 0 hr 30 min 51 sec) 
select_counter is 750
Heartbeat CPU 0 instructions: 89000000 cycles: 187882839 heartbeat IPC: 0.211033 cumulative IPC: 0.434395 (Simulation time: 0 hr 31 min 21 sec) 
select_counter is 811
Heartbeat CPU 0 instructions: 90000002 cycles: 188926586 heartbeat IPC: 0.958089 cumulative IPC: 0.437383 (Simulation time: 0 hr 31 min 40 sec) 
select_counter is 815
Heartbeat CPU 0 instructions: 91000001 cycles: 189970794 heartbeat IPC: 0.957663 cumulative IPC: 0.440337 (Simulation time: 0 hr 31 min 58 sec) 
select_counter is 814
Heartbeat CPU 0 instructions: 92000000 cycles: 191014440 heartbeat IPC: 0.958178 cumulative IPC: 0.443258 (Simulation time: 0 hr 32 min 17 sec) 
select_counter is 817
Heartbeat CPU 0 instructions: 93000002 cycles: 192058780 heartbeat IPC: 0.957545 cumulative IPC: 0.446145 (Simulation time: 0 hr 32 min 35 sec) 
select_counter is 816
Heartbeat CPU 0 instructions: 94000001 cycles: 193102608 heartbeat IPC: 0.958011 cumulative IPC: 0.449001 (Simulation time: 0 hr 32 min 52 sec) 
select_counter is 817
Heartbeat CPU 0 instructions: 95000000 cycles: 194146893 heartbeat IPC: 0.957592 cumulative IPC: 0.451824 (Simulation time: 0 hr 33 min 10 sec) 
select_counter is 818
Heartbeat CPU 0 instructions: 96000000 cycles: 195191763 heartbeat IPC: 0.957057 cumulative IPC: 0.454615 (Simulation time: 0 hr 33 min 31 sec) 
select_counter is 818
Heartbeat CPU 0 instructions: 97000002 cycles: 196262655 heartbeat IPC: 0.933803 cumulative IPC: 0.457312 (Simulation time: 0 hr 33 min 49 sec) 
select_counter is 815
Heartbeat CPU 0 instructions: 98000000 cycles: 197308421 heartbeat IPC: 0.956235 cumulative IPC: 0.46004 (Simulation time: 0 hr 34 min 5 sec) 
select_counter is 816
Heartbeat CPU 0 instructions: 99000003 cycles: 198346758 heartbeat IPC: 0.963081 cumulative IPC: 0.462756 (Simulation time: 0 hr 34 min 21 sec) 
select_counter is 816
Heartbeat CPU 0 instructions: 100000000 cycles: 199383212 heartbeat IPC: 0.964825 cumulative IPC: 0.465447 (Simulation time: 0 hr 34 min 38 sec) 
select_counter is 817
Heartbeat CPU 0 instructions: 101000001 cycles: 200424355 heartbeat IPC: 0.960484 cumulative IPC: 0.468098 (Simulation time: 0 hr 34 min 55 sec) 
select_counter is 815
Heartbeat CPU 0 instructions: 102000001 cycles: 203671900 heartbeat IPC: 0.307925 cumulative IPC: 0.465466 (Simulation time: 0 hr 35 min 18 sec) 
select_counter is 777
Heartbeat CPU 0 instructions: 103000001 cycles: 205075889 heartbeat IPC: 0.712256 cumulative IPC: 0.467207 (Simulation time: 0 hr 35 min 36 sec) 
select_counter is 713
Heartbeat CPU 0 instructions: 104000000 cycles: 208051778 heartbeat IPC: 0.336034 cumulative IPC: 0.465275 (Simulation time: 0 hr 35 min 56 sec) 
select_counter is 735
Heartbeat CPU 0 instructions: 105000000 cycles: 211348407 heartbeat IPC: 0.30334 cumulative IPC: 0.462675 (Simulation time: 0 hr 36 min 16 sec) 
select_counter is 671
Heartbeat CPU 0 instructions: 106000000 cycles: 214593704 heartbeat IPC: 0.308138 cumulative IPC: 0.46027 (Simulation time: 0 hr 36 min 37 sec) 
select_counter is 627
Heartbeat CPU 0 instructions: 107000001 cycles: 216152157 heartbeat IPC: 0.641663 cumulative IPC: 0.461616 (Simulation time: 0 hr 36 min 54 sec) 
select_counter is 542
Heartbeat CPU 0 instructions: 108000000 cycles: 218967846 heartbeat IPC: 0.355153 cumulative IPC: 0.460208 (Simulation time: 0 hr 37 min 15 sec) 
select_counter is 565
Heartbeat CPU 0 instructions: 109000000 cycles: 222176981 heartbeat IPC: 0.31161 cumulative IPC: 0.458002 (Simulation time: 0 hr 37 min 36 sec) 
select_counter is 504
Heartbeat CPU 0 instructions: 110000000 cycles: 225368259 heartbeat IPC: 0.313354 cumulative IPC: 0.455897 (Simulation time: 0 hr 37 min 57 sec) 
select_counter is 462
Finished CPU 0 instructions: 100000003 cycles: 219347585 cummulative IPC: 0.455897 (Simulation time: 0 hr 37 min 57 sec) 

ChampSim completed all CPUs

Region of Interest Statistics

CPU 0 cummulative IPC: 0.455897 instructions: 100000003 cycles: 219347585
LLC TOTAL     ACCESS:    3282779  HIT:    1398020  MISS:    1884759
LLC LOAD      ACCESS:    1560191  HIT:    1246604  MISS:     313587
LLC RFO       ACCESS:       5220  HIT:       2242  MISS:       2978
LLC PREFETCH  ACCESS:    1700520  HIT:     142686  MISS:    1557834
LLC WRITEBACK ACCESS:      16848  HIT:       6488  MISS:      10360
Ship samples: 
13, 47, 68, 102, 133, 185, 210, 244, 285, 307, 322, 374, 388, 429, 462, 494, 518, 572, 603, 608, 664, 672, 716, 764, 780, 818, 840, 883, 925, 955, 972, 994, 1043, 1061, 1101, 1134, 1157, 1203, 1238, 1253, 1295, 1335, 1351, 1376, 1439, 1458, 1503, 1513, 1537, 1593, 1613, 1644, 1683, 1725, 1739, 1790, 1815, 1826, 1882, 1892, 1920, 1968, 2002, 2028, 
Lime duel samples: 
3, 38, 65, 125, 149, 181, 223, 243, 273, 312, 329, 382, 385, 420, 459, 511, 539, 573, 586, 611, 640, 697, 715, 756, 777, 816, 846, 879, 909, 958, 988, 1014, 1034, 1069, 1110, 1125, 1158, 1209, 1241, 1276, 1286, 1332, 1347, 1380, 1413, 1469, 1494, 1532, 1548, 1599, 1606, 1632, 1671, 1701, 1743, 1763, 1823, 1846, 1887, 1891, 1946, 1974, 2015, 2041, 
Lime samples: 
3, 149, 273, 385, 539, 640, 777, 909, 1034, 1158, 1286, 1413, 1548, 1671, 1823, 1946, 
Insertion Distribution: 
	LOAD 4204 0 0 0 0 0 10400 95098 
	RFO 0 0 0 0 0 0 286 670 
	PREF 0 9 0 0 0 0 21004 679112 
	WRITEBACK 0 0 0 0 0 0 0 2207 
Total Prefetch Downgrades: 6038
