
*** ChampSim Multicore Out-of-Order Simulator ***

Warmup Instructions: 10000000
Simulation Instructions: 100000000
Configuration: 2
Number of CPUs: 1
LLC sets: 2048
LLC ways: 16
Off-chip DRAM Channels: 1 Width: 64-bit Data Rate: 1600 MT/s

CPU 0 runs /datasets/cs240c-wi22-a00-public/data/Assignment2-gz/astar_313B.trace.gz
CPU 0 L1D next line prefetcher
CPU 0 L2C IP-based stride prefetcher
Heartbeat CPU 0 instructions: 1000001 cycles: 675792 heartbeat IPC: 1.47975 cumulative IPC: 1.47975 (Simulation time: 0 hr 0 min 26 sec) 
select_counter is 415
Heartbeat CPU 0 instructions: 2000003 cycles: 1263224 heartbeat IPC: 1.70233 cumulative IPC: 1.58325 (Simulation time: 0 hr 0 min 53 sec) 
select_counter is 1017
Heartbeat CPU 0 instructions: 3000003 cycles: 1937750 heartbeat IPC: 1.48252 cumulative IPC: 1.54819 (Simulation time: 0 hr 1 min 21 sec) 
select_counter is 830
Heartbeat CPU 0 instructions: 4000000 cycles: 2612290 heartbeat IPC: 1.48249 cumulative IPC: 1.53122 (Simulation time: 0 hr 1 min 50 sec) 
select_counter is 850
Heartbeat CPU 0 instructions: 5000002 cycles: 3287573 heartbeat IPC: 1.48086 cumulative IPC: 1.52088 (Simulation time: 0 hr 2 min 16 sec) 
select_counter is 979
Heartbeat CPU 0 instructions: 6000001 cycles: 3873917 heartbeat IPC: 1.70548 cumulative IPC: 1.54882 (Simulation time: 0 hr 2 min 43 sec) 
select_counter is 752
Heartbeat CPU 0 instructions: 7000001 cycles: 4442375 heartbeat IPC: 1.75914 cumulative IPC: 1.57573 (Simulation time: 0 hr 3 min 11 sec) 
select_counter is 688
Heartbeat CPU 0 instructions: 8000000 cycles: 4994146 heartbeat IPC: 1.81234 cumulative IPC: 1.60188 (Simulation time: 0 hr 3 min 37 sec) 
select_counter is 640
Heartbeat CPU 0 instructions: 9000001 cycles: 5555860 heartbeat IPC: 1.78027 cumulative IPC: 1.61991 (Simulation time: 0 hr 4 min 5 sec) 
select_counter is 602
Heartbeat CPU 0 instructions: 10000002 cycles: 6230789 heartbeat IPC: 1.48164 cumulative IPC: 1.60493 (Simulation time: 0 hr 4 min 32 sec) 
select_counter is 936

Warmup complete CPU 0 instructions: 10000002 cycles: 6230789 (Simulation time: 0 hr 4 min 32 sec) 

Heartbeat CPU 0 instructions: 11000000 cycles: 12841911 heartbeat IPC: 0.15126 cumulative IPC: 0.15126 (Simulation time: 0 hr 4 min 59 sec) 
select_counter is 1014
Heartbeat CPU 0 instructions: 12000000 cycles: 19993581 heartbeat IPC: 0.139827 cumulative IPC: 0.145319 (Simulation time: 0 hr 5 min 28 sec) 
select_counter is 879
Heartbeat CPU 0 instructions: 13000003 cycles: 28372566 heartbeat IPC: 0.119347 cumulative IPC: 0.135491 (Simulation time: 0 hr 6 min 0 sec) 
select_counter is 598
Heartbeat CPU 0 instructions: 14000002 cycles: 34343795 heartbeat IPC: 0.16747 cumulative IPC: 0.142283 (Simulation time: 0 hr 6 min 28 sec) 
select_counter is 574
Heartbeat CPU 0 instructions: 15000000 cycles: 40750550 heartbeat IPC: 0.156085 cumulative IPC: 0.144845 (Simulation time: 0 hr 6 min 55 sec) 
select_counter is 617
Heartbeat CPU 0 instructions: 16000000 cycles: 47045220 heartbeat IPC: 0.158865 cumulative IPC: 0.147007 (Simulation time: 0 hr 7 min 24 sec) 
select_counter is 656
Heartbeat CPU 0 instructions: 17000001 cycles: 53331622 heartbeat IPC: 0.159074 cumulative IPC: 0.148617 (Simulation time: 0 hr 7 min 51 sec) 
select_counter is 745
Heartbeat CPU 0 instructions: 18000000 cycles: 62065558 heartbeat IPC: 0.114496 cumulative IPC: 0.14328 (Simulation time: 0 hr 8 min 24 sec) 
select_counter is 880
Heartbeat CPU 0 instructions: 19000000 cycles: 67984030 heartbeat IPC: 0.168963 cumulative IPC: 0.145741 (Simulation time: 0 hr 8 min 50 sec) 
select_counter is 819
Heartbeat CPU 0 instructions: 20000000 cycles: 74324726 heartbeat IPC: 0.157711 cumulative IPC: 0.146856 (Simulation time: 0 hr 9 min 16 sec) 
select_counter is 718
Heartbeat CPU 0 instructions: 21000003 cycles: 82731828 heartbeat IPC: 0.118947 cumulative IPC: 0.143789 (Simulation time: 0 hr 9 min 45 sec) 
select_counter is 689
Heartbeat CPU 0 instructions: 22000002 cycles: 89673375 heartbeat IPC: 0.14406 cumulative IPC: 0.143811 (Simulation time: 0 hr 10 min 16 sec) 
select_counter is 570
Heartbeat CPU 0 instructions: 23000002 cycles: 95478762 heartbeat IPC: 0.172254 cumulative IPC: 0.145662 (Simulation time: 0 hr 10 min 44 sec) 
select_counter is 485
Heartbeat CPU 0 instructions: 24000000 cycles: 102060172 heartbeat IPC: 0.151943 cumulative IPC: 0.146093 (Simulation time: 0 hr 11 min 13 sec) 
select_counter is 392
Heartbeat CPU 0 instructions: 25000001 cycles: 109894960 heartbeat IPC: 0.127636 cumulative IPC: 0.144698 (Simulation time: 0 hr 11 min 44 sec) 
select_counter is 476
Heartbeat CPU 0 instructions: 26000002 cycles: 116415049 heartbeat IPC: 0.153372 cumulative IPC: 0.145211 (Simulation time: 0 hr 12 min 12 sec) 
select_counter is 421
Heartbeat CPU 0 instructions: 27000003 cycles: 125547556 heartbeat IPC: 0.109499 cumulative IPC: 0.142478 (Simulation time: 0 hr 12 min 44 sec) 
select_counter is 206
Heartbeat CPU 0 instructions: 28000000 cycles: 131234503 heartbeat IPC: 0.175841 cumulative IPC: 0.143996 (Simulation time: 0 hr 13 min 10 sec) 
select_counter is 117
Heartbeat CPU 0 instructions: 29000001 cycles: 139776088 heartbeat IPC: 0.117074 cumulative IPC: 0.142274 (Simulation time: 0 hr 13 min 45 sec) 
select_counter is 903
Heartbeat CPU 0 instructions: 30000001 cycles: 145765444 heartbeat IPC: 0.166963 cumulative IPC: 0.143334 (Simulation time: 0 hr 14 min 12 sec) 
select_counter is 861
Heartbeat CPU 0 instructions: 31000002 cycles: 151775864 heartbeat IPC: 0.166378 cumulative IPC: 0.144285 (Simulation time: 0 hr 14 min 39 sec) 
select_counter is 899
Heartbeat CPU 0 instructions: 32000000 cycles: 157462329 heartbeat IPC: 0.175856 cumulative IPC: 0.145472 (Simulation time: 0 hr 15 min 6 sec) 
select_counter is 938
Heartbeat CPU 0 instructions: 33000000 cycles: 163166453 heartbeat IPC: 0.175312 cumulative IPC: 0.146557 (Simulation time: 0 hr 15 min 33 sec) 
select_counter is 1014
Heartbeat CPU 0 instructions: 34000000 cycles: 171760304 heartbeat IPC: 0.116362 cumulative IPC: 0.144989 (Simulation time: 0 hr 16 min 6 sec) 
select_counter is 959
Heartbeat CPU 0 instructions: 35000000 cycles: 177732604 heartbeat IPC: 0.16744 cumulative IPC: 0.145771 (Simulation time: 0 hr 16 min 33 sec) 
select_counter is 724
Heartbeat CPU 0 instructions: 36000000 cycles: 183933238 heartbeat IPC: 0.161274 cumulative IPC: 0.146312 (Simulation time: 0 hr 17 min 1 sec) 
select_counter is 597
Heartbeat CPU 0 instructions: 37000002 cycles: 192678293 heartbeat IPC: 0.114351 cumulative IPC: 0.144813 (Simulation time: 0 hr 17 min 39 sec) 
select_counter is 506
Heartbeat CPU 0 instructions: 38000000 cycles: 198907827 heartbeat IPC: 0.160525 cumulative IPC: 0.145321 (Simulation time: 0 hr 18 min 8 sec) 
select_counter is 318
Heartbeat CPU 0 instructions: 39000001 cycles: 207719326 heartbeat IPC: 0.113488 cumulative IPC: 0.143929 (Simulation time: 0 hr 18 min 40 sec) 
select_counter is 264
Heartbeat CPU 0 instructions: 40000000 cycles: 216397022 heartbeat IPC: 0.115238 cumulative IPC: 0.142744 (Simulation time: 0 hr 19 min 12 sec) 
select_counter is 968
Heartbeat CPU 0 instructions: 41000001 cycles: 222418341 heartbeat IPC: 0.166077 cumulative IPC: 0.143394 (Simulation time: 0 hr 19 min 40 sec) 
select_counter is 915
Heartbeat CPU 0 instructions: 42000003 cycles: 229309101 heartbeat IPC: 0.145122 cumulative IPC: 0.143447 (Simulation time: 0 hr 20 min 7 sec) 
select_counter is 825
Heartbeat CPU 0 instructions: 43000000 cycles: 238541068 heartbeat IPC: 0.108319 cumulative IPC: 0.142051 (Simulation time: 0 hr 20 min 39 sec) 
select_counter is 885
Heartbeat CPU 0 instructions: 44000000 cycles: 244239091 heartbeat IPC: 0.175499 cumulative IPC: 0.142852 (Simulation time: 0 hr 21 min 6 sec) 
select_counter is 844
Heartbeat CPU 0 instructions: 45000000 cycles: 250617413 heartbeat IPC: 0.156781 cumulative IPC: 0.143216 (Simulation time: 0 hr 21 min 36 sec) 
select_counter is 798
Heartbeat CPU 0 instructions: 46000002 cycles: 257285694 heartbeat IPC: 0.149964 cumulative IPC: 0.143395 (Simulation time: 0 hr 22 min 4 sec) 
select_counter is 570
Heartbeat CPU 0 instructions: 47000000 cycles: 264111315 heartbeat IPC: 0.146507 cumulative IPC: 0.143477 (Simulation time: 0 hr 22 min 32 sec) 
select_counter is 519
Heartbeat CPU 0 instructions: 48000000 cycles: 272477938 heartbeat IPC: 0.119523 cumulative IPC: 0.142725 (Simulation time: 0 hr 23 min 5 sec) 
select_counter is 951
Heartbeat CPU 0 instructions: 49000000 cycles: 278047340 heartbeat IPC: 0.179552 cumulative IPC: 0.143479 (Simulation time: 0 hr 23 min 31 sec) 
select_counter is 984
Heartbeat CPU 0 instructions: 50000000 cycles: 283916692 heartbeat IPC: 0.170377 cumulative IPC: 0.144048 (Simulation time: 0 hr 23 min 59 sec) 
select_counter is 1017
Heartbeat CPU 0 instructions: 51000002 cycles: 290590412 heartbeat IPC: 0.149842 cumulative IPC: 0.144184 (Simulation time: 0 hr 24 min 28 sec) 
select_counter is 997
Heartbeat CPU 0 instructions: 52000000 cycles: 298415670 heartbeat IPC: 0.127791 cumulative IPC: 0.143745 (Simulation time: 0 hr 24 min 59 sec) 
select_counter is 942
Heartbeat CPU 0 instructions: 53000000 cycles: 304765547 heartbeat IPC: 0.157483 cumulative IPC: 0.144037 (Simulation time: 0 hr 25 min 28 sec) 
select_counter is 840
Heartbeat CPU 0 instructions: 54000001 cycles: 312293142 heartbeat IPC: 0.132845 cumulative IPC: 0.143762 (Simulation time: 0 hr 25 min 58 sec) 
select_counter is 771
Heartbeat CPU 0 instructions: 55000001 cycles: 320378149 heartbeat IPC: 0.123686 cumulative IPC: 0.143245 (Simulation time: 0 hr 26 min 27 sec) 
select_counter is 698
Heartbeat CPU 0 instructions: 56000000 cycles: 330111139 heartbeat IPC: 0.102743 cumulative IPC: 0.142028 (Simulation time: 0 hr 27 min 1 sec) 
select_counter is 856
Heartbeat CPU 0 instructions: 57000000 cycles: 336011566 heartbeat IPC: 0.169479 cumulative IPC: 0.142519 (Simulation time: 0 hr 27 min 28 sec) 
select_counter is 790
Heartbeat CPU 0 instructions: 58000001 cycles: 342208728 heartbeat IPC: 0.161364 cumulative IPC: 0.142867 (Simulation time: 0 hr 27 min 55 sec) 
select_counter is 720
Heartbeat CPU 0 instructions: 59000002 cycles: 350317466 heartbeat IPC: 0.123324 cumulative IPC: 0.142406 (Simulation time: 0 hr 28 min 24 sec) 
select_counter is 818
Heartbeat CPU 0 instructions: 60000000 cycles: 357464901 heartbeat IPC: 0.13991 cumulative IPC: 0.142355 (Simulation time: 0 hr 28 min 57 sec) 
select_counter is 563
Heartbeat CPU 0 instructions: 61000001 cycles: 363534337 heartbeat IPC: 0.16476 cumulative IPC: 0.142736 (Simulation time: 0 hr 29 min 24 sec) 
select_counter is 466
Heartbeat CPU 0 instructions: 62000001 cycles: 369933438 heartbeat IPC: 0.156272 cumulative IPC: 0.142974 (Simulation time: 0 hr 29 min 52 sec) 
select_counter is 597
Heartbeat CPU 0 instructions: 63000000 cycles: 376594053 heartbeat IPC: 0.150136 cumulative IPC: 0.143103 (Simulation time: 0 hr 30 min 20 sec) 
select_counter is 657
Heartbeat CPU 0 instructions: 64000000 cycles: 385249746 heartbeat IPC: 0.115531 cumulative IPC: 0.142473 (Simulation time: 0 hr 30 min 49 sec) 
select_counter is 1017
Heartbeat CPU 0 instructions: 65000000 cycles: 391627183 heartbeat IPC: 0.156803 cumulative IPC: 0.14271 (Simulation time: 0 hr 31 min 18 sec) 
select_counter is 901
Heartbeat CPU 0 instructions: 66000001 cycles: 397800625 heartbeat IPC: 0.161984 cumulative IPC: 0.143014 (Simulation time: 0 hr 31 min 44 sec) 
select_counter is 854
Heartbeat CPU 0 instructions: 67000000 cycles: 404298624 heartbeat IPC: 0.153893 cumulative IPC: 0.143192 (Simulation time: 0 hr 32 min 11 sec) 
select_counter is 927
Heartbeat CPU 0 instructions: 68000000 cycles: 410911593 heartbeat IPC: 0.151218 cumulative IPC: 0.143323 (Simulation time: 0 hr 32 min 38 sec) 
select_counter is 1022
Heartbeat CPU 0 instructions: 69000000 cycles: 422453708 heartbeat IPC: 0.0866392 cumulative IPC: 0.141751 (Simulation time: 0 hr 33 min 14 sec) 
select_counter is 786
Heartbeat CPU 0 instructions: 70000000 cycles: 428650196 heartbeat IPC: 0.161382 cumulative IPC: 0.142039 (Simulation time: 0 hr 33 min 41 sec) 
select_counter is 662
Heartbeat CPU 0 instructions: 71000002 cycles: 435101133 heartbeat IPC: 0.155017 cumulative IPC: 0.142234 (Simulation time: 0 hr 34 min 5 sec) 
select_counter is 506
Heartbeat CPU 0 instructions: 72000000 cycles: 441976896 heartbeat IPC: 0.145438 cumulative IPC: 0.142285 (Simulation time: 0 hr 34 min 30 sec) 
select_counter is 595
Heartbeat CPU 0 instructions: 73000003 cycles: 448967501 heartbeat IPC: 0.14305 cumulative IPC: 0.142297 (Simulation time: 0 hr 34 min 55 sec) 
select_counter is 748
Heartbeat CPU 0 instructions: 74000003 cycles: 457670809 heartbeat IPC: 0.114899 cumulative IPC: 0.141769 (Simulation time: 0 hr 35 min 21 sec) 
select_counter is 942
Heartbeat CPU 0 instructions: 75000000 cycles: 464348333 heartbeat IPC: 0.149756 cumulative IPC: 0.141885 (Simulation time: 0 hr 35 min 48 sec) 
select_counter is 829
Heartbeat CPU 0 instructions: 76000000 cycles: 470059629 heartbeat IPC: 0.175092 cumulative IPC: 0.142294 (Simulation time: 0 hr 36 min 13 sec) 
select_counter is 851
Heartbeat CPU 0 instructions: 77000000 cycles: 475863817 heartbeat IPC: 0.172289 cumulative IPC: 0.142665 (Simulation time: 0 hr 36 min 37 sec) 
select_counter is 963
Heartbeat CPU 0 instructions: 78000001 cycles: 481746506 heartbeat IPC: 0.16999 cumulative IPC: 0.143003 (Simulation time: 0 hr 37 min 2 sec) 
select_counter is 1000
Heartbeat CPU 0 instructions: 79000000 cycles: 490232378 heartbeat IPC: 0.117843 cumulative IPC: 0.142562 (Simulation time: 0 hr 37 min 28 sec) 
select_counter is 1012
Heartbeat CPU 0 instructions: 80000000 cycles: 495825051 heartbeat IPC: 0.178805 cumulative IPC: 0.142976 (Simulation time: 0 hr 37 min 49 sec) 
select_counter is 852
Heartbeat CPU 0 instructions: 81000001 cycles: 502979312 heartbeat IPC: 0.139777 cumulative IPC: 0.142929 (Simulation time: 0 hr 38 min 11 sec) 
select_counter is 868
Heartbeat CPU 0 instructions: 82000001 cycles: 510304554 heartbeat IPC: 0.136514 cumulative IPC: 0.142836 (Simulation time: 0 hr 38 min 34 sec) 
select_counter is 704
Heartbeat CPU 0 instructions: 83000002 cycles: 516109272 heartbeat IPC: 0.172274 cumulative IPC: 0.143171 (Simulation time: 0 hr 38 min 53 sec) 
select_counter is 452
Heartbeat CPU 0 instructions: 84000000 cycles: 522235139 heartbeat IPC: 0.163242 cumulative IPC: 0.14341 (Simulation time: 0 hr 39 min 11 sec) 
select_counter is 525
Heartbeat CPU 0 instructions: 85000000 cycles: 529104651 heartbeat IPC: 0.145571 cumulative IPC: 0.143438 (Simulation time: 0 hr 39 min 30 sec) 
select_counter is 679
Heartbeat CPU 0 instructions: 86000001 cycles: 537163695 heartbeat IPC: 0.124084 cumulative IPC: 0.143144 (Simulation time: 0 hr 39 min 52 sec) 
select_counter is 878
Heartbeat CPU 0 instructions: 87000000 cycles: 542699146 heartbeat IPC: 0.180654 cumulative IPC: 0.143531 (Simulation time: 0 hr 40 min 8 sec) 
select_counter is 866
Heartbeat CPU 0 instructions: 88000000 cycles: 548665441 heartbeat IPC: 0.167608 cumulative IPC: 0.143796 (Simulation time: 0 hr 40 min 25 sec) 
select_counter is 752
Heartbeat CPU 0 instructions: 89000002 cycles: 554933955 heartbeat IPC: 0.159528 cumulative IPC: 0.143976 (Simulation time: 0 hr 40 min 42 sec) 
select_counter is 808
Heartbeat CPU 0 instructions: 90000002 cycles: 561256642 heartbeat IPC: 0.158161 cumulative IPC: 0.144137 (Simulation time: 0 hr 41 min 0 sec) 
select_counter is 966
Heartbeat CPU 0 instructions: 91000001 cycles: 569753539 heartbeat IPC: 0.11769 cumulative IPC: 0.143739 (Simulation time: 0 hr 41 min 19 sec) 
select_counter is 1005
Heartbeat CPU 0 instructions: 92000000 cycles: 576132013 heartbeat IPC: 0.156777 cumulative IPC: 0.143885 (Simulation time: 0 hr 41 min 33 sec) 
select_counter is 898
Heartbeat CPU 0 instructions: 93000003 cycles: 583157667 heartbeat IPC: 0.142336 cumulative IPC: 0.143866 (Simulation time: 0 hr 41 min 48 sec) 
select_counter is 714
Heartbeat CPU 0 instructions: 94000000 cycles: 590623580 heartbeat IPC: 0.133942 cumulative IPC: 0.143739 (Simulation time: 0 hr 42 min 2 sec) 
select_counter is 785
Heartbeat CPU 0 instructions: 95000000 cycles: 597135066 heartbeat IPC: 0.153575 cumulative IPC: 0.143847 (Simulation time: 0 hr 42 min 16 sec) 
select_counter is 716
Heartbeat CPU 0 instructions: 96000000 cycles: 605865065 heartbeat IPC: 0.114548 cumulative IPC: 0.143421 (Simulation time: 0 hr 42 min 31 sec) 
select_counter is 960
Heartbeat CPU 0 instructions: 97000000 cycles: 612235848 heartbeat IPC: 0.156967 cumulative IPC: 0.143563 (Simulation time: 0 hr 42 min 42 sec) 
select_counter is 811
Heartbeat CPU 0 instructions: 98000003 cycles: 619387084 heartbeat IPC: 0.139836 cumulative IPC: 0.14352 (Simulation time: 0 hr 42 min 52 sec) 
select_counter is 807
Heartbeat CPU 0 instructions: 99000001 cycles: 626879735 heartbeat IPC: 0.133464 cumulative IPC: 0.143398 (Simulation time: 0 hr 43 min 3 sec) 
select_counter is 892
Heartbeat CPU 0 instructions: 100000000 cycles: 634268944 heartbeat IPC: 0.135332 cumulative IPC: 0.143303 (Simulation time: 0 hr 43 min 13 sec) 
select_counter is 812
Heartbeat CPU 0 instructions: 101000000 cycles: 643167363 heartbeat IPC: 0.11238 cumulative IPC: 0.142871 (Simulation time: 0 hr 43 min 24 sec) 
select_counter is 911
Heartbeat CPU 0 instructions: 102000001 cycles: 649175429 heartbeat IPC: 0.166443 cumulative IPC: 0.143092 (Simulation time: 0 hr 43 min 33 sec) 
select_counter is 737
Heartbeat CPU 0 instructions: 103000001 cycles: 655258253 heartbeat IPC: 0.164397 cumulative IPC: 0.143291 (Simulation time: 0 hr 43 min 42 sec) 
select_counter is 736
Heartbeat CPU 0 instructions: 104000000 cycles: 661198096 heartbeat IPC: 0.168354 cumulative IPC: 0.143519 (Simulation time: 0 hr 43 min 51 sec) 
select_counter is 720
Heartbeat CPU 0 instructions: 105000000 cycles: 666729772 heartbeat IPC: 0.180777 cumulative IPC: 0.143831 (Simulation time: 0 hr 43 min 59 sec) 
select_counter is 1010
Heartbeat CPU 0 instructions: 106000000 cycles: 675336237 heartbeat IPC: 0.116192 cumulative IPC: 0.143475 (Simulation time: 0 hr 44 min 9 sec) 
select_counter is 1014
Heartbeat CPU 0 instructions: 107000002 cycles: 681436219 heartbeat IPC: 0.163935 cumulative IPC: 0.14366 (Simulation time: 0 hr 44 min 17 sec) 
select_counter is 919
Heartbeat CPU 0 instructions: 108000000 cycles: 690138522 heartbeat IPC: 0.114912 cumulative IPC: 0.143294 (Simulation time: 0 hr 44 min 25 sec) 
select_counter is 650
Heartbeat CPU 0 instructions: 109000003 cycles: 696166230 heartbeat IPC: 0.165901 cumulative IPC: 0.143492 (Simulation time: 0 hr 44 min 31 sec) 
select_counter is 556
Heartbeat CPU 0 instructions: 110000003 cycles: 702180347 heartbeat IPC: 0.166275 cumulative IPC: 0.143689 (Simulation time: 0 hr 44 min 36 sec) 
select_counter is 397
Finished CPU 0 instructions: 100000001 cycles: 695949558 cummulative IPC: 0.143689 (Simulation time: 0 hr 44 min 36 sec) 

ChampSim completed all CPUs

Region of Interest Statistics

CPU 0 cummulative IPC: 0.143689 instructions: 100000001 cycles: 695949558
LLC TOTAL     ACCESS:    8750906  HIT:    3004448  MISS:    5746458
LLC LOAD      ACCESS:    1885858  HIT:     617514  MISS:    1268344
LLC RFO       ACCESS:    1828610  HIT:     746627  MISS:    1081983
LLC PREFETCH  ACCESS:    2273667  HIT:      81749  MISS:    2191918
LLC WRITEBACK ACCESS:    2762771  HIT:    1558558  MISS:    1204213
Ship samples: 
17, 62, 72, 119, 153, 184, 213, 226, 269, 308, 322, 379, 413, 439, 479, 493, 538, 551, 585, 614, 669, 688, 728, 761, 790, 822, 855, 880, 910, 957, 982, 1021, 1046, 1076, 1092, 1121, 1177, 1204, 1220, 1272, 1308, 1332, 1375, 1383, 1419, 1467, 1486, 1523, 1566, 1571, 1601, 1635, 1687, 1709, 1734, 1782, 1811, 1845, 1870, 1888, 1920, 1966, 1999, 2038, 
Lime duel samples: 
4, 43, 87, 125, 131, 190, 206, 249, 262, 292, 336, 361, 407, 445, 457, 495, 528, 555, 579, 639, 642, 703, 723, 754, 774, 814, 857, 881, 916, 935, 973, 1002, 1041, 1061, 1119, 1146, 1153, 1202, 1234, 1262, 1307, 1326, 1363, 1380, 1422, 1444, 1474, 1529, 1540, 1575, 1602, 1637, 1691, 1720, 1755, 1765, 1794, 1834, 1874, 1916, 1946, 1980, 2005, 2035, 
Lime samples: 
4, 131, 262, 407, 528, 642, 774, 916, 1041, 1153, 1307, 1422, 1540, 1691, 1794, 1946, 
Insertion Distribution: 
	LOAD 64740 0 0 0 0 0 28900 102944 
	RFO 4014 0 0 0 0 0 7050 203558 
	PREF 0 8620 0 0 0 0 33423 292498 
	WRITEBACK 0 0 0 0 0 0 0 197900 
Total Prefetch Downgrades: 19655
