
*** ChampSim Multicore Out-of-Order Simulator ***

Warmup Instructions: 10000000
Simulation Instructions: 100000000
Configuration: 2
Number of CPUs: 1
LLC sets: 2048
LLC ways: 16
Off-chip DRAM Channels: 1 Width: 64-bit Data Rate: 1600 MT/s

CPU 0 runs /datasets/cs240c-wi22-a00-public/data/Assignment2-gz/GemsFDTD_716B.trace.gz
CPU 0 L1D next line prefetcher
CPU 0 L2C IP-based stride prefetcher
Heartbeat CPU 0 instructions: 1000000 cycles: 415045 heartbeat IPC: 2.40938 cumulative IPC: 2.40938 (Simulation time: 0 hr 0 min 22 sec) 
select_counter is 512
Heartbeat CPU 0 instructions: 2000003 cycles: 829979 heartbeat IPC: 2.41003 cumulative IPC: 2.4097 (Simulation time: 0 hr 0 min 41 sec) 
select_counter is 511
Heartbeat CPU 0 instructions: 3000000 cycles: 1280245 heartbeat IPC: 2.2209 cumulative IPC: 2.3433 (Simulation time: 0 hr 0 min 59 sec) 
select_counter is 235
Heartbeat CPU 0 instructions: 4000000 cycles: 1737276 heartbeat IPC: 2.18804 cumulative IPC: 2.30246 (Simulation time: 0 hr 1 min 18 sec) 
select_counter is 193
Heartbeat CPU 0 instructions: 5000000 cycles: 2152258 heartbeat IPC: 2.40974 cumulative IPC: 2.32314 (Simulation time: 0 hr 1 min 38 sec) 
select_counter is 196
Heartbeat CPU 0 instructions: 6000000 cycles: 2567277 heartbeat IPC: 2.40953 cumulative IPC: 2.33711 (Simulation time: 0 hr 1 min 57 sec) 
select_counter is 208
Heartbeat CPU 0 instructions: 7000000 cycles: 2982280 heartbeat IPC: 2.40962 cumulative IPC: 2.3472 (Simulation time: 0 hr 2 min 16 sec) 
select_counter is 223
Heartbeat CPU 0 instructions: 8000000 cycles: 3395206 heartbeat IPC: 2.42174 cumulative IPC: 2.35626 (Simulation time: 0 hr 2 min 35 sec) 
select_counter is 243
Heartbeat CPU 0 instructions: 9000001 cycles: 3840445 heartbeat IPC: 2.24599 cumulative IPC: 2.34348 (Simulation time: 0 hr 2 min 58 sec) 
select_counter is 533
Heartbeat CPU 0 instructions: 10000002 cycles: 4355213 heartbeat IPC: 1.94262 cumulative IPC: 2.2961 (Simulation time: 0 hr 3 min 24 sec) 
select_counter is 119

Warmup complete CPU 0 instructions: 10000002 cycles: 4355213 (Simulation time: 0 hr 3 min 24 sec) 

Heartbeat CPU 0 instructions: 11000000 cycles: 7870328 heartbeat IPC: 0.284485 cumulative IPC: 0.284485 (Simulation time: 0 hr 4 min 2 sec) 
select_counter is 906
Heartbeat CPU 0 instructions: 12000000 cycles: 11387512 heartbeat IPC: 0.284318 cumulative IPC: 0.284402 (Simulation time: 0 hr 4 min 41 sec) 
select_counter is 495
Heartbeat CPU 0 instructions: 13000000 cycles: 14914462 heartbeat IPC: 0.283531 cumulative IPC: 0.284111 (Simulation time: 0 hr 5 min 18 sec) 
select_counter is 965
Heartbeat CPU 0 instructions: 14000000 cycles: 18599974 heartbeat IPC: 0.271333 cumulative IPC: 0.280805 (Simulation time: 0 hr 5 min 57 sec) 
select_counter is 888
Heartbeat CPU 0 instructions: 15000000 cycles: 22495735 heartbeat IPC: 0.256689 cumulative IPC: 0.275626 (Simulation time: 0 hr 6 min 37 sec) 
select_counter is 759
Heartbeat CPU 0 instructions: 16000000 cycles: 26299645 heartbeat IPC: 0.262887 cumulative IPC: 0.273418 (Simulation time: 0 hr 7 min 15 sec) 
select_counter is 299
Heartbeat CPU 0 instructions: 17000002 cycles: 30047368 heartbeat IPC: 0.266829 cumulative IPC: 0.272457 (Simulation time: 0 hr 7 min 59 sec) 
select_counter is 675
Heartbeat CPU 0 instructions: 18000003 cycles: 33821220 heartbeat IPC: 0.264982 cumulative IPC: 0.271499 (Simulation time: 0 hr 8 min 38 sec) 
select_counter is 519
Heartbeat CPU 0 instructions: 19000000 cycles: 37628267 heartbeat IPC: 0.26267 cumulative IPC: 0.270489 (Simulation time: 0 hr 9 min 18 sec) 
select_counter is 148
Heartbeat CPU 0 instructions: 20000000 cycles: 40634669 heartbeat IPC: 0.332624 cumulative IPC: 0.275638 (Simulation time: 0 hr 10 min 1 sec) 
select_counter is 552
Heartbeat CPU 0 instructions: 21000000 cycles: 43163430 heartbeat IPC: 0.395451 cumulative IPC: 0.283445 (Simulation time: 0 hr 10 min 36 sec) 
select_counter is 431
Heartbeat CPU 0 instructions: 22000000 cycles: 45602918 heartbeat IPC: 0.409922 cumulative IPC: 0.290925 (Simulation time: 0 hr 11 min 10 sec) 
select_counter is 264
Heartbeat CPU 0 instructions: 23000002 cycles: 48061123 heartbeat IPC: 0.406802 cumulative IPC: 0.297443 (Simulation time: 0 hr 11 min 44 sec) 
select_counter is 205
Heartbeat CPU 0 instructions: 24000000 cycles: 50539457 heartbeat IPC: 0.403496 cumulative IPC: 0.303134 (Simulation time: 0 hr 12 min 19 sec) 
select_counter is 147
Heartbeat CPU 0 instructions: 25000002 cycles: 53121361 heartbeat IPC: 0.387312 cumulative IPC: 0.30759 (Simulation time: 0 hr 12 min 54 sec) 
select_counter is 418
Heartbeat CPU 0 instructions: 26000002 cycles: 55341599 heartbeat IPC: 0.450402 cumulative IPC: 0.313809 (Simulation time: 0 hr 13 min 27 sec) 
select_counter is 646
Heartbeat CPU 0 instructions: 27000002 cycles: 57535756 heartbeat IPC: 0.455756 cumulative IPC: 0.319666 (Simulation time: 0 hr 14 min 0 sec) 
select_counter is 641
Heartbeat CPU 0 instructions: 28000000 cycles: 59664639 heartbeat IPC: 0.469729 cumulative IPC: 0.325442 (Simulation time: 0 hr 14 min 33 sec) 
select_counter is 804
Heartbeat CPU 0 instructions: 29000003 cycles: 61802361 heartbeat IPC: 0.467789 cumulative IPC: 0.330739 (Simulation time: 0 hr 15 min 6 sec) 
select_counter is 892
Heartbeat CPU 0 instructions: 30000001 cycles: 63987198 heartbeat IPC: 0.457699 cumulative IPC: 0.33539 (Simulation time: 0 hr 15 min 39 sec) 
select_counter is 593
Heartbeat CPU 0 instructions: 31000001 cycles: 65601571 heartbeat IPC: 0.619436 cumulative IPC: 0.342878 (Simulation time: 0 hr 16 min 9 sec) 
select_counter is 564
Heartbeat CPU 0 instructions: 32000000 cycles: 67216072 heartbeat IPC: 0.619386 cumulative IPC: 0.349979 (Simulation time: 0 hr 16 min 39 sec) 
select_counter is 358
Heartbeat CPU 0 instructions: 33000000 cycles: 68765720 heartbeat IPC: 0.645308 cumulative IPC: 0.357085 (Simulation time: 0 hr 17 min 9 sec) 
select_counter is 1010
Heartbeat CPU 0 instructions: 34000001 cycles: 70299134 heartbeat IPC: 0.65214 cumulative IPC: 0.363946 (Simulation time: 0 hr 17 min 39 sec) 
select_counter is 595
Heartbeat CPU 0 instructions: 35000001 cycles: 71925651 heartbeat IPC: 0.614811 cumulative IPC: 0.369984 (Simulation time: 0 hr 18 min 9 sec) 
select_counter is 94
Heartbeat CPU 0 instructions: 36000000 cycles: 73584628 heartbeat IPC: 0.602781 cumulative IPC: 0.375563 (Simulation time: 0 hr 18 min 39 sec) 
select_counter is 43
Heartbeat CPU 0 instructions: 37000002 cycles: 75502294 heartbeat IPC: 0.521468 cumulative IPC: 0.379496 (Simulation time: 0 hr 19 min 11 sec) 
select_counter is 461
Heartbeat CPU 0 instructions: 38000002 cycles: 77152638 heartbeat IPC: 0.605934 cumulative IPC: 0.384629 (Simulation time: 0 hr 19 min 41 sec) 
select_counter is 248
Heartbeat CPU 0 instructions: 39000000 cycles: 78732457 heartbeat IPC: 0.632983 cumulative IPC: 0.389904 (Simulation time: 0 hr 20 min 10 sec) 
select_counter is 807
Heartbeat CPU 0 instructions: 40000000 cycles: 80315203 heartbeat IPC: 0.631813 cumulative IPC: 0.394945 (Simulation time: 0 hr 20 min 41 sec) 
select_counter is 584
Heartbeat CPU 0 instructions: 41000000 cycles: 81943220 heartbeat IPC: 0.614244 cumulative IPC: 0.399546 (Simulation time: 0 hr 21 min 12 sec) 
select_counter is 556
Heartbeat CPU 0 instructions: 42000000 cycles: 83607006 heartbeat IPC: 0.601039 cumulative IPC: 0.403776 (Simulation time: 0 hr 21 min 46 sec) 
select_counter is 409
Heartbeat CPU 0 instructions: 43000002 cycles: 86584597 heartbeat IPC: 0.335843 cumulative IPC: 0.401316 (Simulation time: 0 hr 22 min 24 sec) 
select_counter is 1001
Heartbeat CPU 0 instructions: 44000000 cycles: 90088529 heartbeat IPC: 0.285393 cumulative IPC: 0.396579 (Simulation time: 0 hr 23 min 3 sec) 
select_counter is 790
Heartbeat CPU 0 instructions: 45000001 cycles: 93624892 heartbeat IPC: 0.282777 cumulative IPC: 0.39207 (Simulation time: 0 hr 23 min 42 sec) 
select_counter is 355
Heartbeat CPU 0 instructions: 46000000 cycles: 97112517 heartbeat IPC: 0.286728 cumulative IPC: 0.38811 (Simulation time: 0 hr 24 min 21 sec) 
select_counter is 989
Heartbeat CPU 0 instructions: 47000000 cycles: 100627337 heartbeat IPC: 0.28451 cumulative IPC: 0.384327 (Simulation time: 0 hr 25 min 0 sec) 
select_counter is 687
Heartbeat CPU 0 instructions: 48000000 cycles: 104326951 heartbeat IPC: 0.270298 cumulative IPC: 0.380107 (Simulation time: 0 hr 25 min 37 sec) 
select_counter is 257
Heartbeat CPU 0 instructions: 49000000 cycles: 108050169 heartbeat IPC: 0.268585 cumulative IPC: 0.376103 (Simulation time: 0 hr 26 min 16 sec) 
select_counter is 779
Heartbeat CPU 0 instructions: 50000000 cycles: 111812089 heartbeat IPC: 0.265822 cumulative IPC: 0.372242 (Simulation time: 0 hr 26 min 55 sec) 
select_counter is 577
Heartbeat CPU 0 instructions: 51000002 cycles: 115609860 heartbeat IPC: 0.263313 cumulative IPC: 0.368524 (Simulation time: 0 hr 27 min 36 sec) 
select_counter is 139
Heartbeat CPU 0 instructions: 52000000 cycles: 119389028 heartbeat IPC: 0.264608 cumulative IPC: 0.36511 (Simulation time: 0 hr 28 min 16 sec) 
select_counter is 837
Heartbeat CPU 0 instructions: 53000000 cycles: 123273374 heartbeat IPC: 0.257444 cumulative IPC: 0.361593 (Simulation time: 0 hr 28 min 56 sec) 
select_counter is 709
Heartbeat CPU 0 instructions: 54000001 cycles: 125614600 heartbeat IPC: 0.427127 cumulative IPC: 0.362859 (Simulation time: 0 hr 29 min 28 sec) 
select_counter is 40
Heartbeat CPU 0 instructions: 55000000 cycles: 127755350 heartbeat IPC: 0.467126 cumulative IPC: 0.364667 (Simulation time: 0 hr 30 min 3 sec) 
select_counter is 339
Heartbeat CPU 0 instructions: 56000000 cycles: 129881516 heartbeat IPC: 0.47033 cumulative IPC: 0.366457 (Simulation time: 0 hr 30 min 36 sec) 
select_counter is 393
Heartbeat CPU 0 instructions: 57000002 cycles: 131971423 heartbeat IPC: 0.478491 cumulative IPC: 0.368292 (Simulation time: 0 hr 31 min 8 sec) 
select_counter is 545
Heartbeat CPU 0 instructions: 58000000 cycles: 134018848 heartbeat IPC: 0.488417 cumulative IPC: 0.370189 (Simulation time: 0 hr 31 min 41 sec) 
select_counter is 563
Heartbeat CPU 0 instructions: 59000002 cycles: 136142515 heartbeat IPC: 0.470885 cumulative IPC: 0.371811 (Simulation time: 0 hr 32 min 15 sec) 
select_counter is 666
Heartbeat CPU 0 instructions: 60000000 cycles: 138031979 heartbeat IPC: 0.52925 cumulative IPC: 0.374037 (Simulation time: 0 hr 32 min 46 sec) 
select_counter is 896
Heartbeat CPU 0 instructions: 61000002 cycles: 139933970 heartbeat IPC: 0.525766 cumulative IPC: 0.376165 (Simulation time: 0 hr 33 min 17 sec) 
select_counter is 342
Heartbeat CPU 0 instructions: 62000000 cycles: 141812033 heartbeat IPC: 0.532462 cumulative IPC: 0.378301 (Simulation time: 0 hr 33 min 47 sec) 
select_counter is 383
Heartbeat CPU 0 instructions: 63000000 cycles: 143651936 heartbeat IPC: 0.543507 cumulative IPC: 0.380483 (Simulation time: 0 hr 34 min 17 sec) 
select_counter is 568
Heartbeat CPU 0 instructions: 64000000 cycles: 145755669 heartbeat IPC: 0.475345 cumulative IPC: 0.381894 (Simulation time: 0 hr 34 min 46 sec) 
select_counter is 987
Heartbeat CPU 0 instructions: 65000001 cycles: 147335252 heartbeat IPC: 0.633079 cumulative IPC: 0.384669 (Simulation time: 0 hr 35 min 12 sec) 
select_counter is 725
Heartbeat CPU 0 instructions: 66000001 cycles: 148940245 heartbeat IPC: 0.623056 cumulative IPC: 0.387315 (Simulation time: 0 hr 35 min 39 sec) 
select_counter is 532
Heartbeat CPU 0 instructions: 67000003 cycles: 150511494 heartbeat IPC: 0.636438 cumulative IPC: 0.389994 (Simulation time: 0 hr 36 min 7 sec) 
select_counter is 48
Heartbeat CPU 0 instructions: 68000000 cycles: 152088017 heartbeat IPC: 0.634305 cumulative IPC: 0.392601 (Simulation time: 0 hr 36 min 36 sec) 
select_counter is 734
Heartbeat CPU 0 instructions: 69000002 cycles: 153727334 heartbeat IPC: 0.610011 cumulative IPC: 0.394987 (Simulation time: 0 hr 37 min 1 sec) 
select_counter is 244
Heartbeat CPU 0 instructions: 70000000 cycles: 155424757 heartbeat IPC: 0.589127 cumulative IPC: 0.397168 (Simulation time: 0 hr 37 min 25 sec) 
select_counter is 926
Heartbeat CPU 0 instructions: 71000000 cycles: 157004618 heartbeat IPC: 0.632967 cumulative IPC: 0.399608 (Simulation time: 0 hr 37 min 50 sec) 
select_counter is 572
Heartbeat CPU 0 instructions: 72000000 cycles: 158651867 heartbeat IPC: 0.607073 cumulative IPC: 0.401823 (Simulation time: 0 hr 38 min 15 sec) 
select_counter is 358
Heartbeat CPU 0 instructions: 73000002 cycles: 160244493 heartbeat IPC: 0.627895 cumulative IPC: 0.404133 (Simulation time: 0 hr 38 min 38 sec) 
select_counter is 131
Heartbeat CPU 0 instructions: 74000000 cycles: 161823601 heartbeat IPC: 0.633268 cumulative IPC: 0.406431 (Simulation time: 0 hr 38 min 59 sec) 
select_counter is 878
Heartbeat CPU 0 instructions: 75000000 cycles: 163451822 heartbeat IPC: 0.614167 cumulative IPC: 0.408557 (Simulation time: 0 hr 39 min 21 sec) 
select_counter is 460
Heartbeat CPU 0 instructions: 76000000 cycles: 165075748 heartbeat IPC: 0.615792 cumulative IPC: 0.410651 (Simulation time: 0 hr 39 min 41 sec) 
select_counter is 178
Heartbeat CPU 0 instructions: 77000001 cycles: 168492153 heartbeat IPC: 0.292706 cumulative IPC: 0.408196 (Simulation time: 0 hr 40 min 5 sec) 
select_counter is 857
Heartbeat CPU 0 instructions: 78000000 cycles: 172064606 heartbeat IPC: 0.279919 cumulative IPC: 0.405463 (Simulation time: 0 hr 40 min 30 sec) 
select_counter is 590
Heartbeat CPU 0 instructions: 79000002 cycles: 175639266 heartbeat IPC: 0.279747 cumulative IPC: 0.40284 (Simulation time: 0 hr 40 min 52 sec) 
select_counter is 149
Heartbeat CPU 0 instructions: 80000000 cycles: 179209979 heartbeat IPC: 0.280056 cumulative IPC: 0.400332 (Simulation time: 0 hr 41 min 16 sec) 
select_counter is 17
Heartbeat CPU 0 instructions: 81000000 cycles: 182750547 heartbeat IPC: 0.282441 cumulative IPC: 0.397992 (Simulation time: 0 hr 41 min 35 sec) 
select_counter is 666
Heartbeat CPU 0 instructions: 82000002 cycles: 186587738 heartbeat IPC: 0.260608 cumulative IPC: 0.3951 (Simulation time: 0 hr 41 min 54 sec) 
select_counter is 514
Heartbeat CPU 0 instructions: 83000002 cycles: 190403847 heartbeat IPC: 0.262047 cumulative IPC: 0.392371 (Simulation time: 0 hr 42 min 14 sec) 
select_counter is 286
Heartbeat CPU 0 instructions: 84000000 cycles: 194178497 heartbeat IPC: 0.264925 cumulative IPC: 0.389836 (Simulation time: 0 hr 42 min 32 sec) 
select_counter is 979
Heartbeat CPU 0 instructions: 85000000 cycles: 197968537 heartbeat IPC: 0.263849 cumulative IPC: 0.38737 (Simulation time: 0 hr 42 min 47 sec) 
select_counter is 490
Heartbeat CPU 0 instructions: 86000000 cycles: 201789271 heartbeat IPC: 0.26173 cumulative IPC: 0.384939 (Simulation time: 0 hr 43 min 2 sec) 
select_counter is 53
Heartbeat CPU 0 instructions: 87000000 cycles: 205272512 heartbeat IPC: 0.287089 cumulative IPC: 0.383242 (Simulation time: 0 hr 43 min 15 sec) 
select_counter is 1017
Heartbeat CPU 0 instructions: 88000000 cycles: 207245634 heartbeat IPC: 0.506811 cumulative IPC: 0.384444 (Simulation time: 0 hr 43 min 26 sec) 
select_counter is 400
Heartbeat CPU 0 instructions: 89000001 cycles: 209130333 heartbeat IPC: 0.530589 cumulative IPC: 0.385789 (Simulation time: 0 hr 43 min 36 sec) 
select_counter is 719
Heartbeat CPU 0 instructions: 90000001 cycles: 211081173 heartbeat IPC: 0.5126 cumulative IPC: 0.386986 (Simulation time: 0 hr 43 min 47 sec) 
select_counter is 1008
Heartbeat CPU 0 instructions: 91000001 cycles: 213048982 heartbeat IPC: 0.508179 cumulative IPC: 0.388128 (Simulation time: 0 hr 43 min 58 sec) 
select_counter is 186
Heartbeat CPU 0 instructions: 92000000 cycles: 214967451 heartbeat IPC: 0.521248 cumulative IPC: 0.389341 (Simulation time: 0 hr 44 min 8 sec) 
select_counter is 331
Heartbeat CPU 0 instructions: 93000002 cycles: 216870937 heartbeat IPC: 0.525353 cumulative IPC: 0.390559 (Simulation time: 0 hr 44 min 17 sec) 
select_counter is 564
Heartbeat CPU 0 instructions: 94000001 cycles: 218655593 heartbeat IPC: 0.560332 cumulative IPC: 0.391973 (Simulation time: 0 hr 44 min 25 sec) 
select_counter is 1003
Heartbeat CPU 0 instructions: 95000000 cycles: 220494207 heartbeat IPC: 0.543887 cumulative IPC: 0.393265 (Simulation time: 0 hr 44 min 32 sec) 
select_counter is 435
Heartbeat CPU 0 instructions: 96000000 cycles: 222185838 heartbeat IPC: 0.591145 cumulative IPC: 0.394802 (Simulation time: 0 hr 44 min 39 sec) 
select_counter is 757
Heartbeat CPU 0 instructions: 97000000 cycles: 223928889 heartbeat IPC: 0.573707 cumulative IPC: 0.396222 (Simulation time: 0 hr 44 min 44 sec) 
select_counter is 893
Heartbeat CPU 0 instructions: 98000000 cycles: 225674037 heartbeat IPC: 0.573017 cumulative IPC: 0.397616 (Simulation time: 0 hr 44 min 48 sec) 
select_counter is 668
Heartbeat CPU 0 instructions: 99000001 cycles: 227308719 heartbeat IPC: 0.61174 cumulative IPC: 0.399186 (Simulation time: 0 hr 44 min 52 sec) 
select_counter is 314
Heartbeat CPU 0 instructions: 100000000 cycles: 228881238 heartbeat IPC: 0.635922 cumulative IPC: 0.400844 (Simulation time: 0 hr 44 min 56 sec) 
select_counter is 39
Heartbeat CPU 0 instructions: 101000002 cycles: 230477342 heartbeat IPC: 0.626527 cumulative IPC: 0.402437 (Simulation time: 0 hr 45 min 0 sec) 
select_counter is 431
Heartbeat CPU 0 instructions: 102000003 cycles: 232072954 heartbeat IPC: 0.626719 cumulative IPC: 0.404009 (Simulation time: 0 hr 45 min 4 sec) 
select_counter is 1016
Heartbeat CPU 0 instructions: 103000000 cycles: 233739022 heartbeat IPC: 0.600214 cumulative IPC: 0.405434 (Simulation time: 0 hr 45 min 8 sec) 
select_counter is 972
Heartbeat CPU 0 instructions: 104000000 cycles: 235458779 heartbeat IPC: 0.581478 cumulative IPC: 0.406744 (Simulation time: 0 hr 45 min 12 sec) 
select_counter is 953
Heartbeat CPU 0 instructions: 105000003 cycles: 237037465 heartbeat IPC: 0.63344 cumulative IPC: 0.408282 (Simulation time: 0 hr 45 min 16 sec) 
select_counter is 692
Heartbeat CPU 0 instructions: 106000003 cycles: 238689302 heartbeat IPC: 0.605387 cumulative IPC: 0.409672 (Simulation time: 0 hr 45 min 20 sec) 
select_counter is 450
Heartbeat CPU 0 instructions: 107000001 cycles: 240321616 heartbeat IPC: 0.612626 cumulative IPC: 0.411075 (Simulation time: 0 hr 45 min 25 sec) 
select_counter is 83
Heartbeat CPU 0 instructions: 108000000 cycles: 241885411 heartbeat IPC: 0.639469 cumulative IPC: 0.412579 (Simulation time: 0 hr 45 min 29 sec) 
select_counter is 852
Heartbeat CPU 0 instructions: 109000000 cycles: 243542725 heartbeat IPC: 0.603386 cumulative IPC: 0.413901 (Simulation time: 0 hr 45 min 33 sec) 
select_counter is 515
Heartbeat CPU 0 instructions: 110000002 cycles: 245440185 heartbeat IPC: 0.527021 cumulative IPC: 0.414792 (Simulation time: 0 hr 45 min 37 sec) 
select_counter is 382
Finished CPU 0 instructions: 100000000 cycles: 241084972 cummulative IPC: 0.414791 (Simulation time: 0 hr 45 min 37 sec) 

ChampSim completed all CPUs

Region of Interest Statistics

CPU 0 cummulative IPC: 0.414791 instructions: 100000000 cycles: 241084972
LLC TOTAL     ACCESS:   12983642  HIT:    9290336  MISS:    3693306
LLC LOAD      ACCESS:    5288877  HIT:    4257409  MISS:    1031468
LLC RFO       ACCESS:          0  HIT:          0  MISS:          0
LLC PREFETCH  ACCESS:    6783451  HIT:    4132834  MISS:    2650617
LLC WRITEBACK ACCESS:     911314  HIT:     900093  MISS:      11221
Ship samples: 
4, 42, 77, 104, 159, 188, 207, 237, 273, 303, 321, 377, 392, 442, 473, 503, 521, 548, 587, 614, 669, 696, 734, 767, 782, 816, 835, 887, 904, 941, 961, 1008, 1032, 1070, 1098, 1137, 1169, 1195, 1244, 1253, 1284, 1338, 1347, 1403, 1436, 1458, 1485, 1504, 1542, 1577, 1607, 1661, 1687, 1710, 1730, 1790, 1801, 1837, 1867, 1912, 1938, 1957, 1997, 2036, 
Lime duel samples: 
5, 61, 74, 106, 147, 177, 206, 251, 275, 297, 346, 353, 414, 433, 467, 511, 534, 545, 595, 620, 650, 675, 716, 741, 783, 809, 847, 878, 916, 938, 967, 996, 1026, 1059, 1108, 1144, 1165, 1213, 1238, 1274, 1291, 1333, 1351, 1394, 1419, 1449, 1502, 1506, 1557, 1582, 1616, 1658, 1688, 1704, 1747, 1780, 1798, 1849, 1869, 1897, 1927, 1963, 2015, 2022, 
Lime samples: 
5, 147, 275, 414, 534, 650, 783, 916, 1026, 1165, 1291, 1419, 1557, 1688, 1798, 1927, 
Insertion Distribution: 
	LOAD 138258 0 0 0 0 0 28903 391020 
	RFO 22 0 0 0 0 0 15573 0 
	PREF 0 468130 0 0 0 0 65378 393350 
	WRITEBACK 0 0 0 0 0 0 0 6180 
Total Prefetch Downgrades: 368038
