Initialize SIGNATURE TABLE
ST_SET: 1
ST_WAY: 256
ST_TAG_BIT: 16
ST_TAG_MASK: ffff

Initialize PATTERN TABLE
PT_SET: 512
PT_WAY: 4
SIG_DELTA_BIT: 7
C_SIG_BIT: 4
C_DELTA_BIT: 4

Initialize PREFETCH FILTER
FILTER_SET: 1024

*** ChampSim Multicore Out-of-Order Simulator ***

Warmup Instructions: 50000000
Simulation Instructions: 50000000
Number of CPUs: 1
LLC sets: 2048
LLC ways: 16
Off-chip DRAM Size: 4096 MB Channels: 1 Width: 64-bit Data Rate: 3200 MT/s

CPU 0 runs /Users/gandhardeshpande/Desktop/CSE240C/HW1/ChampSim/ipc1_public/client_005.champsimtrace.xz
CPU 0 L1I next line prefetcher
Running FNL-MMA for L1I
CPU 0 L1D next line prefetcher
Heartbeat CPU 0 instructions: 10000001 cycles: 3291488 heartbeat IPC: 3.03814 cumulative IPC: 3.03814 (Simulation time: 0 hr 0 min 14 sec) 
Heartbeat CPU 0 instructions: 20000002 cycles: 6697028 heartbeat IPC: 2.93639 cumulative IPC: 2.9864 (Simulation time: 0 hr 0 min 28 sec) 
Heartbeat CPU 0 instructions: 30000001 cycles: 10390380 heartbeat IPC: 2.70757 cumulative IPC: 2.88729 (Simulation time: 0 hr 0 min 43 sec) 
Heartbeat CPU 0 instructions: 40000000 cycles: 14068242 heartbeat IPC: 2.71897 cumulative IPC: 2.84328 (Simulation time: 0 hr 0 min 58 sec) 
Heartbeat CPU 0 instructions: 50000001 cycles: 17341635 heartbeat IPC: 3.05493 cumulative IPC: 2.88323 (Simulation time: 0 hr 1 min 11 sec) 

Warmup complete CPU 0 instructions: 50000001 cycles: 17341635 (Simulation time: 0 hr 1 min 11 sec) 

Heartbeat CPU 0 instructions: 60000002 cycles: 25137675 heartbeat IPC: 1.2827 cumulative IPC: 1.2827 (Simulation time: 0 hr 1 min 22 sec) 
Heartbeat CPU 0 instructions: 70000003 cycles: 32505233 heartbeat IPC: 1.3573 cumulative IPC: 1.31895 (Simulation time: 0 hr 1 min 35 sec) 
Heartbeat CPU 0 instructions: 80000001 cycles: 39439861 heartbeat IPC: 1.44204 cumulative IPC: 1.35758 (Simulation time: 0 hr 1 min 48 sec) 
Heartbeat CPU 0 instructions: 90000002 cycles: 48969832 heartbeat IPC: 1.04932 cumulative IPC: 1.26469 (Simulation time: 0 hr 2 min 2 sec) 
Heartbeat CPU 0 instructions: 100000002 cycles: 56622061 heartbeat IPC: 1.30681 cumulative IPC: 1.2729 (Simulation time: 0 hr 2 min 13 sec) 
Finished CPU 0 instructions: 50000001 cycles: 39280426 cumulative IPC: 1.2729 (Simulation time: 0 hr 2 min 13 sec) 

ChampSim completed all CPUs

Region of Interest Statistics

CPU 0 cumulative IPC: 1.2729 instructions: 50000001 cycles: 39280426
L1D TOTAL     ACCESS:   19720011  HIT:   19184054  MISS:     535957
L1D LOAD      ACCESS:    6687149  HIT:    6515736  MISS:     171413
L1D RFO       ACCESS:    6798074  HIT:    6613646  MISS:     184428
L1D PREFETCH  ACCESS:    6234788  HIT:    6054672  MISS:     180116
L1D WRITEBACK ACCESS:          0  HIT:          0  MISS:          0
L1D PREFETCH  REQUESTED:    6710613  ISSUED:    6339458  USEFUL:      59808  USELESS:     120196
L1D AVERAGE MISS LATENCY: 92.166 cycles
L1I TOTAL     ACCESS:   11449900  HIT:   10515092  MISS:     934808
L1I LOAD      ACCESS:    9313038  HIT:    9045941  MISS:     267097
L1I RFO       ACCESS:          0  HIT:          0  MISS:          0
L1I PREFETCH  ACCESS:    2136862  HIT:    1469151  MISS:     667711
L1I WRITEBACK ACCESS:          0  HIT:          0  MISS:          0
L1I PREFETCH  REQUESTED:    2258262  ISSUED:    2258258  USEFUL:     464524  USELESS:     203147
L1I AVERAGE MISS LATENCY: 20.3969 cycles
L2C TOTAL     ACCESS:    2187548  HIT:    1806700  MISS:     380848
L2C LOAD      ACCESS:     389285  HIT:     297995  MISS:      91290
L2C RFO       ACCESS:     180799  HIT:      31852  MISS:     148947
L2C PREFETCH  ACCESS:    1364396  HIT:    1224699  MISS:     139697
L2C WRITEBACK ACCESS:     253068  HIT:     252154  MISS:        914
L2C PREFETCH  REQUESTED:    1465850  ISSUED:    1465518  USEFUL:      14792  USELESS:     123319
L2C AVERAGE MISS LATENCY: 128.338 cycles
LLC TOTAL     ACCESS:     914536  HIT:     615056  MISS:     299480
LLC LOAD      ACCESS:      91272  HIT:      47837  MISS:      43435
LLC RFO       ACCESS:     148944  HIT:      18731  MISS:     130213
LLC PREFETCH  ACCESS:     475508  HIT:     350542  MISS:     124966
LLC WRITEBACK ACCESS:     198812  HIT:     197946  MISS:        866
LLC PREFETCH  REQUESTED:          0  ISSUED:          0  USEFUL:      27013  USELESS:      94025
LLC AVERAGE MISS LATENCY: 167.826 cycles
Major fault: 0 Minor fault: 6084
I-Shadow cache 408 bytes
Touched + WorthPF tables 24576 bytes 
MMA filter 174 bytes 
FNL filter 272 bytes 
TOTAL PREFETCHER STORAGE SIZE: 98134 bytes
CPU 0 L1I next line prefetcher final stats
CPU 0 L1D next line prefetcher final stats

DRAM Statistics
 CHANNEL 0
 RQ ROW_BUFFER_HIT:      96428  ROW_BUFFER_MISS:     202175
 DBUS_CONGESTED:     243050
 WQ ROW_BUFFER_HIT:      51355  ROW_BUFFER_MISS:     131494  FULL:          0

 AVG_CONGESTED_CYCLE: 6

CPU 0 Branch Prediction Accuracy: 97.8666% MPKI: 3.9013 Average ROB Occupancy at Mispredict: 84.4858

Branch types
NOT_BRANCH: 40856330 81.7127%
BRANCH_DIRECT_JUMP: 484667 0.969334%
BRANCH_INDIRECT: 85086 0.170172%
BRANCH_CONDITIONAL: 6230887 12.4618%
BRANCH_DIRECT_CALL: 1028917 2.05783%
BRANCH_INDIRECT_CALL: 141825 0.28365%
BRANCH_RETURN: 1171986 2.34397%
BRANCH_OTHER: 0 0%

