Initialize SIGNATURE TABLE
ST_SET: 1
ST_WAY: 256
ST_TAG_BIT: 16
ST_TAG_MASK: ffff

Initialize PATTERN TABLE
PT_SET: 512
PT_WAY: 4
SIG_DELTA_BIT: 7
C_SIG_BIT: 4
C_DELTA_BIT: 4

Initialize PREFETCH FILTER
FILTER_SET: 1024

*** ChampSim Multicore Out-of-Order Simulator ***

Warmup Instructions: 50000000
Simulation Instructions: 50000000
Number of CPUs: 1
LLC sets: 2048
LLC ways: 16
Off-chip DRAM Size: 4096 MB Channels: 1 Width: 64-bit Data Rate: 3200 MT/s

CPU 0 runs /Users/gandhardeshpande/Desktop/CSE240C/HW1/ChampSim/ipc1_public/server_039.champsimtrace.xz
CPU 0 L1I next line prefetcher
Running FNL-MMA for L1I
CPU 0 L1D next line prefetcher
Heartbeat CPU 0 instructions: 10000003 cycles: 3451525 heartbeat IPC: 2.89727 cumulative IPC: 2.89727 (Simulation time: 0 hr 0 min 15 sec) 
Heartbeat CPU 0 instructions: 20000002 cycles: 6896105 heartbeat IPC: 2.90311 cumulative IPC: 2.90019 (Simulation time: 0 hr 0 min 30 sec) 
Heartbeat CPU 0 instructions: 30000001 cycles: 10342501 heartbeat IPC: 2.90158 cumulative IPC: 2.90065 (Simulation time: 0 hr 0 min 45 sec) 
Heartbeat CPU 0 instructions: 40000002 cycles: 13784305 heartbeat IPC: 2.90545 cumulative IPC: 2.90185 (Simulation time: 0 hr 1 min 0 sec) 
Heartbeat CPU 0 instructions: 50000001 cycles: 17225468 heartbeat IPC: 2.90599 cumulative IPC: 2.90268 (Simulation time: 0 hr 1 min 15 sec) 

Warmup complete CPU 0 instructions: 50000001 cycles: 17225468 (Simulation time: 0 hr 1 min 15 sec) 

Heartbeat CPU 0 instructions: 60000000 cycles: 22999410 heartbeat IPC: 1.73192 cumulative IPC: 1.73192 (Simulation time: 0 hr 1 min 29 sec) 
Heartbeat CPU 0 instructions: 70000000 cycles: 28770520 heartbeat IPC: 1.73277 cumulative IPC: 1.73234 (Simulation time: 0 hr 1 min 44 sec) 
Heartbeat CPU 0 instructions: 80000000 cycles: 34538334 heartbeat IPC: 1.73376 cumulative IPC: 1.73282 (Simulation time: 0 hr 1 min 58 sec) 
Heartbeat CPU 0 instructions: 90000001 cycles: 40309420 heartbeat IPC: 1.73278 cumulative IPC: 1.73281 (Simulation time: 0 hr 2 min 13 sec) 
Heartbeat CPU 0 instructions: 100000002 cycles: 46086670 heartbeat IPC: 1.73093 cumulative IPC: 1.73243 (Simulation time: 0 hr 2 min 27 sec) 
Finished CPU 0 instructions: 50000001 cycles: 28861202 cumulative IPC: 1.73243 (Simulation time: 0 hr 2 min 27 sec) 

ChampSim completed all CPUs

Region of Interest Statistics

CPU 0 cumulative IPC: 1.73243 instructions: 50000001 cycles: 28861202
L1D TOTAL     ACCESS:   19879848  HIT:   19385245  MISS:     494603
L1D LOAD      ACCESS:    6488520  HIT:    6266992  MISS:     221528
L1D RFO       ACCESS:    7089695  HIT:    7022715  MISS:      66980
L1D PREFETCH  ACCESS:    6301633  HIT:    6095538  MISS:     206095
L1D WRITEBACK ACCESS:          0  HIT:          0  MISS:          0
L1D PREFETCH  REQUESTED:    6504605  ISSUED:    6371238  USEFUL:      49946  USELESS:     156153
L1D AVERAGE MISS LATENCY: 15.0479 cycles
L1I TOTAL     ACCESS:   16024851  HIT:   11125232  MISS:    4899619
L1I LOAD      ACCESS:    9350916  HIT:    9265659  MISS:      85257
L1I RFO       ACCESS:          0  HIT:          0  MISS:          0
L1I PREFETCH  ACCESS:    6673935  HIT:    1859573  MISS:    4814362
L1I WRITEBACK ACCESS:          0  HIT:          0  MISS:          0
L1I PREFETCH  REQUESTED:    6826723  ISSUED:    6826723  USEFUL:    4113526  USELESS:     700867
L1I AVERAGE MISS LATENCY: 14.4458 cycles
L2C TOTAL     ACCESS:    7340747  HIT:    7340671  MISS:         76
L2C LOAD      ACCESS:     248949  HIT:     248946  MISS:          3
L2C RFO       ACCESS:      66751  HIT:      66751  MISS:          0
L2C PREFETCH  ACCESS:    6845070  HIT:    6844997  MISS:         73
L2C WRITEBACK ACCESS:     179977  HIT:     179977  MISS:          0
L2C PREFETCH  REQUESTED:    5482816  ISSUED:    5482659  USEFUL:          1  USELESS:          0
L2C AVERAGE MISS LATENCY: 54.7895 cycles
LLC TOTAL     ACCESS:     848332  HIT:     847943  MISS:        389
LLC LOAD      ACCESS:          3  HIT:          2  MISS:          1
LLC RFO       ACCESS:          0  HIT:          0  MISS:          0
LLC PREFETCH  ACCESS:     848329  HIT:     847941  MISS:        388
LLC WRITEBACK ACCESS:          0  HIT:          0  MISS:          0
LLC PREFETCH  REQUESTED:          0  ISSUED:          0  USEFUL:          2  USELESS:          0
LLC AVERAGE MISS LATENCY: 171.568 cycles
Major fault: 0 Minor fault: 356
I-Shadow cache 408 bytes
Touched + WorthPF tables 24576 bytes 
MMA filter 174 bytes 
FNL filter 272 bytes 
TOTAL PREFETCHER STORAGE SIZE: 98134 bytes
CPU 0 L1I next line prefetcher final stats
CPU 0 L1D next line prefetcher final stats

DRAM Statistics
 CHANNEL 0
 RQ ROW_BUFFER_HIT:         53  ROW_BUFFER_MISS:        336
 DBUS_CONGESTED:         67
 WQ ROW_BUFFER_HIT:          0  ROW_BUFFER_MISS:          0  FULL:          0

 AVG_CONGESTED_CYCLE: 6

CPU 0 Branch Prediction Accuracy: 99.9091% MPKI: 0.1547 Average ROB Occupancy at Mispredict: 284.442

Branch types
NOT_BRANCH: 41495035 82.9901%
BRANCH_DIRECT_JUMP: 491309 0.982618%
BRANCH_INDIRECT: 0 0%
BRANCH_CONDITIONAL: 5595262 11.1905%
BRANCH_DIRECT_CALL: 1028409 2.05682%
BRANCH_INDIRECT_CALL: 180757 0.361514%
BRANCH_RETURN: 1209170 2.41834%
BRANCH_OTHER: 0 0%

