Initialize SIGNATURE TABLE
ST_SET: 1
ST_WAY: 256
ST_TAG_BIT: 16
ST_TAG_MASK: ffff

Initialize PATTERN TABLE
PT_SET: 512
PT_WAY: 4
SIG_DELTA_BIT: 7
C_SIG_BIT: 4
C_DELTA_BIT: 4

Initialize PREFETCH FILTER
FILTER_SET: 1024

*** ChampSim Multicore Out-of-Order Simulator ***

Warmup Instructions: 50000000
Simulation Instructions: 50000000
Number of CPUs: 1
LLC sets: 2048
LLC ways: 16
Off-chip DRAM Size: 4096 MB Channels: 1 Width: 64-bit Data Rate: 3200 MT/s

CPU 0 runs /Users/gandhardeshpande/Desktop/CSE240C/HW1/ChampSim/ipc1_public/server_025.champsimtrace.xz
CPU 0 L1I next line prefetcher
Running FNL-MMA for L1I
CPU 0 L1D next line prefetcher
Heartbeat CPU 0 instructions: 10000003 cycles: 3528671 heartbeat IPC: 2.83393 cumulative IPC: 2.83393 (Simulation time: 0 hr 0 min 15 sec) 
Heartbeat CPU 0 instructions: 20000000 cycles: 7064013 heartbeat IPC: 2.82858 cumulative IPC: 2.83125 (Simulation time: 0 hr 0 min 29 sec) 
Heartbeat CPU 0 instructions: 30000001 cycles: 10591064 heartbeat IPC: 2.83523 cumulative IPC: 2.83258 (Simulation time: 0 hr 0 min 44 sec) 
Heartbeat CPU 0 instructions: 40000003 cycles: 14124876 heartbeat IPC: 2.82981 cumulative IPC: 2.83188 (Simulation time: 0 hr 0 min 59 sec) 
Heartbeat CPU 0 instructions: 50000001 cycles: 17656516 heartbeat IPC: 2.83155 cumulative IPC: 2.83182 (Simulation time: 0 hr 1 min 14 sec) 

Warmup complete CPU 0 instructions: 50000001 cycles: 17656516 (Simulation time: 0 hr 1 min 14 sec) 

Heartbeat CPU 0 instructions: 60000002 cycles: 24542186 heartbeat IPC: 1.45229 cumulative IPC: 1.45229 (Simulation time: 0 hr 1 min 29 sec) 
Heartbeat CPU 0 instructions: 70000000 cycles: 31547620 heartbeat IPC: 1.42746 cumulative IPC: 1.43977 (Simulation time: 0 hr 1 min 45 sec) 
Heartbeat CPU 0 instructions: 80000002 cycles: 38465953 heartbeat IPC: 1.44544 cumulative IPC: 1.44165 (Simulation time: 0 hr 2 min 0 sec) 
Heartbeat CPU 0 instructions: 90000001 cycles: 45037995 heartbeat IPC: 1.5216 cumulative IPC: 1.46084 (Simulation time: 0 hr 2 min 16 sec) 
Heartbeat CPU 0 instructions: 100000003 cycles: 51295657 heartbeat IPC: 1.59804 cumulative IPC: 1.48636 (Simulation time: 0 hr 2 min 30 sec) 
Finished CPU 0 instructions: 50000002 cycles: 33639141 cumulative IPC: 1.48636 (Simulation time: 0 hr 2 min 30 sec) 

ChampSim completed all CPUs

Region of Interest Statistics

CPU 0 cumulative IPC: 1.48636 instructions: 50000002 cycles: 33639141
L1D TOTAL     ACCESS:   19990586  HIT:   18565310  MISS:    1425276
L1D LOAD      ACCESS:    6960507  HIT:    6341021  MISS:     619486
L1D RFO       ACCESS:    6383512  HIT:    6135606  MISS:     247906
L1D PREFETCH  ACCESS:    6646567  HIT:    6088683  MISS:     557884
L1D WRITEBACK ACCESS:          0  HIT:          0  MISS:          0
L1D PREFETCH  REQUESTED:    7001155  ISSUED:    6826513  USEFUL:     130652  USELESS:     427225
L1D AVERAGE MISS LATENCY: 24.0534 cycles
L1I TOTAL     ACCESS:   14089251  HIT:   10664488  MISS:    3424763
L1I LOAD      ACCESS:    9524686  HIT:    9458339  MISS:      66347
L1I RFO       ACCESS:          0  HIT:          0  MISS:          0
L1I PREFETCH  ACCESS:    4564565  HIT:    1206149  MISS:    3358416
L1I WRITEBACK ACCESS:          0  HIT:          0  MISS:          0
L1I PREFETCH  REQUESTED:    4679854  ISSUED:    4679081  USEFUL:    2454644  USELESS:     903771
L1I AVERAGE MISS LATENCY: 19.4402 cycles
L2C TOTAL     ACCESS:    6448275  HIT:    5619073  MISS:     829202
L2C LOAD      ACCESS:     622428  HIT:     488037  MISS:     134391
L2C RFO       ACCESS:     246467  HIT:     169678  MISS:      76789
L2C PREFETCH  ACCESS:    5082651  HIT:    4469505  MISS:     613146
L2C WRITEBACK ACCESS:     496729  HIT:     491853  MISS:       4876
L2C PREFETCH  REQUESTED:    4906975  ISSUED:    4898805  USEFUL:      12598  USELESS:     600233
L2C AVERAGE MISS LATENCY: 37.4847 cycles
LLC TOTAL     ACCESS:    2238953  HIT:    2208802  MISS:      30151
LLC LOAD      ACCESS:     134263  HIT:     130897  MISS:       3366
LLC RFO       ACCESS:      76756  HIT:      65980  MISS:      10776
LLC PREFETCH  ACCESS:    1891285  HIT:    1875483  MISS:      15802
LLC WRITEBACK ACCESS:     136649  HIT:     136442  MISS:        207
LLC PREFETCH  REQUESTED:          0  ISSUED:          0  USEFUL:       1123  USELESS:      13459
LLC AVERAGE MISS LATENCY: 179.271 cycles
Major fault: 0 Minor fault: 2458
I-Shadow cache 408 bytes
Touched + WorthPF tables 24576 bytes 
MMA filter 174 bytes 
FNL filter 272 bytes 
TOTAL PREFETCHER STORAGE SIZE: 98134 bytes
CPU 0 L1I next line prefetcher final stats
CPU 0 L1D next line prefetcher final stats

DRAM Statistics
 CHANNEL 0
 RQ ROW_BUFFER_HIT:       9201  ROW_BUFFER_MISS:      20735
 DBUS_CONGESTED:      18889
 WQ ROW_BUFFER_HIT:       1397  ROW_BUFFER_MISS:      12099  FULL:          0

 AVG_CONGESTED_CYCLE: 6

CPU 0 Branch Prediction Accuracy: 99.8142% MPKI: 0.34676 Average ROB Occupancy at Mispredict: 202.499

Branch types
NOT_BRANCH: 40668897 81.3378%
BRANCH_DIRECT_JUMP: 531700 1.0634%
BRANCH_INDIRECT: 199025 0.39805%
BRANCH_CONDITIONAL: 6211492 12.423%
BRANCH_DIRECT_CALL: 1010911 2.02182%
BRANCH_INDIRECT_CALL: 183501 0.367002%
BRANCH_RETURN: 1194415 2.38883%
BRANCH_OTHER: 0 0%

