Initialize SIGNATURE TABLE
ST_SET: 1
ST_WAY: 256
ST_TAG_BIT: 16
ST_TAG_MASK: ffff

Initialize PATTERN TABLE
PT_SET: 512
PT_WAY: 4
SIG_DELTA_BIT: 7
C_SIG_BIT: 4
C_DELTA_BIT: 4

Initialize PREFETCH FILTER
FILTER_SET: 1024

*** ChampSim Multicore Out-of-Order Simulator ***

Warmup Instructions: 50000000
Simulation Instructions: 50000000
Number of CPUs: 1
LLC sets: 2048
LLC ways: 16
Off-chip DRAM Size: 4096 MB Channels: 1 Width: 64-bit Data Rate: 3200 MT/s

CPU 0 runs /Users/gandhardeshpande/Desktop/CSE240C/HW1/ChampSim/ipc1_public/server_026.champsimtrace.xz
CPU 0 L1I next line prefetcher
Running FNL-MMA for L1I
CPU 0 L1D next line prefetcher
Heartbeat CPU 0 instructions: 10000000 cycles: 3524552 heartbeat IPC: 2.83724 cumulative IPC: 2.83724 (Simulation time: 0 hr 0 min 15 sec) 
Heartbeat CPU 0 instructions: 20000002 cycles: 7054675 heartbeat IPC: 2.83276 cumulative IPC: 2.835 (Simulation time: 0 hr 0 min 30 sec) 
Heartbeat CPU 0 instructions: 30000000 cycles: 10574921 heartbeat IPC: 2.84071 cumulative IPC: 2.8369 (Simulation time: 0 hr 0 min 45 sec) 
Heartbeat CPU 0 instructions: 40000003 cycles: 14104132 heartbeat IPC: 2.8335 cumulative IPC: 2.83605 (Simulation time: 0 hr 1 min 0 sec) 
Heartbeat CPU 0 instructions: 50000000 cycles: 17626550 heartbeat IPC: 2.83896 cumulative IPC: 2.83663 (Simulation time: 0 hr 1 min 15 sec) 

Warmup complete CPU 0 instructions: 50000004 cycles: 17626551 (Simulation time: 0 hr 1 min 15 sec) 

*** Reached end of trace for Core: 0 Repeating trace: /Users/gandhardeshpande/Desktop/CSE240C/HW1/ChampSim/ipc1_public/server_026.champsimtrace.xz
Heartbeat CPU 0 instructions: 60000000 cycles: 24542530 heartbeat IPC: 1.44593 cumulative IPC: 1.44593 (Simulation time: 0 hr 1 min 30 sec) 
Heartbeat CPU 0 instructions: 70000003 cycles: 31352448 heartbeat IPC: 1.46845 cumulative IPC: 1.4571 (Simulation time: 0 hr 1 min 45 sec) 
Heartbeat CPU 0 instructions: 80000002 cycles: 38266137 heartbeat IPC: 1.44641 cumulative IPC: 1.45352 (Simulation time: 0 hr 2 min 1 sec) 
Heartbeat CPU 0 instructions: 90000002 cycles: 45081045 heartbeat IPC: 1.46737 cumulative IPC: 1.45696 (Simulation time: 0 hr 2 min 16 sec) 
Heartbeat CPU 0 instructions: 100000000 cycles: 51964891 heartbeat IPC: 1.45268 cumulative IPC: 1.4561 (Simulation time: 0 hr 2 min 31 sec) 
Finished CPU 0 instructions: 50000000 cycles: 34338341 cumulative IPC: 1.4561 (Simulation time: 0 hr 2 min 31 sec) 

ChampSim completed all CPUs

Region of Interest Statistics

CPU 0 cumulative IPC: 1.4561 instructions: 50000000 cycles: 34338341
L1D TOTAL     ACCESS:   19778717  HIT:   18133888  MISS:    1644829
L1D LOAD      ACCESS:    6935663  HIT:    6205491  MISS:     730172
L1D RFO       ACCESS:    6243958  HIT:    5957194  MISS:     286764
L1D PREFETCH  ACCESS:    6599096  HIT:    5971203  MISS:     627893
L1D WRITEBACK ACCESS:          0  HIT:          0  MISS:          0
L1D PREFETCH  REQUESTED:    6983162  ISSUED:    6840007  USEFUL:     150433  USELESS:     477471
L1D AVERAGE MISS LATENCY: 24.4094 cycles
L1I TOTAL     ACCESS:   14584386  HIT:   10750395  MISS:    3833991
L1I LOAD      ACCESS:    9508905  HIT:    9435773  MISS:      73132
L1I RFO       ACCESS:          0  HIT:          0  MISS:          0
L1I PREFETCH  ACCESS:    5075481  HIT:    1314622  MISS:    3760859
L1I WRITEBACK ACCESS:          0  HIT:          0  MISS:          0
L1I PREFETCH  REQUESTED:    5200809  ISSUED:    5200117  USEFUL:    2765208  USELESS:     995670
L1I AVERAGE MISS LATENCY: 19.0228 cycles
L2C TOTAL     ACCESS:    7398286  HIT:    6505945  MISS:     892341
L2C LOAD      ACCESS:     716740  HIT:     565200  MISS:     151540
L2C RFO       ACCESS:     284812  HIT:     181037  MISS:     103775
L2C PREFETCH  ACCESS:    5835570  HIT:    5202329  MISS:     633241
L2C WRITEBACK ACCESS:     561164  HIT:     557379  MISS:       3785
L2C PREFETCH  REQUESTED:    6471721  ISSUED:    6462983  USEFUL:      16036  USELESS:     616932
L2C AVERAGE MISS LATENCY: 38.7308 cycles
LLC TOTAL     ACCESS:    2617131  HIT:    2581168  MISS:      35963
LLC LOAD      ACCESS:     151219  HIT:     147677  MISS:       3542
LLC RFO       ACCESS:     103723  HIT:      89116  MISS:      14607
LLC PREFETCH  ACCESS:    2190475  HIT:    2172863  MISS:      17612
LLC WRITEBACK ACCESS:     171714  HIT:     171512  MISS:        202
LLC PREFETCH  REQUESTED:          0  ISSUED:          0  USEFUL:       1041  USELESS:      16244
LLC AVERAGE MISS LATENCY: 188.591 cycles
Major fault: 0 Minor fault: 2166
I-Shadow cache 408 bytes
Touched + WorthPF tables 24576 bytes 
MMA filter 174 bytes 
FNL filter 272 bytes 
TOTAL PREFETCHER STORAGE SIZE: 98134 bytes
CPU 0 L1I next line prefetcher final stats
CPU 0 L1D next line prefetcher final stats

DRAM Statistics
 CHANNEL 0
 RQ ROW_BUFFER_HIT:      12645  ROW_BUFFER_MISS:      23104
 DBUS_CONGESTED:      24016
 WQ ROW_BUFFER_HIT:       1616  ROW_BUFFER_MISS:      14624  FULL:          0

 AVG_CONGESTED_CYCLE: 6

CPU 0 Branch Prediction Accuracy: 99.822% MPKI: 0.32584 Average ROB Occupancy at Mispredict: 201.86

Branch types
NOT_BRANCH: 40848554 81.6971%
BRANCH_DIRECT_JUMP: 522045 1.04409%
BRANCH_INDIRECT: 204034 0.408068%
BRANCH_CONDITIONAL: 6212958 12.4259%
BRANCH_DIRECT_CALL: 932391 1.86478%
BRANCH_INDIRECT_CALL: 173764 0.347528%
BRANCH_RETURN: 1106152 2.2123%
BRANCH_OTHER: 0 0%

