Initialize SIGNATURE TABLE
ST_SET: 1
ST_WAY: 256
ST_TAG_BIT: 16
ST_TAG_MASK: ffff

Initialize PATTERN TABLE
PT_SET: 512
PT_WAY: 4
SIG_DELTA_BIT: 7
C_SIG_BIT: 4
C_DELTA_BIT: 4

Initialize PREFETCH FILTER
FILTER_SET: 1024

*** ChampSim Multicore Out-of-Order Simulator ***

Warmup Instructions: 50000000
Simulation Instructions: 50000000
Number of CPUs: 1
LLC sets: 2048
LLC ways: 16
Off-chip DRAM Size: 4096 MB Channels: 1 Width: 64-bit Data Rate: 3200 MT/s

CPU 0 runs /Users/gandhardeshpande/Desktop/CSE240C/HW1/ChampSim/ipc1_public/server_036.champsimtrace.xz
CPU 0 L1I next line prefetcher
Running FNL-MMA for L1I
CPU 0 L1D next line prefetcher
Heartbeat CPU 0 instructions: 10000000 cycles: 3458956 heartbeat IPC: 2.89105 cumulative IPC: 2.89105 (Simulation time: 0 hr 0 min 15 sec) 
Heartbeat CPU 0 instructions: 20000000 cycles: 6924748 heartbeat IPC: 2.88534 cumulative IPC: 2.88819 (Simulation time: 0 hr 0 min 29 sec) 
Heartbeat CPU 0 instructions: 30000003 cycles: 10432723 heartbeat IPC: 2.85065 cumulative IPC: 2.87557 (Simulation time: 0 hr 0 min 44 sec) 
Heartbeat CPU 0 instructions: 40000000 cycles: 13895221 heartbeat IPC: 2.88809 cumulative IPC: 2.87869 (Simulation time: 0 hr 0 min 59 sec) 
Heartbeat CPU 0 instructions: 50000002 cycles: 17356923 heartbeat IPC: 2.88875 cumulative IPC: 2.8807 (Simulation time: 0 hr 1 min 13 sec) 

Warmup complete CPU 0 instructions: 50000002 cycles: 17356923 (Simulation time: 0 hr 1 min 13 sec) 

Heartbeat CPU 0 instructions: 60000000 cycles: 22968886 heartbeat IPC: 1.78191 cumulative IPC: 1.78191 (Simulation time: 0 hr 1 min 26 sec) 
Heartbeat CPU 0 instructions: 70000001 cycles: 28531472 heartbeat IPC: 1.79773 cumulative IPC: 1.78978 (Simulation time: 0 hr 1 min 39 sec) 
Heartbeat CPU 0 instructions: 80000001 cycles: 34119101 heartbeat IPC: 1.78967 cumulative IPC: 1.78974 (Simulation time: 0 hr 1 min 52 sec) 
Heartbeat CPU 0 instructions: 90000002 cycles: 39674777 heartbeat IPC: 1.79996 cumulative IPC: 1.79229 (Simulation time: 0 hr 2 min 5 sec) 
Heartbeat CPU 0 instructions: 100000001 cycles: 45225798 heartbeat IPC: 1.80147 cumulative IPC: 1.79412 (Simulation time: 0 hr 2 min 18 sec) 
Finished CPU 0 instructions: 50000003 cycles: 27868876 cumulative IPC: 1.79412 (Simulation time: 0 hr 2 min 18 sec) 

ChampSim completed all CPUs

Region of Interest Statistics

CPU 0 cumulative IPC: 1.79412 instructions: 50000003 cycles: 27868876
L1D TOTAL     ACCESS:   20579380  HIT:   20519243  MISS:      60137
L1D LOAD      ACCESS:    6714634  HIT:    6679846  MISS:      34788
L1D RFO       ACCESS:    7344157  HIT:    7336940  MISS:       7217
L1D PREFETCH  ACCESS:    6520589  HIT:    6502457  MISS:      18132
L1D WRITEBACK ACCESS:          0  HIT:          0  MISS:          0
L1D PREFETCH  REQUESTED:    6715585  ISSUED:    6553954  USEFUL:       5466  USELESS:      12667
L1D AVERAGE MISS LATENCY: 17.4732 cycles
L1I TOTAL     ACCESS:   15052370  HIT:   10696147  MISS:    4356223
L1I LOAD      ACCESS:    8994370  HIT:    8921663  MISS:      72707
L1I RFO       ACCESS:          0  HIT:          0  MISS:          0
L1I PREFETCH  ACCESS:    6058000  HIT:    1774484  MISS:    4283516
L1I WRITEBACK ACCESS:          0  HIT:          0  MISS:          0
L1I PREFETCH  REQUESTED:    6191270  ISSUED:    6191270  USEFUL:    3822420  USELESS:     461082
L1I AVERAGE MISS LATENCY: 14.3974 cycles
L2C TOTAL     ACCESS:    6086686  HIT:    6084379  MISS:       2307
L2C LOAD      ACCESS:      57857  HIT:      57354  MISS:        503
L2C RFO       ACCESS:       7209  HIT:       7161  MISS:         48
L2C PREFETCH  ACCESS:    6005997  HIT:    6004254  MISS:       1743
L2C WRITEBACK ACCESS:      15623  HIT:      15610  MISS:         13
L2C PREFETCH  REQUESTED:    5335361  ISSUED:    5335337  USEFUL:        211  USELESS:        990
L2C AVERAGE MISS LATENCY: 150.489 cycles
LLC TOTAL     ACCESS:     738578  HIT:     735642  MISS:       2936
LLC LOAD      ACCESS:        503  HIT:        147  MISS:        356
LLC RFO       ACCESS:         48  HIT:         19  MISS:         29
LLC PREFETCH  ACCESS:     737071  HIT:     734538  MISS:       2533
LLC WRITEBACK ACCESS:        956  HIT:        938  MISS:         18
LLC PREFETCH  REQUESTED:          0  ISSUED:          0  USEFUL:         56  USELESS:        943
LLC AVERAGE MISS LATENCY: 237.479 cycles
Major fault: 0 Minor fault: 1927
I-Shadow cache 408 bytes
Touched + WorthPF tables 24576 bytes 
MMA filter 174 bytes 
FNL filter 272 bytes 
TOTAL PREFETCHER STORAGE SIZE: 98134 bytes
CPU 0 L1I next line prefetcher final stats
CPU 0 L1D next line prefetcher final stats

DRAM Statistics
 CHANNEL 0
 RQ ROW_BUFFER_HIT:        761  ROW_BUFFER_MISS:       2157
 DBUS_CONGESTED:       1856
 WQ ROW_BUFFER_HIT:        296  ROW_BUFFER_MISS:       1407  FULL:          0

 AVG_CONGESTED_CYCLE: 6

CPU 0 Branch Prediction Accuracy: 99.8717% MPKI: 0.21174 Average ROB Occupancy at Mispredict: 223.256

Branch types
NOT_BRANCH: 41748445 83.4969%
BRANCH_DIRECT_JUMP: 468564 0.937128%
BRANCH_INDIRECT: 0 0%
BRANCH_CONDITIONAL: 5599754 11.1995%
BRANCH_DIRECT_CALL: 885105 1.77021%
BRANCH_INDIRECT_CALL: 206338 0.412676%
BRANCH_RETURN: 1091468 2.18294%
BRANCH_OTHER: 0 0%

