Initialize SIGNATURE TABLE
ST_SET: 1
ST_WAY: 256
ST_TAG_BIT: 16
ST_TAG_MASK: ffff

Initialize PATTERN TABLE
PT_SET: 512
PT_WAY: 4
SIG_DELTA_BIT: 7
C_SIG_BIT: 4
C_DELTA_BIT: 4

Initialize PREFETCH FILTER
FILTER_SET: 1024

*** ChampSim Multicore Out-of-Order Simulator ***

Warmup Instructions: 50000000
Simulation Instructions: 50000000
Number of CPUs: 1
LLC sets: 2048
LLC ways: 16
Off-chip DRAM Size: 4096 MB Channels: 1 Width: 64-bit Data Rate: 3200 MT/s

CPU 0 runs /Users/gandhardeshpande/Desktop/CSE240C/HW1/ChampSim/ipc1_public/spec_gobmk_002.champsimtrace.xz
CPU 0 L1I next line prefetcher
Running FNL-MMA for L1I
CPU 0 L1D next line prefetcher
Heartbeat CPU 0 instructions: 10000001 cycles: 3287528 heartbeat IPC: 3.0418 cumulative IPC: 3.0418 (Simulation time: 0 hr 0 min 13 sec) 
Heartbeat CPU 0 instructions: 20000000 cycles: 6619100 heartbeat IPC: 3.00159 cumulative IPC: 3.02156 (Simulation time: 0 hr 0 min 25 sec) 
Heartbeat CPU 0 instructions: 30000000 cycles: 9957055 heartbeat IPC: 2.99585 cumulative IPC: 3.01294 (Simulation time: 0 hr 0 min 37 sec) 
Heartbeat CPU 0 instructions: 40000000 cycles: 13266431 heartbeat IPC: 3.02172 cumulative IPC: 3.01513 (Simulation time: 0 hr 0 min 49 sec) 
Heartbeat CPU 0 instructions: 50000003 cycles: 16529944 heartbeat IPC: 3.06418 cumulative IPC: 3.02481 (Simulation time: 0 hr 1 min 2 sec) 

Warmup complete CPU 0 instructions: 50000003 cycles: 16529944 (Simulation time: 0 hr 1 min 2 sec) 

Heartbeat CPU 0 instructions: 60000003 cycles: 24120655 heartbeat IPC: 1.3174 cumulative IPC: 1.3174 (Simulation time: 0 hr 1 min 10 sec) 
Heartbeat CPU 0 instructions: 70000001 cycles: 31660953 heartbeat IPC: 1.32621 cumulative IPC: 1.32179 (Simulation time: 0 hr 1 min 19 sec) 
Heartbeat CPU 0 instructions: 80000002 cycles: 39046705 heartbeat IPC: 1.35396 cumulative IPC: 1.33234 (Simulation time: 0 hr 1 min 27 sec) 
Heartbeat CPU 0 instructions: 90000001 cycles: 46733045 heartbeat IPC: 1.30101 cumulative IPC: 1.32437 (Simulation time: 0 hr 1 min 35 sec) 
Heartbeat CPU 0 instructions: 100000003 cycles: 54640538 heartbeat IPC: 1.26462 cumulative IPC: 1.31197 (Simulation time: 0 hr 1 min 44 sec) 
Finished CPU 0 instructions: 50000000 cycles: 38110594 cumulative IPC: 1.31197 (Simulation time: 0 hr 1 min 44 sec) 

ChampSim completed all CPUs

Region of Interest Statistics

CPU 0 cumulative IPC: 1.31197 instructions: 50000000 cycles: 38110594
L1D TOTAL     ACCESS:   17685863  HIT:   17562733  MISS:     123130
L1D LOAD      ACCESS:    6687688  HIT:    6653467  MISS:      34221
L1D RFO       ACCESS:    4388701  HIT:    4346014  MISS:      42687
L1D PREFETCH  ACCESS:    6609474  HIT:    6563252  MISS:      46222
L1D WRITEBACK ACCESS:          0  HIT:          0  MISS:          0
L1D PREFETCH  REQUESTED:    6690085  ISSUED:    6622729  USEFUL:      17156  USELESS:      29251
L1D AVERAGE MISS LATENCY: 50.0115 cycles
L1I TOTAL     ACCESS:   12004408  HIT:   10839726  MISS:    1164682
L1I LOAD      ACCESS:    8858765  HIT:    8614813  MISS:     243952
L1I RFO       ACCESS:          0  HIT:          0  MISS:          0
L1I PREFETCH  ACCESS:    3145643  HIT:    2224913  MISS:     920730
L1I WRITEBACK ACCESS:          0  HIT:          0  MISS:          0
L1I PREFETCH  REQUESTED:    3286034  ISSUED:    3286034  USEFUL:     549691  USELESS:     371047
L1I AVERAGE MISS LATENCY: 13.8018 cycles
L2C TOTAL     ACCESS:    1949418  HIT:    1912171  MISS:      37247
L2C LOAD      ACCESS:     227863  HIT:     213695  MISS:      14168
L2C RFO       ACCESS:      42558  HIT:      39721  MISS:       2837
L2C PREFETCH  ACCESS:    1604794  HIT:    1584670  MISS:      20124
L2C WRITEBACK ACCESS:      74203  HIT:      74085  MISS:        118
L2C PREFETCH  REQUESTED:    1313352  ISSUED:    1313335  USEFUL:       2264  USELESS:      18375
L2C AVERAGE MISS LATENCY: 124.112 cycles
LLC TOTAL     ACCESS:     142430  HIT:     108185  MISS:      34245
LLC LOAD      ACCESS:      14168  HIT:       5576  MISS:       8592
LLC RFO       ACCESS:       2837  HIT:       1235  MISS:       1602
LLC PREFETCH  ACCESS:     107514  HIT:      83956  MISS:      23558
LLC WRITEBACK ACCESS:      17911  HIT:      17418  MISS:        493
LLC PREFETCH  REQUESTED:          0  ISSUED:          0  USEFUL:       2368  USELESS:      20770
LLC AVERAGE MISS LATENCY: 184.097 cycles
Major fault: 0 Minor fault: 2777
I-Shadow cache 408 bytes
Touched + WorthPF tables 24576 bytes 
MMA filter 174 bytes 
FNL filter 272 bytes 
TOTAL PREFETCHER STORAGE SIZE: 98134 bytes
CPU 0 L1I next line prefetcher final stats
CPU 0 L1D next line prefetcher final stats

DRAM Statistics
 CHANNEL 0
 RQ ROW_BUFFER_HIT:       2737  ROW_BUFFER_MISS:      31015
 DBUS_CONGESTED:      17860
 WQ ROW_BUFFER_HIT:        728  ROW_BUFFER_MISS:      13521  FULL:          0

 AVG_CONGESTED_CYCLE: 4

CPU 0 Branch Prediction Accuracy: 93.9974% MPKI: 10.2447 Average ROB Occupancy at Mispredict: 38.6447

Branch types
NOT_BRANCH: 41466058 82.9321%
BRANCH_DIRECT_JUMP: 464313 0.928626%
BRANCH_INDIRECT: 32 6.4e-05%
BRANCH_CONDITIONAL: 7069453 14.1389%
BRANCH_DIRECT_CALL: 499587 0.999174%
BRANCH_INDIRECT_CALL: 342 0.000684%
BRANCH_RETURN: 499906 0.999812%
BRANCH_OTHER: 0 0%

