
*** ChampSim Multicore Out-of-Order Simulator ***

Warmup Instructions: 10000000
Simulation Instructions: 100000000
Configuration: 2
Number of CPUs: 1
LLC sets: 2048
LLC ways: 16
Off-chip DRAM Channels: 1 Width: 64-bit Data Rate: 1600 MT/s

CPU 0 runs /datasets/cs240c-wi22-a00-public/data/Assignment2-gz/cactusADM_734B.trace.gz
CPU 0 L1D next line prefetcher
CPU 0 L2C IP-based stride prefetcher
Heartbeat CPU 0 instructions: 1000003 cycles: 592726 heartbeat IPC: 1.68713 cumulative IPC: 1.68713 (Simulation time: 0 hr 0 min 50 sec) 
Heartbeat CPU 0 instructions: 2000001 cycles: 1185927 heartbeat IPC: 1.68577 cumulative IPC: 1.68645 (Simulation time: 0 hr 1 min 32 sec) 
Heartbeat CPU 0 instructions: 3000003 cycles: 1778979 heartbeat IPC: 1.6862 cumulative IPC: 1.68636 (Simulation time: 0 hr 2 min 24 sec) 
Heartbeat CPU 0 instructions: 4000000 cycles: 2371929 heartbeat IPC: 1.68648 cumulative IPC: 1.68639 (Simulation time: 0 hr 3 min 14 sec) 
Heartbeat CPU 0 instructions: 5000000 cycles: 2965279 heartbeat IPC: 1.68535 cumulative IPC: 1.68618 (Simulation time: 0 hr 4 min 2 sec) 
Heartbeat CPU 0 instructions: 6000002 cycles: 3558551 heartbeat IPC: 1.68557 cumulative IPC: 1.68608 (Simulation time: 0 hr 4 min 53 sec) 
Heartbeat CPU 0 instructions: 7000000 cycles: 4151394 heartbeat IPC: 1.68678 cumulative IPC: 1.68618 (Simulation time: 0 hr 5 min 42 sec) 
Heartbeat CPU 0 instructions: 8000000 cycles: 4744343 heartbeat IPC: 1.68649 cumulative IPC: 1.68622 (Simulation time: 0 hr 6 min 31 sec) 
Heartbeat CPU 0 instructions: 9000001 cycles: 5337493 heartbeat IPC: 1.68592 cumulative IPC: 1.68619 (Simulation time: 0 hr 7 min 20 sec) 
Heartbeat CPU 0 instructions: 10000003 cycles: 5958967 heartbeat IPC: 1.60908 cumulative IPC: 1.67814 (Simulation time: 0 hr 8 min 12 sec) 

Warmup complete CPU 0 instructions: 10000003 cycles: 5958967 (Simulation time: 0 hr 8 min 12 sec) 

Heartbeat CPU 0 instructions: 11000002 cycles: 12560137 heartbeat IPC: 0.151488 cumulative IPC: 0.151488 (Simulation time: 0 hr 9 min 12 sec) 
Heartbeat CPU 0 instructions: 12000000 cycles: 14302410 heartbeat IPC: 0.573962 cumulative IPC: 0.239709 (Simulation time: 0 hr 10 min 6 sec) 
Heartbeat CPU 0 instructions: 13000002 cycles: 15990183 heartbeat IPC: 0.592498 cumulative IPC: 0.299066 (Simulation time: 0 hr 10 min 56 sec) 
Heartbeat CPU 0 instructions: 14000000 cycles: 17675720 heartbeat IPC: 0.593282 cumulative IPC: 0.341391 (Simulation time: 0 hr 11 min 48 sec) 
Heartbeat CPU 0 instructions: 15000003 cycles: 19415381 heartbeat IPC: 0.574826 cumulative IPC: 0.37157 (Simulation time: 0 hr 12 min 39 sec) 
Heartbeat CPU 0 instructions: 16000000 cycles: 21157943 heartbeat IPC: 0.573866 cumulative IPC: 0.394763 (Simulation time: 0 hr 13 min 31 sec) 
Heartbeat CPU 0 instructions: 17000002 cycles: 22892039 heartbeat IPC: 0.57667 cumulative IPC: 0.413392 (Simulation time: 0 hr 14 min 24 sec) 
Heartbeat CPU 0 instructions: 18000001 cycles: 24550301 heartbeat IPC: 0.60304 cumulative IPC: 0.430308 (Simulation time: 0 hr 15 min 16 sec) 
Heartbeat CPU 0 instructions: 19000000 cycles: 26267233 heartbeat IPC: 0.582434 cumulative IPC: 0.443169 (Simulation time: 0 hr 16 min 5 sec) 
Heartbeat CPU 0 instructions: 20000000 cycles: 28010285 heartbeat IPC: 0.573706 cumulative IPC: 0.453487 (Simulation time: 0 hr 16 min 57 sec) 
Heartbeat CPU 0 instructions: 21000002 cycles: 29753757 heartbeat IPC: 0.573569 cumulative IPC: 0.462286 (Simulation time: 0 hr 17 min 51 sec) 
Heartbeat CPU 0 instructions: 22000000 cycles: 31463175 heartbeat IPC: 0.584993 cumulative IPC: 0.47051 (Simulation time: 0 hr 18 min 40 sec) 
Heartbeat CPU 0 instructions: 23000001 cycles: 33127483 heartbeat IPC: 0.600851 cumulative IPC: 0.478495 (Simulation time: 0 hr 19 min 41 sec) 
Heartbeat CPU 0 instructions: 24000000 cycles: 40801116 heartbeat IPC: 0.130316 cumulative IPC: 0.401812 (Simulation time: 0 hr 20 min 50 sec) 
Heartbeat CPU 0 instructions: 25000000 cycles: 42540205 heartbeat IPC: 0.575014 cumulative IPC: 0.410046 (Simulation time: 0 hr 21 min 50 sec) 
Heartbeat CPU 0 instructions: 26000002 cycles: 44272761 heartbeat IPC: 0.577183 cumulative IPC: 0.417604 (Simulation time: 0 hr 22 min 58 sec) 
Heartbeat CPU 0 instructions: 27000002 cycles: 45934401 heartbeat IPC: 0.601815 cumulative IPC: 0.425261 (Simulation time: 0 hr 23 min 57 sec) 
Heartbeat CPU 0 instructions: 28000000 cycles: 47658157 heartbeat IPC: 0.580127 cumulative IPC: 0.431663 (Simulation time: 0 hr 24 min 53 sec) 
Heartbeat CPU 0 instructions: 29000001 cycles: 49415251 heartbeat IPC: 0.569122 cumulative IPC: 0.437221 (Simulation time: 0 hr 25 min 45 sec) 
Heartbeat CPU 0 instructions: 30000001 cycles: 51156156 heartbeat IPC: 0.574414 cumulative IPC: 0.442505 (Simulation time: 0 hr 26 min 44 sec) 
Heartbeat CPU 0 instructions: 31000003 cycles: 52868238 heartbeat IPC: 0.584085 cumulative IPC: 0.447673 (Simulation time: 0 hr 27 min 40 sec) 
Heartbeat CPU 0 instructions: 32000000 cycles: 54526358 heartbeat IPC: 0.603091 cumulative IPC: 0.452979 (Simulation time: 0 hr 28 min 32 sec) 
Heartbeat CPU 0 instructions: 33000000 cycles: 56261232 heartbeat IPC: 0.576411 cumulative IPC: 0.457236 (Simulation time: 0 hr 29 min 33 sec) 
Heartbeat CPU 0 instructions: 34000001 cycles: 58005198 heartbeat IPC: 0.573406 cumulative IPC: 0.461128 (Simulation time: 0 hr 30 min 29 sec) 
Heartbeat CPU 0 instructions: 35000000 cycles: 59742999 heartbeat IPC: 0.575439 cumulative IPC: 0.464822 (Simulation time: 0 hr 31 min 25 sec) 
Heartbeat CPU 0 instructions: 36000000 cycles: 61425812 heartbeat IPC: 0.594243 cumulative IPC: 0.468748 (Simulation time: 0 hr 32 min 21 sec) 
Heartbeat CPU 0 instructions: 37000003 cycles: 69035048 heartbeat IPC: 0.13142 cumulative IPC: 0.428054 (Simulation time: 0 hr 33 min 33 sec) 
Heartbeat CPU 0 instructions: 38000001 cycles: 70773246 heartbeat IPC: 0.575307 cumulative IPC: 0.432004 (Simulation time: 0 hr 34 min 31 sec) 
Heartbeat CPU 0 instructions: 39000001 cycles: 72512053 heartbeat IPC: 0.575107 cumulative IPC: 0.435742 (Simulation time: 0 hr 35 min 36 sec) 
Heartbeat CPU 0 instructions: 40000000 cycles: 74228047 heartbeat IPC: 0.582752 cumulative IPC: 0.439438 (Simulation time: 0 hr 36 min 28 sec) 
Heartbeat CPU 0 instructions: 41000001 cycles: 75881268 heartbeat IPC: 0.60488 cumulative IPC: 0.443349 (Simulation time: 0 hr 37 min 21 sec) 
Heartbeat CPU 0 instructions: 42000002 cycles: 77614959 heartbeat IPC: 0.576805 cumulative IPC: 0.446578 (Simulation time: 0 hr 38 min 24 sec) 
Heartbeat CPU 0 instructions: 43000000 cycles: 79354525 heartbeat IPC: 0.574855 cumulative IPC: 0.449618 (Simulation time: 0 hr 39 min 22 sec) 
Heartbeat CPU 0 instructions: 44000000 cycles: 81093353 heartbeat IPC: 0.5751 cumulative IPC: 0.452522 (Simulation time: 0 hr 40 min 27 sec) 
Heartbeat CPU 0 instructions: 45000000 cycles: 82777600 heartbeat IPC: 0.593737 cumulative IPC: 0.455619 (Simulation time: 0 hr 41 min 33 sec) 
Heartbeat CPU 0 instructions: 46000003 cycles: 84460475 heartbeat IPC: 0.594223 cumulative IPC: 0.45859 (Simulation time: 0 hr 42 min 42 sec) 
Heartbeat CPU 0 instructions: 47000001 cycles: 86198294 heartbeat IPC: 0.575433 cumulative IPC: 0.46112 (Simulation time: 0 hr 43 min 47 sec) 
Heartbeat CPU 0 instructions: 48000000 cycles: 87939555 heartbeat IPC: 0.574296 cumulative IPC: 0.463524 (Simulation time: 0 hr 44 min 38 sec) 
Heartbeat CPU 0 instructions: 49000000 cycles: 89675707 heartbeat IPC: 0.575986 cumulative IPC: 0.465857 (Simulation time: 0 hr 45 min 35 sec) 
Heartbeat CPU 0 instructions: 50000001 cycles: 97203068 heartbeat IPC: 0.132849 cumulative IPC: 0.438384 (Simulation time: 0 hr 46 min 53 sec) 
Heartbeat CPU 0 instructions: 51000000 cycles: 98931671 heartbeat IPC: 0.578501 cumulative IPC: 0.44099 (Simulation time: 0 hr 47 min 56 sec) 
Heartbeat CPU 0 instructions: 52000000 cycles: 100670622 heartbeat IPC: 0.575059 cumulative IPC: 0.443451 (Simulation time: 0 hr 49 min 5 sec) 
Heartbeat CPU 0 instructions: 53000003 cycles: 102408959 heartbeat IPC: 0.575264 cumulative IPC: 0.445827 (Simulation time: 0 hr 50 min 22 sec) 
Heartbeat CPU 0 instructions: 54000000 cycles: 104096415 heartbeat IPC: 0.592606 cumulative IPC: 0.448351 (Simulation time: 0 hr 51 min 26 sec) 
Heartbeat CPU 0 instructions: 55000001 cycles: 105771921 heartbeat IPC: 0.596835 cumulative IPC: 0.450843 (Simulation time: 0 hr 52 min 27 sec) 
Heartbeat CPU 0 instructions: 56000000 cycles: 107523970 heartbeat IPC: 0.57076 cumulative IPC: 0.452912 (Simulation time: 0 hr 53 min 24 sec) 
Heartbeat CPU 0 instructions: 57000000 cycles: 109274177 heartbeat IPC: 0.571361 cumulative IPC: 0.454918 (Simulation time: 0 hr 54 min 17 sec) 
Heartbeat CPU 0 instructions: 58000001 cycles: 111008447 heartbeat IPC: 0.576612 cumulative IPC: 0.456928 (Simulation time: 0 hr 55 min 12 sec) 
Heartbeat CPU 0 instructions: 59000000 cycles: 112667962 heartbeat IPC: 0.602585 cumulative IPC: 0.459193 (Simulation time: 0 hr 56 min 5 sec) 
Heartbeat CPU 0 instructions: 60000000 cycles: 114376012 heartbeat IPC: 0.585463 cumulative IPC: 0.461182 (Simulation time: 0 hr 56 min 57 sec) 
Heartbeat CPU 0 instructions: 61000002 cycles: 116117644 heartbeat IPC: 0.574175 cumulative IPC: 0.462969 (Simulation time: 0 hr 57 min 43 sec) 
Heartbeat CPU 0 instructions: 62000002 cycles: 117859760 heartbeat IPC: 0.574015 cumulative IPC: 0.464697 (Simulation time: 0 hr 58 min 32 sec) 
Heartbeat CPU 0 instructions: 63000002 cycles: 125305487 heartbeat IPC: 0.134305 cumulative IPC: 0.444085 (Simulation time: 0 hr 59 min 32 sec) 
Heartbeat CPU 0 instructions: 64000000 cycles: 127258826 heartbeat IPC: 0.511943 cumulative IPC: 0.445178 (Simulation time: 1 hr 0 min 20 sec) 
Heartbeat CPU 0 instructions: 65000003 cycles: 128995547 heartbeat IPC: 0.575799 cumulative IPC: 0.447022 (Simulation time: 1 hr 1 min 5 sec) 
Heartbeat CPU 0 instructions: 66000001 cycles: 130736728 heartbeat IPC: 0.574322 cumulative IPC: 0.448798 (Simulation time: 1 hr 1 min 46 sec) 
Heartbeat CPU 0 instructions: 67000000 cycles: 132472710 heartbeat IPC: 0.576042 cumulative IPC: 0.450544 (Simulation time: 1 hr 2 min 37 sec) 
Heartbeat CPU 0 instructions: 68000000 cycles: 134135665 heartbeat IPC: 0.601339 cumulative IPC: 0.4525 (Simulation time: 1 hr 3 min 29 sec) 
Heartbeat CPU 0 instructions: 69000000 cycles: 135837236 heartbeat IPC: 0.587692 cumulative IPC: 0.454271 (Simulation time: 1 hr 4 min 30 sec) 
Heartbeat CPU 0 instructions: 70000001 cycles: 137579505 heartbeat IPC: 0.573965 cumulative IPC: 0.455856 (Simulation time: 1 hr 5 min 32 sec) 
Heartbeat CPU 0 instructions: 71000001 cycles: 139322413 heartbeat IPC: 0.573754 cumulative IPC: 0.457397 (Simulation time: 1 hr 6 min 27 sec) 
Heartbeat CPU 0 instructions: 72000000 cycles: 141045434 heartbeat IPC: 0.580375 cumulative IPC: 0.458965 (Simulation time: 1 hr 7 min 13 sec) 
Heartbeat CPU 0 instructions: 73000003 cycles: 142696730 heartbeat IPC: 0.605587 cumulative IPC: 0.460736 (Simulation time: 1 hr 7 min 57 sec) 
Heartbeat CPU 0 instructions: 74000002 cycles: 144431124 heartbeat IPC: 0.57657 cumulative IPC: 0.462187 (Simulation time: 1 hr 8 min 37 sec) 
Heartbeat CPU 0 instructions: 75000002 cycles: 146173897 heartbeat IPC: 0.573798 cumulative IPC: 0.463574 (Simulation time: 1 hr 9 min 15 sec) 
Heartbeat CPU 0 instructions: 76000000 cycles: 152410454 heartbeat IPC: 0.160345 cumulative IPC: 0.450661 (Simulation time: 1 hr 10 min 7 sec) 
Heartbeat CPU 0 instructions: 77000000 cycles: 155609671 heartbeat IPC: 0.312576 cumulative IPC: 0.447709 (Simulation time: 1 hr 10 min 47 sec) 
Heartbeat CPU 0 instructions: 78000002 cycles: 157307693 heartbeat IPC: 0.588922 cumulative IPC: 0.449293 (Simulation time: 1 hr 11 min 21 sec) 
Heartbeat CPU 0 instructions: 79000002 cycles: 159049289 heartbeat IPC: 0.574186 cumulative IPC: 0.450714 (Simulation time: 1 hr 11 min 56 sec) 
Heartbeat CPU 0 instructions: 80000000 cycles: 160788515 heartbeat IPC: 0.574967 cumulative IPC: 0.45211 (Simulation time: 1 hr 12 min 28 sec) 
Heartbeat CPU 0 instructions: 81000000 cycles: 162516086 heartbeat IPC: 0.578847 cumulative IPC: 0.453509 (Simulation time: 1 hr 13 min 0 sec) 
Heartbeat CPU 0 instructions: 82000003 cycles: 164161670 heartbeat IPC: 0.607689 cumulative IPC: 0.455112 (Simulation time: 1 hr 13 min 30 sec) 
Heartbeat CPU 0 instructions: 83000003 cycles: 165891861 heartbeat IPC: 0.577971 cumulative IPC: 0.456441 (Simulation time: 1 hr 13 min 56 sec) 
Heartbeat CPU 0 instructions: 84000000 cycles: 167632551 heartbeat IPC: 0.574483 cumulative IPC: 0.457712 (Simulation time: 1 hr 14 min 20 sec) 
Heartbeat CPU 0 instructions: 85000003 cycles: 169372934 heartbeat IPC: 0.574588 cumulative IPC: 0.458957 (Simulation time: 1 hr 14 min 47 sec) 
Heartbeat CPU 0 instructions: 86000000 cycles: 171067877 heartbeat IPC: 0.589989 cumulative IPC: 0.460302 (Simulation time: 1 hr 15 min 9 sec) 
Heartbeat CPU 0 instructions: 87000000 cycles: 172742699 heartbeat IPC: 0.597078 cumulative IPC: 0.461676 (Simulation time: 1 hr 15 min 28 sec) 
Heartbeat CPU 0 instructions: 88000000 cycles: 174510637 heartbeat IPC: 0.565631 cumulative IPC: 0.462766 (Simulation time: 1 hr 15 min 49 sec) 
Heartbeat CPU 0 instructions: 89000002 cycles: 179662768 heartbeat IPC: 0.194095 cumulative IPC: 0.454797 (Simulation time: 1 hr 16 min 10 sec) 
Heartbeat CPU 0 instructions: 90000002 cycles: 183955956 heartbeat IPC: 0.232927 cumulative IPC: 0.449446 (Simulation time: 1 hr 16 min 29 sec) 
Heartbeat CPU 0 instructions: 91000003 cycles: 185603909 heartbeat IPC: 0.606814 cumulative IPC: 0.450889 (Simulation time: 1 hr 16 min 43 sec) 
Heartbeat CPU 0 instructions: 92000000 cycles: 187332226 heartbeat IPC: 0.578596 cumulative IPC: 0.452106 (Simulation time: 1 hr 16 min 57 sec) 
Heartbeat CPU 0 instructions: 93000000 cycles: 189071118 heartbeat IPC: 0.575079 cumulative IPC: 0.453274 (Simulation time: 1 hr 17 min 9 sec) 
Heartbeat CPU 0 instructions: 94000003 cycles: 190811796 heartbeat IPC: 0.57449 cumulative IPC: 0.454416 (Simulation time: 1 hr 17 min 20 sec) 
Heartbeat CPU 0 instructions: 95000000 cycles: 192510858 heartbeat IPC: 0.588558 cumulative IPC: 0.455637 (Simulation time: 1 hr 17 min 29 sec) 
Heartbeat CPU 0 instructions: 96000000 cycles: 194180357 heartbeat IPC: 0.598982 cumulative IPC: 0.456909 (Simulation time: 1 hr 17 min 38 sec) 
Heartbeat CPU 0 instructions: 97000001 cycles: 195916977 heartbeat IPC: 0.575832 cumulative IPC: 0.457996 (Simulation time: 1 hr 17 min 47 sec) 
Heartbeat CPU 0 instructions: 98000000 cycles: 197657877 heartbeat IPC: 0.574415 cumulative IPC: 0.459053 (Simulation time: 1 hr 17 min 56 sec) 
Heartbeat CPU 0 instructions: 99000001 cycles: 199396763 heartbeat IPC: 0.575081 cumulative IPC: 0.460096 (Simulation time: 1 hr 18 min 4 sec) 
Heartbeat CPU 0 instructions: 100000000 cycles: 201066721 heartbeat IPC: 0.598817 cumulative IPC: 0.461284 (Simulation time: 1 hr 18 min 11 sec) 
Heartbeat CPU 0 instructions: 101000000 cycles: 202769116 heartbeat IPC: 0.587408 cumulative IPC: 0.462375 (Simulation time: 1 hr 18 min 19 sec) 
Heartbeat CPU 0 instructions: 102000002 cycles: 206813982 heartbeat IPC: 0.247227 cumulative IPC: 0.458042 (Simulation time: 1 hr 18 min 27 sec) 
Heartbeat CPU 0 instructions: 103000000 cycles: 212197242 heartbeat IPC: 0.185761 cumulative IPC: 0.450935 (Simulation time: 1 hr 18 min 35 sec) 
Heartbeat CPU 0 instructions: 104000000 cycles: 213899857 heartbeat IPC: 0.587332 cumulative IPC: 0.452052 (Simulation time: 1 hr 18 min 41 sec) 
Heartbeat CPU 0 instructions: 105000000 cycles: 215562927 heartbeat IPC: 0.601298 cumulative IPC: 0.453236 (Simulation time: 1 hr 18 min 47 sec) 
Heartbeat CPU 0 instructions: 106000002 cycles: 217295416 heartbeat IPC: 0.577205 cumulative IPC: 0.454252 (Simulation time: 1 hr 18 min 53 sec) 
Heartbeat CPU 0 instructions: 107000001 cycles: 219035126 heartbeat IPC: 0.574808 cumulative IPC: 0.455236 (Simulation time: 1 hr 18 min 59 sec) 
Heartbeat CPU 0 instructions: 108000000 cycles: 220769866 heartbeat IPC: 0.576455 cumulative IPC: 0.456215 (Simulation time: 1 hr 19 min 5 sec) 
Heartbeat CPU 0 instructions: 109000001 cycles: 222441776 heartbeat IPC: 0.598119 cumulative IPC: 0.457311 (Simulation time: 1 hr 19 min 11 sec) 
Heartbeat CPU 0 instructions: 110000003 cycles: 224134817 heartbeat IPC: 0.590654 cumulative IPC: 0.458346 (Simulation time: 1 hr 19 min 17 sec) 
Finished CPU 0 instructions: 100000000 cycles: 218175850 cummulative IPC: 0.458346 (Simulation time: 1 hr 19 min 17 sec) 

ChampSim completed all CPUs

Region of Interest Statistics

CPU 0 cummulative IPC: 0.458346 instructions: 100000000 cycles: 218175850
LLC TOTAL     ACCESS:    1167487  HIT:     350508  MISS:     816979
LLC LOAD      ACCESS:      25804  HIT:       1374  MISS:      24430
LLC RFO       ACCESS:     264086  HIT:       4148  MISS:     259938
LLC PREFETCH  ACCESS:     611491  HIT:     132464  MISS:     479027
LLC WRITEBACK ACCESS:     266106  HIT:     212522  MISS:      53584
