
*** ChampSim Multicore Out-of-Order Simulator ***

Warmup Instructions: 10000000
Simulation Instructions: 100000000
Configuration: 2
Number of CPUs: 1
LLC sets: 2048
LLC ways: 16
Off-chip DRAM Channels: 1 Width: 64-bit Data Rate: 1600 MT/s

CPU 0 runs /datasets/cs240c-wi22-a00-public/data/Assignment2-gz/GemsFDTD_716B.trace.gz
CPU 0 L1D next line prefetcher
CPU 0 L2C IP-based stride prefetcher
Heartbeat CPU 0 instructions: 1000000 cycles: 415045 heartbeat IPC: 2.40938 cumulative IPC: 2.40938 (Simulation time: 0 hr 0 min 50 sec) 
Heartbeat CPU 0 instructions: 2000003 cycles: 829979 heartbeat IPC: 2.41003 cumulative IPC: 2.4097 (Simulation time: 0 hr 1 min 42 sec) 
Heartbeat CPU 0 instructions: 3000000 cycles: 1280278 heartbeat IPC: 2.22074 cumulative IPC: 2.34324 (Simulation time: 0 hr 2 min 33 sec) 
Heartbeat CPU 0 instructions: 4000000 cycles: 1737307 heartbeat IPC: 2.18805 cumulative IPC: 2.30241 (Simulation time: 0 hr 3 min 28 sec) 
Heartbeat CPU 0 instructions: 5000000 cycles: 2152288 heartbeat IPC: 2.40975 cumulative IPC: 2.32311 (Simulation time: 0 hr 4 min 22 sec) 
Heartbeat CPU 0 instructions: 6000000 cycles: 2567304 heartbeat IPC: 2.40955 cumulative IPC: 2.33708 (Simulation time: 0 hr 5 min 15 sec) 
Heartbeat CPU 0 instructions: 7000000 cycles: 2982307 heartbeat IPC: 2.40962 cumulative IPC: 2.34718 (Simulation time: 0 hr 6 min 9 sec) 
Heartbeat CPU 0 instructions: 8000000 cycles: 3395233 heartbeat IPC: 2.42174 cumulative IPC: 2.35624 (Simulation time: 0 hr 7 min 5 sec) 
Heartbeat CPU 0 instructions: 9000001 cycles: 3840610 heartbeat IPC: 2.24529 cumulative IPC: 2.34338 (Simulation time: 0 hr 8 min 7 sec) 
Heartbeat CPU 0 instructions: 10000002 cycles: 4355841 heartbeat IPC: 1.94088 cumulative IPC: 2.29577 (Simulation time: 0 hr 9 min 15 sec) 

Warmup complete CPU 0 instructions: 10000002 cycles: 4355841 (Simulation time: 0 hr 9 min 15 sec) 

Heartbeat CPU 0 instructions: 11000000 cycles: 8199862 heartbeat IPC: 0.260144 cumulative IPC: 0.260144 (Simulation time: 0 hr 10 min 58 sec) 
Heartbeat CPU 0 instructions: 12000000 cycles: 12041289 heartbeat IPC: 0.26032 cumulative IPC: 0.260232 (Simulation time: 0 hr 12 min 59 sec) 
Heartbeat CPU 0 instructions: 13000000 cycles: 15871200 heartbeat IPC: 0.261103 cumulative IPC: 0.260521 (Simulation time: 0 hr 14 min 53 sec) 
Heartbeat CPU 0 instructions: 14000000 cycles: 19854935 heartbeat IPC: 0.251021 cumulative IPC: 0.258079 (Simulation time: 0 hr 16 min 47 sec) 
Heartbeat CPU 0 instructions: 15000000 cycles: 23903281 heartbeat IPC: 0.247014 cumulative IPC: 0.255788 (Simulation time: 0 hr 18 min 36 sec) 
Heartbeat CPU 0 instructions: 16000000 cycles: 27972208 heartbeat IPC: 0.245765 cumulative IPC: 0.254061 (Simulation time: 0 hr 20 min 40 sec) 
Heartbeat CPU 0 instructions: 17000002 cycles: 32039383 heartbeat IPC: 0.245871 cumulative IPC: 0.252858 (Simulation time: 0 hr 22 min 30 sec) 
Heartbeat CPU 0 instructions: 18000003 cycles: 36096394 heartbeat IPC: 0.246487 cumulative IPC: 0.252044 (Simulation time: 0 hr 24 min 17 sec) 
Heartbeat CPU 0 instructions: 19000000 cycles: 40165876 heartbeat IPC: 0.245731 cumulative IPC: 0.251326 (Simulation time: 0 hr 26 min 1 sec) 
Heartbeat CPU 0 instructions: 20000000 cycles: 43578646 heartbeat IPC: 0.293017 cumulative IPC: 0.254954 (Simulation time: 0 hr 27 min 30 sec) 
Heartbeat CPU 0 instructions: 21000000 cycles: 46738090 heartbeat IPC: 0.316511 cumulative IPC: 0.259543 (Simulation time: 0 hr 29 min 4 sec) 
Heartbeat CPU 0 instructions: 22000000 cycles: 49863729 heartbeat IPC: 0.319935 cumulative IPC: 0.263691 (Simulation time: 0 hr 30 min 24 sec) 
Heartbeat CPU 0 instructions: 23000002 cycles: 52976746 heartbeat IPC: 0.321232 cumulative IPC: 0.267375 (Simulation time: 0 hr 31 min 56 sec) 
Heartbeat CPU 0 instructions: 24000000 cycles: 56094085 heartbeat IPC: 0.320786 cumulative IPC: 0.270593 (Simulation time: 0 hr 33 min 15 sec) 
Heartbeat CPU 0 instructions: 25000002 cycles: 59171379 heartbeat IPC: 0.324961 cumulative IPC: 0.273645 (Simulation time: 0 hr 34 min 36 sec) 
Heartbeat CPU 0 instructions: 26000002 cycles: 62061641 heartbeat IPC: 0.345989 cumulative IPC: 0.277268 (Simulation time: 0 hr 35 min 55 sec) 
Heartbeat CPU 0 instructions: 27000002 cycles: 64930279 heartbeat IPC: 0.348597 cumulative IPC: 0.280646 (Simulation time: 0 hr 37 min 25 sec) 
Heartbeat CPU 0 instructions: 28000000 cycles: 67734974 heartbeat IPC: 0.356544 cumulative IPC: 0.284005 (Simulation time: 0 hr 38 min 45 sec) 
Heartbeat CPU 0 instructions: 29000003 cycles: 70576519 heartbeat IPC: 0.351922 cumulative IPC: 0.286919 (Simulation time: 0 hr 40 min 1 sec) 
Heartbeat CPU 0 instructions: 30000001 cycles: 73160079 heartbeat IPC: 0.387062 cumulative IPC: 0.29068 (Simulation time: 0 hr 41 min 19 sec) 
Heartbeat CPU 0 instructions: 31000001 cycles: 75174924 heartbeat IPC: 0.496316 cumulative IPC: 0.29653 (Simulation time: 0 hr 42 min 36 sec) 
Heartbeat CPU 0 instructions: 32000000 cycles: 77167164 heartbeat IPC: 0.501947 cumulative IPC: 0.302151 (Simulation time: 0 hr 43 min 43 sec) 
Heartbeat CPU 0 instructions: 33000000 cycles: 79173672 heartbeat IPC: 0.498378 cumulative IPC: 0.307413 (Simulation time: 0 hr 44 min 49 sec) 
Heartbeat CPU 0 instructions: 34000001 cycles: 81180530 heartbeat IPC: 0.498292 cumulative IPC: 0.3124 (Simulation time: 0 hr 45 min 57 sec) 
Heartbeat CPU 0 instructions: 35000001 cycles: 83176456 heartbeat IPC: 0.501021 cumulative IPC: 0.317176 (Simulation time: 0 hr 47 min 5 sec) 
Heartbeat CPU 0 instructions: 36000000 cycles: 85187243 heartbeat IPC: 0.497317 cumulative IPC: 0.321657 (Simulation time: 0 hr 48 min 9 sec) 
Heartbeat CPU 0 instructions: 37000002 cycles: 87244923 heartbeat IPC: 0.485985 cumulative IPC: 0.325736 (Simulation time: 0 hr 49 min 23 sec) 
Heartbeat CPU 0 instructions: 38000002 cycles: 89236225 heartbeat IPC: 0.502184 cumulative IPC: 0.329876 (Simulation time: 0 hr 50 min 27 sec) 
Heartbeat CPU 0 instructions: 39000000 cycles: 91270526 heartbeat IPC: 0.491568 cumulative IPC: 0.333661 (Simulation time: 0 hr 51 min 27 sec) 
Heartbeat CPU 0 instructions: 40000000 cycles: 93289104 heartbeat IPC: 0.495398 cumulative IPC: 0.337332 (Simulation time: 0 hr 52 min 29 sec) 
Heartbeat CPU 0 instructions: 41000003 cycles: 95307488 heartbeat IPC: 0.495447 cumulative IPC: 0.34084 (Simulation time: 0 hr 53 min 32 sec) 
Heartbeat CPU 0 instructions: 42000001 cycles: 97307949 heartbeat IPC: 0.499884 cumulative IPC: 0.344263 (Simulation time: 0 hr 54 min 29 sec) 
Heartbeat CPU 0 instructions: 43000002 cycles: 100599752 heartbeat IPC: 0.303785 cumulative IPC: 0.342879 (Simulation time: 0 hr 55 min 43 sec) 
Heartbeat CPU 0 instructions: 44000000 cycles: 104426307 heartbeat IPC: 0.261331 cumulative IPC: 0.339761 (Simulation time: 0 hr 57 min 4 sec) 
Heartbeat CPU 0 instructions: 45000001 cycles: 108257504 heartbeat IPC: 0.261015 cumulative IPC: 0.336857 (Simulation time: 0 hr 58 min 21 sec) 
Heartbeat CPU 0 instructions: 46000002 cycles: 112098227 heartbeat IPC: 0.260368 cumulative IPC: 0.33413 (Simulation time: 0 hr 59 min 32 sec) 
Heartbeat CPU 0 instructions: 47000000 cycles: 115920964 heartbeat IPC: 0.261592 cumulative IPC: 0.331645 (Simulation time: 1 hr 0 min 40 sec) 
Heartbeat CPU 0 instructions: 48000000 cycles: 119822178 heartbeat IPC: 0.25633 cumulative IPC: 0.3291 (Simulation time: 1 hr 1 min 47 sec) 
Heartbeat CPU 0 instructions: 49000000 cycles: 123875829 heartbeat IPC: 0.246691 cumulative IPC: 0.326305 (Simulation time: 1 hr 3 min 0 sec) 
Heartbeat CPU 0 instructions: 50000000 cycles: 127927661 heartbeat IPC: 0.246802 cumulative IPC: 0.323698 (Simulation time: 1 hr 4 min 5 sec) 
Heartbeat CPU 0 instructions: 51000002 cycles: 131982014 heartbeat IPC: 0.246649 cumulative IPC: 0.321251 (Simulation time: 1 hr 5 min 14 sec) 
Heartbeat CPU 0 instructions: 52000000 cycles: 136036500 heartbeat IPC: 0.24664 cumulative IPC: 0.318953 (Simulation time: 1 hr 6 min 19 sec) 
Heartbeat CPU 0 instructions: 53000000 cycles: 140185817 heartbeat IPC: 0.241004 cumulative IPC: 0.316572 (Simulation time: 1 hr 7 min 13 sec) 
Heartbeat CPU 0 instructions: 54000001 cycles: 142963128 heartbeat IPC: 0.360061 cumulative IPC: 0.317444 (Simulation time: 1 hr 8 min 1 sec) 
Heartbeat CPU 0 instructions: 55000002 cycles: 145695367 heartbeat IPC: 0.366001 cumulative IPC: 0.318382 (Simulation time: 1 hr 8 min 42 sec) 
Heartbeat CPU 0 instructions: 56000000 cycles: 148479184 heartbeat IPC: 0.359218 cumulative IPC: 0.319171 (Simulation time: 1 hr 9 min 25 sec) 
Heartbeat CPU 0 instructions: 57000002 cycles: 151242558 heartbeat IPC: 0.361877 cumulative IPC: 0.319974 (Simulation time: 1 hr 10 min 10 sec) 
Heartbeat CPU 0 instructions: 58000000 cycles: 153914106 heartbeat IPC: 0.374314 cumulative IPC: 0.320945 (Simulation time: 1 hr 10 min 47 sec) 
Heartbeat CPU 0 instructions: 59000002 cycles: 156600621 heartbeat IPC: 0.37223 cumulative IPC: 0.32185 (Simulation time: 1 hr 11 min 27 sec) 
Heartbeat CPU 0 instructions: 60000000 cycles: 159114706 heartbeat IPC: 0.397758 cumulative IPC: 0.323083 (Simulation time: 1 hr 12 min 6 sec) 
Heartbeat CPU 0 instructions: 61000000 cycles: 161657807 heartbeat IPC: 0.393221 cumulative IPC: 0.324217 (Simulation time: 1 hr 12 min 44 sec) 
Heartbeat CPU 0 instructions: 62000000 cycles: 164209979 heartbeat IPC: 0.391823 cumulative IPC: 0.325297 (Simulation time: 1 hr 13 min 17 sec) 
Heartbeat CPU 0 instructions: 63000000 cycles: 166760886 heartbeat IPC: 0.392017 cumulative IPC: 0.326345 (Simulation time: 1 hr 13 min 47 sec) 
Heartbeat CPU 0 instructions: 64000000 cycles: 169164763 heartbeat IPC: 0.415995 cumulative IPC: 0.327652 (Simulation time: 1 hr 14 min 14 sec) 
Heartbeat CPU 0 instructions: 65000001 cycles: 171166511 heartbeat IPC: 0.499564 cumulative IPC: 0.329715 (Simulation time: 1 hr 14 min 39 sec) 
Heartbeat CPU 0 instructions: 66000003 cycles: 173171674 heartbeat IPC: 0.498714 cumulative IPC: 0.331722 (Simulation time: 1 hr 15 min 3 sec) 
Heartbeat CPU 0 instructions: 67000003 cycles: 175180965 heartbeat IPC: 0.497688 cumulative IPC: 0.333675 (Simulation time: 1 hr 15 min 27 sec) 
Heartbeat CPU 0 instructions: 68000000 cycles: 177185113 heartbeat IPC: 0.498964 cumulative IPC: 0.335591 (Simulation time: 1 hr 15 min 48 sec) 
Heartbeat CPU 0 instructions: 69000002 cycles: 179177731 heartbeat IPC: 0.501853 cumulative IPC: 0.337486 (Simulation time: 1 hr 16 min 7 sec) 
Heartbeat CPU 0 instructions: 70000000 cycles: 181221174 heartbeat IPC: 0.489369 cumulative IPC: 0.339241 (Simulation time: 1 hr 16 min 25 sec) 
Heartbeat CPU 0 instructions: 71000000 cycles: 183231107 heartbeat IPC: 0.497529 cumulative IPC: 0.34102 (Simulation time: 1 hr 16 min 43 sec) 
Heartbeat CPU 0 instructions: 72000000 cycles: 185239902 heartbeat IPC: 0.497811 cumulative IPC: 0.342761 (Simulation time: 1 hr 17 min 0 sec) 
Heartbeat CPU 0 instructions: 73000002 cycles: 187248929 heartbeat IPC: 0.497754 cumulative IPC: 0.344464 (Simulation time: 1 hr 17 min 15 sec) 
Heartbeat CPU 0 instructions: 74000000 cycles: 189260853 heartbeat IPC: 0.497036 cumulative IPC: 0.346124 (Simulation time: 1 hr 17 min 27 sec) 
Heartbeat CPU 0 instructions: 75000000 cycles: 191278251 heartbeat IPC: 0.495688 cumulative IPC: 0.347738 (Simulation time: 1 hr 17 min 39 sec) 
Heartbeat CPU 0 instructions: 76000000 cycles: 193243772 heartbeat IPC: 0.508771 cumulative IPC: 0.349414 (Simulation time: 1 hr 17 min 50 sec) 
Heartbeat CPU 0 instructions: 77000001 cycles: 197067745 heartbeat IPC: 0.261508 cumulative IPC: 0.347669 (Simulation time: 1 hr 18 min 4 sec) 
Heartbeat CPU 0 instructions: 78000000 cycles: 200938493 heartbeat IPC: 0.258348 cumulative IPC: 0.34591 (Simulation time: 1 hr 18 min 17 sec) 
Heartbeat CPU 0 instructions: 79000001 cycles: 204807298 heartbeat IPC: 0.258478 cumulative IPC: 0.344223 (Simulation time: 1 hr 18 min 28 sec) 
Heartbeat CPU 0 instructions: 80000000 cycles: 208677953 heartbeat IPC: 0.258354 cumulative IPC: 0.342596 (Simulation time: 1 hr 18 min 38 sec) 
Heartbeat CPU 0 instructions: 81000000 cycles: 212553242 heartbeat IPC: 0.258045 cumulative IPC: 0.341022 (Simulation time: 1 hr 18 min 48 sec) 
Heartbeat CPU 0 instructions: 82000002 cycles: 216739169 heartbeat IPC: 0.238896 cumulative IPC: 0.33901 (Simulation time: 1 hr 18 min 58 sec) 
Heartbeat CPU 0 instructions: 83000002 cycles: 220795960 heartbeat IPC: 0.2465 cumulative IPC: 0.337276 (Simulation time: 1 hr 19 min 7 sec) 
Heartbeat CPU 0 instructions: 84000000 cycles: 224860340 heartbeat IPC: 0.246039 cumulative IPC: 0.335594 (Simulation time: 1 hr 19 min 16 sec) 
Heartbeat CPU 0 instructions: 85000000 cycles: 228930029 heartbeat IPC: 0.245719 cumulative IPC: 0.333965 (Simulation time: 1 hr 19 min 24 sec) 
Heartbeat CPU 0 instructions: 86000000 cycles: 233023076 heartbeat IPC: 0.244317 cumulative IPC: 0.332361 (Simulation time: 1 hr 19 min 33 sec) 
Heartbeat CPU 0 instructions: 87000000 cycles: 236885384 heartbeat IPC: 0.258913 cumulative IPC: 0.331141 (Simulation time: 1 hr 19 min 41 sec) 
Heartbeat CPU 0 instructions: 88000000 cycles: 239488303 heartbeat IPC: 0.384184 cumulative IPC: 0.331728 (Simulation time: 1 hr 19 min 49 sec) 
Heartbeat CPU 0 instructions: 89000001 cycles: 242073718 heartbeat IPC: 0.386785 cumulative IPC: 0.332327 (Simulation time: 1 hr 19 min 57 sec) 
Heartbeat CPU 0 instructions: 90000001 cycles: 244669816 heartbeat IPC: 0.385193 cumulative IPC: 0.332898 (Simulation time: 1 hr 20 min 5 sec) 
Heartbeat CPU 0 instructions: 91000003 cycles: 247260833 heartbeat IPC: 0.38595 cumulative IPC: 0.333464 (Simulation time: 1 hr 20 min 13 sec) 
Heartbeat CPU 0 instructions: 92000000 cycles: 249774130 heartbeat IPC: 0.397883 cumulative IPC: 0.334123 (Simulation time: 1 hr 20 min 21 sec) 
Heartbeat CPU 0 instructions: 93000002 cycles: 252586488 heartbeat IPC: 0.355574 cumulative IPC: 0.334366 (Simulation time: 1 hr 20 min 29 sec) 
Heartbeat CPU 0 instructions: 94000001 cycles: 255018697 heartbeat IPC: 0.411148 cumulative IPC: 0.335111 (Simulation time: 1 hr 20 min 38 sec) 
Heartbeat CPU 0 instructions: 95000001 cycles: 257446763 heartbeat IPC: 0.41185 cumulative IPC: 0.335848 (Simulation time: 1 hr 20 min 45 sec) 
Heartbeat CPU 0 instructions: 96000000 cycles: 259907682 heartbeat IPC: 0.406352 cumulative IPC: 0.336527 (Simulation time: 1 hr 20 min 53 sec) 
Heartbeat CPU 0 instructions: 97000000 cycles: 262304697 heartbeat IPC: 0.417186 cumulative IPC: 0.337276 (Simulation time: 1 hr 21 min 1 sec) 
Heartbeat CPU 0 instructions: 98000000 cycles: 264690194 heartbeat IPC: 0.4192 cumulative IPC: 0.338027 (Simulation time: 1 hr 21 min 8 sec) 
Heartbeat CPU 0 instructions: 99000001 cycles: 266706864 heartbeat IPC: 0.495867 cumulative IPC: 0.33924 (Simulation time: 1 hr 21 min 15 sec) 
Heartbeat CPU 0 instructions: 100000000 cycles: 268736567 heartbeat IPC: 0.492682 cumulative IPC: 0.340418 (Simulation time: 1 hr 21 min 22 sec) 
Heartbeat CPU 0 instructions: 101000002 cycles: 270743961 heartbeat IPC: 0.498159 cumulative IPC: 0.341607 (Simulation time: 1 hr 21 min 28 sec) 
Heartbeat CPU 0 instructions: 102000002 cycles: 272761068 heartbeat IPC: 0.49576 cumulative IPC: 0.342765 (Simulation time: 1 hr 21 min 35 sec) 
Heartbeat CPU 0 instructions: 103000000 cycles: 274762810 heartbeat IPC: 0.499564 cumulative IPC: 0.343926 (Simulation time: 1 hr 21 min 41 sec) 
Heartbeat CPU 0 instructions: 104000000 cycles: 277100034 heartbeat IPC: 0.427858 cumulative IPC: 0.344645 (Simulation time: 1 hr 21 min 47 sec) 
Heartbeat CPU 0 instructions: 105000003 cycles: 279125115 heartbeat IPC: 0.493809 cumulative IPC: 0.345745 (Simulation time: 1 hr 21 min 53 sec) 
Heartbeat CPU 0 instructions: 106000003 cycles: 281155111 heartbeat IPC: 0.492612 cumulative IPC: 0.346822 (Simulation time: 1 hr 22 min 0 sec) 
Heartbeat CPU 0 instructions: 107000001 cycles: 283188906 heartbeat IPC: 0.491691 cumulative IPC: 0.347878 (Simulation time: 1 hr 22 min 7 sec) 
Heartbeat CPU 0 instructions: 108000000 cycles: 285196257 heartbeat IPC: 0.498168 cumulative IPC: 0.348953 (Simulation time: 1 hr 22 min 13 sec) 
Heartbeat CPU 0 instructions: 109000002 cycles: 287207822 heartbeat IPC: 0.497126 cumulative IPC: 0.350006 (Simulation time: 1 hr 22 min 20 sec) 
Heartbeat CPU 0 instructions: 110000002 cycles: 289453040 heartbeat IPC: 0.445391 cumulative IPC: 0.350758 (Simulation time: 1 hr 22 min 26 sec) 
Finished CPU 0 instructions: 100000000 cycles: 285097199 cummulative IPC: 0.350758 (Simulation time: 1 hr 22 min 26 sec) 

ChampSim completed all CPUs

Region of Interest Statistics

CPU 0 cummulative IPC: 0.350758 instructions: 100000000 cycles: 285097199
LLC TOTAL     ACCESS:   12928886  HIT:    6008411  MISS:    6920475
LLC LOAD      ACCESS:    5282941  HIT:    3903973  MISS:    1378968
LLC RFO       ACCESS:          0  HIT:          0  MISS:          0
LLC PREFETCH  ACCESS:    6736527  HIT:    1393552  MISS:    5342975
LLC WRITEBACK ACCESS:     909418  HIT:     710886  MISS:     198532
