
*** ChampSim Multicore Out-of-Order Simulator ***

Warmup Instructions: 10000000
Simulation Instructions: 100000000
Configuration: 2
Number of CPUs: 1
LLC sets: 2048
LLC ways: 16
Off-chip DRAM Channels: 1 Width: 64-bit Data Rate: 1600 MT/s

CPU 0 runs /datasets/cs240c-wi22-a00-public/data/Assignment2-gz/lbm_94B.trace.gz
CPU 0 L1D next line prefetcher
CPU 0 L2C IP-based stride prefetcher
Heartbeat CPU 0 instructions: 1000000 cycles: 422068 heartbeat IPC: 2.36929 cumulative IPC: 2.36929 (Simulation time: 0 hr 0 min 39 sec) 
Heartbeat CPU 0 instructions: 2000000 cycles: 812399 heartbeat IPC: 2.56193 cumulative IPC: 2.46184 (Simulation time: 0 hr 1 min 16 sec) 
Heartbeat CPU 0 instructions: 3000000 cycles: 1211540 heartbeat IPC: 2.50538 cumulative IPC: 2.47619 (Simulation time: 0 hr 1 min 53 sec) 
Heartbeat CPU 0 instructions: 4000000 cycles: 1631535 heartbeat IPC: 2.38098 cumulative IPC: 2.45168 (Simulation time: 0 hr 2 min 30 sec) 
Heartbeat CPU 0 instructions: 5000001 cycles: 2021787 heartbeat IPC: 2.56245 cumulative IPC: 2.47306 (Simulation time: 0 hr 3 min 4 sec) 
Heartbeat CPU 0 instructions: 6000000 cycles: 2422466 heartbeat IPC: 2.49576 cumulative IPC: 2.47681 (Simulation time: 0 hr 3 min 40 sec) 
Heartbeat CPU 0 instructions: 7000001 cycles: 2840617 heartbeat IPC: 2.39148 cumulative IPC: 2.46425 (Simulation time: 0 hr 4 min 13 sec) 
Heartbeat CPU 0 instructions: 8000000 cycles: 3230856 heartbeat IPC: 2.56253 cumulative IPC: 2.47612 (Simulation time: 0 hr 4 min 48 sec) 
Heartbeat CPU 0 instructions: 9000003 cycles: 3631892 heartbeat IPC: 2.49355 cumulative IPC: 2.47805 (Simulation time: 0 hr 5 min 21 sec) 
Heartbeat CPU 0 instructions: 10000000 cycles: 4048475 heartbeat IPC: 2.40047 cumulative IPC: 2.47007 (Simulation time: 0 hr 5 min 57 sec) 

Warmup complete CPU 0 instructions: 10000004 cycles: 4048476 (Simulation time: 0 hr 5 min 57 sec) 

Heartbeat CPU 0 instructions: 11000003 cycles: 5645450 heartbeat IPC: 0.626186 cumulative IPC: 0.626184 (Simulation time: 0 hr 6 min 39 sec) 
Heartbeat CPU 0 instructions: 12000000 cycles: 7357366 heartbeat IPC: 0.584139 cumulative IPC: 0.604431 (Simulation time: 0 hr 7 min 19 sec) 
Heartbeat CPU 0 instructions: 13000000 cycles: 9253452 heartbeat IPC: 0.527402 cumulative IPC: 0.576371 (Simulation time: 0 hr 8 min 8 sec) 
Heartbeat CPU 0 instructions: 14000000 cycles: 10816654 heartbeat IPC: 0.639713 cumulative IPC: 0.591 (Simulation time: 0 hr 8 min 46 sec) 
Heartbeat CPU 0 instructions: 15000003 cycles: 12532773 heartbeat IPC: 0.582712 cumulative IPC: 0.589324 (Simulation time: 0 hr 9 min 30 sec) 
Heartbeat CPU 0 instructions: 16000000 cycles: 14398482 heartbeat IPC: 0.535988 cumulative IPC: 0.579709 (Simulation time: 0 hr 10 min 20 sec) 
Heartbeat CPU 0 instructions: 17000001 cycles: 15841179 heartbeat IPC: 0.693147 cumulative IPC: 0.593587 (Simulation time: 0 hr 11 min 6 sec) 
Heartbeat CPU 0 instructions: 18000001 cycles: 17377131 heartbeat IPC: 0.651062 cumulative IPC: 0.60021 (Simulation time: 0 hr 11 min 45 sec) 
Heartbeat CPU 0 instructions: 19000000 cycles: 19033110 heartbeat IPC: 0.603872 cumulative IPC: 0.600615 (Simulation time: 0 hr 12 min 32 sec) 
Heartbeat CPU 0 instructions: 20000000 cycles: 20359052 heartbeat IPC: 0.754181 cumulative IPC: 0.613099 (Simulation time: 0 hr 13 min 11 sec) 
Heartbeat CPU 0 instructions: 21000001 cycles: 21816684 heartbeat IPC: 0.686045 cumulative IPC: 0.619083 (Simulation time: 0 hr 13 min 51 sec) 
Heartbeat CPU 0 instructions: 22000000 cycles: 23451915 heartbeat IPC: 0.611534 cumulative IPC: 0.618447 (Simulation time: 0 hr 14 min 32 sec) 
Heartbeat CPU 0 instructions: 23000000 cycles: 24824294 heartbeat IPC: 0.728662 cumulative IPC: 0.625727 (Simulation time: 0 hr 15 min 14 sec) 
Heartbeat CPU 0 instructions: 24000000 cycles: 26223357 heartbeat IPC: 0.714764 cumulative IPC: 0.631345 (Simulation time: 0 hr 15 min 54 sec) 
Heartbeat CPU 0 instructions: 25000000 cycles: 27853762 heartbeat IPC: 0.613345 cumulative IPC: 0.630112 (Simulation time: 0 hr 16 min 36 sec) 
Heartbeat CPU 0 instructions: 26000003 cycles: 29201912 heartbeat IPC: 0.741759 cumulative IPC: 0.636096 (Simulation time: 0 hr 17 min 15 sec) 
Heartbeat CPU 0 instructions: 27000002 cycles: 30612973 heartbeat IPC: 0.708686 cumulative IPC: 0.639952 (Simulation time: 0 hr 17 min 57 sec) 
Heartbeat CPU 0 instructions: 28000000 cycles: 32239673 heartbeat IPC: 0.61474 cumulative IPC: 0.638497 (Simulation time: 0 hr 18 min 43 sec) 
Heartbeat CPU 0 instructions: 29000000 cycles: 33608370 heartbeat IPC: 0.730622 cumulative IPC: 0.642763 (Simulation time: 0 hr 19 min 26 sec) 
Heartbeat CPU 0 instructions: 30000000 cycles: 35031873 heartbeat IPC: 0.702492 cumulative IPC: 0.645507 (Simulation time: 0 hr 20 min 9 sec) 
Heartbeat CPU 0 instructions: 31000003 cycles: 36608491 heartbeat IPC: 0.634271 cumulative IPC: 0.644963 (Simulation time: 0 hr 20 min 57 sec) 
Heartbeat CPU 0 instructions: 32000000 cycles: 37945949 heartbeat IPC: 0.747685 cumulative IPC: 0.649016 (Simulation time: 0 hr 21 min 41 sec) 
Heartbeat CPU 0 instructions: 33000000 cycles: 39361569 heartbeat IPC: 0.706404 cumulative IPC: 0.651316 (Simulation time: 0 hr 22 min 23 sec) 
Heartbeat CPU 0 instructions: 34000003 cycles: 40894545 heartbeat IPC: 0.652328 cumulative IPC: 0.651358 (Simulation time: 0 hr 23 min 5 sec) 
Heartbeat CPU 0 instructions: 35000003 cycles: 42258399 heartbeat IPC: 0.733216 cumulative IPC: 0.65428 (Simulation time: 0 hr 23 min 47 sec) 
Heartbeat CPU 0 instructions: 36000000 cycles: 43654368 heartbeat IPC: 0.716346 cumulative IPC: 0.656468 (Simulation time: 0 hr 24 min 31 sec) 
Heartbeat CPU 0 instructions: 37000003 cycles: 45084171 heartbeat IPC: 0.699399 cumulative IPC: 0.657964 (Simulation time: 0 hr 25 min 13 sec) 
Heartbeat CPU 0 instructions: 38000001 cycles: 46485913 heartbeat IPC: 0.713397 cumulative IPC: 0.659795 (Simulation time: 0 hr 25 min 54 sec) 
Heartbeat CPU 0 instructions: 39000002 cycles: 47832414 heartbeat IPC: 0.742666 cumulative IPC: 0.662343 (Simulation time: 0 hr 26 min 36 sec) 
Heartbeat CPU 0 instructions: 40000000 cycles: 49334990 heartbeat IPC: 0.665522 cumulative IPC: 0.662449 (Simulation time: 0 hr 27 min 18 sec) 
Heartbeat CPU 0 instructions: 41000003 cycles: 50780678 heartbeat IPC: 0.691714 cumulative IPC: 0.663354 (Simulation time: 0 hr 28 min 1 sec) 
Heartbeat CPU 0 instructions: 42000000 cycles: 52121352 heartbeat IPC: 0.745891 cumulative IPC: 0.665656 (Simulation time: 0 hr 28 min 44 sec) 
Heartbeat CPU 0 instructions: 43000001 cycles: 53561403 heartbeat IPC: 0.694421 cumulative IPC: 0.666493 (Simulation time: 0 hr 29 min 24 sec) 
Heartbeat CPU 0 instructions: 44000000 cycles: 55022100 heartbeat IPC: 0.684604 cumulative IPC: 0.667012 (Simulation time: 0 hr 30 min 6 sec) 
Heartbeat CPU 0 instructions: 45000002 cycles: 56364002 heartbeat IPC: 0.745212 cumulative IPC: 0.669017 (Simulation time: 0 hr 30 min 47 sec) 
Heartbeat CPU 0 instructions: 46000003 cycles: 57773699 heartbeat IPC: 0.709373 cumulative IPC: 0.670076 (Simulation time: 0 hr 31 min 25 sec) 
Heartbeat CPU 0 instructions: 47000001 cycles: 59210071 heartbeat IPC: 0.696197 cumulative IPC: 0.670756 (Simulation time: 0 hr 32 min 5 sec) 
Heartbeat CPU 0 instructions: 48000000 cycles: 60544881 heartbeat IPC: 0.74917 cumulative IPC: 0.672609 (Simulation time: 0 hr 32 min 42 sec) 
Heartbeat CPU 0 instructions: 49000000 cycles: 61955559 heartbeat IPC: 0.708879 cumulative IPC: 0.673493 (Simulation time: 0 hr 33 min 27 sec) 
Heartbeat CPU 0 instructions: 50000003 cycles: 63391875 heartbeat IPC: 0.696228 cumulative IPC: 0.674043 (Simulation time: 0 hr 34 min 14 sec) 
Heartbeat CPU 0 instructions: 51000003 cycles: 64765762 heartbeat IPC: 0.727862 cumulative IPC: 0.675261 (Simulation time: 0 hr 34 min 59 sec) 
Heartbeat CPU 0 instructions: 52000000 cycles: 66109806 heartbeat IPC: 0.744021 cumulative IPC: 0.67675 (Simulation time: 0 hr 35 min 40 sec) 
Heartbeat CPU 0 instructions: 53000001 cycles: 67515251 heartbeat IPC: 0.711519 cumulative IPC: 0.67752 (Simulation time: 0 hr 36 min 20 sec) 
Heartbeat CPU 0 instructions: 54000000 cycles: 68885961 heartbeat IPC: 0.729548 cumulative IPC: 0.67862 (Simulation time: 0 hr 37 min 3 sec) 
Heartbeat CPU 0 instructions: 55000003 cycles: 70240492 heartbeat IPC: 0.738265 cumulative IPC: 0.67984 (Simulation time: 0 hr 37 min 43 sec) 
Heartbeat CPU 0 instructions: 56000000 cycles: 71656564 heartbeat IPC: 0.706177 cumulative IPC: 0.680392 (Simulation time: 0 hr 38 min 20 sec) 
Heartbeat CPU 0 instructions: 57000003 cycles: 73026863 heartbeat IPC: 0.72977 cumulative IPC: 0.681373 (Simulation time: 0 hr 39 min 2 sec) 
Heartbeat CPU 0 instructions: 58000003 cycles: 74425026 heartbeat IPC: 0.715224 cumulative IPC: 0.682045 (Simulation time: 0 hr 39 min 49 sec) 
Heartbeat CPU 0 instructions: 59000002 cycles: 75839970 heartbeat IPC: 0.706741 cumulative IPC: 0.682532 (Simulation time: 0 hr 40 min 33 sec) 
Heartbeat CPU 0 instructions: 60000000 cycles: 77204056 heartbeat IPC: 0.73309 cumulative IPC: 0.683475 (Simulation time: 0 hr 41 min 8 sec) 
Heartbeat CPU 0 instructions: 61000000 cycles: 78564163 heartbeat IPC: 0.735236 cumulative IPC: 0.68442 (Simulation time: 0 hr 41 min 46 sec) 
Heartbeat CPU 0 instructions: 62000000 cycles: 79912559 heartbeat IPC: 0.741622 cumulative IPC: 0.685436 (Simulation time: 0 hr 42 min 30 sec) 
Heartbeat CPU 0 instructions: 63000001 cycles: 81324599 heartbeat IPC: 0.708196 cumulative IPC: 0.685852 (Simulation time: 0 hr 43 min 12 sec) 
Heartbeat CPU 0 instructions: 64000000 cycles: 82682753 heartbeat IPC: 0.736293 cumulative IPC: 0.686723 (Simulation time: 0 hr 43 min 54 sec) 
Heartbeat CPU 0 instructions: 65000003 cycles: 84049510 heartbeat IPC: 0.731661 cumulative IPC: 0.687491 (Simulation time: 0 hr 44 min 35 sec) 
Heartbeat CPU 0 instructions: 66000002 cycles: 85470960 heartbeat IPC: 0.703506 cumulative IPC: 0.687771 (Simulation time: 0 hr 45 min 16 sec) 
Heartbeat CPU 0 instructions: 67000000 cycles: 86818986 heartbeat IPC: 0.741824 cumulative IPC: 0.688651 (Simulation time: 0 hr 45 min 54 sec) 
Heartbeat CPU 0 instructions: 68000000 cycles: 88183990 heartbeat IPC: 0.732599 cumulative IPC: 0.689364 (Simulation time: 0 hr 46 min 33 sec) 
Heartbeat CPU 0 instructions: 69000000 cycles: 89562175 heartbeat IPC: 0.725592 cumulative IPC: 0.689948 (Simulation time: 0 hr 47 min 9 sec) 
Heartbeat CPU 0 instructions: 70000003 cycles: 91003174 heartbeat IPC: 0.693965 cumulative IPC: 0.690014 (Simulation time: 0 hr 47 min 54 sec) 
Heartbeat CPU 0 instructions: 71000001 cycles: 92335632 heartbeat IPC: 0.750491 cumulative IPC: 0.690927 (Simulation time: 0 hr 48 min 34 sec) 
Heartbeat CPU 0 instructions: 72000000 cycles: 93686745 heartbeat IPC: 0.74013 cumulative IPC: 0.691669 (Simulation time: 0 hr 49 min 13 sec) 
Heartbeat CPU 0 instructions: 73000001 cycles: 95152085 heartbeat IPC: 0.682436 cumulative IPC: 0.69152 (Simulation time: 0 hr 49 min 50 sec) 
Heartbeat CPU 0 instructions: 74000001 cycles: 96535306 heartbeat IPC: 0.72295 cumulative IPC: 0.69199 (Simulation time: 0 hr 50 min 33 sec) 
Heartbeat CPU 0 instructions: 75000000 cycles: 97890546 heartbeat IPC: 0.737876 cumulative IPC: 0.692653 (Simulation time: 0 hr 51 min 11 sec) 
Heartbeat CPU 0 instructions: 76000000 cycles: 99315112 heartbeat IPC: 0.701968 cumulative IPC: 0.692792 (Simulation time: 0 hr 51 min 45 sec) 
Heartbeat CPU 0 instructions: 77000002 cycles: 100678635 heartbeat IPC: 0.733396 cumulative IPC: 0.693365 (Simulation time: 0 hr 52 min 22 sec) 
Heartbeat CPU 0 instructions: 78000003 cycles: 102054208 heartbeat IPC: 0.72697 cumulative IPC: 0.693837 (Simulation time: 0 hr 52 min 58 sec) 
Heartbeat CPU 0 instructions: 79000000 cycles: 103458752 heartbeat IPC: 0.711973 cumulative IPC: 0.694093 (Simulation time: 0 hr 53 min 35 sec) 
Heartbeat CPU 0 instructions: 80000000 cycles: 104853985 heartbeat IPC: 0.716726 cumulative IPC: 0.694406 (Simulation time: 0 hr 54 min 17 sec) 
Heartbeat CPU 0 instructions: 81000000 cycles: 106218591 heartbeat IPC: 0.732812 cumulative IPC: 0.694919 (Simulation time: 0 hr 54 min 58 sec) 
Heartbeat CPU 0 instructions: 82000000 cycles: 107588971 heartbeat IPC: 0.729725 cumulative IPC: 0.69538 (Simulation time: 0 hr 55 min 37 sec) 
Heartbeat CPU 0 instructions: 83000003 cycles: 108980562 heartbeat IPC: 0.718604 cumulative IPC: 0.695688 (Simulation time: 0 hr 56 min 21 sec) 
Heartbeat CPU 0 instructions: 84000000 cycles: 110340538 heartbeat IPC: 0.735305 cumulative IPC: 0.696195 (Simulation time: 0 hr 57 min 3 sec) 
Heartbeat CPU 0 instructions: 85000001 cycles: 111720733 heartbeat IPC: 0.724536 cumulative IPC: 0.696558 (Simulation time: 0 hr 57 min 45 sec) 
Heartbeat CPU 0 instructions: 86000003 cycles: 113124294 heartbeat IPC: 0.712475 cumulative IPC: 0.696763 (Simulation time: 0 hr 58 min 23 sec) 
Heartbeat CPU 0 instructions: 87000000 cycles: 114493610 heartbeat IPC: 0.730289 cumulative IPC: 0.697179 (Simulation time: 0 hr 58 min 58 sec) 
Heartbeat CPU 0 instructions: 88000000 cycles: 115837844 heartbeat IPC: 0.743918 cumulative IPC: 0.697741 (Simulation time: 0 hr 59 min 31 sec) 
Heartbeat CPU 0 instructions: 89000003 cycles: 117186155 heartbeat IPC: 0.741671 cumulative IPC: 0.698264 (Simulation time: 1 hr 0 min 3 sec) 
Heartbeat CPU 0 instructions: 90000003 cycles: 118612020 heartbeat IPC: 0.701329 cumulative IPC: 0.698302 (Simulation time: 1 hr 0 min 39 sec) 
Heartbeat CPU 0 instructions: 91000002 cycles: 119941342 heartbeat IPC: 0.752262 cumulative IPC: 0.698921 (Simulation time: 1 hr 1 min 17 sec) 
Heartbeat CPU 0 instructions: 92000000 cycles: 121302486 heartbeat IPC: 0.734675 cumulative IPC: 0.699336 (Simulation time: 1 hr 1 min 52 sec) 
Heartbeat CPU 0 instructions: 93000003 cycles: 122723232 heartbeat IPC: 0.703858 cumulative IPC: 0.699391 (Simulation time: 1 hr 2 min 25 sec) 
Heartbeat CPU 0 instructions: 94000001 cycles: 124069403 heartbeat IPC: 0.742846 cumulative IPC: 0.699878 (Simulation time: 1 hr 2 min 56 sec) 
Heartbeat CPU 0 instructions: 95000003 cycles: 125425837 heartbeat IPC: 0.737229 cumulative IPC: 0.700295 (Simulation time: 1 hr 3 min 33 sec) 
Heartbeat CPU 0 instructions: 96000000 cycles: 126778981 heartbeat IPC: 0.739017 cumulative IPC: 0.700722 (Simulation time: 1 hr 4 min 6 sec) 
Heartbeat CPU 0 instructions: 97000000 cycles: 128201028 heartbeat IPC: 0.703212 cumulative IPC: 0.700751 (Simulation time: 1 hr 4 min 41 sec) 
Heartbeat CPU 0 instructions: 98000002 cycles: 129526003 heartbeat IPC: 0.754733 cumulative IPC: 0.701321 (Simulation time: 1 hr 5 min 15 sec) 
Heartbeat CPU 0 instructions: 99000001 cycles: 130876277 heartbeat IPC: 0.74059 cumulative IPC: 0.701739 (Simulation time: 1 hr 5 min 46 sec) 
Heartbeat CPU 0 instructions: 100000000 cycles: 132277863 heartbeat IPC: 0.713477 cumulative IPC: 0.701867 (Simulation time: 1 hr 6 min 14 sec) 
Heartbeat CPU 0 instructions: 101000003 cycles: 133632388 heartbeat IPC: 0.738268 cumulative IPC: 0.702248 (Simulation time: 1 hr 6 min 41 sec) 
Heartbeat CPU 0 instructions: 102000002 cycles: 135001591 heartbeat IPC: 0.730351 cumulative IPC: 0.702542 (Simulation time: 1 hr 7 min 6 sec) 
Heartbeat CPU 0 instructions: 103000000 cycles: 136431443 heartbeat IPC: 0.699372 cumulative IPC: 0.702507 (Simulation time: 1 hr 7 min 40 sec) 
Heartbeat CPU 0 instructions: 104000000 cycles: 137785937 heartbeat IPC: 0.738283 cumulative IPC: 0.70287 (Simulation time: 1 hr 8 min 6 sec) 
Heartbeat CPU 0 instructions: 105000002 cycles: 139138427 heartbeat IPC: 0.739378 cumulative IPC: 0.703235 (Simulation time: 1 hr 8 min 31 sec) 
Heartbeat CPU 0 instructions: 106000001 cycles: 140481307 heartbeat IPC: 0.744667 cumulative IPC: 0.703643 (Simulation time: 1 hr 8 min 54 sec) 
Heartbeat CPU 0 instructions: 107000000 cycles: 141881044 heartbeat IPC: 0.714419 cumulative IPC: 0.703752 (Simulation time: 1 hr 9 min 20 sec) 
Heartbeat CPU 0 instructions: 108000000 cycles: 143271491 heartbeat IPC: 0.719193 cumulative IPC: 0.703907 (Simulation time: 1 hr 9 min 44 sec) 
Heartbeat CPU 0 instructions: 109000002 cycles: 144633616 heartbeat IPC: 0.734149 cumulative IPC: 0.7042 (Simulation time: 1 hr 10 min 7 sec) 
Heartbeat CPU 0 instructions: 110000000 cycles: 146051175 heartbeat IPC: 0.705437 cumulative IPC: 0.704212 (Simulation time: 1 hr 10 min 29 sec) 
Finished CPU 0 instructions: 100000000 cycles: 142002700 cummulative IPC: 0.704212 (Simulation time: 1 hr 10 min 29 sec) 

ChampSim completed all CPUs

Region of Interest Statistics

CPU 0 cummulative IPC: 0.704212 instructions: 100000000 cycles: 142002700
LLC TOTAL     ACCESS:    5491073  HIT:    1557118  MISS:    3933955
LLC LOAD      ACCESS:     391282  HIT:         58  MISS:     391224
LLC RFO       ACCESS:    2345814  HIT:     475914  MISS:    1869900
LLC PREFETCH  ACCESS:     407837  HIT:          6  MISS:     407831
LLC WRITEBACK ACCESS:    2346140  HIT:    1081140  MISS:    1265000
