
*** ChampSim Multicore Out-of-Order Simulator ***

Warmup Instructions: 10000000
Simulation Instructions: 100000000
Configuration: 2
Number of CPUs: 1
LLC sets: 2048
LLC ways: 16
Off-chip DRAM Channels: 1 Width: 64-bit Data Rate: 1600 MT/s

CPU 0 runs /datasets/cs240c-wi22-a00-public/data/Assignment2-gz/gcc_56B.trace.gz
CPU 0 L1D next line prefetcher
CPU 0 L2C IP-based stride prefetcher
Heartbeat CPU 0 instructions: 1000003 cycles: 954147 heartbeat IPC: 1.04806 cumulative IPC: 1.04806 (Simulation time: 0 hr 0 min 49 sec) 
Heartbeat CPU 0 instructions: 2000001 cycles: 1898356 heartbeat IPC: 1.05909 cumulative IPC: 1.05354 (Simulation time: 0 hr 1 min 28 sec) 
Heartbeat CPU 0 instructions: 3000001 cycles: 2885605 heartbeat IPC: 1.01292 cumulative IPC: 1.03964 (Simulation time: 0 hr 2 min 14 sec) 
Heartbeat CPU 0 instructions: 4000000 cycles: 3848223 heartbeat IPC: 1.03883 cumulative IPC: 1.03944 (Simulation time: 0 hr 2 min 57 sec) 
Heartbeat CPU 0 instructions: 5000002 cycles: 4737713 heartbeat IPC: 1.12424 cumulative IPC: 1.05536 (Simulation time: 0 hr 3 min 32 sec) 
Heartbeat CPU 0 instructions: 6000000 cycles: 5685680 heartbeat IPC: 1.05489 cumulative IPC: 1.05528 (Simulation time: 0 hr 4 min 10 sec) 
Heartbeat CPU 0 instructions: 7000000 cycles: 6649937 heartbeat IPC: 1.03707 cumulative IPC: 1.05264 (Simulation time: 0 hr 4 min 48 sec) 
Heartbeat CPU 0 instructions: 8000000 cycles: 7611172 heartbeat IPC: 1.04033 cumulative IPC: 1.05109 (Simulation time: 0 hr 5 min 28 sec) 
Heartbeat CPU 0 instructions: 9000000 cycles: 8622653 heartbeat IPC: 0.988649 cumulative IPC: 1.04376 (Simulation time: 0 hr 6 min 8 sec) 
Heartbeat CPU 0 instructions: 10000002 cycles: 9583172 heartbeat IPC: 1.04111 cumulative IPC: 1.0435 (Simulation time: 0 hr 6 min 45 sec) 

Warmup complete CPU 0 instructions: 10000002 cycles: 9583172 (Simulation time: 0 hr 6 min 45 sec) 

Heartbeat CPU 0 instructions: 11000000 cycles: 10945431 heartbeat IPC: 0.734073 cumulative IPC: 0.734073 (Simulation time: 0 hr 7 min 24 sec) 
Heartbeat CPU 0 instructions: 12000000 cycles: 12382979 heartbeat IPC: 0.695629 cumulative IPC: 0.714334 (Simulation time: 0 hr 8 min 7 sec) 
Heartbeat CPU 0 instructions: 13000001 cycles: 13778463 heartbeat IPC: 0.716598 cumulative IPC: 0.715087 (Simulation time: 0 hr 8 min 45 sec) 
Heartbeat CPU 0 instructions: 14000000 cycles: 15123088 heartbeat IPC: 0.743701 cumulative IPC: 0.722032 (Simulation time: 0 hr 9 min 24 sec) 
Heartbeat CPU 0 instructions: 15000003 cycles: 16509918 heartbeat IPC: 0.721071 cumulative IPC: 0.72184 (Simulation time: 0 hr 10 min 12 sec) 
Heartbeat CPU 0 instructions: 16000000 cycles: 17847884 heartbeat IPC: 0.747401 cumulative IPC: 0.725978 (Simulation time: 0 hr 10 min 55 sec) 
Heartbeat CPU 0 instructions: 17000001 cycles: 19181429 heartbeat IPC: 0.749882 cumulative IPC: 0.729299 (Simulation time: 0 hr 11 min 40 sec) 
Heartbeat CPU 0 instructions: 18000000 cycles: 20583110 heartbeat IPC: 0.713428 cumulative IPC: 0.727277 (Simulation time: 0 hr 12 min 21 sec) 
Heartbeat CPU 0 instructions: 19000000 cycles: 21975913 heartbeat IPC: 0.717977 cumulative IPC: 0.726231 (Simulation time: 0 hr 12 min 59 sec) 
Heartbeat CPU 0 instructions: 20000000 cycles: 23349712 heartbeat IPC: 0.727909 cumulative IPC: 0.726399 (Simulation time: 0 hr 13 min 43 sec) 
Heartbeat CPU 0 instructions: 21000000 cycles: 24707297 heartbeat IPC: 0.736602 cumulative IPC: 0.727315 (Simulation time: 0 hr 14 min 29 sec) 
Heartbeat CPU 0 instructions: 22000000 cycles: 26044766 heartbeat IPC: 0.747681 cumulative IPC: 0.728969 (Simulation time: 0 hr 15 min 10 sec) 
Heartbeat CPU 0 instructions: 23000000 cycles: 27389554 heartbeat IPC: 0.743612 cumulative IPC: 0.730075 (Simulation time: 0 hr 15 min 47 sec) 
Heartbeat CPU 0 instructions: 24000000 cycles: 28764576 heartbeat IPC: 0.727261 cumulative IPC: 0.729873 (Simulation time: 0 hr 16 min 25 sec) 
Heartbeat CPU 0 instructions: 25000000 cycles: 30148984 heartbeat IPC: 0.72233 cumulative IPC: 0.729366 (Simulation time: 0 hr 17 min 5 sec) 
Heartbeat CPU 0 instructions: 26000002 cycles: 31564804 heartbeat IPC: 0.706306 cumulative IPC: 0.72788 (Simulation time: 0 hr 17 min 46 sec) 
Heartbeat CPU 0 instructions: 27000000 cycles: 32962169 heartbeat IPC: 0.715631 cumulative IPC: 0.727148 (Simulation time: 0 hr 18 min 29 sec) 
Heartbeat CPU 0 instructions: 28000000 cycles: 34314577 heartbeat IPC: 0.739422 cumulative IPC: 0.727819 (Simulation time: 0 hr 19 min 10 sec) 
Heartbeat CPU 0 instructions: 29000000 cycles: 35668657 heartbeat IPC: 0.738509 cumulative IPC: 0.728374 (Simulation time: 0 hr 19 min 56 sec) 
Heartbeat CPU 0 instructions: 30000000 cycles: 37026689 heartbeat IPC: 0.73636 cumulative IPC: 0.728769 (Simulation time: 0 hr 20 min 41 sec) 
Heartbeat CPU 0 instructions: 31000000 cycles: 38390735 heartbeat IPC: 0.733113 cumulative IPC: 0.728975 (Simulation time: 0 hr 21 min 27 sec) 
Heartbeat CPU 0 instructions: 32000000 cycles: 39782477 heartbeat IPC: 0.718524 cumulative IPC: 0.728494 (Simulation time: 0 hr 22 min 10 sec) 
Heartbeat CPU 0 instructions: 33000002 cycles: 41201613 heartbeat IPC: 0.704656 cumulative IPC: 0.727424 (Simulation time: 0 hr 22 min 54 sec) 
Heartbeat CPU 0 instructions: 34000002 cycles: 42579576 heartbeat IPC: 0.725709 cumulative IPC: 0.727352 (Simulation time: 0 hr 23 min 37 sec) 
Heartbeat CPU 0 instructions: 35000002 cycles: 43942143 heartbeat IPC: 0.733909 cumulative IPC: 0.727612 (Simulation time: 0 hr 24 min 19 sec) 
Heartbeat CPU 0 instructions: 36000000 cycles: 45287801 heartbeat IPC: 0.743129 cumulative IPC: 0.728197 (Simulation time: 0 hr 25 min 2 sec) 
Heartbeat CPU 0 instructions: 37000000 cycles: 46613768 heartbeat IPC: 0.754167 cumulative IPC: 0.729127 (Simulation time: 0 hr 25 min 46 sec) 
Heartbeat CPU 0 instructions: 38000002 cycles: 47961437 heartbeat IPC: 0.742023 cumulative IPC: 0.72958 (Simulation time: 0 hr 26 min 30 sec) 
Heartbeat CPU 0 instructions: 39000000 cycles: 49375564 heartbeat IPC: 0.707149 cumulative IPC: 0.728782 (Simulation time: 0 hr 27 min 13 sec) 
Heartbeat CPU 0 instructions: 40000000 cycles: 50752721 heartbeat IPC: 0.726134 cumulative IPC: 0.728694 (Simulation time: 0 hr 27 min 53 sec) 
Heartbeat CPU 0 instructions: 41000001 cycles: 52109633 heartbeat IPC: 0.736968 cumulative IPC: 0.728958 (Simulation time: 0 hr 28 min 39 sec) 
Heartbeat CPU 0 instructions: 42000003 cycles: 53455532 heartbeat IPC: 0.742999 cumulative IPC: 0.729389 (Simulation time: 0 hr 29 min 23 sec) 
Heartbeat CPU 0 instructions: 43000001 cycles: 54808582 heartbeat IPC: 0.73907 cumulative IPC: 0.729678 (Simulation time: 0 hr 30 min 7 sec) 
Heartbeat CPU 0 instructions: 44000000 cycles: 56154935 heartbeat IPC: 0.742747 cumulative IPC: 0.730056 (Simulation time: 0 hr 30 min 48 sec) 
Heartbeat CPU 0 instructions: 45000000 cycles: 57541564 heartbeat IPC: 0.721173 cumulative IPC: 0.729799 (Simulation time: 0 hr 31 min 31 sec) 
Heartbeat CPU 0 instructions: 46000000 cycles: 58949469 heartbeat IPC: 0.710275 cumulative IPC: 0.729242 (Simulation time: 0 hr 32 min 19 sec) 
Heartbeat CPU 0 instructions: 47000002 cycles: 60342911 heartbeat IPC: 0.717649 cumulative IPC: 0.728924 (Simulation time: 0 hr 33 min 3 sec) 
Heartbeat CPU 0 instructions: 48000000 cycles: 61707189 heartbeat IPC: 0.732987 cumulative IPC: 0.72903 (Simulation time: 0 hr 33 min 45 sec) 
Heartbeat CPU 0 instructions: 49000002 cycles: 63050537 heartbeat IPC: 0.74441 cumulative IPC: 0.729417 (Simulation time: 0 hr 34 min 29 sec) 
Heartbeat CPU 0 instructions: 50000000 cycles: 64388887 heartbeat IPC: 0.747187 cumulative IPC: 0.729851 (Simulation time: 0 hr 35 min 10 sec) 
Heartbeat CPU 0 instructions: 51000000 cycles: 65763721 heartbeat IPC: 0.727361 cumulative IPC: 0.72979 (Simulation time: 0 hr 35 min 52 sec) 
Heartbeat CPU 0 instructions: 52000000 cycles: 67173570 heartbeat IPC: 0.709296 cumulative IPC: 0.729288 (Simulation time: 0 hr 36 min 36 sec) 
Heartbeat CPU 0 instructions: 53000001 cycles: 68525719 heartbeat IPC: 0.739564 cumulative IPC: 0.729524 (Simulation time: 0 hr 37 min 16 sec) 
Heartbeat CPU 0 instructions: 54000000 cycles: 69859803 heartbeat IPC: 0.749577 cumulative IPC: 0.729968 (Simulation time: 0 hr 37 min 57 sec) 
Heartbeat CPU 0 instructions: 55000001 cycles: 71184438 heartbeat IPC: 0.754926 cumulative IPC: 0.730504 (Simulation time: 0 hr 38 min 36 sec) 
Heartbeat CPU 0 instructions: 56000000 cycles: 72524057 heartbeat IPC: 0.74648 cumulative IPC: 0.730844 (Simulation time: 0 hr 39 min 15 sec) 
Heartbeat CPU 0 instructions: 57000001 cycles: 73877052 heartbeat IPC: 0.739102 cumulative IPC: 0.731018 (Simulation time: 0 hr 39 min 53 sec) 
Heartbeat CPU 0 instructions: 58000000 cycles: 75273077 heartbeat IPC: 0.716319 cumulative IPC: 0.730706 (Simulation time: 0 hr 40 min 38 sec) 
Heartbeat CPU 0 instructions: 59000000 cycles: 76688496 heartbeat IPC: 0.706505 cumulative IPC: 0.730195 (Simulation time: 0 hr 41 min 22 sec) 
Heartbeat CPU 0 instructions: 60000000 cycles: 78081907 heartbeat IPC: 0.717663 cumulative IPC: 0.72994 (Simulation time: 0 hr 42 min 7 sec) 
Heartbeat CPU 0 instructions: 61000000 cycles: 79427489 heartbeat IPC: 0.743173 cumulative IPC: 0.730195 (Simulation time: 0 hr 42 min 44 sec) 
Heartbeat CPU 0 instructions: 62000002 cycles: 80806734 heartbeat IPC: 0.725036 cumulative IPC: 0.730095 (Simulation time: 0 hr 43 min 25 sec) 
Heartbeat CPU 0 instructions: 63000003 cycles: 82139274 heartbeat IPC: 0.750447 cumulative IPC: 0.730469 (Simulation time: 0 hr 44 min 11 sec) 
Heartbeat CPU 0 instructions: 64000000 cycles: 83477944 heartbeat IPC: 0.747008 cumulative IPC: 0.730769 (Simulation time: 0 hr 44 min 49 sec) 
Heartbeat CPU 0 instructions: 65000000 cycles: 84842042 heartbeat IPC: 0.733085 cumulative IPC: 0.730811 (Simulation time: 0 hr 45 min 30 sec) 
Heartbeat CPU 0 instructions: 66000002 cycles: 86250055 heartbeat IPC: 0.710222 cumulative IPC: 0.730433 (Simulation time: 0 hr 46 min 11 sec) 
Heartbeat CPU 0 instructions: 67000002 cycles: 87653105 heartbeat IPC: 0.712733 cumulative IPC: 0.730115 (Simulation time: 0 hr 46 min 57 sec) 
Heartbeat CPU 0 instructions: 68000000 cycles: 89025240 heartbeat IPC: 0.72879 cumulative IPC: 0.730092 (Simulation time: 0 hr 47 min 37 sec) 
Heartbeat CPU 0 instructions: 69000000 cycles: 90371331 heartbeat IPC: 0.742892 cumulative IPC: 0.730305 (Simulation time: 0 hr 48 min 20 sec) 
Heartbeat CPU 0 instructions: 70000000 cycles: 91716113 heartbeat IPC: 0.743615 cumulative IPC: 0.730523 (Simulation time: 0 hr 49 min 2 sec) 
Heartbeat CPU 0 instructions: 71000003 cycles: 93072147 heartbeat IPC: 0.737447 cumulative IPC: 0.730635 (Simulation time: 0 hr 49 min 44 sec) 
Heartbeat CPU 0 instructions: 72000000 cycles: 94428203 heartbeat IPC: 0.73743 cumulative IPC: 0.730744 (Simulation time: 0 hr 50 min 26 sec) 
Heartbeat CPU 0 instructions: 73000003 cycles: 95813374 heartbeat IPC: 0.721935 cumulative IPC: 0.730603 (Simulation time: 0 hr 51 min 6 sec) 
Heartbeat CPU 0 instructions: 74000001 cycles: 97228260 heartbeat IPC: 0.706769 cumulative IPC: 0.730218 (Simulation time: 0 hr 51 min 49 sec) 
Heartbeat CPU 0 instructions: 75000003 cycles: 98621081 heartbeat IPC: 0.717969 cumulative IPC: 0.730026 (Simulation time: 0 hr 52 min 31 sec) 
Heartbeat CPU 0 instructions: 76000000 cycles: 99980585 heartbeat IPC: 0.73556 cumulative IPC: 0.730109 (Simulation time: 0 hr 53 min 9 sec) 
Heartbeat CPU 0 instructions: 77000003 cycles: 101332671 heartbeat IPC: 0.7396 cumulative IPC: 0.730249 (Simulation time: 0 hr 53 min 49 sec) 
Heartbeat CPU 0 instructions: 78000001 cycles: 102682974 heartbeat IPC: 0.740573 cumulative IPC: 0.730399 (Simulation time: 0 hr 54 min 28 sec) 
Heartbeat CPU 0 instructions: 79000000 cycles: 104056774 heartbeat IPC: 0.727907 cumulative IPC: 0.730363 (Simulation time: 0 hr 55 min 10 sec) 
Heartbeat CPU 0 instructions: 80000000 cycles: 105423513 heartbeat IPC: 0.731669 cumulative IPC: 0.730381 (Simulation time: 0 hr 55 min 50 sec) 
Heartbeat CPU 0 instructions: 81000002 cycles: 106817101 heartbeat IPC: 0.717574 cumulative IPC: 0.730198 (Simulation time: 0 hr 56 min 28 sec) 
Heartbeat CPU 0 instructions: 82000000 cycles: 108205241 heartbeat IPC: 0.720387 cumulative IPC: 0.73006 (Simulation time: 0 hr 57 min 7 sec) 
Heartbeat CPU 0 instructions: 83000003 cycles: 109555422 heartbeat IPC: 0.740644 cumulative IPC: 0.730203 (Simulation time: 0 hr 57 min 44 sec) 
Heartbeat CPU 0 instructions: 84000000 cycles: 110918832 heartbeat IPC: 0.733453 cumulative IPC: 0.730246 (Simulation time: 0 hr 58 min 23 sec) 
Heartbeat CPU 0 instructions: 85000002 cycles: 112249176 heartbeat IPC: 0.751687 cumulative IPC: 0.730524 (Simulation time: 0 hr 59 min 2 sec) 
Heartbeat CPU 0 instructions: 86000003 cycles: 113572522 heartbeat IPC: 0.755661 cumulative IPC: 0.730844 (Simulation time: 0 hr 59 min 43 sec) 
Heartbeat CPU 0 instructions: 87000000 cycles: 114973402 heartbeat IPC: 0.713835 cumulative IPC: 0.730618 (Simulation time: 1 hr 0 min 20 sec) 
Heartbeat CPU 0 instructions: 88000000 cycles: 116343367 heartbeat IPC: 0.729946 cumulative IPC: 0.730609 (Simulation time: 1 hr 0 min 57 sec) 
Heartbeat CPU 0 instructions: 89000000 cycles: 117722684 heartbeat IPC: 0.724997 cumulative IPC: 0.730538 (Simulation time: 1 hr 1 min 31 sec) 
Heartbeat CPU 0 instructions: 90000000 cycles: 119060122 heartbeat IPC: 0.747698 cumulative IPC: 0.730747 (Simulation time: 1 hr 2 min 8 sec) 
Heartbeat CPU 0 instructions: 91000001 cycles: 120386730 heartbeat IPC: 0.753803 cumulative IPC: 0.731023 (Simulation time: 1 hr 2 min 45 sec) 
Heartbeat CPU 0 instructions: 92000000 cycles: 121723456 heartbeat IPC: 0.748096 cumulative IPC: 0.731227 (Simulation time: 1 hr 3 min 18 sec) 
Heartbeat CPU 0 instructions: 93000003 cycles: 123123386 heartbeat IPC: 0.714324 cumulative IPC: 0.731019 (Simulation time: 1 hr 3 min 56 sec) 
Heartbeat CPU 0 instructions: 94000000 cycles: 124484333 heartbeat IPC: 0.73478 cumulative IPC: 0.731063 (Simulation time: 1 hr 4 min 31 sec) 
Heartbeat CPU 0 instructions: 95000000 cycles: 125854776 heartbeat IPC: 0.729691 cumulative IPC: 0.731047 (Simulation time: 1 hr 5 min 6 sec) 
Heartbeat CPU 0 instructions: 96000000 cycles: 127204376 heartbeat IPC: 0.74096 cumulative IPC: 0.731161 (Simulation time: 1 hr 5 min 43 sec) 
Heartbeat CPU 0 instructions: 97000000 cycles: 128530038 heartbeat IPC: 0.75434 cumulative IPC: 0.731419 (Simulation time: 1 hr 6 min 17 sec) 
Heartbeat CPU 0 instructions: 98000003 cycles: 129861287 heartbeat IPC: 0.751177 cumulative IPC: 0.731638 (Simulation time: 1 hr 6 min 49 sec) 
Heartbeat CPU 0 instructions: 99000000 cycles: 131265806 heartbeat IPC: 0.711985 cumulative IPC: 0.731411 (Simulation time: 1 hr 7 min 19 sec) 
Heartbeat CPU 0 instructions: 100000000 cycles: 132629803 heartbeat IPC: 0.733139 cumulative IPC: 0.73143 (Simulation time: 1 hr 7 min 45 sec) 
Heartbeat CPU 0 instructions: 101000000 cycles: 133997761 heartbeat IPC: 0.731017 cumulative IPC: 0.731425 (Simulation time: 1 hr 8 min 11 sec) 
Heartbeat CPU 0 instructions: 102000001 cycles: 135333340 heartbeat IPC: 0.74874 cumulative IPC: 0.731609 (Simulation time: 1 hr 8 min 36 sec) 
Heartbeat CPU 0 instructions: 103000001 cycles: 136653380 heartbeat IPC: 0.757553 cumulative IPC: 0.731879 (Simulation time: 1 hr 9 min 3 sec) 
Heartbeat CPU 0 instructions: 104000000 cycles: 137977881 heartbeat IPC: 0.755001 cumulative IPC: 0.732117 (Simulation time: 1 hr 9 min 26 sec) 
Heartbeat CPU 0 instructions: 105000002 cycles: 139376643 heartbeat IPC: 0.714919 cumulative IPC: 0.731932 (Simulation time: 1 hr 9 min 52 sec) 
Heartbeat CPU 0 instructions: 106000000 cycles: 140801566 heartbeat IPC: 0.701791 cumulative IPC: 0.731605 (Simulation time: 1 hr 10 min 21 sec) 
Heartbeat CPU 0 instructions: 107000002 cycles: 142209576 heartbeat IPC: 0.710224 cumulative IPC: 0.731378 (Simulation time: 1 hr 10 min 45 sec) 
Heartbeat CPU 0 instructions: 108000000 cycles: 143588991 heartbeat IPC: 0.724944 cumulative IPC: 0.731312 (Simulation time: 1 hr 11 min 11 sec) 
Heartbeat CPU 0 instructions: 109000000 cycles: 144947259 heartbeat IPC: 0.736232 cumulative IPC: 0.731361 (Simulation time: 1 hr 11 min 35 sec) 
Heartbeat CPU 0 instructions: 110000000 cycles: 146296366 heartbeat IPC: 0.741231 cumulative IPC: 0.731458 (Simulation time: 1 hr 12 min 0 sec) 
Finished CPU 0 instructions: 100000003 cycles: 136713196 cummulative IPC: 0.731458 (Simulation time: 1 hr 12 min 0 sec) 

ChampSim completed all CPUs

Region of Interest Statistics

CPU 0 cummulative IPC: 0.731458 instructions: 100000003 cycles: 136713196
LLC TOTAL     ACCESS:   21346119  HIT:   21107152  MISS:     238967
LLC LOAD      ACCESS:     165909  HIT:     121737  MISS:      44172
LLC RFO       ACCESS:   10463422  HIT:   10456760  MISS:       6662
LLC PREFETCH  ACCESS:     183300  HIT:      26727  MISS:     156573
LLC WRITEBACK ACCESS:   10533488  HIT:   10501928  MISS:      31560
