
*** ChampSim Multicore Out-of-Order Simulator ***

Warmup Instructions: 10000000
Simulation Instructions: 100000000
Configuration: 2
Number of CPUs: 1
LLC sets: 2048
LLC ways: 16
Off-chip DRAM Channels: 1 Width: 64-bit Data Rate: 1600 MT/s

CPU 0 runs /datasets/cs240c-wi22-a00-public/data/Assignment2-gz/zeusmp_300B.trace.gz
CPU 0 L1D next line prefetcher
CPU 0 L2C IP-based stride prefetcher
Heartbeat CPU 0 instructions: 1000003 cycles: 509544 heartbeat IPC: 1.96254 cumulative IPC: 1.96254 (Simulation time: 0 hr 0 min 40 sec) 
Heartbeat CPU 0 instructions: 2000003 cycles: 1061728 heartbeat IPC: 1.81099 cumulative IPC: 1.88372 (Simulation time: 0 hr 1 min 15 sec) 
Heartbeat CPU 0 instructions: 3000002 cycles: 1605631 heartbeat IPC: 1.83856 cumulative IPC: 1.86843 (Simulation time: 0 hr 1 min 50 sec) 
Heartbeat CPU 0 instructions: 4000000 cycles: 2092419 heartbeat IPC: 2.05428 cumulative IPC: 1.91166 (Simulation time: 0 hr 2 min 26 sec) 
Heartbeat CPU 0 instructions: 5000001 cycles: 2575106 heartbeat IPC: 2.07174 cumulative IPC: 1.94167 (Simulation time: 0 hr 3 min 3 sec) 
Heartbeat CPU 0 instructions: 6000000 cycles: 3061805 heartbeat IPC: 2.05466 cumulative IPC: 1.95963 (Simulation time: 0 hr 3 min 36 sec) 
Heartbeat CPU 0 instructions: 7000001 cycles: 3589966 heartbeat IPC: 1.89336 cumulative IPC: 1.94988 (Simulation time: 0 hr 4 min 7 sec) 
Heartbeat CPU 0 instructions: 8000000 cycles: 4143982 heartbeat IPC: 1.805 cumulative IPC: 1.93051 (Simulation time: 0 hr 4 min 41 sec) 
Heartbeat CPU 0 instructions: 9000000 cycles: 4671887 heartbeat IPC: 1.89428 cumulative IPC: 1.92642 (Simulation time: 0 hr 5 min 14 sec) 
Heartbeat CPU 0 instructions: 10000002 cycles: 5158215 heartbeat IPC: 2.05623 cumulative IPC: 1.93866 (Simulation time: 0 hr 5 min 46 sec) 

Warmup complete CPU 0 instructions: 10000002 cycles: 5158215 (Simulation time: 0 hr 5 min 46 sec) 

Heartbeat CPU 0 instructions: 11000003 cycles: 5864046 heartbeat IPC: 1.41677 cumulative IPC: 1.41677 (Simulation time: 0 hr 6 min 21 sec) 
Heartbeat CPU 0 instructions: 12000000 cycles: 6565150 heartbeat IPC: 1.42632 cumulative IPC: 1.42153 (Simulation time: 0 hr 6 min 59 sec) 
Heartbeat CPU 0 instructions: 13000000 cycles: 7369011 heartbeat IPC: 1.244 cumulative IPC: 1.35698 (Simulation time: 0 hr 7 min 36 sec) 
Heartbeat CPU 0 instructions: 14000000 cycles: 8180938 heartbeat IPC: 1.23164 cumulative IPC: 1.32331 (Simulation time: 0 hr 8 min 12 sec) 
Heartbeat CPU 0 instructions: 15000002 cycles: 8919111 heartbeat IPC: 1.3547 cumulative IPC: 1.32947 (Simulation time: 0 hr 8 min 51 sec) 
Heartbeat CPU 0 instructions: 16000000 cycles: 9620019 heartbeat IPC: 1.42672 cumulative IPC: 1.34475 (Simulation time: 0 hr 9 min 26 sec) 
Heartbeat CPU 0 instructions: 17000003 cycles: 10324991 heartbeat IPC: 1.4185 cumulative IPC: 1.35481 (Simulation time: 0 hr 10 min 3 sec) 
Heartbeat CPU 0 instructions: 18000000 cycles: 11042081 heartbeat IPC: 1.39452 cumulative IPC: 1.35965 (Simulation time: 0 hr 10 min 39 sec) 
Heartbeat CPU 0 instructions: 19000003 cycles: 11857158 heartbeat IPC: 1.22688 cumulative IPC: 1.3435 (Simulation time: 0 hr 11 min 12 sec) 
Heartbeat CPU 0 instructions: 20000000 cycles: 12667980 heartbeat IPC: 1.23331 cumulative IPC: 1.3316 (Simulation time: 0 hr 11 min 45 sec) 
Heartbeat CPU 0 instructions: 21000001 cycles: 13378610 heartbeat IPC: 1.4072 cumulative IPC: 1.33814 (Simulation time: 0 hr 12 min 19 sec) 
Heartbeat CPU 0 instructions: 22000000 cycles: 14082168 heartbeat IPC: 1.42135 cumulative IPC: 1.3447 (Simulation time: 0 hr 12 min 53 sec) 
Heartbeat CPU 0 instructions: 23000001 cycles: 14784791 heartbeat IPC: 1.42324 cumulative IPC: 1.35043 (Simulation time: 0 hr 13 min 28 sec) 
Heartbeat CPU 0 instructions: 24000000 cycles: 15532666 heartbeat IPC: 1.33712 cumulative IPC: 1.34947 (Simulation time: 0 hr 14 min 5 sec) 
Heartbeat CPU 0 instructions: 25000000 cycles: 16343666 heartbeat IPC: 1.23305 cumulative IPC: 1.34103 (Simulation time: 0 hr 14 min 35 sec) 
Heartbeat CPU 0 instructions: 26000000 cycles: 17145567 heartbeat IPC: 1.24704 cumulative IPC: 1.33474 (Simulation time: 0 hr 15 min 11 sec) 
Heartbeat CPU 0 instructions: 27000002 cycles: 17848021 heartbeat IPC: 1.42358 cumulative IPC: 1.33966 (Simulation time: 0 hr 15 min 46 sec) 
Heartbeat CPU 0 instructions: 28000000 cycles: 18553861 heartbeat IPC: 1.41675 cumulative IPC: 1.34372 (Simulation time: 0 hr 16 min 23 sec) 
Heartbeat CPU 0 instructions: 29000003 cycles: 19258014 heartbeat IPC: 1.42015 cumulative IPC: 1.34754 (Simulation time: 0 hr 16 min 59 sec) 
Heartbeat CPU 0 instructions: 30000002 cycles: 20030705 heartbeat IPC: 1.29418 cumulative IPC: 1.34476 (Simulation time: 0 hr 17 min 38 sec) 
Heartbeat CPU 0 instructions: 31000001 cycles: 20846128 heartbeat IPC: 1.22636 cumulative IPC: 1.33861 (Simulation time: 0 hr 18 min 11 sec) 
Heartbeat CPU 0 instructions: 32000000 cycles: 21621168 heartbeat IPC: 1.29025 cumulative IPC: 1.33633 (Simulation time: 0 hr 18 min 43 sec) 
Heartbeat CPU 0 instructions: 33000000 cycles: 22322192 heartbeat IPC: 1.42648 cumulative IPC: 1.34002 (Simulation time: 0 hr 19 min 16 sec) 
Heartbeat CPU 0 instructions: 34000000 cycles: 23032040 heartbeat IPC: 1.40875 cumulative IPC: 1.34275 (Simulation time: 0 hr 19 min 53 sec) 
Heartbeat CPU 0 instructions: 35000000 cycles: 23734094 heartbeat IPC: 1.42439 cumulative IPC: 1.34583 (Simulation time: 0 hr 20 min 29 sec) 
Heartbeat CPU 0 instructions: 36000000 cycles: 24532743 heartbeat IPC: 1.25211 cumulative IPC: 1.34197 (Simulation time: 0 hr 21 min 5 sec) 
Heartbeat CPU 0 instructions: 37000003 cycles: 25347777 heartbeat IPC: 1.22695 cumulative IPC: 1.33732 (Simulation time: 0 hr 21 min 40 sec) 
Heartbeat CPU 0 instructions: 38000001 cycles: 26101934 heartbeat IPC: 1.32598 cumulative IPC: 1.33692 (Simulation time: 0 hr 22 min 12 sec) 
Heartbeat CPU 0 instructions: 39000002 cycles: 26803672 heartbeat IPC: 1.42503 cumulative IPC: 1.33977 (Simulation time: 0 hr 22 min 46 sec) 
Heartbeat CPU 0 instructions: 40000000 cycles: 27512907 heartbeat IPC: 1.40997 cumulative IPC: 1.342 (Simulation time: 0 hr 23 min 22 sec) 
Heartbeat CPU 0 instructions: 41000001 cycles: 28213962 heartbeat IPC: 1.42642 cumulative IPC: 1.34457 (Simulation time: 0 hr 23 min 56 sec) 
Heartbeat CPU 0 instructions: 42000001 cycles: 29040357 heartbeat IPC: 1.21008 cumulative IPC: 1.33991 (Simulation time: 0 hr 24 min 30 sec) 
Heartbeat CPU 0 instructions: 43000000 cycles: 29850182 heartbeat IPC: 1.23483 cumulative IPC: 1.33647 (Simulation time: 0 hr 25 min 11 sec) 
Heartbeat CPU 0 instructions: 44000000 cycles: 30575332 heartbeat IPC: 1.37902 cumulative IPC: 1.33768 (Simulation time: 0 hr 25 min 47 sec) 
Heartbeat CPU 0 instructions: 45000002 cycles: 31281752 heartbeat IPC: 1.41559 cumulative IPC: 1.33979 (Simulation time: 0 hr 26 min 21 sec) 
Heartbeat CPU 0 instructions: 46000002 cycles: 31987490 heartbeat IPC: 1.41696 cumulative IPC: 1.34182 (Simulation time: 0 hr 26 min 58 sec) 
Heartbeat CPU 0 instructions: 47000001 cycles: 32727266 heartbeat IPC: 1.35176 cumulative IPC: 1.34208 (Simulation time: 0 hr 27 min 32 sec) 
Heartbeat CPU 0 instructions: 48000000 cycles: 33537777 heartbeat IPC: 1.23379 cumulative IPC: 1.33899 (Simulation time: 0 hr 28 min 11 sec) 
Heartbeat CPU 0 instructions: 49000003 cycles: 34344907 heartbeat IPC: 1.23896 cumulative IPC: 1.33623 (Simulation time: 0 hr 28 min 47 sec) 
Heartbeat CPU 0 instructions: 50000001 cycles: 35047634 heartbeat IPC: 1.42302 cumulative IPC: 1.33827 (Simulation time: 0 hr 29 min 22 sec) 
Heartbeat CPU 0 instructions: 51000002 cycles: 35750170 heartbeat IPC: 1.42342 cumulative IPC: 1.34022 (Simulation time: 0 hr 29 min 58 sec) 
Heartbeat CPU 0 instructions: 52000000 cycles: 36456107 heartbeat IPC: 1.41655 cumulative IPC: 1.34194 (Simulation time: 0 hr 30 min 33 sec) 
Heartbeat CPU 0 instructions: 53000000 cycles: 37219717 heartbeat IPC: 1.30957 cumulative IPC: 1.34117 (Simulation time: 0 hr 31 min 13 sec) 
Heartbeat CPU 0 instructions: 54000002 cycles: 38029523 heartbeat IPC: 1.23487 cumulative IPC: 1.33855 (Simulation time: 0 hr 31 min 52 sec) 
Heartbeat CPU 0 instructions: 55000001 cycles: 38810859 heartbeat IPC: 1.27986 cumulative IPC: 1.33719 (Simulation time: 0 hr 32 min 27 sec) 
Heartbeat CPU 0 instructions: 56000000 cycles: 39514745 heartbeat IPC: 1.42068 cumulative IPC: 1.3389 (Simulation time: 0 hr 33 min 4 sec) 
Heartbeat CPU 0 instructions: 57000000 cycles: 40219972 heartbeat IPC: 1.41798 cumulative IPC: 1.34049 (Simulation time: 0 hr 33 min 42 sec) 
Heartbeat CPU 0 instructions: 58000000 cycles: 40926063 heartbeat IPC: 1.41625 cumulative IPC: 1.34199 (Simulation time: 0 hr 34 min 17 sec) 
Heartbeat CPU 0 instructions: 59000003 cycles: 41712042 heartbeat IPC: 1.2723 cumulative IPC: 1.34049 (Simulation time: 0 hr 34 min 54 sec) 
Heartbeat CPU 0 instructions: 60000000 cycles: 42523315 heartbeat IPC: 1.23263 cumulative IPC: 1.33815 (Simulation time: 0 hr 35 min 29 sec) 
Heartbeat CPU 0 instructions: 61000000 cycles: 43281697 heartbeat IPC: 1.3186 cumulative IPC: 1.33776 (Simulation time: 0 hr 36 min 4 sec) 
Heartbeat CPU 0 instructions: 62000002 cycles: 43985500 heartbeat IPC: 1.42085 cumulative IPC: 1.33926 (Simulation time: 0 hr 36 min 40 sec) 
Heartbeat CPU 0 instructions: 63000003 cycles: 44690260 heartbeat IPC: 1.41892 cumulative IPC: 1.34068 (Simulation time: 0 hr 37 min 17 sec) 
Heartbeat CPU 0 instructions: 64000000 cycles: 45392872 heartbeat IPC: 1.42326 cumulative IPC: 1.34213 (Simulation time: 0 hr 37 min 57 sec) 
Heartbeat CPU 0 instructions: 65000003 cycles: 46207442 heartbeat IPC: 1.22765 cumulative IPC: 1.33985 (Simulation time: 0 hr 38 min 38 sec) 
Heartbeat CPU 0 instructions: 66000003 cycles: 47019067 heartbeat IPC: 1.2321 cumulative IPC: 1.33777 (Simulation time: 0 hr 39 min 16 sec) 
Heartbeat CPU 0 instructions: 67000002 cycles: 47752598 heartbeat IPC: 1.36327 cumulative IPC: 1.3382 (Simulation time: 0 hr 39 min 51 sec) 
Heartbeat CPU 0 instructions: 68000000 cycles: 48456070 heartbeat IPC: 1.42152 cumulative IPC: 1.33956 (Simulation time: 0 hr 40 min 24 sec) 
Heartbeat CPU 0 instructions: 69000000 cycles: 49161166 heartbeat IPC: 1.41825 cumulative IPC: 1.34082 (Simulation time: 0 hr 40 min 59 sec) 
Heartbeat CPU 0 instructions: 70000001 cycles: 49892193 heartbeat IPC: 1.36794 cumulative IPC: 1.34126 (Simulation time: 0 hr 41 min 33 sec) 
Heartbeat CPU 0 instructions: 71000001 cycles: 50698384 heartbeat IPC: 1.2404 cumulative IPC: 1.33948 (Simulation time: 0 hr 42 min 14 sec) 
Heartbeat CPU 0 instructions: 72000000 cycles: 51508980 heartbeat IPC: 1.23366 cumulative IPC: 1.33763 (Simulation time: 0 hr 42 min 49 sec) 
Heartbeat CPU 0 instructions: 73000003 cycles: 52218532 heartbeat IPC: 1.40934 cumulative IPC: 1.33871 (Simulation time: 0 hr 43 min 25 sec) 
Heartbeat CPU 0 instructions: 74000001 cycles: 52922863 heartbeat IPC: 1.41978 cumulative IPC: 1.3399 (Simulation time: 0 hr 44 min 1 sec) 
Heartbeat CPU 0 instructions: 75000003 cycles: 53627698 heartbeat IPC: 1.41877 cumulative IPC: 1.34105 (Simulation time: 0 hr 44 min 35 sec) 
Heartbeat CPU 0 instructions: 76000000 cycles: 54384044 heartbeat IPC: 1.32214 cumulative IPC: 1.34076 (Simulation time: 0 hr 45 min 8 sec) 
Heartbeat CPU 0 instructions: 77000001 cycles: 55194162 heartbeat IPC: 1.23439 cumulative IPC: 1.33904 (Simulation time: 0 hr 45 min 44 sec) 
Heartbeat CPU 0 instructions: 78000003 cycles: 55983500 heartbeat IPC: 1.26689 cumulative IPC: 1.33792 (Simulation time: 0 hr 46 min 21 sec) 
Heartbeat CPU 0 instructions: 79000001 cycles: 56686197 heartbeat IPC: 1.42309 cumulative IPC: 1.33908 (Simulation time: 0 hr 46 min 53 sec) 
Heartbeat CPU 0 instructions: 80000000 cycles: 57390186 heartbeat IPC: 1.42048 cumulative IPC: 1.34018 (Simulation time: 0 hr 47 min 27 sec) 
Heartbeat CPU 0 instructions: 81000000 cycles: 58093121 heartbeat IPC: 1.42261 cumulative IPC: 1.34127 (Simulation time: 0 hr 48 min 2 sec) 
Heartbeat CPU 0 instructions: 82000002 cycles: 58873523 heartbeat IPC: 1.28139 cumulative IPC: 1.3404 (Simulation time: 0 hr 48 min 38 sec) 
Heartbeat CPU 0 instructions: 83000001 cycles: 59683253 heartbeat IPC: 1.23498 cumulative IPC: 1.33883 (Simulation time: 0 hr 49 min 17 sec) 
Heartbeat CPU 0 instructions: 84000000 cycles: 60448226 heartbeat IPC: 1.30723 cumulative IPC: 1.3384 (Simulation time: 0 hr 49 min 57 sec) 
Heartbeat CPU 0 instructions: 85000001 cycles: 61151880 heartbeat IPC: 1.42115 cumulative IPC: 1.33944 (Simulation time: 0 hr 50 min 35 sec) 
Heartbeat CPU 0 instructions: 86000002 cycles: 61855983 heartbeat IPC: 1.42025 cumulative IPC: 1.34044 (Simulation time: 0 hr 51 min 11 sec) 
Heartbeat CPU 0 instructions: 87000000 cycles: 62560433 heartbeat IPC: 1.41954 cumulative IPC: 1.34141 (Simulation time: 0 hr 51 min 45 sec) 
Heartbeat CPU 0 instructions: 88000000 cycles: 63363466 heartbeat IPC: 1.24528 cumulative IPC: 1.34009 (Simulation time: 0 hr 52 min 17 sec) 
Heartbeat CPU 0 instructions: 89000000 cycles: 64175223 heartbeat IPC: 1.2319 cumulative IPC: 1.3386 (Simulation time: 0 hr 52 min 53 sec) 
Heartbeat CPU 0 instructions: 90000002 cycles: 64916546 heartbeat IPC: 1.34894 cumulative IPC: 1.33873 (Simulation time: 0 hr 53 min 30 sec) 
Heartbeat CPU 0 instructions: 91000002 cycles: 65620388 heartbeat IPC: 1.42077 cumulative IPC: 1.33968 (Simulation time: 0 hr 54 min 6 sec) 
Heartbeat CPU 0 instructions: 92000000 cycles: 66325071 heartbeat IPC: 1.41908 cumulative IPC: 1.3406 (Simulation time: 0 hr 54 min 42 sec) 
Heartbeat CPU 0 instructions: 93000001 cycles: 67028576 heartbeat IPC: 1.42146 cumulative IPC: 1.34151 (Simulation time: 0 hr 55 min 17 sec) 
Heartbeat CPU 0 instructions: 94000000 cycles: 67855268 heartbeat IPC: 1.20964 cumulative IPC: 1.33978 (Simulation time: 0 hr 55 min 53 sec) 
Heartbeat CPU 0 instructions: 95000003 cycles: 68666204 heartbeat IPC: 1.23315 cumulative IPC: 1.33841 (Simulation time: 0 hr 56 min 28 sec) 
Heartbeat CPU 0 instructions: 96000000 cycles: 69385189 heartbeat IPC: 1.39085 cumulative IPC: 1.339 (Simulation time: 0 hr 57 min 6 sec) 
Heartbeat CPU 0 instructions: 97000001 cycles: 70090611 heartbeat IPC: 1.41759 cumulative IPC: 1.33986 (Simulation time: 0 hr 57 min 41 sec) 
Heartbeat CPU 0 instructions: 98000000 cycles: 70795913 heartbeat IPC: 1.41783 cumulative IPC: 1.34069 (Simulation time: 0 hr 58 min 17 sec) 
Heartbeat CPU 0 instructions: 99000001 cycles: 71539436 heartbeat IPC: 1.34495 cumulative IPC: 1.34074 (Simulation time: 0 hr 58 min 51 sec) 
Heartbeat CPU 0 instructions: 100000000 cycles: 72350434 heartbeat IPC: 1.23305 cumulative IPC: 1.33944 (Simulation time: 0 hr 59 min 25 sec) 
Heartbeat CPU 0 instructions: 101000001 cycles: 73154558 heartbeat IPC: 1.24359 cumulative IPC: 1.33831 (Simulation time: 1 hr 0 min 3 sec) 
Heartbeat CPU 0 instructions: 102000003 cycles: 73856672 heartbeat IPC: 1.42427 cumulative IPC: 1.33919 (Simulation time: 1 hr 0 min 37 sec) 
Heartbeat CPU 0 instructions: 103000003 cycles: 74560813 heartbeat IPC: 1.42017 cumulative IPC: 1.34001 (Simulation time: 1 hr 1 min 9 sec) 
Heartbeat CPU 0 instructions: 104000000 cycles: 75263964 heartbeat IPC: 1.42217 cumulative IPC: 1.34083 (Simulation time: 1 hr 1 min 45 sec) 
Heartbeat CPU 0 instructions: 105000001 cycles: 76035896 heartbeat IPC: 1.29545 cumulative IPC: 1.34034 (Simulation time: 1 hr 2 min 19 sec) 
Heartbeat CPU 0 instructions: 106000002 cycles: 76842411 heartbeat IPC: 1.2399 cumulative IPC: 1.33921 (Simulation time: 1 hr 2 min 53 sec) 
Heartbeat CPU 0 instructions: 107000003 cycles: 77620231 heartbeat IPC: 1.28565 cumulative IPC: 1.33863 (Simulation time: 1 hr 3 min 26 sec) 
Heartbeat CPU 0 instructions: 108000000 cycles: 78323988 heartbeat IPC: 1.42094 cumulative IPC: 1.33942 (Simulation time: 1 hr 3 min 57 sec) 
Heartbeat CPU 0 instructions: 109000001 cycles: 79028430 heartbeat IPC: 1.41956 cumulative IPC: 1.34019 (Simulation time: 1 hr 4 min 29 sec) 
Heartbeat CPU 0 instructions: 110000000 cycles: 79730792 heartbeat IPC: 1.42377 cumulative IPC: 1.34098 (Simulation time: 1 hr 5 min 1 sec) 
Finished CPU 0 instructions: 100000002 cycles: 74572578 cummulative IPC: 1.34098 (Simulation time: 1 hr 5 min 1 sec) 

ChampSim completed all CPUs

Region of Interest Statistics

CPU 0 cummulative IPC: 1.34098 instructions: 100000002 cycles: 74572578
LLC TOTAL     ACCESS:     631688  HIT:     312473  MISS:     319215
LLC LOAD      ACCESS:      35142  HIT:       7765  MISS:      27377
LLC RFO       ACCESS:     152073  HIT:      76574  MISS:      75499
LLC PREFETCH  ACCESS:     288671  HIT:      72909  MISS:     215762
LLC WRITEBACK ACCESS:     155802  HIT:     155225  MISS:        577
