
*** ChampSim Multicore Out-of-Order Simulator ***

Warmup Instructions: 10000000
Simulation Instructions: 100000000
Configuration: 2
Number of CPUs: 1
LLC sets: 2048
LLC ways: 16
Off-chip DRAM Channels: 1 Width: 64-bit Data Rate: 1600 MT/s

CPU 0 runs /datasets/cs240c-wi22-a00-public/data/Assignment2-gz/mcf_158B.trace.gz
CPU 0 L1D next line prefetcher
CPU 0 L2C IP-based stride prefetcher
Heartbeat CPU 0 instructions: 1000002 cycles: 512486 heartbeat IPC: 1.95128 cumulative IPC: 1.95128 (Simulation time: 0 hr 0 min 59 sec) 
Heartbeat CPU 0 instructions: 2000002 cycles: 1023629 heartbeat IPC: 1.9564 cumulative IPC: 1.95383 (Simulation time: 0 hr 1 min 53 sec) 
Heartbeat CPU 0 instructions: 3000000 cycles: 1536167 heartbeat IPC: 1.95107 cumulative IPC: 1.95291 (Simulation time: 0 hr 2 min 54 sec) 
Heartbeat CPU 0 instructions: 4000000 cycles: 2046807 heartbeat IPC: 1.95833 cumulative IPC: 1.95426 (Simulation time: 0 hr 4 min 3 sec) 
Heartbeat CPU 0 instructions: 5000002 cycles: 2554161 heartbeat IPC: 1.97101 cumulative IPC: 1.95759 (Simulation time: 0 hr 5 min 30 sec) 
Heartbeat CPU 0 instructions: 6000001 cycles: 3066461 heartbeat IPC: 1.95198 cumulative IPC: 1.95665 (Simulation time: 0 hr 6 min 49 sec) 
Heartbeat CPU 0 instructions: 7000001 cycles: 3575284 heartbeat IPC: 1.96532 cumulative IPC: 1.95789 (Simulation time: 0 hr 8 min 1 sec) 
Heartbeat CPU 0 instructions: 8000000 cycles: 4085785 heartbeat IPC: 1.95886 cumulative IPC: 1.95801 (Simulation time: 0 hr 9 min 19 sec) 
Heartbeat CPU 0 instructions: 9000000 cycles: 4604485 heartbeat IPC: 1.9279 cumulative IPC: 1.95462 (Simulation time: 0 hr 10 min 36 sec) 
Heartbeat CPU 0 instructions: 10000001 cycles: 5144218 heartbeat IPC: 1.85277 cumulative IPC: 1.94393 (Simulation time: 0 hr 11 min 43 sec) 

Warmup complete CPU 0 instructions: 10000001 cycles: 5144218 (Simulation time: 0 hr 11 min 43 sec) 

Heartbeat CPU 0 instructions: 11000001 cycles: 15537130 heartbeat IPC: 0.0962194 cumulative IPC: 0.0962194 (Simulation time: 0 hr 13 min 39 sec) 
Heartbeat CPU 0 instructions: 12000000 cycles: 24703374 heartbeat IPC: 0.109096 cumulative IPC: 0.102254 (Simulation time: 0 hr 15 min 29 sec) 
Heartbeat CPU 0 instructions: 13000001 cycles: 33816685 heartbeat IPC: 0.10973 cumulative IPC: 0.10463 (Simulation time: 0 hr 17 min 18 sec) 
Heartbeat CPU 0 instructions: 14000001 cycles: 42274223 heartbeat IPC: 0.118238 cumulative IPC: 0.10773 (Simulation time: 0 hr 19 min 4 sec) 
Heartbeat CPU 0 instructions: 15000000 cycles: 51178064 heartbeat IPC: 0.112311 cumulative IPC: 0.108616 (Simulation time: 0 hr 20 min 50 sec) 
Heartbeat CPU 0 instructions: 16000000 cycles: 66562519 heartbeat IPC: 0.0650007 cumulative IPC: 0.0976907 (Simulation time: 0 hr 23 min 17 sec) 
Heartbeat CPU 0 instructions: 17000001 cycles: 78059030 heartbeat IPC: 0.086983 cumulative IPC: 0.0960024 (Simulation time: 0 hr 25 min 25 sec) 
Heartbeat CPU 0 instructions: 18000000 cycles: 87387967 heartbeat IPC: 0.107193 cumulative IPC: 0.0972718 (Simulation time: 0 hr 27 min 17 sec) 
Heartbeat CPU 0 instructions: 19000001 cycles: 97062734 heartbeat IPC: 0.103362 cumulative IPC: 0.0979128 (Simulation time: 0 hr 29 min 9 sec) 
Heartbeat CPU 0 instructions: 20000000 cycles: 106318127 heartbeat IPC: 0.108045 cumulative IPC: 0.0988397 (Simulation time: 0 hr 31 min 8 sec) 
Heartbeat CPU 0 instructions: 21000000 cycles: 115673715 heartbeat IPC: 0.106888 cumulative IPC: 0.0995209 (Simulation time: 0 hr 32 min 59 sec) 
Heartbeat CPU 0 instructions: 22000002 cycles: 125031343 heartbeat IPC: 0.106865 cumulative IPC: 0.100094 (Simulation time: 0 hr 34 min 54 sec) 
Heartbeat CPU 0 instructions: 23000002 cycles: 135814472 heartbeat IPC: 0.0927375 cumulative IPC: 0.0994871 (Simulation time: 0 hr 36 min 56 sec) 
Heartbeat CPU 0 instructions: 24000000 cycles: 151380892 heartbeat IPC: 0.0642407 cumulative IPC: 0.0957352 (Simulation time: 0 hr 39 min 29 sec) 
Heartbeat CPU 0 instructions: 25000000 cycles: 160988914 heartbeat IPC: 0.10408 cumulative IPC: 0.0962497 (Simulation time: 0 hr 41 min 18 sec) 
Heartbeat CPU 0 instructions: 26000000 cycles: 168789158 heartbeat IPC: 0.128201 cumulative IPC: 0.0977727 (Simulation time: 0 hr 43 min 6 sec) 
Heartbeat CPU 0 instructions: 27000002 cycles: 176600349 heartbeat IPC: 0.128022 cumulative IPC: 0.0991507 (Simulation time: 0 hr 44 min 50 sec) 
Heartbeat CPU 0 instructions: 28000000 cycles: 191523341 heartbeat IPC: 0.0670106 cumulative IPC: 0.0965773 (Simulation time: 0 hr 47 min 14 sec) 
Heartbeat CPU 0 instructions: 29000003 cycles: 200504453 heartbeat IPC: 0.111345 cumulative IPC: 0.0972562 (Simulation time: 0 hr 48 min 58 sec) 
Heartbeat CPU 0 instructions: 30000003 cycles: 207794766 heartbeat IPC: 0.137168 cumulative IPC: 0.0986921 (Simulation time: 0 hr 50 min 50 sec) 
Heartbeat CPU 0 instructions: 31000003 cycles: 216111096 heartbeat IPC: 0.120245 cumulative IPC: 0.0995417 (Simulation time: 0 hr 52 min 31 sec) 
Heartbeat CPU 0 instructions: 32000000 cycles: 230841819 heartbeat IPC: 0.0678851 cumulative IPC: 0.0974756 (Simulation time: 0 hr 54 min 23 sec) 
Heartbeat CPU 0 instructions: 33000000 cycles: 238775681 heartbeat IPC: 0.126042 cumulative IPC: 0.0984456 (Simulation time: 0 hr 55 min 33 sec) 
Heartbeat CPU 0 instructions: 34000000 cycles: 246833069 heartbeat IPC: 0.12411 cumulative IPC: 0.0993012 (Simulation time: 0 hr 56 min 49 sec) 
Heartbeat CPU 0 instructions: 35000001 cycles: 255345081 heartbeat IPC: 0.117481 cumulative IPC: 0.0999197 (Simulation time: 0 hr 58 min 1 sec) 
Heartbeat CPU 0 instructions: 36000000 cycles: 270764523 heartbeat IPC: 0.0648531 cumulative IPC: 0.0978841 (Simulation time: 0 hr 59 min 32 sec) 
Heartbeat CPU 0 instructions: 37000001 cycles: 279491448 heartbeat IPC: 0.114588 cumulative IPC: 0.0984154 (Simulation time: 1 hr 0 min 24 sec) 
Heartbeat CPU 0 instructions: 38000000 cycles: 287922904 heartbeat IPC: 0.118603 cumulative IPC: 0.0990174 (Simulation time: 1 hr 1 min 29 sec) 
Heartbeat CPU 0 instructions: 39000000 cycles: 295303916 heartbeat IPC: 0.135483 cumulative IPC: 0.099945 (Simulation time: 1 hr 2 min 29 sec) 
Heartbeat CPU 0 instructions: 40000000 cycles: 309602389 heartbeat IPC: 0.0699375 cumulative IPC: 0.0985357 (Simulation time: 1 hr 3 min 43 sec) 
Heartbeat CPU 0 instructions: 41000003 cycles: 318627168 heartbeat IPC: 0.110806 cumulative IPC: 0.098889 (Simulation time: 1 hr 4 min 38 sec) 
Heartbeat CPU 0 instructions: 42000000 cycles: 325982972 heartbeat IPC: 0.135947 cumulative IPC: 0.0997386 (Simulation time: 1 hr 5 min 31 sec) 
Heartbeat CPU 0 instructions: 43000001 cycles: 336634107 heartbeat IPC: 0.0938868 cumulative IPC: 0.0995505 (Simulation time: 1 hr 6 min 31 sec) 
Heartbeat CPU 0 instructions: 44000000 cycles: 348757361 heartbeat IPC: 0.082486 cumulative IPC: 0.0989485 (Simulation time: 1 hr 7 min 24 sec) 
Heartbeat CPU 0 instructions: 45000000 cycles: 355322532 heartbeat IPC: 0.152319 cumulative IPC: 0.0999491 (Simulation time: 1 hr 8 min 2 sec) 
Heartbeat CPU 0 instructions: 46000002 cycles: 365606305 heartbeat IPC: 0.0972408 cumulative IPC: 0.0998718 (Simulation time: 1 hr 8 min 43 sec) 
Heartbeat CPU 0 instructions: 47000002 cycles: 377960227 heartbeat IPC: 0.080946 cumulative IPC: 0.0992447 (Simulation time: 1 hr 9 min 30 sec) 
Heartbeat CPU 0 instructions: 48000000 cycles: 384778189 heartbeat IPC: 0.146671 cumulative IPC: 0.100096 (Simulation time: 1 hr 10 min 5 sec) 
Heartbeat CPU 0 instructions: 49000003 cycles: 394995340 heartbeat IPC: 0.0978749 cumulative IPC: 0.100038 (Simulation time: 1 hr 10 min 52 sec) 
Heartbeat CPU 0 instructions: 50000000 cycles: 407455845 heartbeat IPC: 0.0802533 cumulative IPC: 0.0994254 (Simulation time: 1 hr 11 min 38 sec) 
Heartbeat CPU 0 instructions: 51000000 cycles: 413986372 heartbeat IPC: 0.153127 cumulative IPC: 0.100283 (Simulation time: 1 hr 12 min 8 sec) 
Heartbeat CPU 0 instructions: 52000000 cycles: 423494995 heartbeat IPC: 0.105168 cumulative IPC: 0.100394 (Simulation time: 1 hr 12 min 43 sec) 
Heartbeat CPU 0 instructions: 53000000 cycles: 436797316 heartbeat IPC: 0.0751749 cumulative IPC: 0.099617 (Simulation time: 1 hr 13 min 22 sec) 
Heartbeat CPU 0 instructions: 54000000 cycles: 443530420 heartbeat IPC: 0.14852 cumulative IPC: 0.100368 (Simulation time: 1 hr 13 min 46 sec) 
Heartbeat CPU 0 instructions: 55000000 cycles: 451635737 heartbeat IPC: 0.123376 cumulative IPC: 0.100786 (Simulation time: 1 hr 14 min 14 sec) 
Heartbeat CPU 0 instructions: 56000000 cycles: 466166906 heartbeat IPC: 0.0688176 cumulative IPC: 0.0997782 (Simulation time: 1 hr 14 min 50 sec) 
Heartbeat CPU 0 instructions: 57000001 cycles: 472994350 heartbeat IPC: 0.146468 cumulative IPC: 0.10046 (Simulation time: 1 hr 15 min 13 sec) 
Heartbeat CPU 0 instructions: 58000001 cycles: 479695290 heartbeat IPC: 0.149233 cumulative IPC: 0.101148 (Simulation time: 1 hr 15 min 34 sec) 
Heartbeat CPU 0 instructions: 59000000 cycles: 495246872 heartbeat IPC: 0.0643021 cumulative IPC: 0.0999791 (Simulation time: 1 hr 16 min 4 sec) 
Heartbeat CPU 0 instructions: 60000000 cycles: 502280219 heartbeat IPC: 0.14218 cumulative IPC: 0.100576 (Simulation time: 1 hr 16 min 24 sec) 
Heartbeat CPU 0 instructions: 61000000 cycles: 509504945 heartbeat IPC: 0.138414 cumulative IPC: 0.101118 (Simulation time: 1 hr 16 min 42 sec) 
Heartbeat CPU 0 instructions: 62000001 cycles: 521958180 heartbeat IPC: 0.0803005 cumulative IPC: 0.100616 (Simulation time: 1 hr 17 min 5 sec) 
Heartbeat CPU 0 instructions: 63000001 cycles: 532375333 heartbeat IPC: 0.0959955 cumulative IPC: 0.100525 (Simulation time: 1 hr 17 min 22 sec) 
Heartbeat CPU 0 instructions: 64000000 cycles: 539033225 heartbeat IPC: 0.150198 cumulative IPC: 0.101145 (Simulation time: 1 hr 17 min 35 sec) 
Heartbeat CPU 0 instructions: 65000000 cycles: 546687413 heartbeat IPC: 0.130647 cumulative IPC: 0.101562 (Simulation time: 1 hr 17 min 47 sec) 
Heartbeat CPU 0 instructions: 66000000 cycles: 561532743 heartbeat IPC: 0.0673613 cumulative IPC: 0.100649 (Simulation time: 1 hr 18 min 4 sec) 
Heartbeat CPU 0 instructions: 67000002 cycles: 568151840 heartbeat IPC: 0.151078 cumulative IPC: 0.101242 (Simulation time: 1 hr 18 min 14 sec) 
Heartbeat CPU 0 instructions: 68000000 cycles: 574694447 heartbeat IPC: 0.152844 cumulative IPC: 0.101835 (Simulation time: 1 hr 18 min 24 sec) 
Heartbeat CPU 0 instructions: 69000000 cycles: 587780036 heartbeat IPC: 0.0764199 cumulative IPC: 0.101264 (Simulation time: 1 hr 18 min 36 sec) 
Heartbeat CPU 0 instructions: 70000000 cycles: 597138059 heartbeat IPC: 0.10686 cumulative IPC: 0.101352 (Simulation time: 1 hr 18 min 45 sec) 
Heartbeat CPU 0 instructions: 71000002 cycles: 603587356 heartbeat IPC: 0.155056 cumulative IPC: 0.101931 (Simulation time: 1 hr 18 min 52 sec) 
Heartbeat CPU 0 instructions: 72000000 cycles: 611680943 heartbeat IPC: 0.123554 cumulative IPC: 0.10222 (Simulation time: 1 hr 19 min 0 sec) 
Heartbeat CPU 0 instructions: 73000000 cycles: 625939556 heartbeat IPC: 0.070133 cumulative IPC: 0.101483 (Simulation time: 1 hr 19 min 10 sec) 
Heartbeat CPU 0 instructions: 74000000 cycles: 632767739 heartbeat IPC: 0.146452 cumulative IPC: 0.101972 (Simulation time: 1 hr 19 min 17 sec) 
Heartbeat CPU 0 instructions: 75000001 cycles: 639719908 heartbeat IPC: 0.14384 cumulative IPC: 0.102431 (Simulation time: 1 hr 19 min 24 sec) 
Heartbeat CPU 0 instructions: 76000000 cycles: 651974922 heartbeat IPC: 0.0815992 cumulative IPC: 0.102036 (Simulation time: 1 hr 19 min 34 sec) 
Heartbeat CPU 0 instructions: 77000000 cycles: 662697403 heartbeat IPC: 0.093262 cumulative IPC: 0.101893 (Simulation time: 1 hr 19 min 43 sec) 
Heartbeat CPU 0 instructions: 78000000 cycles: 670070770 heartbeat IPC: 0.135623 cumulative IPC: 0.102267 (Simulation time: 1 hr 19 min 51 sec) 
Heartbeat CPU 0 instructions: 79000001 cycles: 677740982 heartbeat IPC: 0.130375 cumulative IPC: 0.102587 (Simulation time: 1 hr 19 min 59 sec) 
Heartbeat CPU 0 instructions: 80000000 cycles: 692999410 heartbeat IPC: 0.0655375 cumulative IPC: 0.101766 (Simulation time: 1 hr 20 min 10 sec) 
Heartbeat CPU 0 instructions: 81000001 cycles: 700597593 heartbeat IPC: 0.131611 cumulative IPC: 0.102092 (Simulation time: 1 hr 20 min 17 sec) 
Heartbeat CPU 0 instructions: 82000001 cycles: 707987278 heartbeat IPC: 0.135324 cumulative IPC: 0.102441 (Simulation time: 1 hr 20 min 25 sec) 
Heartbeat CPU 0 instructions: 83000001 cycles: 720565535 heartbeat IPC: 0.0795023 cumulative IPC: 0.102038 (Simulation time: 1 hr 20 min 35 sec) 
Heartbeat CPU 0 instructions: 84000000 cycles: 731564261 heartbeat IPC: 0.0909195 cumulative IPC: 0.101869 (Simulation time: 1 hr 20 min 44 sec) 
Heartbeat CPU 0 instructions: 85000000 cycles: 738274421 heartbeat IPC: 0.149028 cumulative IPC: 0.102301 (Simulation time: 1 hr 20 min 52 sec) 
Heartbeat CPU 0 instructions: 86000000 cycles: 746272885 heartbeat IPC: 0.125024 cumulative IPC: 0.102546 (Simulation time: 1 hr 21 min 0 sec) 
Heartbeat CPU 0 instructions: 87000000 cycles: 761103248 heartbeat IPC: 0.0674292 cumulative IPC: 0.101857 (Simulation time: 1 hr 21 min 10 sec) 
Heartbeat CPU 0 instructions: 88000000 cycles: 768365212 heartbeat IPC: 0.137704 cumulative IPC: 0.102198 (Simulation time: 1 hr 21 min 16 sec) 
Heartbeat CPU 0 instructions: 89000000 cycles: 776007016 heartbeat IPC: 0.130859 cumulative IPC: 0.102483 (Simulation time: 1 hr 21 min 23 sec) 
Heartbeat CPU 0 instructions: 90000002 cycles: 789704426 heartbeat IPC: 0.0730067 cumulative IPC: 0.101968 (Simulation time: 1 hr 21 min 33 sec) 
Heartbeat CPU 0 instructions: 91000000 cycles: 799118902 heartbeat IPC: 0.106219 cumulative IPC: 0.102018 (Simulation time: 1 hr 21 min 41 sec) 
Heartbeat CPU 0 instructions: 92000000 cycles: 806326503 heartbeat IPC: 0.138742 cumulative IPC: 0.102349 (Simulation time: 1 hr 21 min 48 sec) 
Heartbeat CPU 0 instructions: 93000003 cycles: 817526021 heartbeat IPC: 0.0892898 cumulative IPC: 0.102169 (Simulation time: 1 hr 21 min 58 sec) 
Heartbeat CPU 0 instructions: 94000000 cycles: 829475022 heartbeat IPC: 0.0836888 cumulative IPC: 0.101901 (Simulation time: 1 hr 22 min 7 sec) 
Heartbeat CPU 0 instructions: 95000000 cycles: 836694588 heartbeat IPC: 0.138512 cumulative IPC: 0.102219 (Simulation time: 1 hr 22 min 15 sec) 
Heartbeat CPU 0 instructions: 96000000 cycles: 844495376 heartbeat IPC: 0.128192 cumulative IPC: 0.10246 (Simulation time: 1 hr 22 min 22 sec) 
Heartbeat CPU 0 instructions: 97000003 cycles: 860054197 heartbeat IPC: 0.0642724 cumulative IPC: 0.101765 (Simulation time: 1 hr 22 min 34 sec) 
Heartbeat CPU 0 instructions: 98000002 cycles: 867674242 heartbeat IPC: 0.131233 cumulative IPC: 0.102025 (Simulation time: 1 hr 22 min 40 sec) 
Heartbeat CPU 0 instructions: 99000000 cycles: 875207567 heartbeat IPC: 0.132743 cumulative IPC: 0.102291 (Simulation time: 1 hr 22 min 48 sec) 
Heartbeat CPU 0 instructions: 100000000 cycles: 888685741 heartbeat IPC: 0.074194 cumulative IPC: 0.101863 (Simulation time: 1 hr 22 min 58 sec) 
Heartbeat CPU 0 instructions: 101000000 cycles: 898909447 heartbeat IPC: 0.0978119 cumulative IPC: 0.101816 (Simulation time: 1 hr 23 min 7 sec) 
Heartbeat CPU 0 instructions: 102000000 cycles: 906668194 heartbeat IPC: 0.128887 cumulative IPC: 0.102049 (Simulation time: 1 hr 23 min 15 sec) 
Heartbeat CPU 0 instructions: 103000001 cycles: 913937743 heartbeat IPC: 0.13756 cumulative IPC: 0.102333 (Simulation time: 1 hr 23 min 22 sec) 
Heartbeat CPU 0 instructions: 104000000 cycles: 929589397 heartbeat IPC: 0.0638909 cumulative IPC: 0.101683 (Simulation time: 1 hr 23 min 31 sec) 
Heartbeat CPU 0 instructions: 105000000 cycles: 937917099 heartbeat IPC: 0.120081 cumulative IPC: 0.101847 (Simulation time: 1 hr 23 min 39 sec) 
Heartbeat CPU 0 instructions: 106000000 cycles: 945571810 heartbeat IPC: 0.130639 cumulative IPC: 0.102081 (Simulation time: 1 hr 23 min 46 sec) 
Heartbeat CPU 0 instructions: 107000000 cycles: 955780986 heartbeat IPC: 0.0979511 cumulative IPC: 0.102037 (Simulation time: 1 hr 23 min 53 sec) 
Heartbeat CPU 0 instructions: 108000000 cycles: 969172348 heartbeat IPC: 0.074675 cumulative IPC: 0.101657 (Simulation time: 1 hr 24 min 2 sec) 
Heartbeat CPU 0 instructions: 109000000 cycles: 976740869 heartbeat IPC: 0.132126 cumulative IPC: 0.101894 (Simulation time: 1 hr 24 min 8 sec) 
Heartbeat CPU 0 instructions: 110000000 cycles: 984958056 heartbeat IPC: 0.121696 cumulative IPC: 0.10206 (Simulation time: 1 hr 24 min 14 sec) 
Finished CPU 0 instructions: 100000002 cycles: 979813840 cummulative IPC: 0.10206 (Simulation time: 1 hr 24 min 14 sec) 

ChampSim completed all CPUs

Region of Interest Statistics

CPU 0 cummulative IPC: 0.10206 instructions: 100000002 cycles: 979813840
LLC TOTAL     ACCESS:   21080320  HIT:    8438372  MISS:   12641948
LLC LOAD      ACCESS:    9507757  HIT:    5238630  MISS:    4269127
LLC RFO       ACCESS:     164406  HIT:      96842  MISS:      67564
LLC PREFETCH  ACCESS:    9645379  HIT:    1991894  MISS:    7653485
LLC WRITEBACK ACCESS:    1762778  HIT:    1111006  MISS:     651772
