
*** ChampSim Multicore Out-of-Order Simulator ***

Warmup Instructions: 10000000
Simulation Instructions: 100000000
Configuration: 2
Number of CPUs: 1
LLC sets: 2048
LLC ways: 16
Off-chip DRAM Channels: 1 Width: 64-bit Data Rate: 1600 MT/s

CPU 0 runs /datasets/cs240c-wi22-a00-public/data/Assignment2-gz/libquantum_1735B.trace.gz
CPU 0 L1D next line prefetcher
CPU 0 L2C IP-based stride prefetcher
Heartbeat CPU 0 instructions: 1000001 cycles: 333341 heartbeat IPC: 2.99993 cumulative IPC: 2.99993 (Simulation time: 0 hr 0 min 24 sec) 
Heartbeat CPU 0 instructions: 2000000 cycles: 666674 heartbeat IPC: 3 cumulative IPC: 2.99997 (Simulation time: 0 hr 0 min 54 sec) 
Heartbeat CPU 0 instructions: 3000000 cycles: 989045 heartbeat IPC: 3.10202 cumulative IPC: 3.03323 (Simulation time: 0 hr 1 min 30 sec) 
Heartbeat CPU 0 instructions: 4000000 cycles: 1290770 heartbeat IPC: 3.31428 cumulative IPC: 3.09893 (Simulation time: 0 hr 2 min 5 sec) 
Heartbeat CPU 0 instructions: 5000001 cycles: 1592495 heartbeat IPC: 3.31428 cumulative IPC: 3.13973 (Simulation time: 0 hr 2 min 38 sec) 
Heartbeat CPU 0 instructions: 6000001 cycles: 1894219 heartbeat IPC: 3.31429 cumulative IPC: 3.16753 (Simulation time: 0 hr 3 min 11 sec) 
Heartbeat CPU 0 instructions: 7000002 cycles: 2195942 heartbeat IPC: 3.3143 cumulative IPC: 3.1877 (Simulation time: 0 hr 3 min 46 sec) 
Heartbeat CPU 0 instructions: 8000000 cycles: 2501897 heartbeat IPC: 3.26845 cumulative IPC: 3.19757 (Simulation time: 0 hr 4 min 18 sec) 
Heartbeat CPU 0 instructions: 9000000 cycles: 2835230 heartbeat IPC: 3 cumulative IPC: 3.17435 (Simulation time: 0 hr 4 min 49 sec) 
Heartbeat CPU 0 instructions: 10000002 cycles: 3168564 heartbeat IPC: 3 cumulative IPC: 3.156 (Simulation time: 0 hr 5 min 23 sec) 

Warmup complete CPU 0 instructions: 10000002 cycles: 3168564 (Simulation time: 0 hr 5 min 23 sec) 

Heartbeat CPU 0 instructions: 11000001 cycles: 4602178 heartbeat IPC: 0.697537 cumulative IPC: 0.697537 (Simulation time: 0 hr 6 min 22 sec) 
Heartbeat CPU 0 instructions: 12000000 cycles: 6027434 heartbeat IPC: 0.701628 cumulative IPC: 0.699576 (Simulation time: 0 hr 7 min 11 sec) 
Heartbeat CPU 0 instructions: 13000001 cycles: 7847212 heartbeat IPC: 0.549518 cumulative IPC: 0.641211 (Simulation time: 0 hr 8 min 0 sec) 
Heartbeat CPU 0 instructions: 14000000 cycles: 10339382 heartbeat IPC: 0.401256 cumulative IPC: 0.557816 (Simulation time: 0 hr 8 min 49 sec) 
Heartbeat CPU 0 instructions: 15000000 cycles: 12831439 heartbeat IPC: 0.401275 cumulative IPC: 0.517444 (Simulation time: 0 hr 9 min 41 sec) 
Heartbeat CPU 0 instructions: 16000000 cycles: 15311287 heartbeat IPC: 0.403251 cumulative IPC: 0.494123 (Simulation time: 0 hr 10 min 24 sec) 
Heartbeat CPU 0 instructions: 17000002 cycles: 17807991 heartbeat IPC: 0.400529 cumulative IPC: 0.478161 (Simulation time: 0 hr 11 min 3 sec) 
Heartbeat CPU 0 instructions: 18000001 cycles: 19986045 heartbeat IPC: 0.459125 cumulative IPC: 0.475695 (Simulation time: 0 hr 11 min 55 sec) 
Heartbeat CPU 0 instructions: 19000000 cycles: 21506243 heartbeat IPC: 0.657808 cumulative IPC: 0.490793 (Simulation time: 0 hr 12 min 51 sec) 
Heartbeat CPU 0 instructions: 20000000 cycles: 23008457 heartbeat IPC: 0.665684 cumulative IPC: 0.504035 (Simulation time: 0 hr 13 min 44 sec) 
Heartbeat CPU 0 instructions: 21000001 cycles: 24508087 heartbeat IPC: 0.666832 cumulative IPC: 0.515475 (Simulation time: 0 hr 14 min 32 sec) 
Heartbeat CPU 0 instructions: 22000000 cycles: 26007593 heartbeat IPC: 0.666886 cumulative IPC: 0.525416 (Simulation time: 0 hr 15 min 27 sec) 
Heartbeat CPU 0 instructions: 23000000 cycles: 28209148 heartbeat IPC: 0.454224 cumulative IPC: 0.519157 (Simulation time: 0 hr 16 min 15 sec) 
Heartbeat CPU 0 instructions: 24000000 cycles: 30870004 heartbeat IPC: 0.375819 cumulative IPC: 0.505389 (Simulation time: 0 hr 17 min 2 sec) 
Heartbeat CPU 0 instructions: 25000000 cycles: 33538876 heartbeat IPC: 0.37469 cumulative IPC: 0.493903 (Simulation time: 0 hr 17 min 53 sec) 
Heartbeat CPU 0 instructions: 26000000 cycles: 36187628 heartbeat IPC: 0.377536 cumulative IPC: 0.484568 (Simulation time: 0 hr 18 min 38 sec) 
Heartbeat CPU 0 instructions: 27000001 cycles: 38853951 heartbeat IPC: 0.375049 cumulative IPC: 0.476385 (Simulation time: 0 hr 19 min 28 sec) 
Heartbeat CPU 0 instructions: 28000000 cycles: 40822680 heartbeat IPC: 0.507941 cumulative IPC: 0.478035 (Simulation time: 0 hr 20 min 25 sec) 
Heartbeat CPU 0 instructions: 29000000 cycles: 42244622 heartbeat IPC: 0.703264 cumulative IPC: 0.486231 (Simulation time: 0 hr 21 min 17 sec) 
Heartbeat CPU 0 instructions: 30000001 cycles: 43667855 heartbeat IPC: 0.702626 cumulative IPC: 0.493836 (Simulation time: 0 hr 22 min 2 sec) 
Heartbeat CPU 0 instructions: 31000000 cycles: 45090583 heartbeat IPC: 0.702874 cumulative IPC: 0.50093 (Simulation time: 0 hr 23 min 7 sec) 
Heartbeat CPU 0 instructions: 32000000 cycles: 46499759 heartbeat IPC: 0.709635 cumulative IPC: 0.507717 (Simulation time: 0 hr 24 min 4 sec) 
Heartbeat CPU 0 instructions: 33000002 cycles: 48536025 heartbeat IPC: 0.491096 cumulative IPC: 0.506971 (Simulation time: 0 hr 24 min 58 sec) 
Heartbeat CPU 0 instructions: 34000000 cycles: 50710841 heartbeat IPC: 0.459808 cumulative IPC: 0.504814 (Simulation time: 0 hr 25 min 51 sec) 
Heartbeat CPU 0 instructions: 35000000 cycles: 52870135 heartbeat IPC: 0.463114 cumulative IPC: 0.503002 (Simulation time: 0 hr 26 min 39 sec) 
Heartbeat CPU 0 instructions: 36000000 cycles: 55039320 heartbeat IPC: 0.461003 cumulative IPC: 0.501246 (Simulation time: 0 hr 27 min 17 sec) 
Heartbeat CPU 0 instructions: 37000002 cycles: 57211996 heartbeat IPC: 0.460263 cumulative IPC: 0.499598 (Simulation time: 0 hr 27 min 54 sec) 
Heartbeat CPU 0 instructions: 38000003 cycles: 58921651 heartbeat IPC: 0.584914 cumulative IPC: 0.502214 (Simulation time: 0 hr 28 min 33 sec) 
Heartbeat CPU 0 instructions: 39000000 cycles: 60333057 heartbeat IPC: 0.708511 cumulative IPC: 0.507308 (Simulation time: 0 hr 29 min 20 sec) 
Heartbeat CPU 0 instructions: 40000000 cycles: 61780543 heartbeat IPC: 0.690853 cumulative IPC: 0.511841 (Simulation time: 0 hr 30 min 1 sec) 
Heartbeat CPU 0 instructions: 41000000 cycles: 63275765 heartbeat IPC: 0.668797 cumulative IPC: 0.515745 (Simulation time: 0 hr 30 min 44 sec) 
Heartbeat CPU 0 instructions: 42000001 cycles: 64687170 heartbeat IPC: 0.708515 cumulative IPC: 0.520168 (Simulation time: 0 hr 31 min 24 sec) 
Heartbeat CPU 0 instructions: 43000000 cycles: 66753196 heartbeat IPC: 0.484021 cumulative IPC: 0.518993 (Simulation time: 0 hr 31 min 57 sec) 
Heartbeat CPU 0 instructions: 44000000 cycles: 68917757 heartbeat IPC: 0.461987 cumulative IPC: 0.517117 (Simulation time: 0 hr 32 min 33 sec) 
Heartbeat CPU 0 instructions: 45000001 cycles: 71080115 heartbeat IPC: 0.462459 cumulative IPC: 0.515376 (Simulation time: 0 hr 33 min 11 sec) 
Heartbeat CPU 0 instructions: 46000002 cycles: 73232244 heartbeat IPC: 0.464657 cumulative IPC: 0.513818 (Simulation time: 0 hr 33 min 47 sec) 
Heartbeat CPU 0 instructions: 47000000 cycles: 75399763 heartbeat IPC: 0.461356 cumulative IPC: 0.512244 (Simulation time: 0 hr 34 min 31 sec) 
Heartbeat CPU 0 instructions: 48000000 cycles: 77137207 heartbeat IPC: 0.575558 cumulative IPC: 0.513731 (Simulation time: 0 hr 35 min 10 sec) 
Heartbeat CPU 0 instructions: 49000002 cycles: 78656799 heartbeat IPC: 0.658073 cumulative IPC: 0.516637 (Simulation time: 0 hr 35 min 55 sec) 
Heartbeat CPU 0 instructions: 50000001 cycles: 80188746 heartbeat IPC: 0.652763 cumulative IPC: 0.519344 (Simulation time: 0 hr 36 min 35 sec) 
Heartbeat CPU 0 instructions: 51000000 cycles: 81708477 heartbeat IPC: 0.658011 cumulative IPC: 0.522028 (Simulation time: 0 hr 37 min 13 sec) 
Heartbeat CPU 0 instructions: 52000000 cycles: 83233950 heartbeat IPC: 0.655534 cumulative IPC: 0.524571 (Simulation time: 0 hr 37 min 56 sec) 
Heartbeat CPU 0 instructions: 53000002 cycles: 84754067 heartbeat IPC: 0.657845 cumulative IPC: 0.527054 (Simulation time: 0 hr 38 min 34 sec) 
Heartbeat CPU 0 instructions: 54000001 cycles: 86274320 heartbeat IPC: 0.657785 cumulative IPC: 0.529446 (Simulation time: 0 hr 39 min 19 sec) 
Heartbeat CPU 0 instructions: 55000000 cycles: 87796989 heartbeat IPC: 0.656741 cumulative IPC: 0.531736 (Simulation time: 0 hr 40 min 3 sec) 
Heartbeat CPU 0 instructions: 56000000 cycles: 89321103 heartbeat IPC: 0.656119 cumulative IPC: 0.533937 (Simulation time: 0 hr 40 min 44 sec) 
Heartbeat CPU 0 instructions: 57000000 cycles: 90848522 heartbeat IPC: 0.654699 cumulative IPC: 0.53604 (Simulation time: 0 hr 41 min 27 sec) 
Heartbeat CPU 0 instructions: 58000002 cycles: 92368482 heartbeat IPC: 0.657913 cumulative IPC: 0.538117 (Simulation time: 0 hr 42 min 11 sec) 
Heartbeat CPU 0 instructions: 59000001 cycles: 93915365 heartbeat IPC: 0.646461 cumulative IPC: 0.539964 (Simulation time: 0 hr 42 min 54 sec) 
Heartbeat CPU 0 instructions: 60000000 cycles: 95527792 heartbeat IPC: 0.620183 cumulative IPC: 0.541364 (Simulation time: 0 hr 43 min 35 sec) 
Heartbeat CPU 0 instructions: 61000003 cycles: 97061336 heartbeat IPC: 0.652086 cumulative IPC: 0.543173 (Simulation time: 0 hr 44 min 17 sec) 
Heartbeat CPU 0 instructions: 62000002 cycles: 98581176 heartbeat IPC: 0.657963 cumulative IPC: 0.545001 (Simulation time: 0 hr 44 min 57 sec) 
Heartbeat CPU 0 instructions: 63000001 cycles: 100102015 heartbeat IPC: 0.657531 cumulative IPC: 0.546767 (Simulation time: 0 hr 45 min 39 sec) 
Heartbeat CPU 0 instructions: 64000000 cycles: 101622033 heartbeat IPC: 0.657886 cumulative IPC: 0.548482 (Simulation time: 0 hr 46 min 17 sec) 
Heartbeat CPU 0 instructions: 65000001 cycles: 103141521 heartbeat IPC: 0.658117 cumulative IPC: 0.550149 (Simulation time: 0 hr 46 min 59 sec) 
Heartbeat CPU 0 instructions: 66000000 cycles: 104659654 heartbeat IPC: 0.658703 cumulative IPC: 0.551773 (Simulation time: 0 hr 47 min 38 sec) 
Heartbeat CPU 0 instructions: 67000001 cycles: 106153010 heartbeat IPC: 0.669633 cumulative IPC: 0.553482 (Simulation time: 0 hr 48 min 16 sec) 
Heartbeat CPU 0 instructions: 68000000 cycles: 107645133 heartbeat IPC: 0.670185 cumulative IPC: 0.555148 (Simulation time: 0 hr 48 min 56 sec) 
Heartbeat CPU 0 instructions: 69000002 cycles: 109134913 heartbeat IPC: 0.671241 cumulative IPC: 0.556781 (Simulation time: 0 hr 49 min 36 sec) 
Heartbeat CPU 0 instructions: 70000001 cycles: 110629133 heartbeat IPC: 0.669245 cumulative IPC: 0.558344 (Simulation time: 0 hr 50 min 15 sec) 
Heartbeat CPU 0 instructions: 71000003 cycles: 112186199 heartbeat IPC: 0.642235 cumulative IPC: 0.559543 (Simulation time: 0 hr 50 min 50 sec) 
Heartbeat CPU 0 instructions: 72000000 cycles: 114344464 heartbeat IPC: 0.463334 cumulative IPC: 0.557675 (Simulation time: 0 hr 51 min 25 sec) 
Heartbeat CPU 0 instructions: 73000000 cycles: 116520702 heartbeat IPC: 0.459509 cumulative IPC: 0.55579 (Simulation time: 0 hr 51 min 58 sec) 
Heartbeat CPU 0 instructions: 74000000 cycles: 118679001 heartbeat IPC: 0.463328 cumulative IPC: 0.554062 (Simulation time: 0 hr 52 min 29 sec) 
Heartbeat CPU 0 instructions: 75000000 cycles: 120843667 heartbeat IPC: 0.461965 cumulative IPC: 0.552368 (Simulation time: 0 hr 53 min 2 sec) 
Heartbeat CPU 0 instructions: 76000000 cycles: 123026565 heartbeat IPC: 0.458107 cumulative IPC: 0.550652 (Simulation time: 0 hr 53 min 37 sec) 
Heartbeat CPU 0 instructions: 77000001 cycles: 124637997 heartbeat IPC: 0.620567 cumulative IPC: 0.551579 (Simulation time: 0 hr 54 min 14 sec) 
Heartbeat CPU 0 instructions: 78000000 cycles: 126143147 heartbeat IPC: 0.664385 cumulative IPC: 0.55296 (Simulation time: 0 hr 54 min 53 sec) 
Heartbeat CPU 0 instructions: 79000001 cycles: 127645364 heartbeat IPC: 0.665683 cumulative IPC: 0.55432 (Simulation time: 0 hr 55 min 29 sec) 
Heartbeat CPU 0 instructions: 80000000 cycles: 129114611 heartbeat IPC: 0.68062 cumulative IPC: 0.555794 (Simulation time: 0 hr 56 min 4 sec) 
Heartbeat CPU 0 instructions: 81000002 cycles: 130713912 heartbeat IPC: 0.625274 cumulative IPC: 0.556665 (Simulation time: 0 hr 56 min 39 sec) 
Heartbeat CPU 0 instructions: 82000003 cycles: 132857455 heartbeat IPC: 0.466518 cumulative IPC: 0.555175 (Simulation time: 0 hr 57 min 11 sec) 
Heartbeat CPU 0 instructions: 83000000 cycles: 135008477 heartbeat IPC: 0.464894 cumulative IPC: 0.553702 (Simulation time: 0 hr 57 min 43 sec) 
Heartbeat CPU 0 instructions: 84000000 cycles: 137167983 heartbeat IPC: 0.463069 cumulative IPC: 0.552241 (Simulation time: 0 hr 58 min 13 sec) 
Heartbeat CPU 0 instructions: 85000002 cycles: 139317447 heartbeat IPC: 0.465233 cumulative IPC: 0.550868 (Simulation time: 0 hr 58 min 40 sec) 
Heartbeat CPU 0 instructions: 86000002 cycles: 141492161 heartbeat IPC: 0.459831 cumulative IPC: 0.549436 (Simulation time: 0 hr 59 min 12 sec) 
Heartbeat CPU 0 instructions: 87000002 cycles: 143146289 heartbeat IPC: 0.604548 cumulative IPC: 0.550088 (Simulation time: 0 hr 59 min 52 sec) 
Heartbeat CPU 0 instructions: 88000000 cycles: 144726871 heartbeat IPC: 0.632677 cumulative IPC: 0.55101 (Simulation time: 1 hr 0 min 30 sec) 
Heartbeat CPU 0 instructions: 89000000 cycles: 146308265 heartbeat IPC: 0.632353 cumulative IPC: 0.551908 (Simulation time: 1 hr 1 min 5 sec) 
Heartbeat CPU 0 instructions: 90000000 cycles: 148215507 heartbeat IPC: 0.524317 cumulative IPC: 0.551546 (Simulation time: 1 hr 1 min 42 sec) 
Heartbeat CPU 0 instructions: 91000001 cycles: 150989402 heartbeat IPC: 0.360504 cumulative IPC: 0.547961 (Simulation time: 1 hr 2 min 14 sec) 
Heartbeat CPU 0 instructions: 92000000 cycles: 153797401 heartbeat IPC: 0.356125 cumulative IPC: 0.544384 (Simulation time: 1 hr 2 min 45 sec) 
Heartbeat CPU 0 instructions: 93000001 cycles: 156704064 heartbeat IPC: 0.344037 cumulative IPC: 0.540592 (Simulation time: 1 hr 3 min 18 sec) 
Heartbeat CPU 0 instructions: 94000001 cycles: 159468081 heartbeat IPC: 0.361792 cumulative IPC: 0.53743 (Simulation time: 1 hr 3 min 52 sec) 
Heartbeat CPU 0 instructions: 95000000 cycles: 161179732 heartbeat IPC: 0.584231 cumulative IPC: 0.537937 (Simulation time: 1 hr 4 min 31 sec) 
Heartbeat CPU 0 instructions: 96000000 cycles: 162763805 heartbeat IPC: 0.631284 cumulative IPC: 0.538863 (Simulation time: 1 hr 5 min 6 sec) 
Heartbeat CPU 0 instructions: 97000002 cycles: 164352536 heartbeat IPC: 0.629434 cumulative IPC: 0.539756 (Simulation time: 1 hr 5 min 43 sec) 
Heartbeat CPU 0 instructions: 98000001 cycles: 166550280 heartbeat IPC: 0.455012 cumulative IPC: 0.538616 (Simulation time: 1 hr 6 min 16 sec) 
Heartbeat CPU 0 instructions: 99000003 cycles: 169412051 heartbeat IPC: 0.349435 cumulative IPC: 0.535359 (Simulation time: 1 hr 6 min 45 sec) 
Heartbeat CPU 0 instructions: 100000000 cycles: 172292521 heartbeat IPC: 0.347165 cumulative IPC: 0.532154 (Simulation time: 1 hr 7 min 11 sec) 
Heartbeat CPU 0 instructions: 101000000 cycles: 175212277 heartbeat IPC: 0.342494 cumulative IPC: 0.528935 (Simulation time: 1 hr 7 min 33 sec) 
Heartbeat CPU 0 instructions: 102000000 cycles: 177586471 heartbeat IPC: 0.421196 cumulative IPC: 0.527469 (Simulation time: 1 hr 7 min 57 sec) 
Heartbeat CPU 0 instructions: 103000002 cycles: 179057336 heartbeat IPC: 0.679873 cumulative IPC: 0.528743 (Simulation time: 1 hr 8 min 21 sec) 
Heartbeat CPU 0 instructions: 104000000 cycles: 180528272 heartbeat IPC: 0.679838 cumulative IPC: 0.529996 (Simulation time: 1 hr 8 min 44 sec) 
Heartbeat CPU 0 instructions: 105000000 cycles: 181998701 heartbeat IPC: 0.680074 cumulative IPC: 0.53123 (Simulation time: 1 hr 9 min 8 sec) 
Heartbeat CPU 0 instructions: 106000003 cycles: 183469539 heartbeat IPC: 0.679887 cumulative IPC: 0.532443 (Simulation time: 1 hr 9 min 30 sec) 
Heartbeat CPU 0 instructions: 107000000 cycles: 185616188 heartbeat IPC: 0.465841 cumulative IPC: 0.531659 (Simulation time: 1 hr 9 min 50 sec) 
Heartbeat CPU 0 instructions: 108000000 cycles: 188112126 heartbeat IPC: 0.400651 cumulative IPC: 0.529891 (Simulation time: 1 hr 10 min 13 sec) 
Heartbeat CPU 0 instructions: 109000002 cycles: 190591624 heartbeat IPC: 0.403308 cumulative IPC: 0.528217 (Simulation time: 1 hr 10 min 31 sec) 
Heartbeat CPU 0 instructions: 110000002 cycles: 193075489 heartbeat IPC: 0.402598 cumulative IPC: 0.526574 (Simulation time: 1 hr 10 min 49 sec) 
Finished CPU 0 instructions: 100000000 cycles: 189906925 cummulative IPC: 0.526574 (Simulation time: 1 hr 10 min 49 sec) 

ChampSim completed all CPUs

Region of Interest Statistics

CPU 0 cummulative IPC: 0.526574 instructions: 100000000 cycles: 189906925
LLC TOTAL     ACCESS:    3801551  HIT:     169826  MISS:    3631725
LLC LOAD      ACCESS:     655723  HIT:       8029  MISS:     647694
LLC RFO       ACCESS:         20  HIT:          8  MISS:         12
LLC PREFETCH  ACCESS:    2133703  HIT:      52634  MISS:    2081069
LLC WRITEBACK ACCESS:    1012105  HIT:     109155  MISS:     902950
