
*** ChampSim Multicore Out-of-Order Simulator ***

Warmup Instructions: 10000000
Simulation Instructions: 100000000
Configuration: 2
Number of CPUs: 1
LLC sets: 2048
LLC ways: 16
Off-chip DRAM Channels: 1 Width: 64-bit Data Rate: 1600 MT/s

CPU 0 runs /datasets/cs240c-wi22-a00-public/data/Assignment2-gz/perlbench_53B.trace.gz
CPU 0 L1D next line prefetcher
CPU 0 L2C IP-based stride prefetcher
Heartbeat CPU 0 instructions: 1000000 cycles: 615818 heartbeat IPC: 1.62386 cumulative IPC: 1.62386 (Simulation time: 0 hr 1 min 13 sec) 
Heartbeat CPU 0 instructions: 2000001 cycles: 1252991 heartbeat IPC: 1.56943 cumulative IPC: 1.59618 (Simulation time: 0 hr 2 min 21 sec) 
Heartbeat CPU 0 instructions: 3000002 cycles: 1908493 heartbeat IPC: 1.52555 cumulative IPC: 1.57192 (Simulation time: 0 hr 3 min 31 sec) 
Heartbeat CPU 0 instructions: 4000000 cycles: 2523919 heartbeat IPC: 1.62489 cumulative IPC: 1.58484 (Simulation time: 0 hr 4 min 32 sec) 
Heartbeat CPU 0 instructions: 5000001 cycles: 3151954 heartbeat IPC: 1.59227 cumulative IPC: 1.58632 (Simulation time: 0 hr 5 min 39 sec) 
Heartbeat CPU 0 instructions: 6000001 cycles: 3767499 heartbeat IPC: 1.62458 cumulative IPC: 1.59257 (Simulation time: 0 hr 6 min 43 sec) 
Heartbeat CPU 0 instructions: 7000002 cycles: 4390376 heartbeat IPC: 1.60546 cumulative IPC: 1.5944 (Simulation time: 0 hr 7 min 39 sec) 
Heartbeat CPU 0 instructions: 8000000 cycles: 5000759 heartbeat IPC: 1.63831 cumulative IPC: 1.59976 (Simulation time: 0 hr 8 min 31 sec) 
Heartbeat CPU 0 instructions: 9000000 cycles: 5652485 heartbeat IPC: 1.53439 cumulative IPC: 1.59222 (Simulation time: 0 hr 9 min 34 sec) 
Heartbeat CPU 0 instructions: 10000001 cycles: 6287602 heartbeat IPC: 1.57451 cumulative IPC: 1.59043 (Simulation time: 0 hr 10 min 31 sec) 

Warmup complete CPU 0 instructions: 10000001 cycles: 6287602 (Simulation time: 0 hr 10 min 31 sec) 

Heartbeat CPU 0 instructions: 11000000 cycles: 9208216 heartbeat IPC: 0.342393 cumulative IPC: 0.342393 (Simulation time: 0 hr 11 min 39 sec) 
Heartbeat CPU 0 instructions: 12000000 cycles: 12087851 heartbeat IPC: 0.347266 cumulative IPC: 0.344813 (Simulation time: 0 hr 13 min 0 sec) 
Heartbeat CPU 0 instructions: 13000000 cycles: 14443214 heartbeat IPC: 0.424563 cumulative IPC: 0.367845 (Simulation time: 0 hr 14 min 5 sec) 
Heartbeat CPU 0 instructions: 14000000 cycles: 16964192 heartbeat IPC: 0.396671 cumulative IPC: 0.374651 (Simulation time: 0 hr 15 min 12 sec) 
Heartbeat CPU 0 instructions: 15000001 cycles: 19729176 heartbeat IPC: 0.361666 cumulative IPC: 0.37198 (Simulation time: 0 hr 16 min 24 sec) 
Heartbeat CPU 0 instructions: 16000000 cycles: 22405437 heartbeat IPC: 0.373655 cumulative IPC: 0.372258 (Simulation time: 0 hr 17 min 34 sec) 
Heartbeat CPU 0 instructions: 17000001 cycles: 25089875 heartbeat IPC: 0.372518 cumulative IPC: 0.372295 (Simulation time: 0 hr 18 min 49 sec) 
Heartbeat CPU 0 instructions: 18000002 cycles: 27956774 heartbeat IPC: 0.348809 cumulative IPC: 0.369188 (Simulation time: 0 hr 20 min 4 sec) 
Heartbeat CPU 0 instructions: 19000000 cycles: 30812747 heartbeat IPC: 0.350143 cumulative IPC: 0.36697 (Simulation time: 0 hr 21 min 16 sec) 
Heartbeat CPU 0 instructions: 20000000 cycles: 33675473 heartbeat IPC: 0.349317 cumulative IPC: 0.365125 (Simulation time: 0 hr 22 min 35 sec) 
Heartbeat CPU 0 instructions: 21000000 cycles: 36041435 heartbeat IPC: 0.422661 cumulative IPC: 0.3697 (Simulation time: 0 hr 23 min 58 sec) 
Heartbeat CPU 0 instructions: 22000000 cycles: 38122452 heartbeat IPC: 0.480534 cumulative IPC: 0.376945 (Simulation time: 0 hr 25 min 19 sec) 
Heartbeat CPU 0 instructions: 23000001 cycles: 40060091 heartbeat IPC: 0.516093 cumulative IPC: 0.384929 (Simulation time: 0 hr 26 min 37 sec) 
Heartbeat CPU 0 instructions: 24000000 cycles: 42458916 heartbeat IPC: 0.41687 cumulative IPC: 0.387047 (Simulation time: 0 hr 28 min 8 sec) 
Heartbeat CPU 0 instructions: 25000000 cycles: 44470845 heartbeat IPC: 0.497035 cumulative IPC: 0.392842 (Simulation time: 0 hr 29 min 15 sec) 
Heartbeat CPU 0 instructions: 26000001 cycles: 46455864 heartbeat IPC: 0.503774 cumulative IPC: 0.398324 (Simulation time: 0 hr 30 min 24 sec) 
Heartbeat CPU 0 instructions: 27000002 cycles: 48753079 heartbeat IPC: 0.43531 cumulative IPC: 0.400325 (Simulation time: 0 hr 31 min 49 sec) 
Heartbeat CPU 0 instructions: 28000000 cycles: 51329549 heartbeat IPC: 0.388127 cumulative IPC: 0.399627 (Simulation time: 0 hr 33 min 11 sec) 
Heartbeat CPU 0 instructions: 29000000 cycles: 53655801 heartbeat IPC: 0.429876 cumulative IPC: 0.401113 (Simulation time: 0 hr 34 min 33 sec) 
Heartbeat CPU 0 instructions: 30000000 cycles: 55702189 heartbeat IPC: 0.488666 cumulative IPC: 0.404739 (Simulation time: 0 hr 35 min 55 sec) 
Heartbeat CPU 0 instructions: 31000001 cycles: 57689983 heartbeat IPC: 0.503071 cumulative IPC: 0.408541 (Simulation time: 0 hr 37 min 6 sec) 
Heartbeat CPU 0 instructions: 32000000 cycles: 59687725 heartbeat IPC: 0.500565 cumulative IPC: 0.411984 (Simulation time: 0 hr 38 min 17 sec) 
Heartbeat CPU 0 instructions: 33000003 cycles: 62155918 heartbeat IPC: 0.405156 cumulative IPC: 0.411682 (Simulation time: 0 hr 39 min 31 sec) 
Heartbeat CPU 0 instructions: 34000000 cycles: 64869990 heartbeat IPC: 0.368449 cumulative IPC: 0.409679 (Simulation time: 0 hr 40 min 51 sec) 
Heartbeat CPU 0 instructions: 35000000 cycles: 67435389 heartbeat IPC: 0.389803 cumulative IPC: 0.408846 (Simulation time: 0 hr 42 min 9 sec) 
Heartbeat CPU 0 instructions: 36000000 cycles: 70234108 heartbeat IPC: 0.357306 cumulative IPC: 0.40659 (Simulation time: 0 hr 43 min 33 sec) 
Heartbeat CPU 0 instructions: 37000002 cycles: 73089222 heartbeat IPC: 0.350249 cumulative IPC: 0.404182 (Simulation time: 0 hr 44 min 51 sec) 
Heartbeat CPU 0 instructions: 38000000 cycles: 75996700 heartbeat IPC: 0.34394 cumulative IPC: 0.401669 (Simulation time: 0 hr 46 min 10 sec) 
Heartbeat CPU 0 instructions: 39000001 cycles: 78674423 heartbeat IPC: 0.373452 cumulative IPC: 0.400625 (Simulation time: 0 hr 47 min 24 sec) 
Heartbeat CPU 0 instructions: 40000000 cycles: 81286175 heartbeat IPC: 0.382884 cumulative IPC: 0.400008 (Simulation time: 0 hr 48 min 39 sec) 
Heartbeat CPU 0 instructions: 41000002 cycles: 84175801 heartbeat IPC: 0.346066 cumulative IPC: 0.398006 (Simulation time: 0 hr 49 min 48 sec) 
Heartbeat CPU 0 instructions: 42000000 cycles: 86786221 heartbeat IPC: 0.383079 cumulative IPC: 0.397522 (Simulation time: 0 hr 51 min 12 sec) 
Heartbeat CPU 0 instructions: 43000002 cycles: 89639746 heartbeat IPC: 0.350444 cumulative IPC: 0.395911 (Simulation time: 0 hr 52 min 24 sec) 
Heartbeat CPU 0 instructions: 44000000 cycles: 92322439 heartbeat IPC: 0.372759 cumulative IPC: 0.395189 (Simulation time: 0 hr 53 min 40 sec) 
Heartbeat CPU 0 instructions: 45000001 cycles: 93787603 heartbeat IPC: 0.682518 cumulative IPC: 0.4 (Simulation time: 0 hr 54 min 31 sec) 
Heartbeat CPU 0 instructions: 46000000 cycles: 95815604 heartbeat IPC: 0.493096 cumulative IPC: 0.402109 (Simulation time: 0 hr 55 min 26 sec) 
Heartbeat CPU 0 instructions: 47000002 cycles: 97731007 heartbeat IPC: 0.522084 cumulative IPC: 0.404622 (Simulation time: 0 hr 56 min 19 sec) 
Heartbeat CPU 0 instructions: 48000000 cycles: 99651222 heartbeat IPC: 0.520774 cumulative IPC: 0.407011 (Simulation time: 0 hr 57 min 15 sec) 
Heartbeat CPU 0 instructions: 49000000 cycles: 102007406 heartbeat IPC: 0.424415 cumulative IPC: 0.407439 (Simulation time: 0 hr 58 min 23 sec) 
Heartbeat CPU 0 instructions: 50000002 cycles: 103877801 heartbeat IPC: 0.534647 cumulative IPC: 0.409877 (Simulation time: 0 hr 59 min 26 sec) 
Heartbeat CPU 0 instructions: 51000000 cycles: 105809538 heartbeat IPC: 0.517668 cumulative IPC: 0.411969 (Simulation time: 1 hr 0 min 24 sec) 
Heartbeat CPU 0 instructions: 52000000 cycles: 107724543 heartbeat IPC: 0.522192 cumulative IPC: 0.41405 (Simulation time: 1 hr 1 min 20 sec) 
Heartbeat CPU 0 instructions: 53000002 cycles: 109675719 heartbeat IPC: 0.512512 cumulative IPC: 0.415909 (Simulation time: 1 hr 2 min 19 sec) 
Heartbeat CPU 0 instructions: 54000000 cycles: 112583202 heartbeat IPC: 0.343939 cumulative IPC: 0.41394 (Simulation time: 1 hr 3 min 21 sec) 
Heartbeat CPU 0 instructions: 55000000 cycles: 115081975 heartbeat IPC: 0.400196 cumulative IPC: 0.413624 (Simulation time: 1 hr 4 min 25 sec) 
Heartbeat CPU 0 instructions: 56000000 cycles: 117895505 heartbeat IPC: 0.355425 cumulative IPC: 0.412157 (Simulation time: 1 hr 5 min 30 sec) 
Heartbeat CPU 0 instructions: 57000001 cycles: 120900102 heartbeat IPC: 0.332824 cumulative IPC: 0.410077 (Simulation time: 1 hr 6 min 31 sec) 
Heartbeat CPU 0 instructions: 58000003 cycles: 123871741 heartbeat IPC: 0.336515 cumulative IPC: 0.408218 (Simulation time: 1 hr 7 min 33 sec) 
Heartbeat CPU 0 instructions: 59000002 cycles: 126696743 heartbeat IPC: 0.353982 cumulative IPC: 0.406946 (Simulation time: 1 hr 8 min 17 sec) 
Heartbeat CPU 0 instructions: 60000000 cycles: 129472732 heartbeat IPC: 0.360231 cumulative IPC: 0.405893 (Simulation time: 1 hr 9 min 1 sec) 
Heartbeat CPU 0 instructions: 61000002 cycles: 132120232 heartbeat IPC: 0.377716 cumulative IPC: 0.4053 (Simulation time: 1 hr 9 min 48 sec) 
Heartbeat CPU 0 instructions: 62000002 cycles: 134824902 heartbeat IPC: 0.369731 cumulative IPC: 0.404552 (Simulation time: 1 hr 10 min 31 sec) 
Heartbeat CPU 0 instructions: 63000001 cycles: 137512610 heartbeat IPC: 0.372064 cumulative IPC: 0.403886 (Simulation time: 1 hr 11 min 11 sec) 
Heartbeat CPU 0 instructions: 64000000 cycles: 140189179 heartbeat IPC: 0.373612 cumulative IPC: 0.403281 (Simulation time: 1 hr 11 min 49 sec) 
Heartbeat CPU 0 instructions: 65000003 cycles: 142844282 heartbeat IPC: 0.376634 cumulative IPC: 0.402763 (Simulation time: 1 hr 12 min 25 sec) 
Heartbeat CPU 0 instructions: 66000001 cycles: 145491460 heartbeat IPC: 0.37776 cumulative IPC: 0.402288 (Simulation time: 1 hr 12 min 57 sec) 
Heartbeat CPU 0 instructions: 67000001 cycles: 148110365 heartbeat IPC: 0.381839 cumulative IPC: 0.40191 (Simulation time: 1 hr 13 min 28 sec) 
Heartbeat CPU 0 instructions: 68000000 cycles: 150801542 heartbeat IPC: 0.371584 cumulative IPC: 0.401345 (Simulation time: 1 hr 13 min 55 sec) 
Heartbeat CPU 0 instructions: 69000001 cycles: 153461449 heartbeat IPC: 0.375953 cumulative IPC: 0.400886 (Simulation time: 1 hr 14 min 20 sec) 
Heartbeat CPU 0 instructions: 70000001 cycles: 156094742 heartbeat IPC: 0.379753 cumulative IPC: 0.400515 (Simulation time: 1 hr 14 min 46 sec) 
Heartbeat CPU 0 instructions: 71000001 cycles: 158819308 heartbeat IPC: 0.367031 cumulative IPC: 0.399917 (Simulation time: 1 hr 15 min 11 sec) 
Heartbeat CPU 0 instructions: 72000000 cycles: 161429468 heartbeat IPC: 0.383118 cumulative IPC: 0.399634 (Simulation time: 1 hr 15 min 34 sec) 
Heartbeat CPU 0 instructions: 73000002 cycles: 164091727 heartbeat IPC: 0.375622 cumulative IPC: 0.399229 (Simulation time: 1 hr 16 min 0 sec) 
Heartbeat CPU 0 instructions: 74000001 cycles: 166788406 heartbeat IPC: 0.370826 cumulative IPC: 0.398752 (Simulation time: 1 hr 16 min 19 sec) 
Heartbeat CPU 0 instructions: 75000001 cycles: 169473897 heartbeat IPC: 0.372371 cumulative IPC: 0.398318 (Simulation time: 1 hr 16 min 34 sec) 
Heartbeat CPU 0 instructions: 76000000 cycles: 172140599 heartbeat IPC: 0.374995 cumulative IPC: 0.397943 (Simulation time: 1 hr 16 min 51 sec) 
Heartbeat CPU 0 instructions: 77000002 cycles: 174837225 heartbeat IPC: 0.370835 cumulative IPC: 0.397509 (Simulation time: 1 hr 17 min 8 sec) 
Heartbeat CPU 0 instructions: 78000000 cycles: 177512733 heartbeat IPC: 0.37376 cumulative IPC: 0.397138 (Simulation time: 1 hr 17 min 21 sec) 
Heartbeat CPU 0 instructions: 79000002 cycles: 180194236 heartbeat IPC: 0.372926 cumulative IPC: 0.396765 (Simulation time: 1 hr 17 min 33 sec) 
Heartbeat CPU 0 instructions: 80000000 cycles: 182850188 heartbeat IPC: 0.376512 cumulative IPC: 0.39646 (Simulation time: 1 hr 17 min 43 sec) 
Heartbeat CPU 0 instructions: 81000000 cycles: 185476500 heartbeat IPC: 0.380762 cumulative IPC: 0.39623 (Simulation time: 1 hr 17 min 54 sec) 
Heartbeat CPU 0 instructions: 82000002 cycles: 188176702 heartbeat IPC: 0.370343 cumulative IPC: 0.395846 (Simulation time: 1 hr 18 min 3 sec) 
Heartbeat CPU 0 instructions: 83000000 cycles: 190846774 heartbeat IPC: 0.374521 cumulative IPC: 0.395537 (Simulation time: 1 hr 18 min 11 sec) 
Heartbeat CPU 0 instructions: 84000000 cycles: 193530127 heartbeat IPC: 0.372668 cumulative IPC: 0.395209 (Simulation time: 1 hr 18 min 19 sec) 
Heartbeat CPU 0 instructions: 85000001 cycles: 196215768 heartbeat IPC: 0.372351 cumulative IPC: 0.394886 (Simulation time: 1 hr 18 min 27 sec) 
Heartbeat CPU 0 instructions: 86000000 cycles: 198711475 heartbeat IPC: 0.400688 cumulative IPC: 0.394961 (Simulation time: 1 hr 18 min 35 sec) 
Heartbeat CPU 0 instructions: 87000000 cycles: 200842898 heartbeat IPC: 0.46917 cumulative IPC: 0.395774 (Simulation time: 1 hr 18 min 40 sec) 
Heartbeat CPU 0 instructions: 88000000 cycles: 202840334 heartbeat IPC: 0.500642 cumulative IPC: 0.39684 (Simulation time: 1 hr 18 min 46 sec) 
Heartbeat CPU 0 instructions: 89000001 cycles: 204916888 heartbeat IPC: 0.481568 cumulative IPC: 0.397726 (Simulation time: 1 hr 18 min 51 sec) 
Heartbeat CPU 0 instructions: 90000000 cycles: 207575956 heartbeat IPC: 0.376071 cumulative IPC: 0.39744 (Simulation time: 1 hr 18 min 58 sec) 
Heartbeat CPU 0 instructions: 91000001 cycles: 210348451 heartbeat IPC: 0.360686 cumulative IPC: 0.39694 (Simulation time: 1 hr 19 min 4 sec) 
Heartbeat CPU 0 instructions: 92000000 cycles: 213051099 heartbeat IPC: 0.370007 cumulative IPC: 0.396588 (Simulation time: 1 hr 19 min 11 sec) 
Heartbeat CPU 0 instructions: 93000000 cycles: 215732983 heartbeat IPC: 0.372872 cumulative IPC: 0.396285 (Simulation time: 1 hr 19 min 17 sec) 
Heartbeat CPU 0 instructions: 94000002 cycles: 218401340 heartbeat IPC: 0.374763 cumulative IPC: 0.396014 (Simulation time: 1 hr 19 min 23 sec) 
Heartbeat CPU 0 instructions: 95000000 cycles: 221048200 heartbeat IPC: 0.377805 cumulative IPC: 0.39579 (Simulation time: 1 hr 19 min 28 sec) 
Heartbeat CPU 0 instructions: 96000000 cycles: 223735110 heartbeat IPC: 0.372175 cumulative IPC: 0.395498 (Simulation time: 1 hr 19 min 34 sec) 
Heartbeat CPU 0 instructions: 97000000 cycles: 226393797 heartbeat IPC: 0.376126 cumulative IPC: 0.395264 (Simulation time: 1 hr 19 min 40 sec) 
Heartbeat CPU 0 instructions: 98000000 cycles: 229034706 heartbeat IPC: 0.378657 cumulative IPC: 0.395067 (Simulation time: 1 hr 19 min 46 sec) 
Heartbeat CPU 0 instructions: 99000002 cycles: 231667239 heartbeat IPC: 0.379863 cumulative IPC: 0.394889 (Simulation time: 1 hr 19 min 52 sec) 
Heartbeat CPU 0 instructions: 100000000 cycles: 234311573 heartbeat IPC: 0.378166 cumulative IPC: 0.394695 (Simulation time: 1 hr 19 min 58 sec) 
Heartbeat CPU 0 instructions: 101000002 cycles: 236988177 heartbeat IPC: 0.373608 cumulative IPC: 0.394451 (Simulation time: 1 hr 20 min 4 sec) 
Heartbeat CPU 0 instructions: 102000000 cycles: 239649686 heartbeat IPC: 0.375726 cumulative IPC: 0.394237 (Simulation time: 1 hr 20 min 10 sec) 
Heartbeat CPU 0 instructions: 103000000 cycles: 242289720 heartbeat IPC: 0.378783 cumulative IPC: 0.394064 (Simulation time: 1 hr 20 min 16 sec) 
Heartbeat CPU 0 instructions: 104000000 cycles: 244954610 heartbeat IPC: 0.37525 cumulative IPC: 0.393854 (Simulation time: 1 hr 20 min 23 sec) 
Heartbeat CPU 0 instructions: 105000003 cycles: 247136356 heartbeat IPC: 0.45835 cumulative IPC: 0.394438 (Simulation time: 1 hr 20 min 28 sec) 
Heartbeat CPU 0 instructions: 106000000 cycles: 249113496 heartbeat IPC: 0.50578 cumulative IPC: 0.395345 (Simulation time: 1 hr 20 min 33 sec) 
Heartbeat CPU 0 instructions: 107000003 cycles: 251089575 heartbeat IPC: 0.506054 cumulative IPC: 0.396239 (Simulation time: 1 hr 20 min 38 sec) 
Heartbeat CPU 0 instructions: 108000000 cycles: 253806590 heartbeat IPC: 0.36805 cumulative IPC: 0.395929 (Simulation time: 1 hr 20 min 44 sec) 
Heartbeat CPU 0 instructions: 109000001 cycles: 256509956 heartbeat IPC: 0.36991 cumulative IPC: 0.395648 (Simulation time: 1 hr 20 min 49 sec) 
Heartbeat CPU 0 instructions: 110000000 cycles: 259022121 heartbeat IPC: 0.398063 cumulative IPC: 0.395672 (Simulation time: 1 hr 20 min 55 sec) 
Finished CPU 0 instructions: 100000000 cycles: 252734520 cummulative IPC: 0.395672 (Simulation time: 1 hr 20 min 55 sec) 

ChampSim completed all CPUs

Region of Interest Statistics

CPU 0 cummulative IPC: 0.395672 instructions: 100000000 cycles: 252734520
LLC TOTAL     ACCESS:     656656  HIT:     485927  MISS:     170729
LLC LOAD      ACCESS:     310860  HIT:     303495  MISS:       7365
LLC RFO       ACCESS:      30799  HIT:      27043  MISS:       3756
LLC PREFETCH  ACCESS:     212722  HIT:      58278  MISS:     154444
LLC WRITEBACK ACCESS:     102275  HIT:      97111  MISS:       5164
