
*** ChampSim Multicore Out-of-Order Simulator ***

Warmup Instructions: 10000000
Simulation Instructions: 100000000
Configuration: 2
Number of CPUs: 1
LLC sets: 2048
LLC ways: 16
Off-chip DRAM Channels: 1 Width: 64-bit Data Rate: 1600 MT/s

CPU 0 runs /datasets/cs240c-wi22-a00-public/data/Assignment2-gz/gcc_13B.trace.gz
CPU 0 L1D next line prefetcher
CPU 0 L2C IP-based stride prefetcher
Heartbeat CPU 0 instructions: 1000000 cycles: 633311 heartbeat IPC: 1.579 cumulative IPC: 1.579 (Simulation time: 0 hr 0 min 43 sec) 
Heartbeat CPU 0 instructions: 2000001 cycles: 1243580 heartbeat IPC: 1.63862 cumulative IPC: 1.60826 (Simulation time: 0 hr 1 min 22 sec) 
Heartbeat CPU 0 instructions: 3000001 cycles: 1717231 heartbeat IPC: 2.11126 cumulative IPC: 1.747 (Simulation time: 0 hr 1 min 58 sec) 
Heartbeat CPU 0 instructions: 4000000 cycles: 2190603 heartbeat IPC: 2.1125 cumulative IPC: 1.82598 (Simulation time: 0 hr 2 min 33 sec) 
Heartbeat CPU 0 instructions: 5000002 cycles: 2664517 heartbeat IPC: 2.11009 cumulative IPC: 1.87651 (Simulation time: 0 hr 3 min 7 sec) 
Heartbeat CPU 0 instructions: 6000002 cycles: 3138290 heartbeat IPC: 2.11072 cumulative IPC: 1.91187 (Simulation time: 0 hr 3 min 41 sec) 
Heartbeat CPU 0 instructions: 7000001 cycles: 3613657 heartbeat IPC: 2.10364 cumulative IPC: 1.9371 (Simulation time: 0 hr 4 min 20 sec) 
Heartbeat CPU 0 instructions: 8000000 cycles: 4090382 heartbeat IPC: 2.09764 cumulative IPC: 1.95581 (Simulation time: 0 hr 4 min 57 sec) 
Heartbeat CPU 0 instructions: 9000001 cycles: 4831250 heartbeat IPC: 1.34977 cumulative IPC: 1.86287 (Simulation time: 0 hr 5 min 36 sec) 
Heartbeat CPU 0 instructions: 10000001 cycles: 5536161 heartbeat IPC: 1.41862 cumulative IPC: 1.80631 (Simulation time: 0 hr 6 min 18 sec) 

Warmup complete CPU 0 instructions: 10000001 cycles: 5536161 (Simulation time: 0 hr 6 min 18 sec) 

Heartbeat CPU 0 instructions: 11000000 cycles: 12772407 heartbeat IPC: 0.138193 cumulative IPC: 0.138193 (Simulation time: 0 hr 7 min 12 sec) 
Heartbeat CPU 0 instructions: 12000000 cycles: 19365571 heartbeat IPC: 0.151672 cumulative IPC: 0.144619 (Simulation time: 0 hr 8 min 11 sec) 
Heartbeat CPU 0 instructions: 13000000 cycles: 25474241 heartbeat IPC: 0.163702 cumulative IPC: 0.150466 (Simulation time: 0 hr 9 min 4 sec) 
Heartbeat CPU 0 instructions: 14000000 cycles: 31052744 heartbeat IPC: 0.17926 cumulative IPC: 0.156761 (Simulation time: 0 hr 10 min 2 sec) 
Heartbeat CPU 0 instructions: 15000000 cycles: 33790337 heartbeat IPC: 0.365284 cumulative IPC: 0.176965 (Simulation time: 0 hr 10 min 56 sec) 
Heartbeat CPU 0 instructions: 16000000 cycles: 35978694 heartbeat IPC: 0.456964 cumulative IPC: 0.197093 (Simulation time: 0 hr 11 min 40 sec) 
Heartbeat CPU 0 instructions: 17000000 cycles: 38208253 heartbeat IPC: 0.448519 cumulative IPC: 0.21425 (Simulation time: 0 hr 12 min 22 sec) 
Heartbeat CPU 0 instructions: 18000000 cycles: 40425412 heartbeat IPC: 0.451028 cumulative IPC: 0.229297 (Simulation time: 0 hr 13 min 2 sec) 
Heartbeat CPU 0 instructions: 19000002 cycles: 42637734 heartbeat IPC: 0.452015 cumulative IPC: 0.242577 (Simulation time: 0 hr 13 min 43 sec) 
Heartbeat CPU 0 instructions: 20000000 cycles: 44892855 heartbeat IPC: 0.443434 cumulative IPC: 0.254086 (Simulation time: 0 hr 14 min 26 sec) 
Heartbeat CPU 0 instructions: 21000001 cycles: 47440640 heartbeat IPC: 0.392498 cumulative IPC: 0.262502 (Simulation time: 0 hr 15 min 6 sec) 
Heartbeat CPU 0 instructions: 22000001 cycles: 51605822 heartbeat IPC: 0.240086 cumulative IPC: 0.260475 (Simulation time: 0 hr 15 min 58 sec) 
Heartbeat CPU 0 instructions: 23000002 cycles: 58531379 heartbeat IPC: 0.144393 cumulative IPC: 0.245305 (Simulation time: 0 hr 17 min 1 sec) 
Heartbeat CPU 0 instructions: 24000000 cycles: 65293088 heartbeat IPC: 0.147891 cumulative IPC: 0.234282 (Simulation time: 0 hr 17 min 55 sec) 
Heartbeat CPU 0 instructions: 25000000 cycles: 71374974 heartbeat IPC: 0.164423 cumulative IPC: 0.227829 (Simulation time: 0 hr 18 min 51 sec) 
Heartbeat CPU 0 instructions: 26000001 cycles: 76889371 heartbeat IPC: 0.181344 cumulative IPC: 0.224237 (Simulation time: 0 hr 19 min 46 sec) 
Heartbeat CPU 0 instructions: 27000000 cycles: 81853843 heartbeat IPC: 0.201431 cumulative IPC: 0.222753 (Simulation time: 0 hr 20 min 44 sec) 
Heartbeat CPU 0 instructions: 28000000 cycles: 84261012 heartbeat IPC: 0.415426 cumulative IPC: 0.228644 (Simulation time: 0 hr 21 min 35 sec) 
Heartbeat CPU 0 instructions: 29000000 cycles: 86383393 heartbeat IPC: 0.471169 cumulative IPC: 0.235011 (Simulation time: 0 hr 22 min 16 sec) 
Heartbeat CPU 0 instructions: 30000001 cycles: 88573481 heartbeat IPC: 0.456603 cumulative IPC: 0.240856 (Simulation time: 0 hr 22 min 59 sec) 
Heartbeat CPU 0 instructions: 31000000 cycles: 90766212 heartbeat IPC: 0.456052 cumulative IPC: 0.246392 (Simulation time: 0 hr 23 min 43 sec) 
Heartbeat CPU 0 instructions: 32000000 cycles: 92967767 heartbeat IPC: 0.454224 cumulative IPC: 0.251625 (Simulation time: 0 hr 24 min 25 sec) 
Heartbeat CPU 0 instructions: 33000000 cycles: 95207017 heartbeat IPC: 0.446578 cumulative IPC: 0.256494 (Simulation time: 0 hr 25 min 10 sec) 
Heartbeat CPU 0 instructions: 34000000 cycles: 98052226 heartbeat IPC: 0.351468 cumulative IPC: 0.259414 (Simulation time: 0 hr 25 min 51 sec) 
Heartbeat CPU 0 instructions: 35000000 cycles: 112373137 heartbeat IPC: 0.069828 cumulative IPC: 0.234001 (Simulation time: 0 hr 27 min 44 sec) 
Heartbeat CPU 0 instructions: 36000000 cycles: 116229821 heartbeat IPC: 0.25929 cumulative IPC: 0.234882 (Simulation time: 0 hr 28 min 31 sec) 
Heartbeat CPU 0 instructions: 37000003 cycles: 120071720 heartbeat IPC: 0.260289 cumulative IPC: 0.235735 (Simulation time: 0 hr 29 min 16 sec) 
Heartbeat CPU 0 instructions: 38000000 cycles: 123926529 heartbeat IPC: 0.259415 cumulative IPC: 0.236506 (Simulation time: 0 hr 29 min 59 sec) 
Heartbeat CPU 0 instructions: 39000000 cycles: 127693598 heartbeat IPC: 0.265458 cumulative IPC: 0.237399 (Simulation time: 0 hr 30 min 37 sec) 
Heartbeat CPU 0 instructions: 40000000 cycles: 131356930 heartbeat IPC: 0.272976 cumulative IPC: 0.238434 (Simulation time: 0 hr 31 min 22 sec) 
Heartbeat CPU 0 instructions: 41000000 cycles: 134991299 heartbeat IPC: 0.275151 cumulative IPC: 0.239465 (Simulation time: 0 hr 32 min 1 sec) 
Heartbeat CPU 0 instructions: 42000000 cycles: 138651267 heartbeat IPC: 0.273226 cumulative IPC: 0.240393 (Simulation time: 0 hr 32 min 43 sec) 
Heartbeat CPU 0 instructions: 43000002 cycles: 142314830 heartbeat IPC: 0.272959 cumulative IPC: 0.241266 (Simulation time: 0 hr 33 min 30 sec) 
Heartbeat CPU 0 instructions: 44000000 cycles: 145973363 heartbeat IPC: 0.273333 cumulative IPC: 0.242101 (Simulation time: 0 hr 34 min 13 sec) 
Heartbeat CPU 0 instructions: 45000001 cycles: 149601515 heartbeat IPC: 0.275623 cumulative IPC: 0.242945 (Simulation time: 0 hr 34 min 52 sec) 
Heartbeat CPU 0 instructions: 46000001 cycles: 153208506 heartbeat IPC: 0.277239 cumulative IPC: 0.243783 (Simulation time: 0 hr 35 min 34 sec) 
Heartbeat CPU 0 instructions: 47000001 cycles: 156802398 heartbeat IPC: 0.27825 cumulative IPC: 0.244602 (Simulation time: 0 hr 36 min 20 sec) 
Heartbeat CPU 0 instructions: 48000000 cycles: 160369109 heartbeat IPC: 0.28037 cumulative IPC: 0.245426 (Simulation time: 0 hr 37 min 2 sec) 
Heartbeat CPU 0 instructions: 49000000 cycles: 163953763 heartbeat IPC: 0.278967 cumulative IPC: 0.246185 (Simulation time: 0 hr 37 min 44 sec) 
Heartbeat CPU 0 instructions: 50000003 cycles: 167536104 heartbeat IPC: 0.279148 cumulative IPC: 0.246914 (Simulation time: 0 hr 38 min 29 sec) 
Heartbeat CPU 0 instructions: 51000001 cycles: 171116927 heartbeat IPC: 0.279265 cumulative IPC: 0.247613 (Simulation time: 0 hr 39 min 6 sec) 
Heartbeat CPU 0 instructions: 52000000 cycles: 174683788 heartbeat IPC: 0.280358 cumulative IPC: 0.248304 (Simulation time: 0 hr 39 min 50 sec) 
Heartbeat CPU 0 instructions: 53000001 cycles: 178266600 heartbeat IPC: 0.279111 cumulative IPC: 0.248943 (Simulation time: 0 hr 40 min 30 sec) 
Heartbeat CPU 0 instructions: 54000000 cycles: 181842165 heartbeat IPC: 0.279676 cumulative IPC: 0.249566 (Simulation time: 0 hr 41 min 11 sec) 
Heartbeat CPU 0 instructions: 55000000 cycles: 185426175 heartbeat IPC: 0.279017 cumulative IPC: 0.250153 (Simulation time: 0 hr 41 min 53 sec) 
Heartbeat CPU 0 instructions: 56000000 cycles: 188999504 heartbeat IPC: 0.279851 cumulative IPC: 0.250731 (Simulation time: 0 hr 42 min 34 sec) 
Heartbeat CPU 0 instructions: 57000002 cycles: 192539205 heartbeat IPC: 0.28251 cumulative IPC: 0.251333 (Simulation time: 0 hr 43 min 17 sec) 
Heartbeat CPU 0 instructions: 58000001 cycles: 196084960 heartbeat IPC: 0.282027 cumulative IPC: 0.251904 (Simulation time: 0 hr 43 min 55 sec) 
Heartbeat CPU 0 instructions: 59000003 cycles: 199602870 heartbeat IPC: 0.28426 cumulative IPC: 0.252491 (Simulation time: 0 hr 44 min 38 sec) 
Heartbeat CPU 0 instructions: 60000000 cycles: 203117958 heartbeat IPC: 0.284487 cumulative IPC: 0.25306 (Simulation time: 0 hr 45 min 16 sec) 
Heartbeat CPU 0 instructions: 61000000 cycles: 206629188 heartbeat IPC: 0.2848 cumulative IPC: 0.253614 (Simulation time: 0 hr 46 min 1 sec) 
Heartbeat CPU 0 instructions: 62000003 cycles: 210137070 heartbeat IPC: 0.285073 cumulative IPC: 0.254153 (Simulation time: 0 hr 46 min 47 sec) 
Heartbeat CPU 0 instructions: 63000001 cycles: 213647345 heartbeat IPC: 0.284877 cumulative IPC: 0.254672 (Simulation time: 0 hr 47 min 26 sec) 
Heartbeat CPU 0 instructions: 64000000 cycles: 217177944 heartbeat IPC: 0.283238 cumulative IPC: 0.255148 (Simulation time: 0 hr 48 min 7 sec) 
Heartbeat CPU 0 instructions: 65000000 cycles: 220749110 heartbeat IPC: 0.280021 cumulative IPC: 0.255561 (Simulation time: 0 hr 48 min 49 sec) 
Heartbeat CPU 0 instructions: 66000000 cycles: 224355225 heartbeat IPC: 0.277307 cumulative IPC: 0.255919 (Simulation time: 0 hr 49 min 31 sec) 
Heartbeat CPU 0 instructions: 67000001 cycles: 228119709 heartbeat IPC: 0.265641 cumulative IPC: 0.256084 (Simulation time: 0 hr 50 min 19 sec) 
Heartbeat CPU 0 instructions: 68000000 cycles: 231902783 heartbeat IPC: 0.264335 cumulative IPC: 0.256222 (Simulation time: 0 hr 51 min 6 sec) 
Heartbeat CPU 0 instructions: 69000003 cycles: 235683242 heartbeat IPC: 0.264519 cumulative IPC: 0.256358 (Simulation time: 0 hr 51 min 49 sec) 
Heartbeat CPU 0 instructions: 70000000 cycles: 239506491 heartbeat IPC: 0.261557 cumulative IPC: 0.256443 (Simulation time: 0 hr 52 min 32 sec) 
Heartbeat CPU 0 instructions: 71000002 cycles: 243123566 heartbeat IPC: 0.276467 cumulative IPC: 0.256748 (Simulation time: 0 hr 53 min 15 sec) 
Heartbeat CPU 0 instructions: 72000000 cycles: 246717631 heartbeat IPC: 0.278236 cumulative IPC: 0.257068 (Simulation time: 0 hr 54 min 1 sec) 
Heartbeat CPU 0 instructions: 73000003 cycles: 250308483 heartbeat IPC: 0.278486 cumulative IPC: 0.257382 (Simulation time: 0 hr 54 min 44 sec) 
Heartbeat CPU 0 instructions: 74000000 cycles: 253926784 heartbeat IPC: 0.276372 cumulative IPC: 0.257659 (Simulation time: 0 hr 55 min 30 sec) 
Heartbeat CPU 0 instructions: 75000000 cycles: 257545760 heartbeat IPC: 0.276321 cumulative IPC: 0.257927 (Simulation time: 0 hr 56 min 14 sec) 
Heartbeat CPU 0 instructions: 76000000 cycles: 261177625 heartbeat IPC: 0.275341 cumulative IPC: 0.258174 (Simulation time: 0 hr 57 min 5 sec) 
Heartbeat CPU 0 instructions: 77000000 cycles: 264782998 heartbeat IPC: 0.277364 cumulative IPC: 0.258441 (Simulation time: 0 hr 57 min 46 sec) 
Heartbeat CPU 0 instructions: 78000003 cycles: 268334991 heartbeat IPC: 0.281533 cumulative IPC: 0.258753 (Simulation time: 0 hr 58 min 28 sec) 
Heartbeat CPU 0 instructions: 79000000 cycles: 271913132 heartbeat IPC: 0.279474 cumulative IPC: 0.259031 (Simulation time: 0 hr 59 min 7 sec) 
Heartbeat CPU 0 instructions: 80000000 cycles: 275460733 heartbeat IPC: 0.281881 cumulative IPC: 0.259332 (Simulation time: 0 hr 59 min 51 sec) 
Heartbeat CPU 0 instructions: 81000001 cycles: 278994939 heartbeat IPC: 0.282949 cumulative IPC: 0.259637 (Simulation time: 1 hr 0 min 29 sec) 
Heartbeat CPU 0 instructions: 82000000 cycles: 282532300 heartbeat IPC: 0.282696 cumulative IPC: 0.259931 (Simulation time: 1 hr 1 min 8 sec) 
Heartbeat CPU 0 instructions: 83000003 cycles: 286089309 heartbeat IPC: 0.281136 cumulative IPC: 0.2602 (Simulation time: 1 hr 1 min 50 sec) 
Heartbeat CPU 0 instructions: 84000000 cycles: 289629006 heartbeat IPC: 0.282509 cumulative IPC: 0.260478 (Simulation time: 1 hr 2 min 26 sec) 
Heartbeat CPU 0 instructions: 85000000 cycles: 293163254 heartbeat IPC: 0.282946 cumulative IPC: 0.260754 (Simulation time: 1 hr 3 min 1 sec) 
Heartbeat CPU 0 instructions: 86000001 cycles: 296708829 heartbeat IPC: 0.282042 cumulative IPC: 0.261014 (Simulation time: 1 hr 3 min 41 sec) 
Heartbeat CPU 0 instructions: 87000001 cycles: 300260309 heartbeat IPC: 0.281573 cumulative IPC: 0.261261 (Simulation time: 1 hr 4 min 22 sec) 
Heartbeat CPU 0 instructions: 88000000 cycles: 303801323 heartbeat IPC: 0.282405 cumulative IPC: 0.261512 (Simulation time: 1 hr 5 min 1 sec) 
Heartbeat CPU 0 instructions: 89000003 cycles: 307340419 heartbeat IPC: 0.282559 cumulative IPC: 0.261759 (Simulation time: 1 hr 5 min 39 sec) 
Heartbeat CPU 0 instructions: 90000000 cycles: 310880076 heartbeat IPC: 0.282512 cumulative IPC: 0.262 (Simulation time: 1 hr 6 min 16 sec) 
Heartbeat CPU 0 instructions: 91000000 cycles: 314408249 heartbeat IPC: 0.283433 cumulative IPC: 0.262244 (Simulation time: 1 hr 6 min 52 sec) 
Heartbeat CPU 0 instructions: 92000000 cycles: 317920220 heartbeat IPC: 0.28474 cumulative IPC: 0.262497 (Simulation time: 1 hr 7 min 23 sec) 
Heartbeat CPU 0 instructions: 93000001 cycles: 321436225 heartbeat IPC: 0.284414 cumulative IPC: 0.262741 (Simulation time: 1 hr 7 min 53 sec) 
Heartbeat CPU 0 instructions: 94000003 cycles: 324941952 heartbeat IPC: 0.285248 cumulative IPC: 0.262988 (Simulation time: 1 hr 8 min 20 sec) 
Heartbeat CPU 0 instructions: 95000002 cycles: 328454704 heartbeat IPC: 0.284677 cumulative IPC: 0.263224 (Simulation time: 1 hr 8 min 46 sec) 
Heartbeat CPU 0 instructions: 96000000 cycles: 331949941 heartbeat IPC: 0.286103 cumulative IPC: 0.263469 (Simulation time: 1 hr 9 min 14 sec) 
Heartbeat CPU 0 instructions: 97000000 cycles: 335441563 heartbeat IPC: 0.2864 cumulative IPC: 0.263712 (Simulation time: 1 hr 9 min 40 sec) 
Heartbeat CPU 0 instructions: 98000000 cycles: 338927017 heartbeat IPC: 0.286907 cumulative IPC: 0.263954 (Simulation time: 1 hr 10 min 9 sec) 
Heartbeat CPU 0 instructions: 99000000 cycles: 342431971 heartbeat IPC: 0.28531 cumulative IPC: 0.264177 (Simulation time: 1 hr 10 min 36 sec) 
Heartbeat CPU 0 instructions: 100000000 cycles: 345970551 heartbeat IPC: 0.282599 cumulative IPC: 0.264368 (Simulation time: 1 hr 11 min 4 sec) 
Heartbeat CPU 0 instructions: 101000003 cycles: 349483517 heartbeat IPC: 0.284661 cumulative IPC: 0.264575 (Simulation time: 1 hr 11 min 29 sec) 
Heartbeat CPU 0 instructions: 102000000 cycles: 353538923 heartbeat IPC: 0.246584 cumulative IPC: 0.264366 (Simulation time: 1 hr 11 min 55 sec) 
Heartbeat CPU 0 instructions: 103000002 cycles: 357880064 heartbeat IPC: 0.230355 cumulative IPC: 0.263947 (Simulation time: 1 hr 12 min 18 sec) 
Heartbeat CPU 0 instructions: 104000000 cycles: 361988556 heartbeat IPC: 0.243398 cumulative IPC: 0.26371 (Simulation time: 1 hr 12 min 42 sec) 
Heartbeat CPU 0 instructions: 105000000 cycles: 365886607 heartbeat IPC: 0.256538 cumulative IPC: 0.263632 (Simulation time: 1 hr 13 min 3 sec) 
Heartbeat CPU 0 instructions: 106000002 cycles: 369776664 heartbeat IPC: 0.257066 cumulative IPC: 0.263562 (Simulation time: 1 hr 13 min 22 sec) 
Heartbeat CPU 0 instructions: 107000001 cycles: 373710338 heartbeat IPC: 0.254215 cumulative IPC: 0.263462 (Simulation time: 1 hr 13 min 43 sec) 
Heartbeat CPU 0 instructions: 108000000 cycles: 377525326 heartbeat IPC: 0.262124 cumulative IPC: 0.263449 (Simulation time: 1 hr 14 min 2 sec) 
Heartbeat CPU 0 instructions: 109000000 cycles: 381254354 heartbeat IPC: 0.268166 cumulative IPC: 0.263495 (Simulation time: 1 hr 14 min 21 sec) 
Heartbeat CPU 0 instructions: 110000002 cycles: 384957543 heartbeat IPC: 0.270038 cumulative IPC: 0.263559 (Simulation time: 1 hr 14 min 39 sec) 
Finished CPU 0 instructions: 100000001 cycles: 379421382 cummulative IPC: 0.263559 (Simulation time: 1 hr 14 min 39 sec) 

ChampSim completed all CPUs

Region of Interest Statistics

CPU 0 cummulative IPC: 0.263559 instructions: 100000001 cycles: 379421382
LLC TOTAL     ACCESS:    2540942  HIT:     248371  MISS:    2292571
LLC LOAD      ACCESS:     648003  HIT:      60077  MISS:     587926
LLC RFO       ACCESS:     277312  HIT:      24080  MISS:     253232
LLC PREFETCH  ACCESS:    1132559  HIT:      50386  MISS:    1082173
LLC WRITEBACK ACCESS:     483068  HIT:     113828  MISS:     369240
