
*** ChampSim Multicore Out-of-Order Simulator ***

Warmup Instructions: 10000000
Simulation Instructions: 100000000
Configuration: 2
Number of CPUs: 1
LLC sets: 2048
LLC ways: 16
Off-chip DRAM Channels: 1 Width: 64-bit Data Rate: 1600 MT/s

CPU 0 runs /datasets/cs240c-wi22-a00-public/data/Assignment2-gz/cactusADM_1495B.trace.gz
CPU 0 L1D next line prefetcher
CPU 0 L2C IP-based stride prefetcher
Heartbeat CPU 0 instructions: 1000003 cycles: 593383 heartbeat IPC: 1.68526 cumulative IPC: 1.68526 (Simulation time: 0 hr 1 min 5 sec) 
Heartbeat CPU 0 instructions: 2000000 cycles: 1186345 heartbeat IPC: 1.68644 cumulative IPC: 1.68585 (Simulation time: 0 hr 2 min 16 sec) 
Heartbeat CPU 0 instructions: 3000003 cycles: 1779703 heartbeat IPC: 1.68533 cumulative IPC: 1.68568 (Simulation time: 0 hr 3 min 16 sec) 
Heartbeat CPU 0 instructions: 4000000 cycles: 2372522 heartbeat IPC: 1.68685 cumulative IPC: 1.68597 (Simulation time: 0 hr 4 min 18 sec) 
Heartbeat CPU 0 instructions: 5000000 cycles: 2965579 heartbeat IPC: 1.68618 cumulative IPC: 1.68601 (Simulation time: 0 hr 5 min 26 sec) 
Heartbeat CPU 0 instructions: 6000001 cycles: 3558796 heartbeat IPC: 1.68573 cumulative IPC: 1.68596 (Simulation time: 0 hr 6 min 35 sec) 
Heartbeat CPU 0 instructions: 7000000 cycles: 4151738 heartbeat IPC: 1.6865 cumulative IPC: 1.68604 (Simulation time: 0 hr 7 min 48 sec) 
Heartbeat CPU 0 instructions: 8000000 cycles: 4906776 heartbeat IPC: 1.32444 cumulative IPC: 1.6304 (Simulation time: 0 hr 9 min 8 sec) 
Heartbeat CPU 0 instructions: 9000002 cycles: 5499974 heartbeat IPC: 1.68578 cumulative IPC: 1.63637 (Simulation time: 0 hr 10 min 13 sec) 
Heartbeat CPU 0 instructions: 10000002 cycles: 6092897 heartbeat IPC: 1.68656 cumulative IPC: 1.64126 (Simulation time: 0 hr 11 min 3 sec) 

Warmup complete CPU 0 instructions: 10000002 cycles: 6092897 (Simulation time: 0 hr 11 min 3 sec) 

Heartbeat CPU 0 instructions: 11000000 cycles: 7785958 heartbeat IPC: 0.590645 cumulative IPC: 0.590645 (Simulation time: 0 hr 11 min 54 sec) 
Heartbeat CPU 0 instructions: 12000000 cycles: 9529636 heartbeat IPC: 0.5735 cumulative IPC: 0.581946 (Simulation time: 0 hr 12 min 47 sec) 
Heartbeat CPU 0 instructions: 13000002 cycles: 11274983 heartbeat IPC: 0.572953 cumulative IPC: 0.578917 (Simulation time: 0 hr 13 min 38 sec) 
Heartbeat CPU 0 instructions: 14000001 cycles: 13010287 heartbeat IPC: 0.576267 cumulative IPC: 0.578253 (Simulation time: 0 hr 14 min 28 sec) 
Heartbeat CPU 0 instructions: 15000001 cycles: 14667591 heartbeat IPC: 0.60339 cumulative IPC: 0.583111 (Simulation time: 0 hr 15 min 20 sec) 
Heartbeat CPU 0 instructions: 16000000 cycles: 16388815 heartbeat IPC: 0.580981 cumulative IPC: 0.582755 (Simulation time: 0 hr 16 min 7 sec) 
Heartbeat CPU 0 instructions: 17000003 cycles: 18132824 heartbeat IPC: 0.573393 cumulative IPC: 0.581399 (Simulation time: 0 hr 17 min 0 sec) 
Heartbeat CPU 0 instructions: 18000000 cycles: 19878516 heartbeat IPC: 0.572837 cumulative IPC: 0.580315 (Simulation time: 0 hr 17 min 50 sec) 
Heartbeat CPU 0 instructions: 19000002 cycles: 21589348 heartbeat IPC: 0.584512 cumulative IPC: 0.580778 (Simulation time: 0 hr 18 min 42 sec) 
Heartbeat CPU 0 instructions: 20000000 cycles: 23255454 heartbeat IPC: 0.600201 cumulative IPC: 0.582664 (Simulation time: 0 hr 19 min 36 sec) 
Heartbeat CPU 0 instructions: 21000001 cycles: 29681116 heartbeat IPC: 0.155626 cumulative IPC: 0.466334 (Simulation time: 0 hr 20 min 39 sec) 
Heartbeat CPU 0 instructions: 22000000 cycles: 31781851 heartbeat IPC: 0.476023 cumulative IPC: 0.467127 (Simulation time: 0 hr 21 min 31 sec) 
Heartbeat CPU 0 instructions: 23000001 cycles: 33514115 heartbeat IPC: 0.57728 cumulative IPC: 0.474085 (Simulation time: 0 hr 22 min 14 sec) 
Heartbeat CPU 0 instructions: 24000000 cycles: 35171809 heartbeat IPC: 0.603247 cumulative IPC: 0.481448 (Simulation time: 0 hr 23 min 3 sec) 
Heartbeat CPU 0 instructions: 25000002 cycles: 36899470 heartbeat IPC: 0.578818 cumulative IPC: 0.486909 (Simulation time: 0 hr 23 min 50 sec) 
Heartbeat CPU 0 instructions: 26000000 cycles: 38654698 heartbeat IPC: 0.569725 cumulative IPC: 0.491373 (Simulation time: 0 hr 24 min 43 sec) 
Heartbeat CPU 0 instructions: 27000002 cycles: 40395387 heartbeat IPC: 0.574486 cumulative IPC: 0.495591 (Simulation time: 0 hr 25 min 38 sec) 
Heartbeat CPU 0 instructions: 28000000 cycles: 42105192 heartbeat IPC: 0.584861 cumulative IPC: 0.499829 (Simulation time: 0 hr 26 min 29 sec) 
Heartbeat CPU 0 instructions: 29000003 cycles: 43765023 heartbeat IPC: 0.602473 cumulative IPC: 0.504352 (Simulation time: 0 hr 27 min 15 sec) 
Heartbeat CPU 0 instructions: 30000000 cycles: 45533645 heartbeat IPC: 0.56541 cumulative IPC: 0.50709 (Simulation time: 0 hr 28 min 5 sec) 
Heartbeat CPU 0 instructions: 31000003 cycles: 47276449 heartbeat IPC: 0.57379 cumulative IPC: 0.509912 (Simulation time: 0 hr 28 min 57 sec) 
Heartbeat CPU 0 instructions: 32000000 cycles: 49016868 heartbeat IPC: 0.574573 cumulative IPC: 0.512534 (Simulation time: 0 hr 29 min 43 sec) 
Heartbeat CPU 0 instructions: 33000001 cycles: 50697671 heartbeat IPC: 0.594954 cumulative IPC: 0.51564 (Simulation time: 0 hr 30 min 37 sec) 
Heartbeat CPU 0 instructions: 34000002 cycles: 56201556 heartbeat IPC: 0.18169 cumulative IPC: 0.478959 (Simulation time: 0 hr 31 min 39 sec) 
Heartbeat CPU 0 instructions: 35000002 cycles: 59219556 heartbeat IPC: 0.331345 cumulative IPC: 0.470574 (Simulation time: 0 hr 32 min 34 sec) 
Heartbeat CPU 0 instructions: 36000000 cycles: 60959329 heartbeat IPC: 0.574786 cumulative IPC: 0.473878 (Simulation time: 0 hr 33 min 29 sec) 
Heartbeat CPU 0 instructions: 37000001 cycles: 62676421 heartbeat IPC: 0.582381 cumulative IPC: 0.477171 (Simulation time: 0 hr 34 min 23 sec) 
Heartbeat CPU 0 instructions: 38000003 cycles: 64333473 heartbeat IPC: 0.603483 cumulative IPC: 0.480764 (Simulation time: 0 hr 35 min 16 sec) 
Heartbeat CPU 0 instructions: 39000003 cycles: 66067323 heartbeat IPC: 0.576751 cumulative IPC: 0.483539 (Simulation time: 0 hr 36 min 8 sec) 
Heartbeat CPU 0 instructions: 40000000 cycles: 67808617 heartbeat IPC: 0.574284 cumulative IPC: 0.4861 (Simulation time: 0 hr 36 min 54 sec) 
Heartbeat CPU 0 instructions: 41000002 cycles: 69548547 heartbeat IPC: 0.574737 cumulative IPC: 0.48853 (Simulation time: 0 hr 37 min 46 sec) 
Heartbeat CPU 0 instructions: 42000000 cycles: 71231582 heartbeat IPC: 0.594164 cumulative IPC: 0.49126 (Simulation time: 0 hr 38 min 33 sec) 
Heartbeat CPU 0 instructions: 43000000 cycles: 72917188 heartbeat IPC: 0.593258 cumulative IPC: 0.493832 (Simulation time: 0 hr 39 min 21 sec) 
Heartbeat CPU 0 instructions: 44000000 cycles: 74658719 heartbeat IPC: 0.574207 cumulative IPC: 0.495874 (Simulation time: 0 hr 40 min 16 sec) 
Heartbeat CPU 0 instructions: 45000003 cycles: 76401449 heartbeat IPC: 0.573814 cumulative IPC: 0.497806 (Simulation time: 0 hr 41 min 6 sec) 
Heartbeat CPU 0 instructions: 46000002 cycles: 78136204 heartbeat IPC: 0.57645 cumulative IPC: 0.499699 (Simulation time: 0 hr 42 min 1 sec) 
Heartbeat CPU 0 instructions: 47000002 cycles: 82584063 heartbeat IPC: 0.224827 cumulative IPC: 0.483716 (Simulation time: 0 hr 43 min 1 sec) 
Heartbeat CPU 0 instructions: 48000000 cycles: 86607804 heartbeat IPC: 0.248524 cumulative IPC: 0.471962 (Simulation time: 0 hr 43 min 58 sec) 
Heartbeat CPU 0 instructions: 49000000 cycles: 88346127 heartbeat IPC: 0.575267 cumulative IPC: 0.474146 (Simulation time: 0 hr 44 min 52 sec) 
Heartbeat CPU 0 instructions: 50000000 cycles: 90085991 heartbeat IPC: 0.574758 cumulative IPC: 0.47623 (Simulation time: 0 hr 45 min 47 sec) 
Heartbeat CPU 0 instructions: 51000000 cycles: 91774450 heartbeat IPC: 0.592256 cumulative IPC: 0.478516 (Simulation time: 0 hr 46 min 39 sec) 
Heartbeat CPU 0 instructions: 52000000 cycles: 93456072 heartbeat IPC: 0.594664 cumulative IPC: 0.480752 (Simulation time: 0 hr 47 min 27 sec) 
Heartbeat CPU 0 instructions: 53000003 cycles: 95195185 heartbeat IPC: 0.575007 cumulative IPC: 0.482591 (Simulation time: 0 hr 48 min 16 sec) 
Heartbeat CPU 0 instructions: 54000001 cycles: 96935263 heartbeat IPC: 0.574686 cumulative IPC: 0.484355 (Simulation time: 0 hr 49 min 6 sec) 
Heartbeat CPU 0 instructions: 55000000 cycles: 98672635 heartbeat IPC: 0.575581 cumulative IPC: 0.486067 (Simulation time: 0 hr 50 min 5 sec) 
Heartbeat CPU 0 instructions: 56000000 cycles: 100331953 heartbeat IPC: 0.602657 cumulative IPC: 0.48812 (Simulation time: 0 hr 51 min 1 sec) 
Heartbeat CPU 0 instructions: 57000000 cycles: 102046104 heartbeat IPC: 0.583379 cumulative IPC: 0.489822 (Simulation time: 0 hr 51 min 47 sec) 
Heartbeat CPU 0 instructions: 58000002 cycles: 103788483 heartbeat IPC: 0.573929 cumulative IPC: 0.491322 (Simulation time: 0 hr 52 min 35 sec) 
Heartbeat CPU 0 instructions: 59000001 cycles: 105531289 heartbeat IPC: 0.573787 cumulative IPC: 0.492767 (Simulation time: 0 hr 53 min 22 sec) 
Heartbeat CPU 0 instructions: 60000000 cycles: 108941351 heartbeat IPC: 0.29325 cumulative IPC: 0.486152 (Simulation time: 0 hr 54 min 14 sec) 
Heartbeat CPU 0 instructions: 61000001 cycles: 113987941 heartbeat IPC: 0.198154 cumulative IPC: 0.472682 (Simulation time: 0 hr 55 min 17 sec) 
Heartbeat CPU 0 instructions: 62000000 cycles: 115726025 heartbeat IPC: 0.575346 cumulative IPC: 0.474309 (Simulation time: 0 hr 56 min 4 sec) 
Heartbeat CPU 0 instructions: 63000000 cycles: 117468245 heartbeat IPC: 0.57398 cumulative IPC: 0.475868 (Simulation time: 0 hr 56 min 51 sec) 
Heartbeat CPU 0 instructions: 64000000 cycles: 119204189 heartbeat IPC: 0.576055 cumulative IPC: 0.477406 (Simulation time: 0 hr 57 min 39 sec) 
Heartbeat CPU 0 instructions: 65000002 cycles: 120865853 heartbeat IPC: 0.601808 cumulative IPC: 0.479207 (Simulation time: 0 hr 58 min 25 sec) 
Heartbeat CPU 0 instructions: 66000003 cycles: 122573238 heartbeat IPC: 0.585692 cumulative IPC: 0.480768 (Simulation time: 0 hr 59 min 12 sec) 
Heartbeat CPU 0 instructions: 67000001 cycles: 124314298 heartbeat IPC: 0.574362 cumulative IPC: 0.482146 (Simulation time: 0 hr 59 min 57 sec) 
Heartbeat CPU 0 instructions: 68000000 cycles: 126055720 heartbeat IPC: 0.574243 cumulative IPC: 0.483483 (Simulation time: 1 hr 0 min 41 sec) 
Heartbeat CPU 0 instructions: 69000003 cycles: 127774070 heartbeat IPC: 0.581955 cumulative IPC: 0.484874 (Simulation time: 1 hr 1 min 22 sec) 
Heartbeat CPU 0 instructions: 70000000 cycles: 129429180 heartbeat IPC: 0.604188 cumulative IPC: 0.486475 (Simulation time: 1 hr 2 min 6 sec) 
Heartbeat CPU 0 instructions: 71000002 cycles: 131159571 heartbeat IPC: 0.577905 cumulative IPC: 0.48774 (Simulation time: 1 hr 2 min 50 sec) 
Heartbeat CPU 0 instructions: 72000000 cycles: 132900377 heartbeat IPC: 0.574445 cumulative IPC: 0.48893 (Simulation time: 1 hr 3 min 30 sec) 
Heartbeat CPU 0 instructions: 73000001 cycles: 135383144 heartbeat IPC: 0.402777 cumulative IPC: 0.487276 (Simulation time: 1 hr 4 min 10 sec) 
Heartbeat CPU 0 instructions: 74000002 cycles: 141387516 heartbeat IPC: 0.166545 cumulative IPC: 0.473042 (Simulation time: 1 hr 5 min 5 sec) 
Heartbeat CPU 0 instructions: 75000002 cycles: 143086259 heartbeat IPC: 0.588671 cumulative IPC: 0.474476 (Simulation time: 1 hr 5 min 45 sec) 
Heartbeat CPU 0 instructions: 76000000 cycles: 144826982 heartbeat IPC: 0.574473 cumulative IPC: 0.47573 (Simulation time: 1 hr 6 min 22 sec) 
Heartbeat CPU 0 instructions: 77000001 cycles: 146566813 heartbeat IPC: 0.574769 cumulative IPC: 0.476957 (Simulation time: 1 hr 6 min 55 sec) 
Heartbeat CPU 0 instructions: 78000000 cycles: 148289948 heartbeat IPC: 0.580337 cumulative IPC: 0.47821 (Simulation time: 1 hr 7 min 26 sec) 
Heartbeat CPU 0 instructions: 79000003 cycles: 149937469 heartbeat IPC: 0.606974 cumulative IPC: 0.479684 (Simulation time: 1 hr 7 min 56 sec) 
Heartbeat CPU 0 instructions: 80000000 cycles: 151668316 heartbeat IPC: 0.57775 cumulative IPC: 0.48085 (Simulation time: 1 hr 8 min 26 sec) 
Heartbeat CPU 0 instructions: 81000002 cycles: 153409499 heartbeat IPC: 0.574323 cumulative IPC: 0.481955 (Simulation time: 1 hr 8 min 56 sec) 
Heartbeat CPU 0 instructions: 82000000 cycles: 155149509 heartbeat IPC: 0.574708 cumulative IPC: 0.483038 (Simulation time: 1 hr 9 min 23 sec) 
Heartbeat CPU 0 instructions: 83000000 cycles: 156837393 heartbeat IPC: 0.592458 cumulative IPC: 0.484263 (Simulation time: 1 hr 9 min 51 sec) 
Heartbeat CPU 0 instructions: 84000000 cycles: 158514965 heartbeat IPC: 0.5961 cumulative IPC: 0.485494 (Simulation time: 1 hr 10 min 25 sec) 
Heartbeat CPU 0 instructions: 85000003 cycles: 160277669 heartbeat IPC: 0.567312 cumulative IPC: 0.486429 (Simulation time: 1 hr 10 min 55 sec) 
Heartbeat CPU 0 instructions: 86000000 cycles: 162018725 heartbeat IPC: 0.574362 cumulative IPC: 0.487411 (Simulation time: 1 hr 11 min 21 sec) 
Heartbeat CPU 0 instructions: 87000001 cycles: 168868975 heartbeat IPC: 0.14598 cumulative IPC: 0.473042 (Simulation time: 1 hr 11 min 53 sec) 
Heartbeat CPU 0 instructions: 88000000 cycles: 170514533 heartbeat IPC: 0.607696 cumulative IPC: 0.47439 (Simulation time: 1 hr 12 min 19 sec) 
Heartbeat CPU 0 instructions: 89000002 cycles: 172242373 heartbeat IPC: 0.578758 cumulative IPC: 0.475475 (Simulation time: 1 hr 12 min 44 sec) 
Heartbeat CPU 0 instructions: 90000001 cycles: 174008169 heartbeat IPC: 0.566316 cumulative IPC: 0.476431 (Simulation time: 1 hr 13 min 7 sec) 
Heartbeat CPU 0 instructions: 91000002 cycles: 175746600 heartbeat IPC: 0.575232 cumulative IPC: 0.477443 (Simulation time: 1 hr 13 min 31 sec) 
Heartbeat CPU 0 instructions: 92000000 cycles: 177442587 heartbeat IPC: 0.589626 cumulative IPC: 0.478554 (Simulation time: 1 hr 13 min 52 sec) 
Heartbeat CPU 0 instructions: 93000002 cycles: 179113062 heartbeat IPC: 0.598633 cumulative IPC: 0.479713 (Simulation time: 1 hr 14 min 12 sec) 
Heartbeat CPU 0 instructions: 94000002 cycles: 180848154 heartbeat IPC: 0.576338 cumulative IPC: 0.480672 (Simulation time: 1 hr 14 min 32 sec) 
Heartbeat CPU 0 instructions: 95000003 cycles: 182589042 heartbeat IPC: 0.57442 cumulative IPC: 0.481597 (Simulation time: 1 hr 14 min 50 sec) 
Heartbeat CPU 0 instructions: 96000000 cycles: 184324762 heartbeat IPC: 0.576128 cumulative IPC: 0.482518 (Simulation time: 1 hr 15 min 11 sec) 
Heartbeat CPU 0 instructions: 97000003 cycles: 185987098 heartbeat IPC: 0.601565 cumulative IPC: 0.483618 (Simulation time: 1 hr 15 min 28 sec) 
Heartbeat CPU 0 instructions: 98000003 cycles: 187690192 heartbeat IPC: 0.587167 cumulative IPC: 0.484589 (Simulation time: 1 hr 15 min 44 sec) 
Heartbeat CPU 0 instructions: 99000000 cycles: 189429917 heartbeat IPC: 0.574802 cumulative IPC: 0.485445 (Simulation time: 1 hr 16 min 0 sec) 
Heartbeat CPU 0 instructions: 100000000 cycles: 196246312 heartbeat IPC: 0.146705 cumulative IPC: 0.473302 (Simulation time: 1 hr 16 min 18 sec) 
Heartbeat CPU 0 instructions: 101000000 cycles: 197944845 heartbeat IPC: 0.588743 cumulative IPC: 0.474324 (Simulation time: 1 hr 16 min 31 sec) 
Heartbeat CPU 0 instructions: 102000003 cycles: 199612972 heartbeat IPC: 0.599477 cumulative IPC: 0.475403 (Simulation time: 1 hr 16 min 44 sec) 
Heartbeat CPU 0 instructions: 103000000 cycles: 201345708 heartbeat IPC: 0.57712 cumulative IPC: 0.476306 (Simulation time: 1 hr 16 min 58 sec) 
Heartbeat CPU 0 instructions: 104000000 cycles: 203085308 heartbeat IPC: 0.574845 cumulative IPC: 0.477176 (Simulation time: 1 hr 17 min 11 sec) 
Heartbeat CPU 0 instructions: 105000001 cycles: 204820441 heartbeat IPC: 0.576325 cumulative IPC: 0.478041 (Simulation time: 1 hr 17 min 22 sec) 
Heartbeat CPU 0 instructions: 106000000 cycles: 206488245 heartbeat IPC: 0.59959 cumulative IPC: 0.479053 (Simulation time: 1 hr 17 min 31 sec) 
Heartbeat CPU 0 instructions: 107000001 cycles: 208184709 heartbeat IPC: 0.589462 cumulative IPC: 0.47998 (Simulation time: 1 hr 17 min 40 sec) 
Heartbeat CPU 0 instructions: 108000000 cycles: 209924025 heartbeat IPC: 0.574938 cumulative IPC: 0.48079 (Simulation time: 1 hr 17 min 50 sec) 
Heartbeat CPU 0 instructions: 109000002 cycles: 211663148 heartbeat IPC: 0.575004 cumulative IPC: 0.481587 (Simulation time: 1 hr 17 min 59 sec) 
Heartbeat CPU 0 instructions: 110000001 cycles: 213388329 heartbeat IPC: 0.579649 cumulative IPC: 0.482403 (Simulation time: 1 hr 18 min 7 sec) 
Finished CPU 0 instructions: 100000003 cycles: 207295433 cummulative IPC: 0.482403 (Simulation time: 1 hr 18 min 7 sec) 

ChampSim completed all CPUs

Region of Interest Statistics

CPU 0 cummulative IPC: 0.482403 instructions: 100000003 cycles: 207295433
LLC TOTAL     ACCESS:    1112836  HIT:     325924  MISS:     786912
LLC LOAD      ACCESS:      28263  HIT:       1958  MISS:      26305
LLC RFO       ACCESS:     245174  HIT:       8810  MISS:     236364
LLC PREFETCH  ACCESS:     593889  HIT:     146849  MISS:     447040
LLC WRITEBACK ACCESS:     245510  HIT:     168307  MISS:      77203
