
*** ChampSim Multicore Out-of-Order Simulator ***

Warmup Instructions: 10000000
Simulation Instructions: 100000000
Configuration: 2
Number of CPUs: 1
LLC sets: 2048
LLC ways: 16
Off-chip DRAM Channels: 1 Width: 64-bit Data Rate: 1600 MT/s

CPU 0 runs /datasets/cs240c-wi22-a00-public/data/Assignment2-gz/wrf_1228B.trace.gz
CPU 0 L1D next line prefetcher
CPU 0 L2C IP-based stride prefetcher
Heartbeat CPU 0 instructions: 1000003 cycles: 591062 heartbeat IPC: 1.69187 cumulative IPC: 1.69187 (Simulation time: 0 hr 0 min 47 sec) 
Heartbeat CPU 0 instructions: 2000002 cycles: 1111152 heartbeat IPC: 1.92274 cumulative IPC: 1.79994 (Simulation time: 0 hr 1 min 28 sec) 
Heartbeat CPU 0 instructions: 3000000 cycles: 1729111 heartbeat IPC: 1.61823 cumulative IPC: 1.735 (Simulation time: 0 hr 2 min 14 sec) 
Heartbeat CPU 0 instructions: 4000000 cycles: 2349763 heartbeat IPC: 1.61121 cumulative IPC: 1.7023 (Simulation time: 0 hr 3 min 0 sec) 
Heartbeat CPU 0 instructions: 5000000 cycles: 3052127 heartbeat IPC: 1.42376 cumulative IPC: 1.6382 (Simulation time: 0 hr 3 min 47 sec) 
Heartbeat CPU 0 instructions: 6000000 cycles: 3612217 heartbeat IPC: 1.78543 cumulative IPC: 1.66103 (Simulation time: 0 hr 4 min 31 sec) 
Heartbeat CPU 0 instructions: 7000001 cycles: 4164978 heartbeat IPC: 1.8091 cumulative IPC: 1.68068 (Simulation time: 0 hr 5 min 13 sec) 
Heartbeat CPU 0 instructions: 8000000 cycles: 4716342 heartbeat IPC: 1.81368 cumulative IPC: 1.69623 (Simulation time: 0 hr 5 min 53 sec) 
Heartbeat CPU 0 instructions: 9000002 cycles: 5266532 heartbeat IPC: 1.81756 cumulative IPC: 1.7089 (Simulation time: 0 hr 6 min 34 sec) 
Heartbeat CPU 0 instructions: 10000001 cycles: 5819428 heartbeat IPC: 1.80866 cumulative IPC: 1.71838 (Simulation time: 0 hr 7 min 14 sec) 

Warmup complete CPU 0 instructions: 10000001 cycles: 5819428 (Simulation time: 0 hr 7 min 14 sec) 

Heartbeat CPU 0 instructions: 11000000 cycles: 6678837 heartbeat IPC: 1.16359 cumulative IPC: 1.16359 (Simulation time: 0 hr 7 min 55 sec) 
Heartbeat CPU 0 instructions: 12000000 cycles: 7552568 heartbeat IPC: 1.14452 cumulative IPC: 1.15397 (Simulation time: 0 hr 8 min 39 sec) 
Heartbeat CPU 0 instructions: 13000003 cycles: 8432789 heartbeat IPC: 1.13608 cumulative IPC: 1.14795 (Simulation time: 0 hr 9 min 21 sec) 
Heartbeat CPU 0 instructions: 14000002 cycles: 9315013 heartbeat IPC: 1.1335 cumulative IPC: 1.1443 (Simulation time: 0 hr 10 min 1 sec) 
Heartbeat CPU 0 instructions: 15000001 cycles: 10147993 heartbeat IPC: 1.20051 cumulative IPC: 1.15512 (Simulation time: 0 hr 10 min 39 sec) 
Heartbeat CPU 0 instructions: 16000000 cycles: 10969680 heartbeat IPC: 1.21701 cumulative IPC: 1.16499 (Simulation time: 0 hr 11 min 17 sec) 
Heartbeat CPU 0 instructions: 17000002 cycles: 11794674 heartbeat IPC: 1.21213 cumulative IPC: 1.1715 (Simulation time: 0 hr 11 min 50 sec) 
Heartbeat CPU 0 instructions: 18000003 cycles: 12595343 heartbeat IPC: 1.24896 cumulative IPC: 1.18065 (Simulation time: 0 hr 12 min 22 sec) 
Heartbeat CPU 0 instructions: 19000000 cycles: 13390076 heartbeat IPC: 1.25828 cumulative IPC: 1.1888 (Simulation time: 0 hr 12 min 55 sec) 
Heartbeat CPU 0 instructions: 20000000 cycles: 14175974 heartbeat IPC: 1.27243 cumulative IPC: 1.19667 (Simulation time: 0 hr 13 min 28 sec) 
Heartbeat CPU 0 instructions: 21000000 cycles: 14949480 heartbeat IPC: 1.29281 cumulative IPC: 1.20481 (Simulation time: 0 hr 14 min 3 sec) 
Heartbeat CPU 0 instructions: 22000000 cycles: 15756522 heartbeat IPC: 1.23909 cumulative IPC: 1.2076 (Simulation time: 0 hr 14 min 42 sec) 
Heartbeat CPU 0 instructions: 23000003 cycles: 16702791 heartbeat IPC: 1.05679 cumulative IPC: 1.19448 (Simulation time: 0 hr 15 min 22 sec) 
Heartbeat CPU 0 instructions: 24000000 cycles: 17624239 heartbeat IPC: 1.08525 cumulative IPC: 1.18596 (Simulation time: 0 hr 16 min 0 sec) 
Heartbeat CPU 0 instructions: 25000000 cycles: 18548342 heartbeat IPC: 1.08213 cumulative IPC: 1.17842 (Simulation time: 0 hr 16 min 42 sec) 
Heartbeat CPU 0 instructions: 26000003 cycles: 19462831 heartbeat IPC: 1.09351 cumulative IPC: 1.17273 (Simulation time: 0 hr 17 min 19 sec) 
Heartbeat CPU 0 instructions: 27000003 cycles: 20374823 heartbeat IPC: 1.0965 cumulative IPC: 1.16795 (Simulation time: 0 hr 17 min 56 sec) 
Heartbeat CPU 0 instructions: 28000000 cycles: 21280107 heartbeat IPC: 1.10462 cumulative IPC: 1.16424 (Simulation time: 0 hr 18 min 32 sec) 
Heartbeat CPU 0 instructions: 29000003 cycles: 22984408 heartbeat IPC: 0.586753 cumulative IPC: 1.1069 (Simulation time: 0 hr 19 min 20 sec) 
Heartbeat CPU 0 instructions: 30000000 cycles: 24680805 heartbeat IPC: 0.589483 cumulative IPC: 1.06037 (Simulation time: 0 hr 20 min 7 sec) 
Heartbeat CPU 0 instructions: 31000003 cycles: 26363956 heartbeat IPC: 0.594126 cumulative IPC: 1.02217 (Simulation time: 0 hr 20 min 52 sec) 
Heartbeat CPU 0 instructions: 32000000 cycles: 27946590 heartbeat IPC: 0.631856 cumulative IPC: 0.994253 (Simulation time: 0 hr 21 min 40 sec) 
Heartbeat CPU 0 instructions: 33000001 cycles: 29333015 heartbeat IPC: 0.72128 cumulative IPC: 0.978158 (Simulation time: 0 hr 22 min 28 sec) 
Heartbeat CPU 0 instructions: 34000002 cycles: 30720627 heartbeat IPC: 0.720663 cumulative IPC: 0.963809 (Simulation time: 0 hr 23 min 14 sec) 
Heartbeat CPU 0 instructions: 35000001 cycles: 32425365 heartbeat IPC: 0.5866 cumulative IPC: 0.93964 (Simulation time: 0 hr 24 min 5 sec) 
Heartbeat CPU 0 instructions: 36000000 cycles: 33395648 heartbeat IPC: 1.03063 cumulative IPC: 0.942841 (Simulation time: 0 hr 24 min 50 sec) 
Heartbeat CPU 0 instructions: 37000001 cycles: 34356809 heartbeat IPC: 1.04041 cumulative IPC: 0.946127 (Simulation time: 0 hr 25 min 30 sec) 
Heartbeat CPU 0 instructions: 38000003 cycles: 35293906 heartbeat IPC: 1.06713 cumulative IPC: 0.949974 (Simulation time: 0 hr 26 min 5 sec) 
Heartbeat CPU 0 instructions: 39000002 cycles: 36270420 heartbeat IPC: 1.02405 cumulative IPC: 0.95235 (Simulation time: 0 hr 26 min 47 sec) 
Heartbeat CPU 0 instructions: 40000000 cycles: 37218940 heartbeat IPC: 1.05427 cumulative IPC: 0.955429 (Simulation time: 0 hr 27 min 31 sec) 
Heartbeat CPU 0 instructions: 41000000 cycles: 38177238 heartbeat IPC: 1.04352 cumulative IPC: 0.958038 (Simulation time: 0 hr 28 min 10 sec) 
Heartbeat CPU 0 instructions: 42000002 cycles: 39132033 heartbeat IPC: 1.04735 cumulative IPC: 0.960597 (Simulation time: 0 hr 28 min 49 sec) 
Heartbeat CPU 0 instructions: 43000002 cycles: 40102341 heartbeat IPC: 1.0306 cumulative IPC: 0.962579 (Simulation time: 0 hr 29 min 27 sec) 
Heartbeat CPU 0 instructions: 44000000 cycles: 40999685 heartbeat IPC: 1.1144 cumulative IPC: 0.966451 (Simulation time: 0 hr 30 min 4 sec) 
Heartbeat CPU 0 instructions: 45000000 cycles: 41881072 heartbeat IPC: 1.13458 cumulative IPC: 0.97056 (Simulation time: 0 hr 30 min 41 sec) 
Heartbeat CPU 0 instructions: 46000001 cycles: 42765631 heartbeat IPC: 1.13051 cumulative IPC: 0.97439 (Simulation time: 0 hr 31 min 17 sec) 
Heartbeat CPU 0 instructions: 47000001 cycles: 43656447 heartbeat IPC: 1.12257 cumulative IPC: 0.977878 (Simulation time: 0 hr 31 min 54 sec) 
Heartbeat CPU 0 instructions: 48000000 cycles: 44538717 heartbeat IPC: 1.13344 cumulative IPC: 0.981423 (Simulation time: 0 hr 32 min 34 sec) 
Heartbeat CPU 0 instructions: 49000001 cycles: 45442664 heartbeat IPC: 1.10626 cumulative IPC: 0.984271 (Simulation time: 0 hr 33 min 10 sec) 
Heartbeat CPU 0 instructions: 50000002 cycles: 46350519 heartbeat IPC: 1.1015 cumulative IPC: 0.986897 (Simulation time: 0 hr 33 min 47 sec) 
Heartbeat CPU 0 instructions: 51000001 cycles: 47247582 heartbeat IPC: 1.11475 cumulative IPC: 0.989665 (Simulation time: 0 hr 34 min 31 sec) 
Heartbeat CPU 0 instructions: 52000000 cycles: 48186525 heartbeat IPC: 1.06503 cumulative IPC: 0.991335 (Simulation time: 0 hr 35 min 9 sec) 
Heartbeat CPU 0 instructions: 53000002 cycles: 49184668 heartbeat IPC: 1.00186 cumulative IPC: 0.991578 (Simulation time: 0 hr 35 min 49 sec) 
Heartbeat CPU 0 instructions: 54000001 cycles: 50191398 heartbeat IPC: 0.993314 cumulative IPC: 0.991617 (Simulation time: 0 hr 36 min 26 sec) 
Heartbeat CPU 0 instructions: 55000003 cycles: 51185018 heartbeat IPC: 1.00642 cumulative IPC: 0.991941 (Simulation time: 0 hr 37 min 7 sec) 
Heartbeat CPU 0 instructions: 56000000 cycles: 52199955 heartbeat IPC: 0.98528 cumulative IPC: 0.991796 (Simulation time: 0 hr 37 min 49 sec) 
Heartbeat CPU 0 instructions: 57000001 cycles: 53202051 heartbeat IPC: 0.997909 cumulative IPC: 0.991925 (Simulation time: 0 hr 38 min 27 sec) 
Heartbeat CPU 0 instructions: 58000000 cycles: 54203771 heartbeat IPC: 0.998282 cumulative IPC: 0.992056 (Simulation time: 0 hr 39 min 3 sec) 
Heartbeat CPU 0 instructions: 59000001 cycles: 55603994 heartbeat IPC: 0.714173 cumulative IPC: 0.984241 (Simulation time: 0 hr 39 min 50 sec) 
Heartbeat CPU 0 instructions: 60000000 cycles: 57101718 heartbeat IPC: 0.667679 cumulative IPC: 0.974995 (Simulation time: 0 hr 40 min 34 sec) 
Heartbeat CPU 0 instructions: 61000000 cycles: 59030496 heartbeat IPC: 0.518463 cumulative IPC: 0.958447 (Simulation time: 0 hr 41 min 19 sec) 
Heartbeat CPU 0 instructions: 62000000 cycles: 60581717 heartbeat IPC: 0.644653 cumulative IPC: 0.949559 (Simulation time: 0 hr 42 min 4 sec) 
Heartbeat CPU 0 instructions: 63000001 cycles: 62007907 heartbeat IPC: 0.70117 cumulative IPC: 0.943254 (Simulation time: 0 hr 42 min 50 sec) 
Heartbeat CPU 0 instructions: 64000000 cycles: 63439641 heartbeat IPC: 0.698453 cumulative IPC: 0.937171 (Simulation time: 0 hr 43 min 44 sec) 
Heartbeat CPU 0 instructions: 65000003 cycles: 64934469 heartbeat IPC: 0.668975 cumulative IPC: 0.930389 (Simulation time: 0 hr 44 min 27 sec) 
Heartbeat CPU 0 instructions: 66000000 cycles: 66429901 heartbeat IPC: 0.668701 cumulative IPC: 0.923933 (Simulation time: 0 hr 45 min 14 sec) 
Heartbeat CPU 0 instructions: 67000000 cycles: 67924420 heartbeat IPC: 0.669112 cumulative IPC: 0.917801 (Simulation time: 0 hr 46 min 4 sec) 
Heartbeat CPU 0 instructions: 68000000 cycles: 69418876 heartbeat IPC: 0.66914 cumulative IPC: 0.911958 (Simulation time: 0 hr 46 min 44 sec) 
Heartbeat CPU 0 instructions: 69000000 cycles: 70926122 heartbeat IPC: 0.663462 cumulative IPC: 0.906205 (Simulation time: 0 hr 47 min 32 sec) 
Heartbeat CPU 0 instructions: 70000001 cycles: 72422693 heartbeat IPC: 0.668195 cumulative IPC: 0.900857 (Simulation time: 0 hr 48 min 25 sec) 
Heartbeat CPU 0 instructions: 71000001 cycles: 73916718 heartbeat IPC: 0.669333 cumulative IPC: 0.895777 (Simulation time: 0 hr 49 min 17 sec) 
Heartbeat CPU 0 instructions: 72000000 cycles: 75399670 heartbeat IPC: 0.67433 cumulative IPC: 0.891058 (Simulation time: 0 hr 50 min 9 sec) 
Heartbeat CPU 0 instructions: 73000003 cycles: 76887378 heartbeat IPC: 0.672177 cumulative IPC: 0.886476 (Simulation time: 0 hr 50 min 54 sec) 
Heartbeat CPU 0 instructions: 74000000 cycles: 78384908 heartbeat IPC: 0.667764 cumulative IPC: 0.881962 (Simulation time: 0 hr 51 min 38 sec) 
Heartbeat CPU 0 instructions: 75000001 cycles: 79878880 heartbeat IPC: 0.669357 cumulative IPC: 0.877673 (Simulation time: 0 hr 52 min 21 sec) 
Heartbeat CPU 0 instructions: 76000000 cycles: 81375311 heartbeat IPC: 0.668256 cumulative IPC: 0.873526 (Simulation time: 0 hr 53 min 5 sec) 
Heartbeat CPU 0 instructions: 77000003 cycles: 82869107 heartbeat IPC: 0.669437 cumulative IPC: 0.869569 (Simulation time: 0 hr 53 min 49 sec) 
Heartbeat CPU 0 instructions: 78000001 cycles: 84363803 heartbeat IPC: 0.669031 cumulative IPC: 0.865753 (Simulation time: 0 hr 54 min 36 sec) 
Heartbeat CPU 0 instructions: 79000000 cycles: 85860258 heartbeat IPC: 0.668245 cumulative IPC: 0.86206 (Simulation time: 0 hr 55 min 25 sec) 
Heartbeat CPU 0 instructions: 80000000 cycles: 87350641 heartbeat IPC: 0.670968 cumulative IPC: 0.858567 (Simulation time: 0 hr 56 min 11 sec) 
Heartbeat CPU 0 instructions: 81000001 cycles: 88834580 heartbeat IPC: 0.673883 cumulative IPC: 0.855266 (Simulation time: 0 hr 56 min 59 sec) 
Heartbeat CPU 0 instructions: 82000000 cycles: 90317651 heartbeat IPC: 0.674276 cumulative IPC: 0.852089 (Simulation time: 0 hr 57 min 47 sec) 
Heartbeat CPU 0 instructions: 83000000 cycles: 91801002 heartbeat IPC: 0.674149 cumulative IPC: 0.849019 (Simulation time: 0 hr 58 min 32 sec) 
Heartbeat CPU 0 instructions: 84000000 cycles: 93295912 heartbeat IPC: 0.668937 cumulative IPC: 0.845942 (Simulation time: 0 hr 59 min 15 sec) 
Heartbeat CPU 0 instructions: 85000000 cycles: 94790795 heartbeat IPC: 0.668949 cumulative IPC: 0.842968 (Simulation time: 0 hr 59 min 54 sec) 
Heartbeat CPU 0 instructions: 86000000 cycles: 96284593 heartbeat IPC: 0.669435 cumulative IPC: 0.840102 (Simulation time: 1 hr 0 min 38 sec) 
Heartbeat CPU 0 instructions: 87000000 cycles: 97779444 heartbeat IPC: 0.668963 cumulative IPC: 0.83732 (Simulation time: 1 hr 1 min 20 sec) 
Heartbeat CPU 0 instructions: 88000000 cycles: 99275021 heartbeat IPC: 0.668638 cumulative IPC: 0.834621 (Simulation time: 1 hr 2 min 3 sec) 
Heartbeat CPU 0 instructions: 89000002 cycles: 100770871 heartbeat IPC: 0.668518 cumulative IPC: 0.832004 (Simulation time: 1 hr 2 min 42 sec) 
Heartbeat CPU 0 instructions: 90000000 cycles: 102255206 heartbeat IPC: 0.673701 cumulative IPC: 0.829568 (Simulation time: 1 hr 3 min 20 sec) 
Heartbeat CPU 0 instructions: 91000000 cycles: 103738803 heartbeat IPC: 0.674038 cumulative IPC: 0.827211 (Simulation time: 1 hr 4 min 4 sec) 
Heartbeat CPU 0 instructions: 92000000 cycles: 105222641 heartbeat IPC: 0.673928 cumulative IPC: 0.824923 (Simulation time: 1 hr 4 min 44 sec) 
Heartbeat CPU 0 instructions: 93000000 cycles: 106712379 heartbeat IPC: 0.671259 cumulative IPC: 0.822654 (Simulation time: 1 hr 5 min 22 sec) 
Heartbeat CPU 0 instructions: 94000003 cycles: 108206238 heartbeat IPC: 0.669409 cumulative IPC: 0.820418 (Simulation time: 1 hr 5 min 56 sec) 
Heartbeat CPU 0 instructions: 95000000 cycles: 109702037 heartbeat IPC: 0.668537 cumulative IPC: 0.818231 (Simulation time: 1 hr 6 min 33 sec) 
Heartbeat CPU 0 instructions: 96000000 cycles: 111195991 heartbeat IPC: 0.669365 cumulative IPC: 0.816121 (Simulation time: 1 hr 7 min 8 sec) 
Heartbeat CPU 0 instructions: 97000001 cycles: 112691540 heartbeat IPC: 0.668651 cumulative IPC: 0.814057 (Simulation time: 1 hr 7 min 42 sec) 
Heartbeat CPU 0 instructions: 98000003 cycles: 114186900 heartbeat IPC: 0.668737 cumulative IPC: 0.812052 (Simulation time: 1 hr 8 min 15 sec) 
Heartbeat CPU 0 instructions: 99000000 cycles: 115676005 heartbeat IPC: 0.671542 cumulative IPC: 0.810147 (Simulation time: 1 hr 8 min 42 sec) 
Heartbeat CPU 0 instructions: 100000000 cycles: 117159400 heartbeat IPC: 0.674129 cumulative IPC: 0.808335 (Simulation time: 1 hr 9 min 9 sec) 
Heartbeat CPU 0 instructions: 101000000 cycles: 118642610 heartbeat IPC: 0.674213 cumulative IPC: 0.806572 (Simulation time: 1 hr 9 min 40 sec) 
Heartbeat CPU 0 instructions: 102000003 cycles: 120126195 heartbeat IPC: 0.674045 cumulative IPC: 0.804852 (Simulation time: 1 hr 10 min 10 sec) 
Heartbeat CPU 0 instructions: 103000003 cycles: 121622458 heartbeat IPC: 0.668332 cumulative IPC: 0.803088 (Simulation time: 1 hr 10 min 44 sec) 
Heartbeat CPU 0 instructions: 104000000 cycles: 123117126 heartbeat IPC: 0.669043 cumulative IPC: 0.80138 (Simulation time: 1 hr 11 min 10 sec) 
Heartbeat CPU 0 instructions: 105000000 cycles: 124611941 heartbeat IPC: 0.668979 cumulative IPC: 0.799714 (Simulation time: 1 hr 11 min 35 sec) 
Heartbeat CPU 0 instructions: 106000000 cycles: 126107004 heartbeat IPC: 0.668868 cumulative IPC: 0.798087 (Simulation time: 1 hr 12 min 0 sec) 
Heartbeat CPU 0 instructions: 107000000 cycles: 127602858 heartbeat IPC: 0.668514 cumulative IPC: 0.796496 (Simulation time: 1 hr 12 min 23 sec) 
Heartbeat CPU 0 instructions: 108000000 cycles: 129098437 heartbeat IPC: 0.668637 cumulative IPC: 0.794945 (Simulation time: 1 hr 12 min 47 sec) 
Heartbeat CPU 0 instructions: 109000003 cycles: 130581298 heartbeat IPC: 0.674374 cumulative IPC: 0.793512 (Simulation time: 1 hr 13 min 10 sec) 
Heartbeat CPU 0 instructions: 110000001 cycles: 132064501 heartbeat IPC: 0.674215 cumulative IPC: 0.79211 (Simulation time: 1 hr 13 min 30 sec) 
Finished CPU 0 instructions: 100000000 cycles: 126245073 cummulative IPC: 0.79211 (Simulation time: 1 hr 13 min 30 sec) 

ChampSim completed all CPUs

Region of Interest Statistics

CPU 0 cummulative IPC: 0.79211 instructions: 100000000 cycles: 126245073
LLC TOTAL     ACCESS:    1495389  HIT:     509296  MISS:     986093
LLC LOAD      ACCESS:      90226  HIT:      29649  MISS:      60577
LLC RFO       ACCESS:     219210  HIT:      60275  MISS:     158935
LLC PREFETCH  ACCESS:     749809  HIT:     159267  MISS:     590542
LLC WRITEBACK ACCESS:     436144  HIT:     260105  MISS:     176039
