
*** ChampSim Multicore Out-of-Order Simulator ***

Warmup Instructions: 10000000
Simulation Instructions: 100000000
Configuration: 2
Number of CPUs: 1
LLC sets: 2048
LLC ways: 16
Off-chip DRAM Channels: 1 Width: 64-bit Data Rate: 1600 MT/s

CPU 0 runs /datasets/cs240c-wi22-a00-public/data/Assignment2-gz/calculix_2655B.trace.gz
CPU 0 L1D next line prefetcher
CPU 0 L2C IP-based stride prefetcher
Heartbeat CPU 0 instructions: 1000003 cycles: 392389 heartbeat IPC: 2.5485 cumulative IPC: 2.5485 (Simulation time: 0 hr 0 min 28 sec) 
Heartbeat CPU 0 instructions: 2000001 cycles: 785151 heartbeat IPC: 2.54607 cumulative IPC: 2.54728 (Simulation time: 0 hr 0 min 51 sec) 
Heartbeat CPU 0 instructions: 3000002 cycles: 1177702 heartbeat IPC: 2.54744 cumulative IPC: 2.54734 (Simulation time: 0 hr 1 min 16 sec) 
Heartbeat CPU 0 instructions: 4000000 cycles: 1569472 heartbeat IPC: 2.55251 cumulative IPC: 2.54863 (Simulation time: 0 hr 1 min 39 sec) 
Heartbeat CPU 0 instructions: 5000003 cycles: 1961689 heartbeat IPC: 2.54962 cumulative IPC: 2.54883 (Simulation time: 0 hr 2 min 3 sec) 
Heartbeat CPU 0 instructions: 6000003 cycles: 2353830 heartbeat IPC: 2.5501 cumulative IPC: 2.54904 (Simulation time: 0 hr 2 min 24 sec) 
Heartbeat CPU 0 instructions: 7000002 cycles: 2745987 heartbeat IPC: 2.55 cumulative IPC: 2.54918 (Simulation time: 0 hr 2 min 46 sec) 
Heartbeat CPU 0 instructions: 8000000 cycles: 3138004 heartbeat IPC: 2.5509 cumulative IPC: 2.54939 (Simulation time: 0 hr 3 min 10 sec) 
Heartbeat CPU 0 instructions: 9000001 cycles: 3530187 heartbeat IPC: 2.54983 cumulative IPC: 2.54944 (Simulation time: 0 hr 3 min 34 sec) 
Heartbeat CPU 0 instructions: 10000000 cycles: 3921662 heartbeat IPC: 2.55444 cumulative IPC: 2.54994 (Simulation time: 0 hr 3 min 56 sec) 

Warmup complete CPU 0 instructions: 10000004 cycles: 3921663 (Simulation time: 0 hr 3 min 56 sec) 

Heartbeat CPU 0 instructions: 11000001 cycles: 4593342 heartbeat IPC: 1.48881 cumulative IPC: 1.4888 (Simulation time: 0 hr 4 min 26 sec) 
Heartbeat CPU 0 instructions: 12000000 cycles: 5259984 heartbeat IPC: 1.50005 cumulative IPC: 1.49441 (Simulation time: 0 hr 4 min 55 sec) 
Heartbeat CPU 0 instructions: 13000000 cycles: 5924034 heartbeat IPC: 1.50591 cumulative IPC: 1.49822 (Simulation time: 0 hr 5 min 23 sec) 
Heartbeat CPU 0 instructions: 14000003 cycles: 6584187 heartbeat IPC: 1.5148 cumulative IPC: 1.50233 (Simulation time: 0 hr 5 min 51 sec) 
Heartbeat CPU 0 instructions: 15000002 cycles: 7230253 heartbeat IPC: 1.54783 cumulative IPC: 1.51122 (Simulation time: 0 hr 6 min 16 sec) 
Heartbeat CPU 0 instructions: 16000000 cycles: 7938910 heartbeat IPC: 1.41112 cumulative IPC: 1.49356 (Simulation time: 0 hr 6 min 45 sec) 
Heartbeat CPU 0 instructions: 17000000 cycles: 8579880 heartbeat IPC: 1.56014 cumulative IPC: 1.50272 (Simulation time: 0 hr 7 min 12 sec) 
Heartbeat CPU 0 instructions: 18000000 cycles: 9214829 heartbeat IPC: 1.57493 cumulative IPC: 1.51138 (Simulation time: 0 hr 7 min 40 sec) 
Heartbeat CPU 0 instructions: 19000000 cycles: 9849572 heartbeat IPC: 1.57544 cumulative IPC: 1.51824 (Simulation time: 0 hr 8 min 10 sec) 
Heartbeat CPU 0 instructions: 20000000 cycles: 10491053 heartbeat IPC: 1.55889 cumulative IPC: 1.52221 (Simulation time: 0 hr 8 min 39 sec) 
Heartbeat CPU 0 instructions: 21000000 cycles: 11128827 heartbeat IPC: 1.56795 cumulative IPC: 1.52626 (Simulation time: 0 hr 9 min 7 sec) 
Heartbeat CPU 0 instructions: 22000001 cycles: 11830625 heartbeat IPC: 1.42491 cumulative IPC: 1.51727 (Simulation time: 0 hr 9 min 35 sec) 
Heartbeat CPU 0 instructions: 23000000 cycles: 12482852 heartbeat IPC: 1.53321 cumulative IPC: 1.51848 (Simulation time: 0 hr 10 min 5 sec) 
Heartbeat CPU 0 instructions: 24000000 cycles: 13127463 heartbeat IPC: 1.55132 cumulative IPC: 1.52078 (Simulation time: 0 hr 10 min 34 sec) 
Heartbeat CPU 0 instructions: 25000003 cycles: 13778565 heartbeat IPC: 1.53586 cumulative IPC: 1.52178 (Simulation time: 0 hr 11 min 6 sec) 
Heartbeat CPU 0 instructions: 26000001 cycles: 14415641 heartbeat IPC: 1.56967 cumulative IPC: 1.52468 (Simulation time: 0 hr 11 min 36 sec) 
Heartbeat CPU 0 instructions: 27000000 cycles: 15075166 heartbeat IPC: 1.51624 cumulative IPC: 1.52418 (Simulation time: 0 hr 12 min 6 sec) 
Heartbeat CPU 0 instructions: 28000000 cycles: 15752799 heartbeat IPC: 1.47573 cumulative IPC: 1.52141 (Simulation time: 0 hr 12 min 33 sec) 
Heartbeat CPU 0 instructions: 29000003 cycles: 16390103 heartbeat IPC: 1.56911 cumulative IPC: 1.52385 (Simulation time: 0 hr 12 min 59 sec) 
Heartbeat CPU 0 instructions: 30000001 cycles: 17037622 heartbeat IPC: 1.54435 cumulative IPC: 1.52486 (Simulation time: 0 hr 13 min 28 sec) 
Heartbeat CPU 0 instructions: 31000000 cycles: 17680130 heartbeat IPC: 1.5564 cumulative IPC: 1.52633 (Simulation time: 0 hr 13 min 55 sec) 
Heartbeat CPU 0 instructions: 32000000 cycles: 18305237 heartbeat IPC: 1.59973 cumulative IPC: 1.52952 (Simulation time: 0 hr 14 min 27 sec) 
Heartbeat CPU 0 instructions: 33000003 cycles: 18971853 heartbeat IPC: 1.50012 cumulative IPC: 1.52822 (Simulation time: 0 hr 14 min 53 sec) 
Heartbeat CPU 0 instructions: 34000002 cycles: 19671176 heartbeat IPC: 1.42995 cumulative IPC: 1.52386 (Simulation time: 0 hr 15 min 18 sec) 
Heartbeat CPU 0 instructions: 35000001 cycles: 20340957 heartbeat IPC: 1.49302 cumulative IPC: 1.5226 (Simulation time: 0 hr 15 min 51 sec) 
Heartbeat CPU 0 instructions: 36000000 cycles: 21000621 heartbeat IPC: 1.51592 cumulative IPC: 1.52234 (Simulation time: 0 hr 16 min 23 sec) 
Heartbeat CPU 0 instructions: 37000002 cycles: 21666887 heartbeat IPC: 1.50091 cumulative IPC: 1.52154 (Simulation time: 0 hr 16 min 53 sec) 
Heartbeat CPU 0 instructions: 38000002 cycles: 22314564 heartbeat IPC: 1.54398 cumulative IPC: 1.52233 (Simulation time: 0 hr 17 min 19 sec) 
Heartbeat CPU 0 instructions: 39000002 cycles: 23050853 heartbeat IPC: 1.35816 cumulative IPC: 1.51601 (Simulation time: 0 hr 17 min 53 sec) 
Heartbeat CPU 0 instructions: 40000000 cycles: 23558928 heartbeat IPC: 1.96821 cumulative IPC: 1.52771 (Simulation time: 0 hr 18 min 21 sec) 
Heartbeat CPU 0 instructions: 41000003 cycles: 24051118 heartbeat IPC: 2.03174 cumulative IPC: 1.54003 (Simulation time: 0 hr 18 min 49 sec) 
Heartbeat CPU 0 instructions: 42000001 cycles: 24574957 heartbeat IPC: 1.90898 cumulative IPC: 1.54939 (Simulation time: 0 hr 19 min 16 sec) 
Heartbeat CPU 0 instructions: 43000001 cycles: 25105117 heartbeat IPC: 1.88622 cumulative IPC: 1.55782 (Simulation time: 0 hr 19 min 41 sec) 
Heartbeat CPU 0 instructions: 44000000 cycles: 25824873 heartbeat IPC: 1.38936 cumulative IPC: 1.55228 (Simulation time: 0 hr 20 min 14 sec) 
Heartbeat CPU 0 instructions: 45000002 cycles: 26293495 heartbeat IPC: 2.13392 cumulative IPC: 1.56447 (Simulation time: 0 hr 20 min 42 sec) 
Heartbeat CPU 0 instructions: 46000003 cycles: 26816898 heartbeat IPC: 1.91058 cumulative IPC: 1.57238 (Simulation time: 0 hr 21 min 12 sec) 
Heartbeat CPU 0 instructions: 47000000 cycles: 27329389 heartbeat IPC: 1.95125 cumulative IPC: 1.58067 (Simulation time: 0 hr 21 min 46 sec) 
Heartbeat CPU 0 instructions: 48000000 cycles: 27882663 heartbeat IPC: 1.80742 cumulative IPC: 1.58591 (Simulation time: 0 hr 22 min 12 sec) 
Heartbeat CPU 0 instructions: 49000000 cycles: 28331329 heartbeat IPC: 2.22883 cumulative IPC: 1.59773 (Simulation time: 0 hr 22 min 43 sec) 
Heartbeat CPU 0 instructions: 50000002 cycles: 28817897 heartbeat IPC: 2.05522 cumulative IPC: 1.60667 (Simulation time: 0 hr 23 min 8 sec) 
Heartbeat CPU 0 instructions: 51000001 cycles: 29299910 heartbeat IPC: 2.07463 cumulative IPC: 1.61556 (Simulation time: 0 hr 23 min 35 sec) 
Heartbeat CPU 0 instructions: 52000000 cycles: 29735922 heartbeat IPC: 2.29351 cumulative IPC: 1.62701 (Simulation time: 0 hr 24 min 2 sec) 
Heartbeat CPU 0 instructions: 53000002 cycles: 30267921 heartbeat IPC: 1.87971 cumulative IPC: 1.63211 (Simulation time: 0 hr 24 min 33 sec) 
Heartbeat CPU 0 instructions: 54000002 cycles: 31070321 heartbeat IPC: 1.24626 cumulative IPC: 1.62071 (Simulation time: 0 hr 25 min 8 sec) 
Heartbeat CPU 0 instructions: 55000002 cycles: 31611639 heartbeat IPC: 1.84734 cumulative IPC: 1.62514 (Simulation time: 0 hr 25 min 35 sec) 
Heartbeat CPU 0 instructions: 56000000 cycles: 32098773 heartbeat IPC: 2.05282 cumulative IPC: 1.63253 (Simulation time: 0 hr 26 min 5 sec) 
Heartbeat CPU 0 instructions: 57000000 cycles: 32642069 heartbeat IPC: 1.84062 cumulative IPC: 1.63647 (Simulation time: 0 hr 26 min 34 sec) 
Heartbeat CPU 0 instructions: 58000003 cycles: 33092722 heartbeat IPC: 2.21901 cumulative IPC: 1.64547 (Simulation time: 0 hr 27 min 2 sec) 
Heartbeat CPU 0 instructions: 59000001 cycles: 33625844 heartbeat IPC: 1.87574 cumulative IPC: 1.6496 (Simulation time: 0 hr 27 min 31 sec) 
Heartbeat CPU 0 instructions: 60000000 cycles: 34108643 heartbeat IPC: 2.07125 cumulative IPC: 1.65634 (Simulation time: 0 hr 28 min 1 sec) 
Heartbeat CPU 0 instructions: 61000002 cycles: 34625171 heartbeat IPC: 1.93601 cumulative IPC: 1.66105 (Simulation time: 0 hr 28 min 31 sec) 
Heartbeat CPU 0 instructions: 62000003 cycles: 35149474 heartbeat IPC: 1.9073 cumulative IPC: 1.66518 (Simulation time: 0 hr 28 min 58 sec) 
Heartbeat CPU 0 instructions: 63000003 cycles: 35832019 heartbeat IPC: 1.4651 cumulative IPC: 1.6609 (Simulation time: 0 hr 29 min 26 sec) 
Heartbeat CPU 0 instructions: 64000000 cycles: 36324594 heartbeat IPC: 2.03014 cumulative IPC: 1.66652 (Simulation time: 0 hr 29 min 53 sec) 
Heartbeat CPU 0 instructions: 65000001 cycles: 36853637 heartbeat IPC: 1.89021 cumulative IPC: 1.67011 (Simulation time: 0 hr 30 min 18 sec) 
Heartbeat CPU 0 instructions: 66000001 cycles: 37509334 heartbeat IPC: 1.52509 cumulative IPC: 1.66728 (Simulation time: 0 hr 30 min 44 sec) 
Heartbeat CPU 0 instructions: 67000003 cycles: 38099632 heartbeat IPC: 1.69406 cumulative IPC: 1.66774 (Simulation time: 0 hr 31 min 12 sec) 
Heartbeat CPU 0 instructions: 68000000 cycles: 38679839 heartbeat IPC: 1.72352 cumulative IPC: 1.66867 (Simulation time: 0 hr 31 min 39 sec) 
Heartbeat CPU 0 instructions: 69000001 cycles: 39252704 heartbeat IPC: 1.74561 cumulative IPC: 1.66992 (Simulation time: 0 hr 32 min 4 sec) 
Heartbeat CPU 0 instructions: 70000002 cycles: 39835688 heartbeat IPC: 1.71531 cumulative IPC: 1.67066 (Simulation time: 0 hr 32 min 36 sec) 
Heartbeat CPU 0 instructions: 71000003 cycles: 40412859 heartbeat IPC: 1.73259 cumulative IPC: 1.67164 (Simulation time: 0 hr 33 min 7 sec) 
Heartbeat CPU 0 instructions: 72000000 cycles: 40993836 heartbeat IPC: 1.72123 cumulative IPC: 1.67241 (Simulation time: 0 hr 33 min 38 sec) 
Heartbeat CPU 0 instructions: 73000000 cycles: 41578124 heartbeat IPC: 1.71148 cumulative IPC: 1.67302 (Simulation time: 0 hr 34 min 3 sec) 
Heartbeat CPU 0 instructions: 74000000 cycles: 42153343 heartbeat IPC: 1.73847 cumulative IPC: 1.674 (Simulation time: 0 hr 34 min 29 sec) 
Heartbeat CPU 0 instructions: 75000000 cycles: 42795058 heartbeat IPC: 1.55832 cumulative IPC: 1.67209 (Simulation time: 0 hr 34 min 57 sec) 
Heartbeat CPU 0 instructions: 76000000 cycles: 43395368 heartbeat IPC: 1.66581 cumulative IPC: 1.672 (Simulation time: 0 hr 35 min 25 sec) 
Heartbeat CPU 0 instructions: 77000003 cycles: 43995320 heartbeat IPC: 1.66681 cumulative IPC: 1.67192 (Simulation time: 0 hr 35 min 52 sec) 
Heartbeat CPU 0 instructions: 78000002 cycles: 44591494 heartbeat IPC: 1.67736 cumulative IPC: 1.672 (Simulation time: 0 hr 36 min 19 sec) 
Heartbeat CPU 0 instructions: 79000001 cycles: 45177544 heartbeat IPC: 1.70634 cumulative IPC: 1.67249 (Simulation time: 0 hr 36 min 49 sec) 
Heartbeat CPU 0 instructions: 80000000 cycles: 45771069 heartbeat IPC: 1.68485 cumulative IPC: 1.67266 (Simulation time: 0 hr 37 min 15 sec) 
Heartbeat CPU 0 instructions: 81000001 cycles: 46360983 heartbeat IPC: 1.69516 cumulative IPC: 1.67298 (Simulation time: 0 hr 37 min 42 sec) 
Heartbeat CPU 0 instructions: 82000003 cycles: 46943505 heartbeat IPC: 1.71668 cumulative IPC: 1.67357 (Simulation time: 0 hr 38 min 11 sec) 
Heartbeat CPU 0 instructions: 83000003 cycles: 47527797 heartbeat IPC: 1.71147 cumulative IPC: 1.67408 (Simulation time: 0 hr 38 min 39 sec) 
Heartbeat CPU 0 instructions: 84000000 cycles: 48146224 heartbeat IPC: 1.617 cumulative IPC: 1.67328 (Simulation time: 0 hr 39 min 10 sec) 
Heartbeat CPU 0 instructions: 85000002 cycles: 48695866 heartbeat IPC: 1.81937 cumulative IPC: 1.67507 (Simulation time: 0 hr 39 min 37 sec) 
Heartbeat CPU 0 instructions: 86000001 cycles: 49411179 heartbeat IPC: 1.39799 cumulative IPC: 1.67071 (Simulation time: 0 hr 40 min 5 sec) 
Heartbeat CPU 0 instructions: 87000001 cycles: 50008874 heartbeat IPC: 1.67309 cumulative IPC: 1.67075 (Simulation time: 0 hr 40 min 32 sec) 
Heartbeat CPU 0 instructions: 88000000 cycles: 50483059 heartbeat IPC: 2.10888 cumulative IPC: 1.67521 (Simulation time: 0 hr 41 min 1 sec) 
Heartbeat CPU 0 instructions: 89000000 cycles: 50948036 heartbeat IPC: 2.15064 cumulative IPC: 1.67991 (Simulation time: 0 hr 41 min 30 sec) 
Heartbeat CPU 0 instructions: 90000001 cycles: 51420186 heartbeat IPC: 2.11797 cumulative IPC: 1.68426 (Simulation time: 0 hr 41 min 58 sec) 
Heartbeat CPU 0 instructions: 91000002 cycles: 51972737 heartbeat IPC: 1.80979 cumulative IPC: 1.68571 (Simulation time: 0 hr 42 min 24 sec) 
Heartbeat CPU 0 instructions: 92000000 cycles: 52505096 heartbeat IPC: 1.87843 cumulative IPC: 1.68782 (Simulation time: 0 hr 42 min 52 sec) 
Heartbeat CPU 0 instructions: 93000000 cycles: 53042447 heartbeat IPC: 1.86098 cumulative IPC: 1.68971 (Simulation time: 0 hr 43 min 21 sec) 
Heartbeat CPU 0 instructions: 94000003 cycles: 53559872 heartbeat IPC: 1.93265 cumulative IPC: 1.69224 (Simulation time: 0 hr 43 min 52 sec) 
Heartbeat CPU 0 instructions: 95000003 cycles: 54111984 heartbeat IPC: 1.81123 cumulative IPC: 1.69355 (Simulation time: 0 hr 44 min 21 sec) 
Heartbeat CPU 0 instructions: 96000000 cycles: 54593659 heartbeat IPC: 2.07608 cumulative IPC: 1.69719 (Simulation time: 0 hr 44 min 47 sec) 
Heartbeat CPU 0 instructions: 97000002 cycles: 55088368 heartbeat IPC: 2.02139 cumulative IPC: 1.70032 (Simulation time: 0 hr 45 min 12 sec) 
Heartbeat CPU 0 instructions: 98000001 cycles: 55563884 heartbeat IPC: 2.10298 cumulative IPC: 1.70403 (Simulation time: 0 hr 45 min 39 sec) 
Heartbeat CPU 0 instructions: 99000001 cycles: 56114171 heartbeat IPC: 1.81723 cumulative IPC: 1.70523 (Simulation time: 0 hr 46 min 5 sec) 
Heartbeat CPU 0 instructions: 100000000 cycles: 56605015 heartbeat IPC: 2.03731 cumulative IPC: 1.70832 (Simulation time: 0 hr 46 min 32 sec) 
Heartbeat CPU 0 instructions: 101000001 cycles: 57093775 heartbeat IPC: 2.046 cumulative IPC: 1.71142 (Simulation time: 0 hr 46 min 59 sec) 
Heartbeat CPU 0 instructions: 102000003 cycles: 57565684 heartbeat IPC: 2.11906 cumulative IPC: 1.71501 (Simulation time: 0 hr 47 min 26 sec) 
Heartbeat CPU 0 instructions: 103000003 cycles: 58103399 heartbeat IPC: 1.85972 cumulative IPC: 1.71645 (Simulation time: 0 hr 47 min 55 sec) 
Heartbeat CPU 0 instructions: 104000000 cycles: 58663241 heartbeat IPC: 1.78621 cumulative IPC: 1.71716 (Simulation time: 0 hr 48 min 25 sec) 
Heartbeat CPU 0 instructions: 105000001 cycles: 59090436 heartbeat IPC: 2.34085 cumulative IPC: 1.72199 (Simulation time: 0 hr 48 min 55 sec) 
Heartbeat CPU 0 instructions: 106000002 cycles: 59538994 heartbeat IPC: 2.22937 cumulative IPC: 1.72608 (Simulation time: 0 hr 49 min 23 sec) 
Heartbeat CPU 0 instructions: 107000001 cycles: 59991353 heartbeat IPC: 2.21063 cumulative IPC: 1.72999 (Simulation time: 0 hr 49 min 53 sec) 
Heartbeat CPU 0 instructions: 108000000 cycles: 60410353 heartbeat IPC: 2.38663 cumulative IPC: 1.73486 (Simulation time: 0 hr 50 min 17 sec) 
Heartbeat CPU 0 instructions: 109000000 cycles: 60887887 heartbeat IPC: 2.09409 cumulative IPC: 1.73787 (Simulation time: 0 hr 50 min 42 sec) 
Heartbeat CPU 0 instructions: 110000000 cycles: 61306598 heartbeat IPC: 2.38828 cumulative IPC: 1.74262 (Simulation time: 0 hr 51 min 10 sec) 
Finished CPU 0 instructions: 100000000 cycles: 57384936 cummulative IPC: 1.74262 (Simulation time: 0 hr 51 min 10 sec) 

ChampSim completed all CPUs

Region of Interest Statistics

CPU 0 cummulative IPC: 1.74262 instructions: 100000000 cycles: 57384936
LLC TOTAL     ACCESS:     865127  HIT:     195568  MISS:     669559
LLC LOAD      ACCESS:     110531  HIT:      90553  MISS:      19978
LLC RFO       ACCESS:        413  HIT:        407  MISS:          6
LLC PREFETCH  ACCESS:     655872  HIT:      48918  MISS:     606954
LLC WRITEBACK ACCESS:      98311  HIT:      55690  MISS:      42621
