
*** ChampSim Multicore Out-of-Order Simulator ***

Warmup Instructions: 10000000
Simulation Instructions: 100000000
Configuration: 2
Number of CPUs: 1
LLC sets: 2048
LLC ways: 16
Off-chip DRAM Channels: 1 Width: 64-bit Data Rate: 1600 MT/s

CPU 0 runs /datasets/cs240c-wi22-a00-public/data/Assignment2-gz/omnetpp_340B.trace.gz
CPU 0 L1D next line prefetcher
CPU 0 L2C IP-based stride prefetcher
Heartbeat CPU 0 instructions: 1000001 cycles: 576928 heartbeat IPC: 1.73332 cumulative IPC: 1.73332 (Simulation time: 0 hr 0 min 45 sec) 
Heartbeat CPU 0 instructions: 2000000 cycles: 1160856 heartbeat IPC: 1.71254 cumulative IPC: 1.72287 (Simulation time: 0 hr 1 min 27 sec) 
Heartbeat CPU 0 instructions: 3000001 cycles: 1758114 heartbeat IPC: 1.67432 cumulative IPC: 1.70637 (Simulation time: 0 hr 2 min 10 sec) 
Heartbeat CPU 0 instructions: 4000000 cycles: 2379108 heartbeat IPC: 1.61032 cumulative IPC: 1.6813 (Simulation time: 0 hr 2 min 58 sec) 
Heartbeat CPU 0 instructions: 5000002 cycles: 2954458 heartbeat IPC: 1.73808 cumulative IPC: 1.69236 (Simulation time: 0 hr 3 min 45 sec) 
Heartbeat CPU 0 instructions: 6000003 cycles: 3555895 heartbeat IPC: 1.66269 cumulative IPC: 1.68734 (Simulation time: 0 hr 4 min 33 sec) 
Heartbeat CPU 0 instructions: 7000003 cycles: 4205360 heartbeat IPC: 1.53973 cumulative IPC: 1.66454 (Simulation time: 0 hr 5 min 22 sec) 
Heartbeat CPU 0 instructions: 8000000 cycles: 4800044 heartbeat IPC: 1.68156 cumulative IPC: 1.66665 (Simulation time: 0 hr 6 min 8 sec) 
Heartbeat CPU 0 instructions: 9000002 cycles: 5433207 heartbeat IPC: 1.57938 cumulative IPC: 1.65648 (Simulation time: 0 hr 6 min 53 sec) 
Heartbeat CPU 0 instructions: 10000002 cycles: 6027869 heartbeat IPC: 1.68163 cumulative IPC: 1.65896 (Simulation time: 0 hr 7 min 43 sec) 

Warmup complete CPU 0 instructions: 10000002 cycles: 6027869 (Simulation time: 0 hr 7 min 43 sec) 

Heartbeat CPU 0 instructions: 11000000 cycles: 9604556 heartbeat IPC: 0.279588 cumulative IPC: 0.279588 (Simulation time: 0 hr 8 min 39 sec) 
Heartbeat CPU 0 instructions: 12000000 cycles: 13154422 heartbeat IPC: 0.281701 cumulative IPC: 0.28064 (Simulation time: 0 hr 9 min 33 sec) 
Heartbeat CPU 0 instructions: 13000000 cycles: 16924823 heartbeat IPC: 0.265224 cumulative IPC: 0.275306 (Simulation time: 0 hr 10 min 30 sec) 
Heartbeat CPU 0 instructions: 14000001 cycles: 20758769 heartbeat IPC: 0.260828 cumulative IPC: 0.271538 (Simulation time: 0 hr 11 min 22 sec) 
Heartbeat CPU 0 instructions: 15000003 cycles: 24777170 heartbeat IPC: 0.248856 cumulative IPC: 0.266677 (Simulation time: 0 hr 12 min 22 sec) 
Heartbeat CPU 0 instructions: 16000000 cycles: 28976618 heartbeat IPC: 0.238126 cumulative IPC: 0.261452 (Simulation time: 0 hr 13 min 28 sec) 
Heartbeat CPU 0 instructions: 17000000 cycles: 32748516 heartbeat IPC: 0.265119 cumulative IPC: 0.26197 (Simulation time: 0 hr 14 min 25 sec) 
Heartbeat CPU 0 instructions: 18000000 cycles: 36689540 heartbeat IPC: 0.253741 cumulative IPC: 0.260912 (Simulation time: 0 hr 15 min 19 sec) 
Heartbeat CPU 0 instructions: 19000000 cycles: 40966683 heartbeat IPC: 0.233801 cumulative IPC: 0.257593 (Simulation time: 0 hr 16 min 17 sec) 
Heartbeat CPU 0 instructions: 20000000 cycles: 45109923 heartbeat IPC: 0.241357 cumulative IPC: 0.255872 (Simulation time: 0 hr 17 min 13 sec) 
Heartbeat CPU 0 instructions: 21000000 cycles: 48607612 heartbeat IPC: 0.285903 cumulative IPC: 0.258339 (Simulation time: 0 hr 18 min 2 sec) 
Heartbeat CPU 0 instructions: 22000001 cycles: 52420956 heartbeat IPC: 0.262237 cumulative IPC: 0.258659 (Simulation time: 0 hr 18 min 59 sec) 
Heartbeat CPU 0 instructions: 23000001 cycles: 56194827 heartbeat IPC: 0.26498 cumulative IPC: 0.259135 (Simulation time: 0 hr 20 min 4 sec) 
Heartbeat CPU 0 instructions: 24000000 cycles: 60000678 heartbeat IPC: 0.262753 cumulative IPC: 0.25939 (Simulation time: 0 hr 21 min 3 sec) 
Heartbeat CPU 0 instructions: 25000000 cycles: 63832492 heartbeat IPC: 0.260973 cumulative IPC: 0.259495 (Simulation time: 0 hr 21 min 58 sec) 
Heartbeat CPU 0 instructions: 26000001 cycles: 67737128 heartbeat IPC: 0.256106 cumulative IPC: 0.25928 (Simulation time: 0 hr 22 min 56 sec) 
Heartbeat CPU 0 instructions: 27000000 cycles: 71806674 heartbeat IPC: 0.245727 cumulative IPC: 0.258442 (Simulation time: 0 hr 23 min 49 sec) 
Heartbeat CPU 0 instructions: 28000000 cycles: 75888203 heartbeat IPC: 0.245006 cumulative IPC: 0.257657 (Simulation time: 0 hr 25 min 5 sec) 
Heartbeat CPU 0 instructions: 29000003 cycles: 79960228 heartbeat IPC: 0.245579 cumulative IPC: 0.256992 (Simulation time: 0 hr 26 min 8 sec) 
Heartbeat CPU 0 instructions: 30000000 cycles: 83649211 heartbeat IPC: 0.271077 cumulative IPC: 0.257661 (Simulation time: 0 hr 27 min 5 sec) 
Heartbeat CPU 0 instructions: 31000000 cycles: 87506789 heartbeat IPC: 0.25923 cumulative IPC: 0.257735 (Simulation time: 0 hr 28 min 5 sec) 
Heartbeat CPU 0 instructions: 32000000 cycles: 91214232 heartbeat IPC: 0.269728 cumulative IPC: 0.258257 (Simulation time: 0 hr 28 min 58 sec) 
Heartbeat CPU 0 instructions: 33000003 cycles: 94928499 heartbeat IPC: 0.269233 cumulative IPC: 0.258716 (Simulation time: 0 hr 30 min 0 sec) 
Heartbeat CPU 0 instructions: 34000001 cycles: 99108411 heartbeat IPC: 0.239239 cumulative IPC: 0.257841 (Simulation time: 0 hr 30 min 53 sec) 
Heartbeat CPU 0 instructions: 35000002 cycles: 102689619 heartbeat IPC: 0.279236 cumulative IPC: 0.258634 (Simulation time: 0 hr 31 min 50 sec) 
Heartbeat CPU 0 instructions: 36000000 cycles: 106980167 heartbeat IPC: 0.23307 cumulative IPC: 0.257547 (Simulation time: 0 hr 32 min 47 sec) 
Heartbeat CPU 0 instructions: 37000000 cycles: 111231609 heartbeat IPC: 0.235214 cumulative IPC: 0.256645 (Simulation time: 0 hr 33 min 46 sec) 
Heartbeat CPU 0 instructions: 38000000 cycles: 115029155 heartbeat IPC: 0.263328 cumulative IPC: 0.256878 (Simulation time: 0 hr 34 min 42 sec) 
Heartbeat CPU 0 instructions: 39000001 cycles: 119224412 heartbeat IPC: 0.238365 cumulative IPC: 0.256192 (Simulation time: 0 hr 35 min 37 sec) 
Heartbeat CPU 0 instructions: 40000000 cycles: 122748354 heartbeat IPC: 0.283773 cumulative IPC: 0.257024 (Simulation time: 0 hr 36 min 31 sec) 
Heartbeat CPU 0 instructions: 41000000 cycles: 126397289 heartbeat IPC: 0.274053 cumulative IPC: 0.25754 (Simulation time: 0 hr 37 min 27 sec) 
Heartbeat CPU 0 instructions: 42000001 cycles: 130492195 heartbeat IPC: 0.244206 cumulative IPC: 0.257102 (Simulation time: 0 hr 38 min 18 sec) 
Heartbeat CPU 0 instructions: 43000001 cycles: 134592809 heartbeat IPC: 0.243866 cumulative IPC: 0.25668 (Simulation time: 0 hr 39 min 9 sec) 
Heartbeat CPU 0 instructions: 44000000 cycles: 138295516 heartbeat IPC: 0.270072 cumulative IPC: 0.257055 (Simulation time: 0 hr 40 min 1 sec) 
Heartbeat CPU 0 instructions: 45000003 cycles: 142196796 heartbeat IPC: 0.256327 cumulative IPC: 0.257034 (Simulation time: 0 hr 40 min 52 sec) 
Heartbeat CPU 0 instructions: 46000003 cycles: 146244216 heartbeat IPC: 0.247071 cumulative IPC: 0.256746 (Simulation time: 0 hr 41 min 51 sec) 
Heartbeat CPU 0 instructions: 47000000 cycles: 149382586 heartbeat IPC: 0.318636 cumulative IPC: 0.258101 (Simulation time: 0 hr 42 min 43 sec) 
Heartbeat CPU 0 instructions: 48000000 cycles: 153376170 heartbeat IPC: 0.250402 cumulative IPC: 0.257892 (Simulation time: 0 hr 43 min 44 sec) 
Heartbeat CPU 0 instructions: 49000000 cycles: 156385418 heartbeat IPC: 0.332309 cumulative IPC: 0.259382 (Simulation time: 0 hr 44 min 29 sec) 
Heartbeat CPU 0 instructions: 50000001 cycles: 160482605 heartbeat IPC: 0.24407 cumulative IPC: 0.258976 (Simulation time: 0 hr 45 min 23 sec) 
Heartbeat CPU 0 instructions: 51000003 cycles: 164223509 heartbeat IPC: 0.267316 cumulative IPC: 0.259173 (Simulation time: 0 hr 46 min 17 sec) 
Heartbeat CPU 0 instructions: 52000000 cycles: 168220329 heartbeat IPC: 0.250198 cumulative IPC: 0.258952 (Simulation time: 0 hr 47 min 21 sec) 
Heartbeat CPU 0 instructions: 53000000 cycles: 172682329 heartbeat IPC: 0.224115 cumulative IPC: 0.258019 (Simulation time: 0 hr 48 min 20 sec) 
Heartbeat CPU 0 instructions: 54000002 cycles: 176767497 heartbeat IPC: 0.244788 cumulative IPC: 0.257702 (Simulation time: 0 hr 49 min 14 sec) 
Heartbeat CPU 0 instructions: 55000001 cycles: 180658096 heartbeat IPC: 0.25703 cumulative IPC: 0.257687 (Simulation time: 0 hr 50 min 14 sec) 
Heartbeat CPU 0 instructions: 56000000 cycles: 184993544 heartbeat IPC: 0.230656 cumulative IPC: 0.257033 (Simulation time: 0 hr 51 min 14 sec) 
Heartbeat CPU 0 instructions: 57000001 cycles: 189062047 heartbeat IPC: 0.245791 cumulative IPC: 0.256783 (Simulation time: 0 hr 52 min 11 sec) 
Heartbeat CPU 0 instructions: 58000000 cycles: 192426127 heartbeat IPC: 0.297258 cumulative IPC: 0.257513 (Simulation time: 0 hr 53 min 8 sec) 
Heartbeat CPU 0 instructions: 59000003 cycles: 196366084 heartbeat IPC: 0.253811 cumulative IPC: 0.257436 (Simulation time: 0 hr 54 min 4 sec) 
Heartbeat CPU 0 instructions: 60000000 cycles: 200776417 heartbeat IPC: 0.22674 cumulative IPC: 0.256741 (Simulation time: 0 hr 55 min 11 sec) 
Heartbeat CPU 0 instructions: 61000001 cycles: 205128582 heartbeat IPC: 0.229771 cumulative IPC: 0.256152 (Simulation time: 0 hr 56 min 14 sec) 
Heartbeat CPU 0 instructions: 62000000 cycles: 209579862 heartbeat IPC: 0.224654 cumulative IPC: 0.255463 (Simulation time: 0 hr 57 min 18 sec) 
Heartbeat CPU 0 instructions: 63000001 cycles: 213337406 heartbeat IPC: 0.266132 cumulative IPC: 0.255656 (Simulation time: 0 hr 58 min 17 sec) 
Heartbeat CPU 0 instructions: 64000000 cycles: 217207674 heartbeat IPC: 0.25838 cumulative IPC: 0.255706 (Simulation time: 0 hr 59 min 7 sec) 
Heartbeat CPU 0 instructions: 65000001 cycles: 220685334 heartbeat IPC: 0.28755 cumulative IPC: 0.256222 (Simulation time: 0 hr 59 min 59 sec) 
Heartbeat CPU 0 instructions: 66000002 cycles: 224641036 heartbeat IPC: 0.2528 cumulative IPC: 0.25616 (Simulation time: 1 hr 0 min 48 sec) 
Heartbeat CPU 0 instructions: 67000002 cycles: 228524865 heartbeat IPC: 0.257478 cumulative IPC: 0.256183 (Simulation time: 1 hr 1 min 41 sec) 
Heartbeat CPU 0 instructions: 68000000 cycles: 232361507 heartbeat IPC: 0.260644 cumulative IPC: 0.256259 (Simulation time: 1 hr 2 min 30 sec) 
Heartbeat CPU 0 instructions: 69000000 cycles: 236317510 heartbeat IPC: 0.25278 cumulative IPC: 0.256199 (Simulation time: 1 hr 3 min 16 sec) 
Heartbeat CPU 0 instructions: 70000001 cycles: 239804946 heartbeat IPC: 0.286744 cumulative IPC: 0.256655 (Simulation time: 1 hr 3 min 56 sec) 
Heartbeat CPU 0 instructions: 71000003 cycles: 243707476 heartbeat IPC: 0.256245 cumulative IPC: 0.256648 (Simulation time: 1 hr 4 min 55 sec) 
Heartbeat CPU 0 instructions: 72000000 cycles: 248158051 heartbeat IPC: 0.224689 cumulative IPC: 0.256061 (Simulation time: 1 hr 5 min 46 sec) 
Heartbeat CPU 0 instructions: 73000002 cycles: 252172746 heartbeat IPC: 0.249085 cumulative IPC: 0.255947 (Simulation time: 1 hr 6 min 29 sec) 
Heartbeat CPU 0 instructions: 74000000 cycles: 256002998 heartbeat IPC: 0.261079 cumulative IPC: 0.256025 (Simulation time: 1 hr 7 min 12 sec) 
Heartbeat CPU 0 instructions: 75000003 cycles: 260074363 heartbeat IPC: 0.245619 cumulative IPC: 0.255859 (Simulation time: 1 hr 7 min 52 sec) 
Heartbeat CPU 0 instructions: 76000000 cycles: 263937183 heartbeat IPC: 0.258877 cumulative IPC: 0.255904 (Simulation time: 1 hr 8 min 32 sec) 
Heartbeat CPU 0 instructions: 77000002 cycles: 268528148 heartbeat IPC: 0.21782 cumulative IPC: 0.255238 (Simulation time: 1 hr 9 min 11 sec) 
Heartbeat CPU 0 instructions: 78000003 cycles: 272400398 heartbeat IPC: 0.258248 cumulative IPC: 0.255282 (Simulation time: 1 hr 9 min 44 sec) 
Heartbeat CPU 0 instructions: 79000002 cycles: 276306289 heartbeat IPC: 0.256023 cumulative IPC: 0.255292 (Simulation time: 1 hr 10 min 17 sec) 
Heartbeat CPU 0 instructions: 80000000 cycles: 280187613 heartbeat IPC: 0.257644 cumulative IPC: 0.255326 (Simulation time: 1 hr 10 min 51 sec) 
Heartbeat CPU 0 instructions: 81000002 cycles: 284380326 heartbeat IPC: 0.23851 cumulative IPC: 0.255072 (Simulation time: 1 hr 11 min 24 sec) 
Heartbeat CPU 0 instructions: 82000000 cycles: 288757086 heartbeat IPC: 0.228479 cumulative IPC: 0.254661 (Simulation time: 1 hr 11 min 56 sec) 
Heartbeat CPU 0 instructions: 83000002 cycles: 292527988 heartbeat IPC: 0.265189 cumulative IPC: 0.254799 (Simulation time: 1 hr 12 min 27 sec) 
Heartbeat CPU 0 instructions: 84000000 cycles: 296509751 heartbeat IPC: 0.251145 cumulative IPC: 0.254749 (Simulation time: 1 hr 12 min 54 sec) 
Heartbeat CPU 0 instructions: 85000000 cycles: 300232353 heartbeat IPC: 0.268629 cumulative IPC: 0.254925 (Simulation time: 1 hr 13 min 20 sec) 
Heartbeat CPU 0 instructions: 86000000 cycles: 304161107 heartbeat IPC: 0.254534 cumulative IPC: 0.25492 (Simulation time: 1 hr 13 min 45 sec) 
Heartbeat CPU 0 instructions: 87000001 cycles: 307958236 heartbeat IPC: 0.263357 cumulative IPC: 0.255026 (Simulation time: 1 hr 14 min 8 sec) 
Heartbeat CPU 0 instructions: 88000000 cycles: 311776221 heartbeat IPC: 0.261918 cumulative IPC: 0.255112 (Simulation time: 1 hr 14 min 31 sec) 
Heartbeat CPU 0 instructions: 89000003 cycles: 315255412 heartbeat IPC: 0.287424 cumulative IPC: 0.255475 (Simulation time: 1 hr 14 min 52 sec) 
Heartbeat CPU 0 instructions: 90000000 cycles: 319066473 heartbeat IPC: 0.262393 cumulative IPC: 0.25556 (Simulation time: 1 hr 15 min 12 sec) 
Heartbeat CPU 0 instructions: 91000001 cycles: 322568676 heartbeat IPC: 0.285535 cumulative IPC: 0.255891 (Simulation time: 1 hr 15 min 33 sec) 
Heartbeat CPU 0 instructions: 92000000 cycles: 326613012 heartbeat IPC: 0.247259 cumulative IPC: 0.255782 (Simulation time: 1 hr 15 min 52 sec) 
Heartbeat CPU 0 instructions: 93000001 cycles: 331084183 heartbeat IPC: 0.223655 cumulative IPC: 0.25534 (Simulation time: 1 hr 16 min 12 sec) 
Heartbeat CPU 0 instructions: 94000001 cycles: 334907183 heartbeat IPC: 0.261575 cumulative IPC: 0.255413 (Simulation time: 1 hr 16 min 29 sec) 
Heartbeat CPU 0 instructions: 95000000 cycles: 338891763 heartbeat IPC: 0.250967 cumulative IPC: 0.25536 (Simulation time: 1 hr 16 min 46 sec) 
Heartbeat CPU 0 instructions: 96000000 cycles: 343323310 heartbeat IPC: 0.225655 cumulative IPC: 0.254969 (Simulation time: 1 hr 17 min 2 sec) 
Heartbeat CPU 0 instructions: 97000000 cycles: 346983631 heartbeat IPC: 0.2732 cumulative IPC: 0.255165 (Simulation time: 1 hr 17 min 16 sec) 
Heartbeat CPU 0 instructions: 98000000 cycles: 351238912 heartbeat IPC: 0.235002 cumulative IPC: 0.254917 (Simulation time: 1 hr 17 min 29 sec) 
Heartbeat CPU 0 instructions: 99000000 cycles: 355651771 heartbeat IPC: 0.22661 cumulative IPC: 0.254559 (Simulation time: 1 hr 17 min 40 sec) 
Heartbeat CPU 0 instructions: 100000000 cycles: 359779094 heartbeat IPC: 0.242288 cumulative IPC: 0.254416 (Simulation time: 1 hr 17 min 50 sec) 
Heartbeat CPU 0 instructions: 101000000 cycles: 363757521 heartbeat IPC: 0.251356 cumulative IPC: 0.254382 (Simulation time: 1 hr 18 min 0 sec) 
Heartbeat CPU 0 instructions: 102000003 cycles: 367807735 heartbeat IPC: 0.246901 cumulative IPC: 0.254298 (Simulation time: 1 hr 18 min 9 sec) 
Heartbeat CPU 0 instructions: 103000000 cycles: 371690923 heartbeat IPC: 0.25752 cumulative IPC: 0.254333 (Simulation time: 1 hr 18 min 18 sec) 
Heartbeat CPU 0 instructions: 104000000 cycles: 375479860 heartbeat IPC: 0.263926 cumulative IPC: 0.254431 (Simulation time: 1 hr 18 min 26 sec) 
Heartbeat CPU 0 instructions: 105000003 cycles: 379464637 heartbeat IPC: 0.250956 cumulative IPC: 0.254394 (Simulation time: 1 hr 18 min 34 sec) 
Heartbeat CPU 0 instructions: 106000001 cycles: 382996785 heartbeat IPC: 0.283113 cumulative IPC: 0.254663 (Simulation time: 1 hr 18 min 41 sec) 
Heartbeat CPU 0 instructions: 107000000 cycles: 387175716 heartbeat IPC: 0.239295 cumulative IPC: 0.254494 (Simulation time: 1 hr 18 min 49 sec) 
Heartbeat CPU 0 instructions: 108000000 cycles: 391204797 heartbeat IPC: 0.248196 cumulative IPC: 0.254429 (Simulation time: 1 hr 18 min 57 sec) 
Heartbeat CPU 0 instructions: 109000000 cycles: 395667549 heartbeat IPC: 0.224077 cumulative IPC: 0.254081 (Simulation time: 1 hr 19 min 5 sec) 
Heartbeat CPU 0 instructions: 110000000 cycles: 399334153 heartbeat IPC: 0.272732 cumulative IPC: 0.254255 (Simulation time: 1 hr 19 min 12 sec) 
Finished CPU 0 instructions: 100000000 cycles: 393306288 cummulative IPC: 0.254255 (Simulation time: 1 hr 19 min 12 sec) 

ChampSim completed all CPUs

Region of Interest Statistics

CPU 0 cummulative IPC: 0.254255 instructions: 100000000 cycles: 393306288
LLC TOTAL     ACCESS:    4309245  HIT:    1362376  MISS:    2946869
LLC LOAD      ACCESS:    1523638  HIT:     444210  MISS:    1079428
LLC RFO       ACCESS:     249844  HIT:      82285  MISS:     167559
LLC PREFETCH  ACCESS:    1529749  HIT:     145604  MISS:    1384145
LLC WRITEBACK ACCESS:    1006014  HIT:     690277  MISS:     315737
