
*** ChampSim Multicore Out-of-Order Simulator ***

Warmup Instructions: 10000000
Simulation Instructions: 100000000
Configuration: 2
Number of CPUs: 1
LLC sets: 2048
LLC ways: 16
Off-chip DRAM Channels: 1 Width: 64-bit Data Rate: 1600 MT/s

CPU 0 runs /datasets/cs240c-wi22-a00-public/data/Assignment2-gz/soplex_66B.trace.gz
CPU 0 L1D next line prefetcher
CPU 0 L2C IP-based stride prefetcher
Heartbeat CPU 0 instructions: 1000003 cycles: 415045 heartbeat IPC: 2.40938 cumulative IPC: 2.40938 (Simulation time: 0 hr 0 min 37 sec) 
Heartbeat CPU 0 instructions: 2000003 cycles: 837178 heartbeat IPC: 2.36892 cumulative IPC: 2.38898 (Simulation time: 0 hr 1 min 12 sec) 
Heartbeat CPU 0 instructions: 3000003 cycles: 1242143 heartbeat IPC: 2.46935 cumulative IPC: 2.41518 (Simulation time: 0 hr 1 min 47 sec) 
Heartbeat CPU 0 instructions: 4000000 cycles: 1626256 heartbeat IPC: 2.60339 cumulative IPC: 2.45964 (Simulation time: 0 hr 2 min 23 sec) 
Heartbeat CPU 0 instructions: 5000000 cycles: 2040643 heartbeat IPC: 2.4132 cumulative IPC: 2.45021 (Simulation time: 0 hr 2 min 57 sec) 
Heartbeat CPU 0 instructions: 6000000 cycles: 2514265 heartbeat IPC: 2.11139 cumulative IPC: 2.38638 (Simulation time: 0 hr 3 min 32 sec) 
Heartbeat CPU 0 instructions: 7000002 cycles: 2886808 heartbeat IPC: 2.68426 cumulative IPC: 2.42482 (Simulation time: 0 hr 4 min 5 sec) 
Heartbeat CPU 0 instructions: 8000000 cycles: 3312530 heartbeat IPC: 2.34895 cumulative IPC: 2.41507 (Simulation time: 0 hr 4 min 42 sec) 
Heartbeat CPU 0 instructions: 9000001 cycles: 3751124 heartbeat IPC: 2.28002 cumulative IPC: 2.39928 (Simulation time: 0 hr 5 min 17 sec) 
Heartbeat CPU 0 instructions: 10000002 cycles: 4163357 heartbeat IPC: 2.42582 cumulative IPC: 2.40191 (Simulation time: 0 hr 5 min 51 sec) 

Warmup complete CPU 0 instructions: 10000002 cycles: 4163357 (Simulation time: 0 hr 5 min 51 sec) 

Heartbeat CPU 0 instructions: 11000001 cycles: 7283103 heartbeat IPC: 0.320539 cumulative IPC: 0.320539 (Simulation time: 0 hr 6 min 40 sec) 
Heartbeat CPU 0 instructions: 12000000 cycles: 8630923 heartbeat IPC: 0.741938 cumulative IPC: 0.447671 (Simulation time: 0 hr 7 min 10 sec) 
Heartbeat CPU 0 instructions: 13000001 cycles: 11243812 heartbeat IPC: 0.382719 cumulative IPC: 0.423701 (Simulation time: 0 hr 7 min 55 sec) 
Heartbeat CPU 0 instructions: 14000002 cycles: 13662188 heartbeat IPC: 0.413501 cumulative IPC: 0.421104 (Simulation time: 0 hr 8 min 34 sec) 
Heartbeat CPU 0 instructions: 15000002 cycles: 16157842 heartbeat IPC: 0.400697 cumulative IPC: 0.416858 (Simulation time: 0 hr 9 min 7 sec) 
Heartbeat CPU 0 instructions: 16000000 cycles: 18931585 heartbeat IPC: 0.360523 cumulative IPC: 0.406277 (Simulation time: 0 hr 9 min 49 sec) 
Heartbeat CPU 0 instructions: 17000001 cycles: 21074889 heartbeat IPC: 0.46657 cumulative IPC: 0.413919 (Simulation time: 0 hr 10 min 34 sec) 
Heartbeat CPU 0 instructions: 18000000 cycles: 23037313 heartbeat IPC: 0.509573 cumulative IPC: 0.423864 (Simulation time: 0 hr 11 min 22 sec) 
Heartbeat CPU 0 instructions: 19000002 cycles: 26447314 heartbeat IPC: 0.293256 cumulative IPC: 0.403878 (Simulation time: 0 hr 12 min 14 sec) 
Heartbeat CPU 0 instructions: 20000000 cycles: 27789156 heartbeat IPC: 0.745243 cumulative IPC: 0.423266 (Simulation time: 0 hr 12 min 43 sec) 
Heartbeat CPU 0 instructions: 21000000 cycles: 29961086 heartbeat IPC: 0.46042 cumulative IPC: 0.426394 (Simulation time: 0 hr 13 min 24 sec) 
Heartbeat CPU 0 instructions: 22000000 cycles: 32554532 heartbeat IPC: 0.385587 cumulative IPC: 0.422666 (Simulation time: 0 hr 14 min 8 sec) 
Heartbeat CPU 0 instructions: 23000000 cycles: 35034703 heartbeat IPC: 0.403198 cumulative IPC: 0.421102 (Simulation time: 0 hr 14 min 45 sec) 
Heartbeat CPU 0 instructions: 24000000 cycles: 37573826 heartbeat IPC: 0.393837 cumulative IPC: 0.41903 (Simulation time: 0 hr 15 min 26 sec) 
Heartbeat CPU 0 instructions: 25000003 cycles: 39816384 heartbeat IPC: 0.445921 cumulative IPC: 0.420722 (Simulation time: 0 hr 16 min 20 sec) 
Heartbeat CPU 0 instructions: 26000001 cycles: 41957131 heartbeat IPC: 0.467126 cumulative IPC: 0.42335 (Simulation time: 0 hr 17 min 3 sec) 
Heartbeat CPU 0 instructions: 27000002 cycles: 45350237 heartbeat IPC: 0.294716 cumulative IPC: 0.412753 (Simulation time: 0 hr 17 min 54 sec) 
Heartbeat CPU 0 instructions: 28000000 cycles: 46692364 heartbeat IPC: 0.745084 cumulative IPC: 0.42324 (Simulation time: 0 hr 18 min 21 sec) 
Heartbeat CPU 0 instructions: 29000002 cycles: 48488916 heartbeat IPC: 0.556623 cumulative IPC: 0.428647 (Simulation time: 0 hr 18 min 51 sec) 
Heartbeat CPU 0 instructions: 30000000 cycles: 51226229 heartbeat IPC: 0.365321 cumulative IPC: 0.424963 (Simulation time: 0 hr 19 min 38 sec) 
Heartbeat CPU 0 instructions: 31000001 cycles: 53730486 heartbeat IPC: 0.39932 cumulative IPC: 0.423668 (Simulation time: 0 hr 20 min 15 sec) 
Heartbeat CPU 0 instructions: 32000000 cycles: 56191980 heartbeat IPC: 0.406257 cumulative IPC: 0.422844 (Simulation time: 0 hr 20 min 49 sec) 
Heartbeat CPU 0 instructions: 33000001 cycles: 59355615 heartbeat IPC: 0.316092 cumulative IPC: 0.416725 (Simulation time: 0 hr 21 min 48 sec) 
Heartbeat CPU 0 instructions: 34000003 cycles: 61357482 heartbeat IPC: 0.499535 cumulative IPC: 0.419624 (Simulation time: 0 hr 22 min 32 sec) 
Heartbeat CPU 0 instructions: 35000003 cycles: 64322112 heartbeat IPC: 0.33731 cumulative IPC: 0.415567 (Simulation time: 0 hr 23 min 15 sec) 
Heartbeat CPU 0 instructions: 36000000 cycles: 65658720 heartbeat IPC: 0.74816 cumulative IPC: 0.422796 (Simulation time: 0 hr 23 min 41 sec) 
Heartbeat CPU 0 instructions: 37000000 cycles: 68155825 heartbeat IPC: 0.400464 cumulative IPC: 0.421925 (Simulation time: 0 hr 24 min 20 sec) 
Heartbeat CPU 0 instructions: 38000001 cycles: 70451311 heartbeat IPC: 0.435638 cumulative IPC: 0.422399 (Simulation time: 0 hr 25 min 2 sec) 
Heartbeat CPU 0 instructions: 39000003 cycles: 72936694 heartbeat IPC: 0.402353 cumulative IPC: 0.421675 (Simulation time: 0 hr 25 min 37 sec) 
Heartbeat CPU 0 instructions: 40000000 cycles: 75652313 heartbeat IPC: 0.368239 cumulative IPC: 0.419645 (Simulation time: 0 hr 26 min 19 sec) 
Heartbeat CPU 0 instructions: 41000001 cycles: 77701336 heartbeat IPC: 0.488038 cumulative IPC: 0.421551 (Simulation time: 0 hr 27 min 5 sec) 
Heartbeat CPU 0 instructions: 42000003 cycles: 79619861 heartbeat IPC: 0.521235 cumulative IPC: 0.424085 (Simulation time: 0 hr 27 min 49 sec) 
Heartbeat CPU 0 instructions: 43000000 cycles: 82939783 heartbeat IPC: 0.301211 cumulative IPC: 0.418907 (Simulation time: 0 hr 28 min 37 sec) 
Heartbeat CPU 0 instructions: 44000000 cycles: 84280219 heartbeat IPC: 0.746026 cumulative IPC: 0.42438 (Simulation time: 0 hr 29 min 7 sec) 
Heartbeat CPU 0 instructions: 45000003 cycles: 86429733 heartbeat IPC: 0.465223 cumulative IPC: 0.425447 (Simulation time: 0 hr 29 min 47 sec) 
Heartbeat CPU 0 instructions: 46000003 cycles: 88938400 heartbeat IPC: 0.398618 cumulative IPC: 0.424653 (Simulation time: 0 hr 30 min 29 sec) 
Heartbeat CPU 0 instructions: 47000001 cycles: 91353184 heartbeat IPC: 0.414115 cumulative IPC: 0.424361 (Simulation time: 0 hr 31 min 3 sec) 
Heartbeat CPU 0 instructions: 48000000 cycles: 93835268 heartbeat IPC: 0.402887 cumulative IPC: 0.423767 (Simulation time: 0 hr 31 min 40 sec) 
Heartbeat CPU 0 instructions: 49000000 cycles: 97214889 heartbeat IPC: 0.295891 cumulative IPC: 0.419123 (Simulation time: 0 hr 32 min 41 sec) 
Heartbeat CPU 0 instructions: 50000003 cycles: 103047649 heartbeat IPC: 0.171446 cumulative IPC: 0.404513 (Simulation time: 0 hr 33 min 44 sec) 
Heartbeat CPU 0 instructions: 51000002 cycles: 105497796 heartbeat IPC: 0.408138 cumulative IPC: 0.404601 (Simulation time: 0 hr 34 min 44 sec) 
Heartbeat CPU 0 instructions: 52000000 cycles: 109512041 heartbeat IPC: 0.249112 cumulative IPC: 0.398676 (Simulation time: 0 hr 35 min 35 sec) 
Heartbeat CPU 0 instructions: 53000003 cycles: 112221620 heartbeat IPC: 0.369062 cumulative IPC: 0.397933 (Simulation time: 0 hr 36 min 19 sec) 
Heartbeat CPU 0 instructions: 54000000 cycles: 114752292 heartbeat IPC: 0.395151 cumulative IPC: 0.39787 (Simulation time: 0 hr 37 min 9 sec) 
Heartbeat CPU 0 instructions: 55000002 cycles: 118420561 heartbeat IPC: 0.272609 cumulative IPC: 0.393848 (Simulation time: 0 hr 38 min 2 sec) 
Heartbeat CPU 0 instructions: 56000000 cycles: 122028646 heartbeat IPC: 0.277155 cumulative IPC: 0.390276 (Simulation time: 0 hr 39 min 5 sec) 
Heartbeat CPU 0 instructions: 57000003 cycles: 124654385 heartbeat IPC: 0.380846 cumulative IPC: 0.390071 (Simulation time: 0 hr 39 min 59 sec) 
Heartbeat CPU 0 instructions: 58000002 cycles: 126868801 heartbeat IPC: 0.451586 cumulative IPC: 0.391181 (Simulation time: 0 hr 40 min 57 sec) 
Heartbeat CPU 0 instructions: 59000002 cycles: 128406355 heartbeat IPC: 0.650384 cumulative IPC: 0.394388 (Simulation time: 0 hr 41 min 45 sec) 
Heartbeat CPU 0 instructions: 60000000 cycles: 129608047 heartbeat IPC: 0.832158 cumulative IPC: 0.398582 (Simulation time: 0 hr 42 min 28 sec) 
Heartbeat CPU 0 instructions: 61000002 cycles: 132349602 heartbeat IPC: 0.364757 cumulative IPC: 0.397859 (Simulation time: 0 hr 43 min 28 sec) 
Heartbeat CPU 0 instructions: 62000002 cycles: 135037068 heartbeat IPC: 0.372098 cumulative IPC: 0.39733 (Simulation time: 0 hr 44 min 36 sec) 
Heartbeat CPU 0 instructions: 63000002 cycles: 137129300 heartbeat IPC: 0.477958 cumulative IPC: 0.398598 (Simulation time: 0 hr 45 min 32 sec) 
Heartbeat CPU 0 instructions: 64000000 cycles: 139472416 heartbeat IPC: 0.426781 cumulative IPC: 0.399086 (Simulation time: 0 hr 46 min 16 sec) 
Heartbeat CPU 0 instructions: 65000000 cycles: 143575023 heartbeat IPC: 0.243747 cumulative IPC: 0.394515 (Simulation time: 0 hr 47 min 27 sec) 
Heartbeat CPU 0 instructions: 66000001 cycles: 144949767 heartbeat IPC: 0.727409 cumulative IPC: 0.397766 (Simulation time: 0 hr 48 min 0 sec) 
Heartbeat CPU 0 instructions: 67000000 cycles: 146345464 heartbeat IPC: 0.716487 cumulative IPC: 0.400894 (Simulation time: 0 hr 48 min 34 sec) 
Heartbeat CPU 0 instructions: 68000000 cycles: 149765969 heartbeat IPC: 0.292354 cumulative IPC: 0.398344 (Simulation time: 0 hr 49 min 25 sec) 
Heartbeat CPU 0 instructions: 69000000 cycles: 152390215 heartbeat IPC: 0.381062 cumulative IPC: 0.398039 (Simulation time: 0 hr 50 min 3 sec) 
Heartbeat CPU 0 instructions: 70000003 cycles: 154868421 heartbeat IPC: 0.403519 cumulative IPC: 0.398129 (Simulation time: 0 hr 50 min 42 sec) 
Heartbeat CPU 0 instructions: 71000000 cycles: 157285748 heartbeat IPC: 0.413679 cumulative IPC: 0.398374 (Simulation time: 0 hr 51 min 32 sec) 
Heartbeat CPU 0 instructions: 72000000 cycles: 159958513 heartbeat IPC: 0.374144 cumulative IPC: 0.397958 (Simulation time: 0 hr 52 min 13 sec) 
Heartbeat CPU 0 instructions: 73000002 cycles: 162802043 heartbeat IPC: 0.351676 cumulative IPC: 0.397129 (Simulation time: 0 hr 53 min 4 sec) 
Heartbeat CPU 0 instructions: 74000000 cycles: 164783048 heartbeat IPC: 0.504793 cumulative IPC: 0.398457 (Simulation time: 0 hr 53 min 39 sec) 
Heartbeat CPU 0 instructions: 75000002 cycles: 166160646 heartbeat IPC: 0.725903 cumulative IPC: 0.401241 (Simulation time: 0 hr 54 min 10 sec) 
Heartbeat CPU 0 instructions: 76000000 cycles: 169332918 heartbeat IPC: 0.315231 cumulative IPC: 0.399589 (Simulation time: 0 hr 54 min 59 sec) 
Heartbeat CPU 0 instructions: 77000000 cycles: 171620905 heartbeat IPC: 0.437065 cumulative IPC: 0.400101 (Simulation time: 0 hr 55 min 34 sec) 
Heartbeat CPU 0 instructions: 78000003 cycles: 173984788 heartbeat IPC: 0.423034 cumulative IPC: 0.400421 (Simulation time: 0 hr 56 min 12 sec) 
Heartbeat CPU 0 instructions: 79000001 cycles: 177033719 heartbeat IPC: 0.327983 cumulative IPC: 0.399143 (Simulation time: 0 hr 57 min 3 sec) 
Heartbeat CPU 0 instructions: 80000000 cycles: 179551980 heartbeat IPC: 0.397099 cumulative IPC: 0.399114 (Simulation time: 0 hr 57 min 45 sec) 
Heartbeat CPU 0 instructions: 81000003 cycles: 182554292 heartbeat IPC: 0.333078 cumulative IPC: 0.398002 (Simulation time: 0 hr 58 min 34 sec) 
Heartbeat CPU 0 instructions: 82000000 cycles: 184298760 heartbeat IPC: 0.573239 cumulative IPC: 0.399699 (Simulation time: 0 hr 59 min 6 sec) 
Heartbeat CPU 0 instructions: 83000001 cycles: 185627886 heartbeat IPC: 0.752375 cumulative IPC: 0.402282 (Simulation time: 0 hr 59 min 35 sec) 
Heartbeat CPU 0 instructions: 84000000 cycles: 188736862 heartbeat IPC: 0.321649 cumulative IPC: 0.400924 (Simulation time: 1 hr 0 min 19 sec) 
Heartbeat CPU 0 instructions: 85000002 cycles: 191071245 heartbeat IPC: 0.42838 cumulative IPC: 0.401267 (Simulation time: 1 hr 0 min 52 sec) 
Heartbeat CPU 0 instructions: 86000000 cycles: 193580953 heartbeat IPC: 0.398452 cumulative IPC: 0.40123 (Simulation time: 1 hr 1 min 23 sec) 
Heartbeat CPU 0 instructions: 87000000 cycles: 196417252 heartbeat IPC: 0.352572 cumulative IPC: 0.400512 (Simulation time: 1 hr 2 min 7 sec) 
Heartbeat CPU 0 instructions: 88000000 cycles: 198620097 heartbeat IPC: 0.453958 cumulative IPC: 0.401117 (Simulation time: 1 hr 2 min 45 sec) 
Heartbeat CPU 0 instructions: 89000001 cycles: 201945995 heartbeat IPC: 0.300671 cumulative IPC: 0.399428 (Simulation time: 1 hr 3 min 25 sec) 
Heartbeat CPU 0 instructions: 90000002 cycles: 203288971 heartbeat IPC: 0.744616 cumulative IPC: 0.401756 (Simulation time: 1 hr 3 min 53 sec) 
Heartbeat CPU 0 instructions: 91000000 cycles: 204702395 heartbeat IPC: 0.7075 cumulative IPC: 0.403911 (Simulation time: 1 hr 4 min 20 sec) 
Heartbeat CPU 0 instructions: 92000000 cycles: 207712013 heartbeat IPC: 0.332268 cumulative IPC: 0.402852 (Simulation time: 1 hr 4 min 58 sec) 
Heartbeat CPU 0 instructions: 93000000 cycles: 210243837 heartbeat IPC: 0.394972 cumulative IPC: 0.402755 (Simulation time: 1 hr 5 min 24 sec) 
Heartbeat CPU 0 instructions: 94000001 cycles: 212675727 heartbeat IPC: 0.411203 cumulative IPC: 0.402854 (Simulation time: 1 hr 5 min 49 sec) 
Heartbeat CPU 0 instructions: 95000003 cycles: 215704288 heartbeat IPC: 0.33019 cumulative IPC: 0.401814 (Simulation time: 1 hr 6 min 33 sec) 
Heartbeat CPU 0 instructions: 96000000 cycles: 217644929 heartbeat IPC: 0.515292 cumulative IPC: 0.402845 (Simulation time: 1 hr 7 min 1 sec) 
Heartbeat CPU 0 instructions: 97000003 cycles: 220808937 heartbeat IPC: 0.316056 cumulative IPC: 0.401578 (Simulation time: 1 hr 7 min 31 sec) 
Heartbeat CPU 0 instructions: 98000003 cycles: 222146985 heartbeat IPC: 0.747357 cumulative IPC: 0.4037 (Simulation time: 1 hr 7 min 54 sec) 
Heartbeat CPU 0 instructions: 99000000 cycles: 224411836 heartbeat IPC: 0.441529 cumulative IPC: 0.404089 (Simulation time: 1 hr 8 min 18 sec) 
Heartbeat CPU 0 instructions: 100000000 cycles: 226888903 heartbeat IPC: 0.403703 cumulative IPC: 0.404085 (Simulation time: 1 hr 8 min 45 sec) 
Heartbeat CPU 0 instructions: 101000001 cycles: 229312271 heartbeat IPC: 0.412649 cumulative IPC: 0.404177 (Simulation time: 1 hr 9 min 8 sec) 
Heartbeat CPU 0 instructions: 102000002 cycles: 231890415 heartbeat IPC: 0.387876 cumulative IPC: 0.403992 (Simulation time: 1 hr 9 min 36 sec) 
Heartbeat CPU 0 instructions: 103000002 cycles: 234876398 heartbeat IPC: 0.334898 cumulative IPC: 0.403098 (Simulation time: 1 hr 10 min 6 sec) 
Heartbeat CPU 0 instructions: 104000000 cycles: 237104585 heartbeat IPC: 0.448794 cumulative IPC: 0.403535 (Simulation time: 1 hr 10 min 39 sec) 
Heartbeat CPU 0 instructions: 105000000 cycles: 239527058 heartbeat IPC: 0.412801 cumulative IPC: 0.403631 (Simulation time: 1 hr 10 min 59 sec) 
Heartbeat CPU 0 instructions: 106000001 cycles: 240852013 heartbeat IPC: 0.754743 cumulative IPC: 0.405596 (Simulation time: 1 hr 11 min 17 sec) 
Heartbeat CPU 0 instructions: 107000001 cycles: 243742131 heartbeat IPC: 0.346007 cumulative IPC: 0.404877 (Simulation time: 1 hr 11 min 40 sec) 
Heartbeat CPU 0 instructions: 108000000 cycles: 245884648 heartbeat IPC: 0.46674 cumulative IPC: 0.405426 (Simulation time: 1 hr 11 min 58 sec) 
Heartbeat CPU 0 instructions: 109000003 cycles: 248335741 heartbeat IPC: 0.407982 cumulative IPC: 0.405451 (Simulation time: 1 hr 12 min 17 sec) 
Heartbeat CPU 0 instructions: 110000001 cycles: 251243460 heartbeat IPC: 0.343911 cumulative IPC: 0.404727 (Simulation time: 1 hr 12 min 42 sec) 
Finished CPU 0 instructions: 100000003 cycles: 247080104 cummulative IPC: 0.404727 (Simulation time: 1 hr 12 min 42 sec) 

ChampSim completed all CPUs

Region of Interest Statistics

CPU 0 cummulative IPC: 0.404727 instructions: 100000003 cycles: 247080104
LLC TOTAL     ACCESS:    6600401  HIT:    3021751  MISS:    3578650
LLC LOAD      ACCESS:    1698124  HIT:     782686  MISS:     915438
LLC RFO       ACCESS:     658483  HIT:     296781  MISS:     361702
LLC PREFETCH  ACCESS:    2683163  HIT:     912109  MISS:    1771054
LLC WRITEBACK ACCESS:    1560631  HIT:    1030175  MISS:     530456
