
*** ChampSim Multicore Out-of-Order Simulator ***

Warmup Instructions: 10000000
Simulation Instructions: 100000000
Configuration: 2
Number of CPUs: 1
LLC sets: 2048
LLC ways: 16
Off-chip DRAM Channels: 1 Width: 64-bit Data Rate: 1600 MT/s

CPU 0 runs /datasets/cs240c-wi22-a00-public/data/Assignment2-gz/calculix_3812B.trace.gz
CPU 0 L1D next line prefetcher
CPU 0 L2C IP-based stride prefetcher
Heartbeat CPU 0 instructions: 1000001 cycles: 478691 heartbeat IPC: 2.08903 cumulative IPC: 2.08903 (Simulation time: 0 hr 0 min 43 sec) 
Heartbeat CPU 0 instructions: 2000002 cycles: 956489 heartbeat IPC: 2.09294 cumulative IPC: 2.09098 (Simulation time: 0 hr 1 min 22 sec) 
Heartbeat CPU 0 instructions: 3000002 cycles: 1435004 heartbeat IPC: 2.0898 cumulative IPC: 2.09059 (Simulation time: 0 hr 2 min 0 sec) 
Heartbeat CPU 0 instructions: 4000000 cycles: 1907487 heartbeat IPC: 2.11647 cumulative IPC: 2.097 (Simulation time: 0 hr 2 min 37 sec) 
Heartbeat CPU 0 instructions: 5000000 cycles: 2356245 heartbeat IPC: 2.22837 cumulative IPC: 2.12202 (Simulation time: 0 hr 3 min 10 sec) 
Heartbeat CPU 0 instructions: 6000003 cycles: 2761627 heartbeat IPC: 2.46682 cumulative IPC: 2.17263 (Simulation time: 0 hr 3 min 37 sec) 
Heartbeat CPU 0 instructions: 7000002 cycles: 3154731 heartbeat IPC: 2.54385 cumulative IPC: 2.21889 (Simulation time: 0 hr 4 min 2 sec) 
Heartbeat CPU 0 instructions: 8000000 cycles: 3547877 heartbeat IPC: 2.54358 cumulative IPC: 2.25487 (Simulation time: 0 hr 4 min 27 sec) 
Heartbeat CPU 0 instructions: 9000000 cycles: 3940861 heartbeat IPC: 2.54463 cumulative IPC: 2.28376 (Simulation time: 0 hr 4 min 52 sec) 
Heartbeat CPU 0 instructions: 10000003 cycles: 4333953 heartbeat IPC: 2.54394 cumulative IPC: 2.30736 (Simulation time: 0 hr 5 min 17 sec) 

Warmup complete CPU 0 instructions: 10000003 cycles: 4333953 (Simulation time: 0 hr 5 min 17 sec) 

Heartbeat CPU 0 instructions: 11000001 cycles: 4784585 heartbeat IPC: 2.2191 cumulative IPC: 2.2191 (Simulation time: 0 hr 5 min 48 sec) 
Heartbeat CPU 0 instructions: 12000000 cycles: 5230312 heartbeat IPC: 2.24352 cumulative IPC: 2.23125 (Simulation time: 0 hr 6 min 18 sec) 
Heartbeat CPU 0 instructions: 13000002 cycles: 5675032 heartbeat IPC: 2.24861 cumulative IPC: 2.237 (Simulation time: 0 hr 6 min 49 sec) 
Heartbeat CPU 0 instructions: 14000000 cycles: 6473781 heartbeat IPC: 1.25196 cumulative IPC: 1.86931 (Simulation time: 0 hr 7 min 25 sec) 
Heartbeat CPU 0 instructions: 15000003 cycles: 7022134 heartbeat IPC: 1.82365 cumulative IPC: 1.85999 (Simulation time: 0 hr 7 min 57 sec) 
Heartbeat CPU 0 instructions: 16000000 cycles: 7562832 heartbeat IPC: 1.84946 cumulative IPC: 1.85823 (Simulation time: 0 hr 8 min 26 sec) 
Heartbeat CPU 0 instructions: 17000001 cycles: 8088825 heartbeat IPC: 1.90117 cumulative IPC: 1.86424 (Simulation time: 0 hr 8 min 59 sec) 
Heartbeat CPU 0 instructions: 18000001 cycles: 8597776 heartbeat IPC: 1.96483 cumulative IPC: 1.87625 (Simulation time: 0 hr 9 min 30 sec) 
Heartbeat CPU 0 instructions: 19000001 cycles: 9107493 heartbeat IPC: 1.96187 cumulative IPC: 1.88539 (Simulation time: 0 hr 10 min 2 sec) 
Heartbeat CPU 0 instructions: 20000000 cycles: 9688336 heartbeat IPC: 1.72163 cumulative IPC: 1.86763 (Simulation time: 0 hr 10 min 37 sec) 
Heartbeat CPU 0 instructions: 21000003 cycles: 10211123 heartbeat IPC: 1.91283 cumulative IPC: 1.87165 (Simulation time: 0 hr 11 min 8 sec) 
Heartbeat CPU 0 instructions: 22000000 cycles: 10739930 heartbeat IPC: 1.89104 cumulative IPC: 1.87325 (Simulation time: 0 hr 11 min 39 sec) 
Heartbeat CPU 0 instructions: 23000001 cycles: 11262662 heartbeat IPC: 1.91303 cumulative IPC: 1.87625 (Simulation time: 0 hr 12 min 10 sec) 
Heartbeat CPU 0 instructions: 24000000 cycles: 11795032 heartbeat IPC: 1.87839 cumulative IPC: 1.8764 (Simulation time: 0 hr 12 min 43 sec) 
Heartbeat CPU 0 instructions: 25000003 cycles: 12351403 heartbeat IPC: 1.79737 cumulative IPC: 1.87092 (Simulation time: 0 hr 13 min 16 sec) 
Heartbeat CPU 0 instructions: 26000003 cycles: 12899331 heartbeat IPC: 1.82506 cumulative IPC: 1.86799 (Simulation time: 0 hr 13 min 47 sec) 
Heartbeat CPU 0 instructions: 27000000 cycles: 13433431 heartbeat IPC: 1.8723 cumulative IPC: 1.86824 (Simulation time: 0 hr 14 min 19 sec) 
Heartbeat CPU 0 instructions: 28000000 cycles: 14073640 heartbeat IPC: 1.56199 cumulative IPC: 1.84811 (Simulation time: 0 hr 14 min 53 sec) 
Heartbeat CPU 0 instructions: 29000002 cycles: 14551797 heartbeat IPC: 2.09137 cumulative IPC: 1.85949 (Simulation time: 0 hr 15 min 22 sec) 
Heartbeat CPU 0 instructions: 30000001 cycles: 15102200 heartbeat IPC: 1.81685 cumulative IPC: 1.85731 (Simulation time: 0 hr 15 min 54 sec) 
Heartbeat CPU 0 instructions: 31000001 cycles: 15649052 heartbeat IPC: 1.82865 cumulative IPC: 1.85593 (Simulation time: 0 hr 16 min 26 sec) 
Heartbeat CPU 0 instructions: 32000000 cycles: 16378246 heartbeat IPC: 1.37138 cumulative IPC: 1.82659 (Simulation time: 0 hr 17 min 2 sec) 
Heartbeat CPU 0 instructions: 33000003 cycles: 17083291 heartbeat IPC: 1.41835 cumulative IPC: 1.80402 (Simulation time: 0 hr 17 min 39 sec) 
Heartbeat CPU 0 instructions: 34000000 cycles: 17783567 heartbeat IPC: 1.428 cumulative IPC: 1.78444 (Simulation time: 0 hr 18 min 16 sec) 
Heartbeat CPU 0 instructions: 35000000 cycles: 18456770 heartbeat IPC: 1.48544 cumulative IPC: 1.77018 (Simulation time: 0 hr 18 min 53 sec) 
Heartbeat CPU 0 instructions: 36000000 cycles: 19098101 heartbeat IPC: 1.55926 cumulative IPC: 1.76102 (Simulation time: 0 hr 19 min 31 sec) 
Heartbeat CPU 0 instructions: 37000002 cycles: 19723918 heartbeat IPC: 1.59791 cumulative IPC: 1.75439 (Simulation time: 0 hr 20 min 5 sec) 
Heartbeat CPU 0 instructions: 38000003 cycles: 20358925 heartbeat IPC: 1.57479 cumulative IPC: 1.74727 (Simulation time: 0 hr 20 min 40 sec) 
Heartbeat CPU 0 instructions: 39000003 cycles: 21122114 heartbeat IPC: 1.31029 cumulative IPC: 1.72741 (Simulation time: 0 hr 21 min 14 sec) 
Heartbeat CPU 0 instructions: 40000000 cycles: 21961963 heartbeat IPC: 1.19069 cumulative IPC: 1.70184 (Simulation time: 0 hr 21 min 50 sec) 
Heartbeat CPU 0 instructions: 41000000 cycles: 22893771 heartbeat IPC: 1.07318 cumulative IPC: 1.67027 (Simulation time: 0 hr 22 min 24 sec) 
Heartbeat CPU 0 instructions: 42000001 cycles: 23495566 heartbeat IPC: 1.6617 cumulative IPC: 1.67001 (Simulation time: 0 hr 23 min 0 sec) 
Heartbeat CPU 0 instructions: 43000000 cycles: 24116381 heartbeat IPC: 1.61078 cumulative IPC: 1.66815 (Simulation time: 0 hr 23 min 35 sec) 
Heartbeat CPU 0 instructions: 44000000 cycles: 24793138 heartbeat IPC: 1.47764 cumulative IPC: 1.66185 (Simulation time: 0 hr 24 min 13 sec) 
Heartbeat CPU 0 instructions: 45000002 cycles: 25467547 heartbeat IPC: 1.48278 cumulative IPC: 1.65613 (Simulation time: 0 hr 24 min 48 sec) 
Heartbeat CPU 0 instructions: 46000002 cycles: 26191137 heartbeat IPC: 1.382 cumulative IPC: 1.64706 (Simulation time: 0 hr 25 min 23 sec) 
Heartbeat CPU 0 instructions: 47000002 cycles: 27027032 heartbeat IPC: 1.19632 cumulative IPC: 1.63045 (Simulation time: 0 hr 25 min 57 sec) 
Heartbeat CPU 0 instructions: 48000000 cycles: 27472693 heartbeat IPC: 2.24385 cumulative IPC: 1.64227 (Simulation time: 0 hr 26 min 26 sec) 
Heartbeat CPU 0 instructions: 49000000 cycles: 27919356 heartbeat IPC: 2.23882 cumulative IPC: 1.65357 (Simulation time: 0 hr 26 min 56 sec) 
Heartbeat CPU 0 instructions: 50000000 cycles: 28394082 heartbeat IPC: 2.10648 cumulative IPC: 1.6625 (Simulation time: 0 hr 27 min 27 sec) 
Heartbeat CPU 0 instructions: 51000000 cycles: 28977752 heartbeat IPC: 1.7133 cumulative IPC: 1.6637 (Simulation time: 0 hr 28 min 1 sec) 
Heartbeat CPU 0 instructions: 52000000 cycles: 29517767 heartbeat IPC: 1.8518 cumulative IPC: 1.66774 (Simulation time: 0 hr 28 min 33 sec) 
Heartbeat CPU 0 instructions: 53000000 cycles: 29974022 heartbeat IPC: 2.19176 cumulative IPC: 1.67706 (Simulation time: 0 hr 29 min 3 sec) 
Heartbeat CPU 0 instructions: 54000003 cycles: 30429962 heartbeat IPC: 2.19328 cumulative IPC: 1.68608 (Simulation time: 0 hr 29 min 34 sec) 
Heartbeat CPU 0 instructions: 55000001 cycles: 30885176 heartbeat IPC: 2.19676 cumulative IPC: 1.69484 (Simulation time: 0 hr 30 min 3 sec) 
Heartbeat CPU 0 instructions: 56000000 cycles: 31339983 heartbeat IPC: 2.19873 cumulative IPC: 1.70332 (Simulation time: 0 hr 30 min 33 sec) 
Heartbeat CPU 0 instructions: 57000003 cycles: 31797748 heartbeat IPC: 2.18453 cumulative IPC: 1.71134 (Simulation time: 0 hr 31 min 3 sec) 
Heartbeat CPU 0 instructions: 58000002 cycles: 32265726 heartbeat IPC: 2.13685 cumulative IPC: 1.71847 (Simulation time: 0 hr 31 min 36 sec) 
Heartbeat CPU 0 instructions: 59000001 cycles: 32828009 heartbeat IPC: 1.77846 cumulative IPC: 1.71966 (Simulation time: 0 hr 32 min 7 sec) 
Heartbeat CPU 0 instructions: 60000000 cycles: 33356709 heartbeat IPC: 1.89143 cumulative IPC: 1.72279 (Simulation time: 0 hr 32 min 38 sec) 
Heartbeat CPU 0 instructions: 61000003 cycles: 33895529 heartbeat IPC: 1.85591 cumulative IPC: 1.72521 (Simulation time: 0 hr 33 min 9 sec) 
Heartbeat CPU 0 instructions: 62000002 cycles: 34430042 heartbeat IPC: 1.87086 cumulative IPC: 1.7278 (Simulation time: 0 hr 33 min 39 sec) 
Heartbeat CPU 0 instructions: 63000003 cycles: 34969744 heartbeat IPC: 1.85288 cumulative IPC: 1.73 (Simulation time: 0 hr 34 min 11 sec) 
Heartbeat CPU 0 instructions: 64000000 cycles: 35506683 heartbeat IPC: 1.8624 cumulative IPC: 1.73228 (Simulation time: 0 hr 34 min 41 sec) 
Heartbeat CPU 0 instructions: 65000000 cycles: 36187190 heartbeat IPC: 1.46949 cumulative IPC: 1.72667 (Simulation time: 0 hr 35 min 15 sec) 
Heartbeat CPU 0 instructions: 66000002 cycles: 36752287 heartbeat IPC: 1.76961 cumulative IPC: 1.72742 (Simulation time: 0 hr 35 min 46 sec) 
Heartbeat CPU 0 instructions: 67000002 cycles: 37264031 heartbeat IPC: 1.9541 cumulative IPC: 1.73094 (Simulation time: 0 hr 36 min 16 sec) 
Heartbeat CPU 0 instructions: 68000000 cycles: 37765011 heartbeat IPC: 1.99608 cumulative IPC: 1.73491 (Simulation time: 0 hr 36 min 46 sec) 
Heartbeat CPU 0 instructions: 69000003 cycles: 38314441 heartbeat IPC: 1.82007 cumulative IPC: 1.73629 (Simulation time: 0 hr 37 min 17 sec) 
Heartbeat CPU 0 instructions: 70000003 cycles: 38829793 heartbeat IPC: 1.94042 cumulative IPC: 1.73934 (Simulation time: 0 hr 37 min 47 sec) 
Heartbeat CPU 0 instructions: 71000000 cycles: 39351969 heartbeat IPC: 1.91506 cumulative IPC: 1.74196 (Simulation time: 0 hr 38 min 21 sec) 
Heartbeat CPU 0 instructions: 72000000 cycles: 39869115 heartbeat IPC: 1.93369 cumulative IPC: 1.74475 (Simulation time: 0 hr 38 min 50 sec) 
Heartbeat CPU 0 instructions: 73000001 cycles: 40420228 heartbeat IPC: 1.81451 cumulative IPC: 1.74582 (Simulation time: 0 hr 39 min 22 sec) 
Heartbeat CPU 0 instructions: 74000002 cycles: 41036316 heartbeat IPC: 1.62315 cumulative IPC: 1.74376 (Simulation time: 0 hr 39 min 55 sec) 
Heartbeat CPU 0 instructions: 75000000 cycles: 41571491 heartbeat IPC: 1.86854 cumulative IPC: 1.74555 (Simulation time: 0 hr 40 min 28 sec) 
Heartbeat CPU 0 instructions: 76000000 cycles: 42298612 heartbeat IPC: 1.37529 cumulative IPC: 1.73846 (Simulation time: 0 hr 41 min 3 sec) 
Heartbeat CPU 0 instructions: 77000000 cycles: 43019597 heartbeat IPC: 1.38699 cumulative IPC: 1.73191 (Simulation time: 0 hr 41 min 41 sec) 
Heartbeat CPU 0 instructions: 78000003 cycles: 43738178 heartbeat IPC: 1.39164 cumulative IPC: 1.7257 (Simulation time: 0 hr 42 min 17 sec) 
Heartbeat CPU 0 instructions: 79000000 cycles: 44449079 heartbeat IPC: 1.40666 cumulative IPC: 1.72005 (Simulation time: 0 hr 42 min 53 sec) 
Heartbeat CPU 0 instructions: 80000000 cycles: 45134161 heartbeat IPC: 1.45968 cumulative IPC: 1.71568 (Simulation time: 0 hr 43 min 30 sec) 
Heartbeat CPU 0 instructions: 81000001 cycles: 45798493 heartbeat IPC: 1.50527 cumulative IPC: 1.71231 (Simulation time: 0 hr 44 min 6 sec) 
Heartbeat CPU 0 instructions: 82000002 cycles: 46441451 heartbeat IPC: 1.55531 cumulative IPC: 1.70991 (Simulation time: 0 hr 44 min 41 sec) 
Heartbeat CPU 0 instructions: 83000002 cycles: 47294886 heartbeat IPC: 1.17174 cumulative IPC: 1.69922 (Simulation time: 0 hr 45 min 15 sec) 
Heartbeat CPU 0 instructions: 84000000 cycles: 47882462 heartbeat IPC: 1.7019 cumulative IPC: 1.69925 (Simulation time: 0 hr 45 min 46 sec) 
Heartbeat CPU 0 instructions: 85000000 cycles: 48340780 heartbeat IPC: 2.18189 cumulative IPC: 1.70428 (Simulation time: 0 hr 46 min 15 sec) 
Heartbeat CPU 0 instructions: 86000001 cycles: 48796451 heartbeat IPC: 2.19457 cumulative IPC: 1.70931 (Simulation time: 0 hr 46 min 46 sec) 
Heartbeat CPU 0 instructions: 87000002 cycles: 49255113 heartbeat IPC: 2.18026 cumulative IPC: 1.71411 (Simulation time: 0 hr 47 min 16 sec) 
Heartbeat CPU 0 instructions: 88000000 cycles: 49709661 heartbeat IPC: 2.19998 cumulative IPC: 1.71898 (Simulation time: 0 hr 47 min 45 sec) 
Heartbeat CPU 0 instructions: 89000003 cycles: 50163486 heartbeat IPC: 2.2035 cumulative IPC: 1.72378 (Simulation time: 0 hr 48 min 14 sec) 
Heartbeat CPU 0 instructions: 90000003 cycles: 50618007 heartbeat IPC: 2.20012 cumulative IPC: 1.72846 (Simulation time: 0 hr 48 min 41 sec) 
Heartbeat CPU 0 instructions: 91000003 cycles: 51081172 heartbeat IPC: 2.15906 cumulative IPC: 1.73272 (Simulation time: 0 hr 49 min 9 sec) 
Heartbeat CPU 0 instructions: 92000000 cycles: 51541432 heartbeat IPC: 2.17268 cumulative IPC: 1.73701 (Simulation time: 0 hr 49 min 38 sec) 
Heartbeat CPU 0 instructions: 93000000 cycles: 51988845 heartbeat IPC: 2.23507 cumulative IPC: 1.74169 (Simulation time: 0 hr 50 min 8 sec) 
Heartbeat CPU 0 instructions: 94000003 cycles: 52435542 heartbeat IPC: 2.23866 cumulative IPC: 1.7463 (Simulation time: 0 hr 50 min 36 sec) 
Heartbeat CPU 0 instructions: 95000001 cycles: 53039628 heartbeat IPC: 1.65539 cumulative IPC: 1.74518 (Simulation time: 0 hr 51 min 8 sec) 
Heartbeat CPU 0 instructions: 96000000 cycles: 53594512 heartbeat IPC: 1.80218 cumulative IPC: 1.74582 (Simulation time: 0 hr 51 min 37 sec) 
Heartbeat CPU 0 instructions: 97000000 cycles: 54094019 heartbeat IPC: 2.00197 cumulative IPC: 1.74839 (Simulation time: 0 hr 52 min 6 sec) 
Heartbeat CPU 0 instructions: 98000003 cycles: 54594621 heartbeat IPC: 1.9976 cumulative IPC: 1.75087 (Simulation time: 0 hr 52 min 33 sec) 
Heartbeat CPU 0 instructions: 99000000 cycles: 55093308 heartbeat IPC: 2.00526 cumulative IPC: 1.75337 (Simulation time: 0 hr 53 min 0 sec) 
Heartbeat CPU 0 instructions: 100000000 cycles: 55593883 heartbeat IPC: 1.9977 cumulative IPC: 1.75576 (Simulation time: 0 hr 53 min 25 sec) 
Heartbeat CPU 0 instructions: 101000003 cycles: 56089735 heartbeat IPC: 2.01674 cumulative IPC: 1.75826 (Simulation time: 0 hr 53 min 53 sec) 
Heartbeat CPU 0 instructions: 102000002 cycles: 56641693 heartbeat IPC: 1.81173 cumulative IPC: 1.75882 (Simulation time: 0 hr 54 min 20 sec) 
Heartbeat CPU 0 instructions: 103000000 cycles: 57197267 heartbeat IPC: 1.79994 cumulative IPC: 1.75925 (Simulation time: 0 hr 54 min 49 sec) 
Heartbeat CPU 0 instructions: 104000000 cycles: 57752609 heartbeat IPC: 1.80069 cumulative IPC: 1.75968 (Simulation time: 0 hr 55 min 15 sec) 
Heartbeat CPU 0 instructions: 105000000 cycles: 58314377 heartbeat IPC: 1.78009 cumulative IPC: 1.7599 (Simulation time: 0 hr 55 min 45 sec) 
Heartbeat CPU 0 instructions: 106000003 cycles: 58872966 heartbeat IPC: 1.79023 cumulative IPC: 1.76021 (Simulation time: 0 hr 56 min 13 sec) 
Heartbeat CPU 0 instructions: 107000000 cycles: 59433751 heartbeat IPC: 1.78321 cumulative IPC: 1.76044 (Simulation time: 0 hr 56 min 42 sec) 
Heartbeat CPU 0 instructions: 108000000 cycles: 60041673 heartbeat IPC: 1.64495 cumulative IPC: 1.75918 (Simulation time: 0 hr 57 min 9 sec) 
Heartbeat CPU 0 instructions: 109000002 cycles: 60687838 heartbeat IPC: 1.5476 cumulative IPC: 1.75676 (Simulation time: 0 hr 57 min 40 sec) 
Heartbeat CPU 0 instructions: 110000003 cycles: 61177178 heartbeat IPC: 2.04357 cumulative IPC: 1.75922 (Simulation time: 0 hr 58 min 9 sec) 
Finished CPU 0 instructions: 100000000 cycles: 56843225 cummulative IPC: 1.75922 (Simulation time: 0 hr 58 min 9 sec) 

ChampSim completed all CPUs

Region of Interest Statistics

CPU 0 cummulative IPC: 1.75922 instructions: 100000000 cycles: 56843225
LLC TOTAL     ACCESS:    1161479  HIT:     905334  MISS:     256145
LLC LOAD      ACCESS:     133730  HIT:     128693  MISS:       5037
LLC RFO       ACCESS:      47550  HIT:      19935  MISS:      27615
LLC PREFETCH  ACCESS:     680380  HIT:     462356  MISS:     218024
LLC WRITEBACK ACCESS:     299819  HIT:     294350  MISS:       5469
