
*** ChampSim Multicore Out-of-Order Simulator ***

Warmup Instructions: 10000000
Simulation Instructions: 100000000
Configuration: 2
Number of CPUs: 1
LLC sets: 2048
LLC ways: 16
Off-chip DRAM Channels: 1 Width: 64-bit Data Rate: 1600 MT/s

CPU 0 runs /datasets/cs240c-wi22-a00-public/data/Assignment2-gz/lbm_564B.trace.gz
CPU 0 L1D next line prefetcher
CPU 0 L2C IP-based stride prefetcher
Heartbeat CPU 0 instructions: 1000000 cycles: 390168 heartbeat IPC: 2.563 cumulative IPC: 2.563 (Simulation time: 0 hr 0 min 34 sec) 
Heartbeat CPU 0 instructions: 2000003 cycles: 785204 heartbeat IPC: 2.53142 cumulative IPC: 2.54711 (Simulation time: 0 hr 1 min 12 sec) 
Heartbeat CPU 0 instructions: 3000002 cycles: 1175399 heartbeat IPC: 2.56282 cumulative IPC: 2.55233 (Simulation time: 0 hr 1 min 46 sec) 
Heartbeat CPU 0 instructions: 4000000 cycles: 1565583 heartbeat IPC: 2.56289 cumulative IPC: 2.55496 (Simulation time: 0 hr 2 min 24 sec) 
Heartbeat CPU 0 instructions: 5000000 cycles: 1960698 heartbeat IPC: 2.53091 cumulative IPC: 2.55011 (Simulation time: 0 hr 3 min 0 sec) 
Heartbeat CPU 0 instructions: 6000002 cycles: 2350854 heartbeat IPC: 2.56308 cumulative IPC: 2.55226 (Simulation time: 0 hr 3 min 35 sec) 
Heartbeat CPU 0 instructions: 7000001 cycles: 2741119 heartbeat IPC: 2.56236 cumulative IPC: 2.5537 (Simulation time: 0 hr 4 min 12 sec) 
Heartbeat CPU 0 instructions: 8000000 cycles: 3136116 heartbeat IPC: 2.53166 cumulative IPC: 2.55093 (Simulation time: 0 hr 4 min 47 sec) 
Heartbeat CPU 0 instructions: 9000000 cycles: 3526358 heartbeat IPC: 2.56251 cumulative IPC: 2.55221 (Simulation time: 0 hr 5 min 24 sec) 
Heartbeat CPU 0 instructions: 10000002 cycles: 3916508 heartbeat IPC: 2.56312 cumulative IPC: 2.5533 (Simulation time: 0 hr 5 min 57 sec) 

Warmup complete CPU 0 instructions: 10000002 cycles: 3916508 (Simulation time: 0 hr 5 min 57 sec) 

Heartbeat CPU 0 instructions: 11000000 cycles: 5294037 heartbeat IPC: 0.725936 cumulative IPC: 0.725936 (Simulation time: 0 hr 6 min 39 sec) 
Heartbeat CPU 0 instructions: 12000000 cycles: 6641276 heartbeat IPC: 0.742259 cumulative IPC: 0.734007 (Simulation time: 0 hr 7 min 21 sec) 
Heartbeat CPU 0 instructions: 13000001 cycles: 8063358 heartbeat IPC: 0.703195 cumulative IPC: 0.72344 (Simulation time: 0 hr 8 min 3 sec) 
Heartbeat CPU 0 instructions: 14000001 cycles: 9509217 heartbeat IPC: 0.69163 cumulative IPC: 0.715217 (Simulation time: 0 hr 8 min 44 sec) 
Heartbeat CPU 0 instructions: 15000000 cycles: 10950464 heartbeat IPC: 0.693843 cumulative IPC: 0.710837 (Simulation time: 0 hr 9 min 27 sec) 
Heartbeat CPU 0 instructions: 16000000 cycles: 12281182 heartbeat IPC: 0.751474 cumulative IPC: 0.717302 (Simulation time: 0 hr 10 min 7 sec) 
Heartbeat CPU 0 instructions: 17000000 cycles: 13675349 heartbeat IPC: 0.717274 cumulative IPC: 0.717298 (Simulation time: 0 hr 10 min 48 sec) 
Heartbeat CPU 0 instructions: 18000000 cycles: 15089736 heartbeat IPC: 0.70702 cumulative IPC: 0.715997 (Simulation time: 0 hr 11 min 29 sec) 
Heartbeat CPU 0 instructions: 19000003 cycles: 16403678 heartbeat IPC: 0.761071 cumulative IPC: 0.72074 (Simulation time: 0 hr 12 min 9 sec) 
Heartbeat CPU 0 instructions: 20000000 cycles: 17749685 heartbeat IPC: 0.742936 cumulative IPC: 0.7229 (Simulation time: 0 hr 12 min 49 sec) 
Heartbeat CPU 0 instructions: 21000003 cycles: 19132787 heartbeat IPC: 0.723015 cumulative IPC: 0.72291 (Simulation time: 0 hr 13 min 31 sec) 
Heartbeat CPU 0 instructions: 22000003 cycles: 21021301 heartbeat IPC: 0.529517 cumulative IPC: 0.701558 (Simulation time: 0 hr 14 min 21 sec) 
Heartbeat CPU 0 instructions: 23000000 cycles: 23199194 heartbeat IPC: 0.459158 cumulative IPC: 0.67418 (Simulation time: 0 hr 15 min 15 sec) 
Heartbeat CPU 0 instructions: 24000000 cycles: 30160924 heartbeat IPC: 0.143642 cumulative IPC: 0.533447 (Simulation time: 0 hr 17 min 2 sec) 
Heartbeat CPU 0 instructions: 25000003 cycles: 32665323 heartbeat IPC: 0.399299 cumulative IPC: 0.521761 (Simulation time: 0 hr 17 min 58 sec) 
Heartbeat CPU 0 instructions: 26000002 cycles: 34925804 heartbeat IPC: 0.442383 cumulative IPC: 0.515974 (Simulation time: 0 hr 18 min 52 sec) 
Heartbeat CPU 0 instructions: 27000001 cycles: 36343611 heartbeat IPC: 0.705314 cumulative IPC: 0.524253 (Simulation time: 0 hr 19 min 32 sec) 
Heartbeat CPU 0 instructions: 28000000 cycles: 37747536 heartbeat IPC: 0.712288 cumulative IPC: 0.532056 (Simulation time: 0 hr 20 min 15 sec) 
Heartbeat CPU 0 instructions: 29000003 cycles: 39124720 heartbeat IPC: 0.726122 cumulative IPC: 0.539647 (Simulation time: 0 hr 20 min 55 sec) 
Heartbeat CPU 0 instructions: 30000000 cycles: 40494631 heartbeat IPC: 0.729972 cumulative IPC: 0.546775 (Simulation time: 0 hr 21 min 39 sec) 
Heartbeat CPU 0 instructions: 31000000 cycles: 41768023 heartbeat IPC: 0.785304 cumulative IPC: 0.554799 (Simulation time: 0 hr 22 min 19 sec) 
Heartbeat CPU 0 instructions: 32000000 cycles: 43032242 heartbeat IPC: 0.791002 cumulative IPC: 0.562433 (Simulation time: 0 hr 23 min 1 sec) 
Heartbeat CPU 0 instructions: 33000001 cycles: 44513933 heartbeat IPC: 0.674905 cumulative IPC: 0.566538 (Simulation time: 0 hr 23 min 44 sec) 
Heartbeat CPU 0 instructions: 34000001 cycles: 45842645 heartbeat IPC: 0.752609 cumulative IPC: 0.572435 (Simulation time: 0 hr 24 min 23 sec) 
Heartbeat CPU 0 instructions: 35000002 cycles: 47156475 heartbeat IPC: 0.761134 cumulative IPC: 0.578169 (Simulation time: 0 hr 25 min 5 sec) 
Heartbeat CPU 0 instructions: 36000000 cycles: 48532284 heartbeat IPC: 0.726844 cumulative IPC: 0.582753 (Simulation time: 0 hr 25 min 48 sec) 
Heartbeat CPU 0 instructions: 37000000 cycles: 50022877 heartbeat IPC: 0.670874 cumulative IPC: 0.585602 (Simulation time: 0 hr 26 min 28 sec) 
Heartbeat CPU 0 instructions: 38000003 cycles: 51309442 heartbeat IPC: 0.777266 cumulative IPC: 0.590805 (Simulation time: 0 hr 27 min 6 sec) 
Heartbeat CPU 0 instructions: 39000002 cycles: 52626389 heartbeat IPC: 0.759331 cumulative IPC: 0.595362 (Simulation time: 0 hr 27 min 45 sec) 
Heartbeat CPU 0 instructions: 40000000 cycles: 54103853 heartbeat IPC: 0.676834 cumulative IPC: 0.59776 (Simulation time: 0 hr 28 min 28 sec) 
Heartbeat CPU 0 instructions: 41000000 cycles: 55521080 heartbeat IPC: 0.705603 cumulative IPC: 0.600722 (Simulation time: 0 hr 29 min 10 sec) 
Heartbeat CPU 0 instructions: 42000002 cycles: 56844700 heartbeat IPC: 0.755505 cumulative IPC: 0.604593 (Simulation time: 0 hr 29 min 51 sec) 
Heartbeat CPU 0 instructions: 43000001 cycles: 58249031 heartbeat IPC: 0.712082 cumulative IPC: 0.607371 (Simulation time: 0 hr 30 min 32 sec) 
Heartbeat CPU 0 instructions: 44000000 cycles: 59654502 heartbeat IPC: 0.711505 cumulative IPC: 0.609997 (Simulation time: 0 hr 31 min 11 sec) 
Heartbeat CPU 0 instructions: 45000001 cycles: 60991483 heartbeat IPC: 0.747955 cumulative IPC: 0.613228 (Simulation time: 0 hr 31 min 51 sec) 
Heartbeat CPU 0 instructions: 46000002 cycles: 62330090 heartbeat IPC: 0.747046 cumulative IPC: 0.616295 (Simulation time: 0 hr 32 min 33 sec) 
Heartbeat CPU 0 instructions: 47000001 cycles: 63797271 heartbeat IPC: 0.681578 cumulative IPC: 0.617895 (Simulation time: 0 hr 33 min 14 sec) 
Heartbeat CPU 0 instructions: 48000000 cycles: 65146134 heartbeat IPC: 0.741364 cumulative IPC: 0.620615 (Simulation time: 0 hr 33 min 53 sec) 
Heartbeat CPU 0 instructions: 49000001 cycles: 66437514 heartbeat IPC: 0.774366 cumulative IPC: 0.62379 (Simulation time: 0 hr 34 min 34 sec) 
Heartbeat CPU 0 instructions: 50000001 cycles: 67872475 heartbeat IPC: 0.696883 cumulative IPC: 0.62543 (Simulation time: 0 hr 35 min 15 sec) 
Heartbeat CPU 0 instructions: 51000002 cycles: 69226420 heartbeat IPC: 0.738583 cumulative IPC: 0.627776 (Simulation time: 0 hr 35 min 54 sec) 
Heartbeat CPU 0 instructions: 52000000 cycles: 70611094 heartbeat IPC: 0.72219 cumulative IPC: 0.629736 (Simulation time: 0 hr 36 min 36 sec) 
Heartbeat CPU 0 instructions: 53000001 cycles: 72038314 heartbeat IPC: 0.700664 cumulative IPC: 0.631222 (Simulation time: 0 hr 37 min 17 sec) 
Heartbeat CPU 0 instructions: 54000001 cycles: 73498885 heartbeat IPC: 0.684664 cumulative IPC: 0.632344 (Simulation time: 0 hr 38 min 1 sec) 
Heartbeat CPU 0 instructions: 55000003 cycles: 74888424 heartbeat IPC: 0.719665 cumulative IPC: 0.634054 (Simulation time: 0 hr 38 min 43 sec) 
Heartbeat CPU 0 instructions: 56000000 cycles: 76243202 heartbeat IPC: 0.738126 cumulative IPC: 0.636003 (Simulation time: 0 hr 39 min 24 sec) 
Heartbeat CPU 0 instructions: 57000001 cycles: 77633587 heartbeat IPC: 0.719226 cumulative IPC: 0.637573 (Simulation time: 0 hr 40 min 13 sec) 
Heartbeat CPU 0 instructions: 58000002 cycles: 79032813 heartbeat IPC: 0.714682 cumulative IPC: 0.639009 (Simulation time: 0 hr 40 min 56 sec) 
Heartbeat CPU 0 instructions: 59000001 cycles: 80405013 heartbeat IPC: 0.728756 cumulative IPC: 0.640619 (Simulation time: 0 hr 41 min 43 sec) 
Heartbeat CPU 0 instructions: 60000000 cycles: 81790972 heartbeat IPC: 0.721521 cumulative IPC: 0.642059 (Simulation time: 0 hr 42 min 30 sec) 
Heartbeat CPU 0 instructions: 61000003 cycles: 83211166 heartbeat IPC: 0.704131 cumulative IPC: 0.643171 (Simulation time: 0 hr 43 min 18 sec) 
Heartbeat CPU 0 instructions: 62000003 cycles: 84630195 heartbeat IPC: 0.704707 cumulative IPC: 0.644253 (Simulation time: 0 hr 44 min 2 sec) 
Heartbeat CPU 0 instructions: 63000000 cycles: 86049287 heartbeat IPC: 0.704674 cumulative IPC: 0.645297 (Simulation time: 0 hr 44 min 45 sec) 
Heartbeat CPU 0 instructions: 64000000 cycles: 87455362 heartbeat IPC: 0.7112 cumulative IPC: 0.646406 (Simulation time: 0 hr 45 min 30 sec) 
Heartbeat CPU 0 instructions: 65000003 cycles: 88775423 heartbeat IPC: 0.757543 cumulative IPC: 0.648135 (Simulation time: 0 hr 46 min 12 sec) 
Heartbeat CPU 0 instructions: 66000001 cycles: 90155379 heartbeat IPC: 0.724659 cumulative IPC: 0.649359 (Simulation time: 0 hr 46 min 55 sec) 
Heartbeat CPU 0 instructions: 67000001 cycles: 91615675 heartbeat IPC: 0.684793 cumulative IPC: 0.649949 (Simulation time: 0 hr 47 min 37 sec) 
Heartbeat CPU 0 instructions: 68000000 cycles: 93087230 heartbeat IPC: 0.679553 cumulative IPC: 0.650438 (Simulation time: 0 hr 48 min 18 sec) 
Heartbeat CPU 0 instructions: 69000003 cycles: 94395366 heartbeat IPC: 0.764449 cumulative IPC: 0.652086 (Simulation time: 0 hr 48 min 58 sec) 
Heartbeat CPU 0 instructions: 70000003 cycles: 95841212 heartbeat IPC: 0.691637 cumulative IPC: 0.652708 (Simulation time: 0 hr 49 min 40 sec) 
Heartbeat CPU 0 instructions: 71000000 cycles: 97381905 heartbeat IPC: 0.649057 cumulative IPC: 0.652648 (Simulation time: 0 hr 50 min 26 sec) 
Heartbeat CPU 0 instructions: 72000000 cycles: 98729608 heartbeat IPC: 0.742003 cumulative IPC: 0.653918 (Simulation time: 0 hr 51 min 8 sec) 
Heartbeat CPU 0 instructions: 73000003 cycles: 100109749 heartbeat IPC: 0.724566 cumulative IPC: 0.654932 (Simulation time: 0 hr 51 min 48 sec) 
Heartbeat CPU 0 instructions: 74000002 cycles: 101667956 heartbeat IPC: 0.641763 cumulative IPC: 0.654722 (Simulation time: 0 hr 52 min 34 sec) 
Heartbeat CPU 0 instructions: 75000002 cycles: 103056212 heartbeat IPC: 0.720328 cumulative IPC: 0.65564 (Simulation time: 0 hr 53 min 16 sec) 
Heartbeat CPU 0 instructions: 76000000 cycles: 104521509 heartbeat IPC: 0.682454 cumulative IPC: 0.656031 (Simulation time: 0 hr 53 min 59 sec) 
Heartbeat CPU 0 instructions: 77000001 cycles: 106050532 heartbeat IPC: 0.654013 cumulative IPC: 0.656001 (Simulation time: 0 hr 54 min 42 sec) 
Heartbeat CPU 0 instructions: 78000002 cycles: 107434508 heartbeat IPC: 0.722557 cumulative IPC: 0.656891 (Simulation time: 0 hr 55 min 25 sec) 
Heartbeat CPU 0 instructions: 79000000 cycles: 108854695 heartbeat IPC: 0.704131 cumulative IPC: 0.65753 (Simulation time: 0 hr 56 min 10 sec) 
Heartbeat CPU 0 instructions: 80000000 cycles: 110415328 heartbeat IPC: 0.640766 cumulative IPC: 0.657284 (Simulation time: 0 hr 56 min 55 sec) 
Heartbeat CPU 0 instructions: 81000003 cycles: 111779011 heartbeat IPC: 0.73331 cumulative IPC: 0.658245 (Simulation time: 0 hr 57 min 36 sec) 
Heartbeat CPU 0 instructions: 82000001 cycles: 113203815 heartbeat IPC: 0.70185 cumulative IPC: 0.658814 (Simulation time: 0 hr 58 min 17 sec) 
Heartbeat CPU 0 instructions: 83000001 cycles: 114790799 heartbeat IPC: 0.630126 cumulative IPC: 0.658403 (Simulation time: 0 hr 58 min 58 sec) 
Heartbeat CPU 0 instructions: 84000000 cycles: 116164837 heartbeat IPC: 0.727781 cumulative IPC: 0.659253 (Simulation time: 0 hr 59 min 38 sec) 
Heartbeat CPU 0 instructions: 85000002 cycles: 117510910 heartbeat IPC: 0.742903 cumulative IPC: 0.660244 (Simulation time: 1 hr 0 min 11 sec) 
Heartbeat CPU 0 instructions: 86000002 cycles: 119108635 heartbeat IPC: 0.62589 cumulative IPC: 0.659767 (Simulation time: 1 hr 0 min 53 sec) 
Heartbeat CPU 0 instructions: 87000003 cycles: 120573003 heartbeat IPC: 0.682889 cumulative IPC: 0.660058 (Simulation time: 1 hr 1 min 33 sec) 
Heartbeat CPU 0 instructions: 88000000 cycles: 121894547 heartbeat IPC: 0.756688 cumulative IPC: 0.66114 (Simulation time: 1 hr 2 min 4 sec) 
Heartbeat CPU 0 instructions: 89000003 cycles: 123457138 heartbeat IPC: 0.639965 cumulative IPC: 0.660863 (Simulation time: 1 hr 2 min 34 sec) 
Heartbeat CPU 0 instructions: 90000001 cycles: 125001038 heartbeat IPC: 0.647709 cumulative IPC: 0.660695 (Simulation time: 1 hr 3 min 9 sec) 
Heartbeat CPU 0 instructions: 91000000 cycles: 126283049 heartbeat IPC: 0.780024 cumulative IPC: 0.661946 (Simulation time: 1 hr 3 min 42 sec) 
Heartbeat CPU 0 instructions: 92000000 cycles: 127842551 heartbeat IPC: 0.64123 cumulative IPC: 0.661685 (Simulation time: 1 hr 4 min 17 sec) 
Heartbeat CPU 0 instructions: 93000003 cycles: 129393069 heartbeat IPC: 0.644948 cumulative IPC: 0.661478 (Simulation time: 1 hr 4 min 51 sec) 
Heartbeat CPU 0 instructions: 94000002 cycles: 130714035 heartbeat IPC: 0.757021 cumulative IPC: 0.662473 (Simulation time: 1 hr 5 min 21 sec) 
Heartbeat CPU 0 instructions: 95000001 cycles: 132220959 heartbeat IPC: 0.663603 cumulative IPC: 0.662487 (Simulation time: 1 hr 5 min 53 sec) 
Heartbeat CPU 0 instructions: 96000000 cycles: 133784596 heartbeat IPC: 0.639534 cumulative IPC: 0.66221 (Simulation time: 1 hr 6 min 28 sec) 
Heartbeat CPU 0 instructions: 97000002 cycles: 135160322 heartbeat IPC: 0.72689 cumulative IPC: 0.662888 (Simulation time: 1 hr 7 min 1 sec) 
Heartbeat CPU 0 instructions: 98000000 cycles: 136686813 heartbeat IPC: 0.655096 cumulative IPC: 0.662799 (Simulation time: 1 hr 7 min 39 sec) 
Heartbeat CPU 0 instructions: 99000001 cycles: 138194994 heartbeat IPC: 0.663051 cumulative IPC: 0.662802 (Simulation time: 1 hr 8 min 16 sec) 
Heartbeat CPU 0 instructions: 100000000 cycles: 139586035 heartbeat IPC: 0.718885 cumulative IPC: 0.663377 (Simulation time: 1 hr 8 min 52 sec) 
Heartbeat CPU 0 instructions: 101000002 cycles: 141209973 heartbeat IPC: 0.615788 cumulative IPC: 0.662814 (Simulation time: 1 hr 9 min 27 sec) 
Heartbeat CPU 0 instructions: 102000002 cycles: 142750707 heartbeat IPC: 0.649041 cumulative IPC: 0.662661 (Simulation time: 1 hr 9 min 57 sec) 
Heartbeat CPU 0 instructions: 103000001 cycles: 144128581 heartbeat IPC: 0.725755 cumulative IPC: 0.663281 (Simulation time: 1 hr 10 min 25 sec) 
Heartbeat CPU 0 instructions: 104000000 cycles: 145738342 heartbeat IPC: 0.62121 cumulative IPC: 0.662803 (Simulation time: 1 hr 10 min 56 sec) 
Heartbeat CPU 0 instructions: 105000001 cycles: 147232117 heartbeat IPC: 0.669446 cumulative IPC: 0.662873 (Simulation time: 1 hr 11 min 24 sec) 
Heartbeat CPU 0 instructions: 106000001 cycles: 148607348 heartbeat IPC: 0.727151 cumulative IPC: 0.663484 (Simulation time: 1 hr 11 min 51 sec) 
Heartbeat CPU 0 instructions: 107000001 cycles: 150251826 heartbeat IPC: 0.608096 cumulative IPC: 0.662861 (Simulation time: 1 hr 12 min 21 sec) 
Heartbeat CPU 0 instructions: 108000000 cycles: 151726658 heartbeat IPC: 0.678043 cumulative IPC: 0.663013 (Simulation time: 1 hr 12 min 48 sec) 
Heartbeat CPU 0 instructions: 109000003 cycles: 153115115 heartbeat IPC: 0.720226 cumulative IPC: 0.663545 (Simulation time: 1 hr 13 min 13 sec) 
Heartbeat CPU 0 instructions: 110000001 cycles: 154823430 heartbeat IPC: 0.585371 cumulative IPC: 0.66266 (Simulation time: 1 hr 13 min 39 sec) 
Finished CPU 0 instructions: 100000003 cycles: 150906923 cummulative IPC: 0.66266 (Simulation time: 1 hr 13 min 39 sec) 

ChampSim completed all CPUs

Region of Interest Statistics

CPU 0 cummulative IPC: 0.66266 instructions: 100000003 cycles: 150906923
LLC TOTAL     ACCESS:    6070005  HIT:    1662238  MISS:    4407767
LLC LOAD      ACCESS:     445882  HIT:         89  MISS:     445793
LLC RFO       ACCESS:    2591726  HIT:     546605  MISS:    2045121
LLC PREFETCH  ACCESS:     440441  HIT:          1  MISS:     440440
LLC WRITEBACK ACCESS:    2591956  HIT:    1115543  MISS:    1476413
