
*** ChampSim Multicore Out-of-Order Simulator ***

Warmup Instructions: 10000000
Simulation Instructions: 100000000
Configuration: 2
Number of CPUs: 1
LLC sets: 2048
LLC ways: 16
Off-chip DRAM Channels: 1 Width: 64-bit Data Rate: 1600 MT/s

CPU 0 runs /datasets/cs240c-wi22-a00-public/data/Assignment2-gz/soplex_217B.trace.gz
CPU 0 L1D next line prefetcher
CPU 0 L2C IP-based stride prefetcher
Heartbeat CPU 0 instructions: 1000002 cycles: 441689 heartbeat IPC: 2.26404 cumulative IPC: 2.26404 (Simulation time: 0 hr 0 min 40 sec) 
Heartbeat CPU 0 instructions: 2000003 cycles: 800733 heartbeat IPC: 2.78518 cumulative IPC: 2.49772 (Simulation time: 0 hr 1 min 10 sec) 
Heartbeat CPU 0 instructions: 3000002 cycles: 1245833 heartbeat IPC: 2.24668 cumulative IPC: 2.40803 (Simulation time: 0 hr 1 min 43 sec) 
Heartbeat CPU 0 instructions: 4000000 cycles: 1673800 heartbeat IPC: 2.33662 cumulative IPC: 2.38977 (Simulation time: 0 hr 2 min 19 sec) 
Heartbeat CPU 0 instructions: 5000001 cycles: 2057849 heartbeat IPC: 2.60384 cumulative IPC: 2.42972 (Simulation time: 0 hr 2 min 48 sec) 
Heartbeat CPU 0 instructions: 6000000 cycles: 2432133 heartbeat IPC: 2.67177 cumulative IPC: 2.46697 (Simulation time: 0 hr 3 min 17 sec) 
Heartbeat CPU 0 instructions: 7000003 cycles: 2961698 heartbeat IPC: 1.88835 cumulative IPC: 2.36351 (Simulation time: 0 hr 3 min 46 sec) 
Heartbeat CPU 0 instructions: 8000000 cycles: 3409691 heartbeat IPC: 2.23217 cumulative IPC: 2.34625 (Simulation time: 0 hr 4 min 25 sec) 
Heartbeat CPU 0 instructions: 9000001 cycles: 3834074 heartbeat IPC: 2.35636 cumulative IPC: 2.34737 (Simulation time: 0 hr 5 min 3 sec) 
Heartbeat CPU 0 instructions: 10000000 cycles: 4246437 heartbeat IPC: 2.42505 cumulative IPC: 2.35492 (Simulation time: 0 hr 5 min 35 sec) 

Warmup complete CPU 0 instructions: 10000004 cycles: 4246438 (Simulation time: 0 hr 5 min 35 sec) 

Heartbeat CPU 0 instructions: 11000002 cycles: 7896092 heartbeat IPC: 0.273999 cumulative IPC: 0.273998 (Simulation time: 0 hr 6 min 28 sec) 
Heartbeat CPU 0 instructions: 12000000 cycles: 10426741 heartbeat IPC: 0.395155 cumulative IPC: 0.323608 (Simulation time: 0 hr 7 min 7 sec) 
Heartbeat CPU 0 instructions: 13000000 cycles: 11748229 heartbeat IPC: 0.756723 cumulative IPC: 0.399904 (Simulation time: 0 hr 7 min 34 sec) 
Heartbeat CPU 0 instructions: 14000000 cycles: 14477976 heartbeat IPC: 0.366334 cumulative IPC: 0.390948 (Simulation time: 0 hr 8 min 10 sec) 
Heartbeat CPU 0 instructions: 15000000 cycles: 17392010 heartbeat IPC: 0.343167 cumulative IPC: 0.380356 (Simulation time: 0 hr 8 min 56 sec) 
Heartbeat CPU 0 instructions: 16000000 cycles: 21398346 heartbeat IPC: 0.249605 cumulative IPC: 0.349815 (Simulation time: 0 hr 9 min 54 sec) 
Heartbeat CPU 0 instructions: 17000002 cycles: 23834518 heartbeat IPC: 0.410481 cumulative IPC: 0.35736 (Simulation time: 0 hr 10 min 34 sec) 
Heartbeat CPU 0 instructions: 18000003 cycles: 26539668 heartbeat IPC: 0.369666 cumulative IPC: 0.358853 (Simulation time: 0 hr 11 min 21 sec) 
Heartbeat CPU 0 instructions: 19000000 cycles: 30179876 heartbeat IPC: 0.274709 cumulative IPC: 0.347042 (Simulation time: 0 hr 12 min 14 sec) 
Heartbeat CPU 0 instructions: 20000000 cycles: 31515840 heartbeat IPC: 0.748523 cumulative IPC: 0.366711 (Simulation time: 0 hr 12 min 43 sec) 
Heartbeat CPU 0 instructions: 21000000 cycles: 32976808 heartbeat IPC: 0.684478 cumulative IPC: 0.38287 (Simulation time: 0 hr 13 min 13 sec) 
Heartbeat CPU 0 instructions: 22000001 cycles: 36213164 heartbeat IPC: 0.30899 cumulative IPC: 0.37539 (Simulation time: 0 hr 13 min 55 sec) 
Heartbeat CPU 0 instructions: 23000003 cycles: 40151586 heartbeat IPC: 0.253909 cumulative IPC: 0.362065 (Simulation time: 0 hr 14 min 49 sec) 
Heartbeat CPU 0 instructions: 24000000 cycles: 43387969 heartbeat IPC: 0.308986 cumulative IPC: 0.357676 (Simulation time: 0 hr 15 min 38 sec) 
Heartbeat CPU 0 instructions: 25000001 cycles: 45001848 heartbeat IPC: 0.619626 cumulative IPC: 0.368049 (Simulation time: 0 hr 16 min 17 sec) 
Heartbeat CPU 0 instructions: 26000003 cycles: 48940084 heartbeat IPC: 0.253921 cumulative IPC: 0.357993 (Simulation time: 0 hr 17 min 10 sec) 
Heartbeat CPU 0 instructions: 27000002 cycles: 51328254 heartbeat IPC: 0.41873 cumulative IPC: 0.361074 (Simulation time: 0 hr 17 min 45 sec) 
Heartbeat CPU 0 instructions: 28000000 cycles: 52659353 heartbeat IPC: 0.751257 cumulative IPC: 0.371802 (Simulation time: 0 hr 18 min 13 sec) 
Heartbeat CPU 0 instructions: 29000002 cycles: 55387886 heartbeat IPC: 0.366498 cumulative IPC: 0.371519 (Simulation time: 0 hr 18 min 49 sec) 
Heartbeat CPU 0 instructions: 30000002 cycles: 58355234 heartbeat IPC: 0.337001 cumulative IPC: 0.369626 (Simulation time: 0 hr 19 min 33 sec) 
Heartbeat CPU 0 instructions: 31000000 cycles: 61823148 heartbeat IPC: 0.288357 cumulative IPC: 0.364731 (Simulation time: 0 hr 20 min 23 sec) 
Heartbeat CPU 0 instructions: 32000000 cycles: 63714246 heartbeat IPC: 0.528793 cumulative IPC: 0.369948 (Simulation time: 0 hr 21 min 4 sec) 
Heartbeat CPU 0 instructions: 33000001 cycles: 67341568 heartbeat IPC: 0.275686 cumulative IPC: 0.364529 (Simulation time: 0 hr 21 min 57 sec) 
Heartbeat CPU 0 instructions: 34000000 cycles: 70196928 heartbeat IPC: 0.350218 cumulative IPC: 0.363909 (Simulation time: 0 hr 22 min 37 sec) 
Heartbeat CPU 0 instructions: 35000002 cycles: 71545316 heartbeat IPC: 0.741628 cumulative IPC: 0.371477 (Simulation time: 0 hr 23 min 2 sec) 
Heartbeat CPU 0 instructions: 36000000 cycles: 73789876 heartbeat IPC: 0.445521 cumulative IPC: 0.373867 (Simulation time: 0 hr 23 min 36 sec) 
Heartbeat CPU 0 instructions: 37000002 cycles: 76406082 heartbeat IPC: 0.382234 cumulative IPC: 0.37417 (Simulation time: 0 hr 24 min 19 sec) 
Heartbeat CPU 0 instructions: 38000000 cycles: 80103819 heartbeat IPC: 0.270435 cumulative IPC: 0.369114 (Simulation time: 0 hr 25 min 13 sec) 
Heartbeat CPU 0 instructions: 39000001 cycles: 82298664 heartbeat IPC: 0.455613 cumulative IPC: 0.371546 (Simulation time: 0 hr 25 min 53 sec) 
Heartbeat CPU 0 instructions: 40000000 cycles: 85528373 heartbeat IPC: 0.309625 cumulative IPC: 0.369086 (Simulation time: 0 hr 26 min 43 sec) 
Heartbeat CPU 0 instructions: 41000000 cycles: 88690234 heartbeat IPC: 0.316269 cumulative IPC: 0.367108 (Simulation time: 0 hr 27 min 26 sec) 
Heartbeat CPU 0 instructions: 42000002 cycles: 90046465 heartbeat IPC: 0.737339 cumulative IPC: 0.37296 (Simulation time: 0 hr 27 min 53 sec) 
Heartbeat CPU 0 instructions: 43000001 cycles: 91865484 heartbeat IPC: 0.549746 cumulative IPC: 0.37663 (Simulation time: 0 hr 28 min 25 sec) 
Heartbeat CPU 0 instructions: 44000000 cycles: 94671468 heartbeat IPC: 0.356381 cumulative IPC: 0.376002 (Simulation time: 0 hr 29 min 7 sec) 
Heartbeat CPU 0 instructions: 45000003 cycles: 98595285 heartbeat IPC: 0.254855 cumulative IPC: 0.370964 (Simulation time: 0 hr 29 min 59 sec) 
Heartbeat CPU 0 instructions: 46000000 cycles: 101419683 heartbeat IPC: 0.354057 cumulative IPC: 0.370472 (Simulation time: 0 hr 30 min 47 sec) 
Heartbeat CPU 0 instructions: 47000001 cycles: 103205091 heartbeat IPC: 0.560097 cumulative IPC: 0.373893 (Simulation time: 0 hr 31 min 27 sec) 
Heartbeat CPU 0 instructions: 48000000 cycles: 106846884 heartbeat IPC: 0.27459 cumulative IPC: 0.370369 (Simulation time: 0 hr 32 min 16 sec) 
Heartbeat CPU 0 instructions: 49000000 cycles: 109460890 heartbeat IPC: 0.382555 cumulative IPC: 0.370671 (Simulation time: 0 hr 32 min 56 sec) 
Heartbeat CPU 0 instructions: 50000001 cycles: 110806527 heartbeat IPC: 0.743143 cumulative IPC: 0.375375 (Simulation time: 0 hr 33 min 24 sec) 
Heartbeat CPU 0 instructions: 51000000 cycles: 113370297 heartbeat IPC: 0.39005 cumulative IPC: 0.37572 (Simulation time: 0 hr 33 min 58 sec) 
Heartbeat CPU 0 instructions: 52000000 cycles: 116086756 heartbeat IPC: 0.368126 cumulative IPC: 0.375535 (Simulation time: 0 hr 34 min 41 sec) 
Heartbeat CPU 0 instructions: 53000000 cycles: 119525892 heartbeat IPC: 0.290771 cumulative IPC: 0.373007 (Simulation time: 0 hr 35 min 27 sec) 
Heartbeat CPU 0 instructions: 54000000 cycles: 121526153 heartbeat IPC: 0.499935 cumulative IPC: 0.375171 (Simulation time: 0 hr 36 min 6 sec) 
Heartbeat CPU 0 instructions: 55000000 cycles: 124920905 heartbeat IPC: 0.294572 cumulative IPC: 0.372904 (Simulation time: 0 hr 36 min 57 sec) 
Heartbeat CPU 0 instructions: 56000000 cycles: 127834233 heartbeat IPC: 0.34325 cumulative IPC: 0.372205 (Simulation time: 0 hr 37 min 38 sec) 
Heartbeat CPU 0 instructions: 57000003 cycles: 129182417 heartbeat IPC: 0.741741 cumulative IPC: 0.376193 (Simulation time: 0 hr 38 min 5 sec) 
Heartbeat CPU 0 instructions: 58000000 cycles: 131379512 heartbeat IPC: 0.455145 cumulative IPC: 0.377557 (Simulation time: 0 hr 38 min 36 sec) 
Heartbeat CPU 0 instructions: 59000001 cycles: 133976715 heartbeat IPC: 0.38503 cumulative IPC: 0.377707 (Simulation time: 0 hr 39 min 20 sec) 
Heartbeat CPU 0 instructions: 60000000 cycles: 137636277 heartbeat IPC: 0.273256 cumulative IPC: 0.374841 (Simulation time: 0 hr 40 min 9 sec) 
Heartbeat CPU 0 instructions: 61000000 cycles: 139995073 heartbeat IPC: 0.423945 cumulative IPC: 0.375694 (Simulation time: 0 hr 40 min 51 sec) 
Heartbeat CPU 0 instructions: 62000000 cycles: 142804735 heartbeat IPC: 0.355915 cumulative IPC: 0.375293 (Simulation time: 0 hr 41 min 38 sec) 
Heartbeat CPU 0 instructions: 63000001 cycles: 146308255 heartbeat IPC: 0.285428 cumulative IPC: 0.373077 (Simulation time: 0 hr 42 min 24 sec) 
Heartbeat CPU 0 instructions: 64000000 cycles: 147655896 heartbeat IPC: 0.742037 cumulative IPC: 0.376544 (Simulation time: 0 hr 42 min 50 sec) 
Heartbeat CPU 0 instructions: 65000000 cycles: 149195984 heartbeat IPC: 0.649314 cumulative IPC: 0.379442 (Simulation time: 0 hr 43 min 21 sec) 
Heartbeat CPU 0 instructions: 66000002 cycles: 152295984 heartbeat IPC: 0.322581 cumulative IPC: 0.378252 (Simulation time: 0 hr 44 min 7 sec) 
Heartbeat CPU 0 instructions: 67000000 cycles: 155900367 heartbeat IPC: 0.277439 cumulative IPC: 0.375856 (Simulation time: 0 hr 44 min 57 sec) 
Heartbeat CPU 0 instructions: 68000000 cycles: 161950153 heartbeat IPC: 0.165295 cumulative IPC: 0.367778 (Simulation time: 0 hr 45 min 53 sec) 
Heartbeat CPU 0 instructions: 69000001 cycles: 166156789 heartbeat IPC: 0.23772 cumulative IPC: 0.364399 (Simulation time: 0 hr 46 min 43 sec) 
Heartbeat CPU 0 instructions: 70000002 cycles: 170356053 heartbeat IPC: 0.238137 cumulative IPC: 0.361207 (Simulation time: 0 hr 47 min 43 sec) 
Heartbeat CPU 0 instructions: 71000002 cycles: 174868570 heartbeat IPC: 0.221606 cumulative IPC: 0.357515 (Simulation time: 0 hr 48 min 37 sec) 
Heartbeat CPU 0 instructions: 72000000 cycles: 178324268 heartbeat IPC: 0.289377 cumulative IPC: 0.356163 (Simulation time: 0 hr 49 min 25 sec) 
Heartbeat CPU 0 instructions: 73000000 cycles: 181672633 heartbeat IPC: 0.298653 cumulative IPC: 0.355077 (Simulation time: 0 hr 50 min 18 sec) 
Heartbeat CPU 0 instructions: 74000000 cycles: 185550243 heartbeat IPC: 0.257891 cumulative IPC: 0.352999 (Simulation time: 0 hr 50 min 57 sec) 
Heartbeat CPU 0 instructions: 75000002 cycles: 189505267 heartbeat IPC: 0.252843 cumulative IPC: 0.35086 (Simulation time: 0 hr 51 min 50 sec) 
Heartbeat CPU 0 instructions: 76000000 cycles: 192116116 heartbeat IPC: 0.383016 cumulative IPC: 0.351307 (Simulation time: 0 hr 52 min 31 sec) 
Heartbeat CPU 0 instructions: 77000000 cycles: 195799792 heartbeat IPC: 0.271468 cumulative IPC: 0.349772 (Simulation time: 0 hr 53 min 24 sec) 
Heartbeat CPU 0 instructions: 78000002 cycles: 198012016 heartbeat IPC: 0.452035 cumulative IPC: 0.35094 (Simulation time: 0 hr 54 min 8 sec) 
Heartbeat CPU 0 instructions: 79000002 cycles: 199874016 heartbeat IPC: 0.537057 cumulative IPC: 0.352711 (Simulation time: 0 hr 54 min 50 sec) 
Heartbeat CPU 0 instructions: 80000000 cycles: 201042697 heartbeat IPC: 0.855664 cumulative IPC: 0.355698 (Simulation time: 0 hr 55 min 21 sec) 
Heartbeat CPU 0 instructions: 81000003 cycles: 203284254 heartbeat IPC: 0.44612 cumulative IPC: 0.356716 (Simulation time: 0 hr 56 min 3 sec) 
Heartbeat CPU 0 instructions: 82000001 cycles: 206315596 heartbeat IPC: 0.329886 cumulative IPC: 0.356314 (Simulation time: 0 hr 56 min 51 sec) 
Heartbeat CPU 0 instructions: 83000002 cycles: 209046020 heartbeat IPC: 0.366244 cumulative IPC: 0.356446 (Simulation time: 0 hr 57 min 33 sec) 
Heartbeat CPU 0 instructions: 84000000 cycles: 211362114 heartbeat IPC: 0.431761 cumulative IPC: 0.357288 (Simulation time: 0 hr 58 min 16 sec) 
Heartbeat CPU 0 instructions: 85000000 cycles: 213007083 heartbeat IPC: 0.607914 cumulative IPC: 0.359263 (Simulation time: 0 hr 58 min 56 sec) 
Heartbeat CPU 0 instructions: 86000001 cycles: 217090565 heartbeat IPC: 0.244889 cumulative IPC: 0.357069 (Simulation time: 0 hr 59 min 58 sec) 
Heartbeat CPU 0 instructions: 87000000 cycles: 219741138 heartbeat IPC: 0.377277 cumulative IPC: 0.357317 (Simulation time: 1 hr 0 min 39 sec) 
Heartbeat CPU 0 instructions: 88000000 cycles: 221095011 heartbeat IPC: 0.738622 cumulative IPC: 0.359698 (Simulation time: 1 hr 1 min 4 sec) 
Heartbeat CPU 0 instructions: 89000003 cycles: 223719288 heartbeat IPC: 0.381058 cumulative IPC: 0.359953 (Simulation time: 1 hr 1 min 38 sec) 
Heartbeat CPU 0 instructions: 90000002 cycles: 226517065 heartbeat IPC: 0.357426 cumulative IPC: 0.359922 (Simulation time: 1 hr 2 min 13 sec) 
Heartbeat CPU 0 instructions: 91000001 cycles: 230089356 heartbeat IPC: 0.279932 cumulative IPC: 0.358656 (Simulation time: 1 hr 2 min 58 sec) 
Heartbeat CPU 0 instructions: 92000000 cycles: 232086449 heartbeat IPC: 0.500727 cumulative IPC: 0.359902 (Simulation time: 1 hr 3 min 37 sec) 
Heartbeat CPU 0 instructions: 93000000 cycles: 235612473 heartbeat IPC: 0.283606 cumulative IPC: 0.358739 (Simulation time: 1 hr 4 min 31 sec) 
Heartbeat CPU 0 instructions: 94000001 cycles: 238541945 heartbeat IPC: 0.341359 cumulative IPC: 0.358522 (Simulation time: 1 hr 5 min 15 sec) 
Heartbeat CPU 0 instructions: 95000003 cycles: 239908689 heartbeat IPC: 0.731667 cumulative IPC: 0.360686 (Simulation time: 1 hr 5 min 44 sec) 
Heartbeat CPU 0 instructions: 96000000 cycles: 242162752 heartbeat IPC: 0.443642 cumulative IPC: 0.361472 (Simulation time: 1 hr 6 min 12 sec) 
Heartbeat CPU 0 instructions: 97000002 cycles: 244645848 heartbeat IPC: 0.402724 cumulative IPC: 0.361898 (Simulation time: 1 hr 6 min 49 sec) 
Heartbeat CPU 0 instructions: 98000003 cycles: 248889168 heartbeat IPC: 0.235665 cumulative IPC: 0.359708 (Simulation time: 1 hr 7 min 36 sec) 
Heartbeat CPU 0 instructions: 99000000 cycles: 251837998 heartbeat IPC: 0.339117 cumulative IPC: 0.359463 (Simulation time: 1 hr 8 min 14 sec) 
Heartbeat CPU 0 instructions: 100000000 cycles: 253762837 heartbeat IPC: 0.519524 cumulative IPC: 0.360698 (Simulation time: 1 hr 8 min 47 sec) 
Heartbeat CPU 0 instructions: 101000001 cycles: 257742979 heartbeat IPC: 0.251248 cumulative IPC: 0.358979 (Simulation time: 1 hr 9 min 31 sec) 
Heartbeat CPU 0 instructions: 102000000 cycles: 259358596 heartbeat IPC: 0.618958 cumulative IPC: 0.360626 (Simulation time: 1 hr 9 min 51 sec) 
Heartbeat CPU 0 instructions: 103000001 cycles: 260668416 heartbeat IPC: 0.763464 cumulative IPC: 0.362683 (Simulation time: 1 hr 10 min 10 sec) 
Heartbeat CPU 0 instructions: 104000000 cycles: 263960248 heartbeat IPC: 0.303782 cumulative IPC: 0.361937 (Simulation time: 1 hr 10 min 42 sec) 
Heartbeat CPU 0 instructions: 105000001 cycles: 267279749 heartbeat IPC: 0.30125 cumulative IPC: 0.361171 (Simulation time: 1 hr 11 min 15 sec) 
Heartbeat CPU 0 instructions: 106000002 cycles: 270039815 heartbeat IPC: 0.362311 cumulative IPC: 0.361183 (Simulation time: 1 hr 11 min 40 sec) 
Heartbeat CPU 0 instructions: 107000000 cycles: 271809187 heartbeat IPC: 0.565171 cumulative IPC: 0.362532 (Simulation time: 1 hr 12 min 5 sec) 
Heartbeat CPU 0 instructions: 108000000 cycles: 275826368 heartbeat IPC: 0.248931 cumulative IPC: 0.360851 (Simulation time: 1 hr 12 min 38 sec) 
Heartbeat CPU 0 instructions: 109000000 cycles: 277741401 heartbeat IPC: 0.522184 cumulative IPC: 0.361981 (Simulation time: 1 hr 12 min 57 sec) 
Heartbeat CPU 0 instructions: 110000002 cycles: 279060596 heartbeat IPC: 0.75804 cumulative IPC: 0.363882 (Simulation time: 1 hr 13 min 13 sec) 
Finished CPU 0 instructions: 100000000 cycles: 274814162 cummulative IPC: 0.363882 (Simulation time: 1 hr 13 min 13 sec) 

ChampSim completed all CPUs

Region of Interest Statistics

CPU 0 cummulative IPC: 0.363882 instructions: 100000000 cycles: 274814162
LLC TOTAL     ACCESS:    8717689  HIT:    4188664  MISS:    4529025
LLC LOAD      ACCESS:    2238350  HIT:     917734  MISS:    1320616
LLC RFO       ACCESS:     764918  HIT:     334934  MISS:     429984
LLC PREFETCH  ACCESS:    3553957  HIT:    1329555  MISS:    2224402
LLC WRITEBACK ACCESS:    2160464  HIT:    1606441  MISS:     554023
