
*** ChampSim Multicore Out-of-Order Simulator ***

Warmup Instructions: 10000000
Simulation Instructions: 100000000
Configuration: 2
Number of CPUs: 1
LLC sets: 2048
LLC ways: 16
Off-chip DRAM Channels: 1 Width: 64-bit Data Rate: 1600 MT/s

CPU 0 runs /datasets/cs240c-wi22-a00-public/data/Assignment2-gz/mcf_46B.trace.gz
CPU 0 L1D next line prefetcher
CPU 0 L2C IP-based stride prefetcher
Heartbeat CPU 0 instructions: 1000002 cycles: 492202 heartbeat IPC: 2.03169 cumulative IPC: 2.03169 (Simulation time: 0 hr 0 min 50 sec) 
Heartbeat CPU 0 instructions: 2000002 cycles: 987411 heartbeat IPC: 2.01935 cumulative IPC: 2.0255 (Simulation time: 0 hr 1 min 40 sec) 
Heartbeat CPU 0 instructions: 3000003 cycles: 1515729 heartbeat IPC: 1.8928 cumulative IPC: 1.97925 (Simulation time: 0 hr 2 min 33 sec) 
Heartbeat CPU 0 instructions: 4000000 cycles: 2039101 heartbeat IPC: 1.91068 cumulative IPC: 1.96165 (Simulation time: 0 hr 3 min 27 sec) 
Heartbeat CPU 0 instructions: 5000000 cycles: 2532838 heartbeat IPC: 2.02537 cumulative IPC: 1.97407 (Simulation time: 0 hr 4 min 20 sec) 
Heartbeat CPU 0 instructions: 6000002 cycles: 3035887 heartbeat IPC: 1.98788 cumulative IPC: 1.97636 (Simulation time: 0 hr 5 min 14 sec) 
Heartbeat CPU 0 instructions: 7000001 cycles: 3579753 heartbeat IPC: 1.83869 cumulative IPC: 1.95544 (Simulation time: 0 hr 6 min 4 sec) 
Heartbeat CPU 0 instructions: 8000000 cycles: 4070432 heartbeat IPC: 2.03799 cumulative IPC: 1.96539 (Simulation time: 0 hr 6 min 54 sec) 
Heartbeat CPU 0 instructions: 9000001 cycles: 4553837 heartbeat IPC: 2.06866 cumulative IPC: 1.97636 (Simulation time: 0 hr 7 min 45 sec) 
Heartbeat CPU 0 instructions: 10000001 cycles: 5089370 heartbeat IPC: 1.8673 cumulative IPC: 1.96488 (Simulation time: 0 hr 8 min 37 sec) 

Warmup complete CPU 0 instructions: 10000001 cycles: 5089370 (Simulation time: 0 hr 8 min 37 sec) 

Heartbeat CPU 0 instructions: 11000002 cycles: 17051197 heartbeat IPC: 0.0835994 cumulative IPC: 0.0835994 (Simulation time: 0 hr 10 min 12 sec) 
Heartbeat CPU 0 instructions: 12000000 cycles: 21839875 heartbeat IPC: 0.208825 cumulative IPC: 0.119399 (Simulation time: 0 hr 11 min 23 sec) 
Heartbeat CPU 0 instructions: 13000000 cycles: 29595881 heartbeat IPC: 0.128932 cumulative IPC: 0.122416 (Simulation time: 0 hr 12 min 42 sec) 
Heartbeat CPU 0 instructions: 14000003 cycles: 43724314 heartbeat IPC: 0.0707795 cumulative IPC: 0.103533 (Simulation time: 0 hr 14 min 25 sec) 
Heartbeat CPU 0 instructions: 15000000 cycles: 48465336 heartbeat IPC: 0.210924 cumulative IPC: 0.115271 (Simulation time: 0 hr 15 min 38 sec) 
Heartbeat CPU 0 instructions: 16000000 cycles: 52906297 heartbeat IPC: 0.225176 cumulative IPC: 0.125479 (Simulation time: 0 hr 16 min 49 sec) 
Heartbeat CPU 0 instructions: 17000002 cycles: 67583226 heartbeat IPC: 0.0681343 cumulative IPC: 0.112011 (Simulation time: 0 hr 18 min 31 sec) 
Heartbeat CPU 0 instructions: 18000001 cycles: 73226388 heartbeat IPC: 0.177205 cumulative IPC: 0.11741 (Simulation time: 0 hr 19 min 40 sec) 
Heartbeat CPU 0 instructions: 19000002 cycles: 78272296 heartbeat IPC: 0.198181 cumulative IPC: 0.12298 (Simulation time: 0 hr 20 min 48 sec) 
Heartbeat CPU 0 instructions: 20000000 cycles: 91488843 heartbeat IPC: 0.0756626 cumulative IPC: 0.115741 (Simulation time: 0 hr 22 min 26 sec) 
Heartbeat CPU 0 instructions: 21000002 cycles: 106884982 heartbeat IPC: 0.0649515 cumulative IPC: 0.10806 (Simulation time: 0 hr 24 min 38 sec) 
Heartbeat CPU 0 instructions: 22000002 cycles: 111681189 heartbeat IPC: 0.208498 cumulative IPC: 0.112579 (Simulation time: 0 hr 26 min 5 sec) 
Heartbeat CPU 0 instructions: 23000001 cycles: 116213884 heartbeat IPC: 0.220619 cumulative IPC: 0.116986 (Simulation time: 0 hr 27 min 30 sec) 
Heartbeat CPU 0 instructions: 24000000 cycles: 128787976 heartbeat IPC: 0.0795285 cumulative IPC: 0.113178 (Simulation time: 0 hr 29 min 29 sec) 
Heartbeat CPU 0 instructions: 25000002 cycles: 136563482 heartbeat IPC: 0.128609 cumulative IPC: 0.114091 (Simulation time: 0 hr 31 min 13 sec) 
Heartbeat CPU 0 instructions: 26000001 cycles: 141014504 heartbeat IPC: 0.224667 cumulative IPC: 0.117712 (Simulation time: 0 hr 32 min 51 sec) 
Heartbeat CPU 0 instructions: 27000000 cycles: 150669101 heartbeat IPC: 0.103577 cumulative IPC: 0.116774 (Simulation time: 0 hr 34 min 42 sec) 
Heartbeat CPU 0 instructions: 28000000 cycles: 162489393 heartbeat IPC: 0.0846003 cumulative IPC: 0.114358 (Simulation time: 0 hr 36 min 40 sec) 
Heartbeat CPU 0 instructions: 29000001 cycles: 167485891 heartbeat IPC: 0.20014 cumulative IPC: 0.116998 (Simulation time: 0 hr 38 min 8 sec) 
Heartbeat CPU 0 instructions: 30000000 cycles: 175076039 heartbeat IPC: 0.13175 cumulative IPC: 0.117656 (Simulation time: 0 hr 39 min 50 sec) 
Heartbeat CPU 0 instructions: 31000002 cycles: 188558113 heartbeat IPC: 0.0741727 cumulative IPC: 0.114461 (Simulation time: 0 hr 41 min 59 sec) 
Heartbeat CPU 0 instructions: 32000000 cycles: 193490683 heartbeat IPC: 0.202734 cumulative IPC: 0.116772 (Simulation time: 0 hr 43 min 21 sec) 
Heartbeat CPU 0 instructions: 33000000 cycles: 199898880 heartbeat IPC: 0.15605 cumulative IPC: 0.118064 (Simulation time: 0 hr 44 min 42 sec) 
Heartbeat CPU 0 instructions: 34000000 cycles: 214323276 heartbeat IPC: 0.069327 cumulative IPC: 0.114704 (Simulation time: 0 hr 46 min 44 sec) 
Heartbeat CPU 0 instructions: 35000000 cycles: 220809343 heartbeat IPC: 0.154177 cumulative IPC: 0.115891 (Simulation time: 0 hr 48 min 23 sec) 
Heartbeat CPU 0 instructions: 36000000 cycles: 227443416 heartbeat IPC: 0.150737 cumulative IPC: 0.116931 (Simulation time: 0 hr 50 min 3 sec) 
Heartbeat CPU 0 instructions: 37000002 cycles: 237253785 heartbeat IPC: 0.101933 cumulative IPC: 0.116297 (Simulation time: 0 hr 51 min 49 sec) 
Heartbeat CPU 0 instructions: 38000000 cycles: 248200195 heartbeat IPC: 0.091354 cumulative IPC: 0.115174 (Simulation time: 0 hr 53 min 50 sec) 
Heartbeat CPU 0 instructions: 39000000 cycles: 252942024 heartbeat IPC: 0.210889 cumulative IPC: 0.117005 (Simulation time: 0 hr 55 min 13 sec) 
Heartbeat CPU 0 instructions: 40000000 cycles: 259258817 heartbeat IPC: 0.158308 cumulative IPC: 0.118031 (Simulation time: 0 hr 56 min 47 sec) 
Heartbeat CPU 0 instructions: 41000000 cycles: 273371344 heartbeat IPC: 0.070859 cumulative IPC: 0.11555 (Simulation time: 0 hr 59 min 0 sec) 
Heartbeat CPU 0 instructions: 42000001 cycles: 278659127 heartbeat IPC: 0.189115 cumulative IPC: 0.116972 (Simulation time: 1 hr 0 min 35 sec) 
Heartbeat CPU 0 instructions: 43000000 cycles: 283660537 heartbeat IPC: 0.199943 cumulative IPC: 0.118462 (Simulation time: 1 hr 2 min 15 sec) 
Heartbeat CPU 0 instructions: 44000000 cycles: 297043768 heartbeat IPC: 0.0747204 cumulative IPC: 0.116457 (Simulation time: 1 hr 4 min 24 sec) 
Heartbeat CPU 0 instructions: 45000001 cycles: 304861365 heartbeat IPC: 0.127917 cumulative IPC: 0.116755 (Simulation time: 1 hr 6 min 6 sec) 
Heartbeat CPU 0 instructions: 46000001 cycles: 309750162 heartbeat IPC: 0.204549 cumulative IPC: 0.118164 (Simulation time: 1 hr 7 min 22 sec) 
Heartbeat CPU 0 instructions: 47000002 cycles: 319249346 heartbeat IPC: 0.105272 cumulative IPC: 0.117774 (Simulation time: 1 hr 8 min 51 sec) 
Heartbeat CPU 0 instructions: 48000000 cycles: 330655770 heartbeat IPC: 0.0876697 cumulative IPC: 0.11672 (Simulation time: 1 hr 10 min 29 sec) 
Heartbeat CPU 0 instructions: 49000000 cycles: 335739134 heartbeat IPC: 0.19672 cumulative IPC: 0.11795 (Simulation time: 1 hr 11 min 33 sec) 
Heartbeat CPU 0 instructions: 50000001 cycles: 342409884 heartbeat IPC: 0.149908 cumulative IPC: 0.118582 (Simulation time: 1 hr 12 min 41 sec) 
Heartbeat CPU 0 instructions: 51000001 cycles: 356488281 heartbeat IPC: 0.0710308 cumulative IPC: 0.116677 (Simulation time: 1 hr 13 min 59 sec) 
Heartbeat CPU 0 instructions: 52000000 cycles: 361516107 heartbeat IPC: 0.198893 cumulative IPC: 0.117836 (Simulation time: 1 hr 14 min 44 sec) 
Heartbeat CPU 0 instructions: 53000000 cycles: 366291178 heartbeat IPC: 0.209421 cumulative IPC: 0.119047 (Simulation time: 1 hr 15 min 25 sec) 
Heartbeat CPU 0 instructions: 54000002 cycles: 381304901 heartbeat IPC: 0.0666059 cumulative IPC: 0.116954 (Simulation time: 1 hr 16 min 25 sec) 
Heartbeat CPU 0 instructions: 55000002 cycles: 386855754 heartbeat IPC: 0.180152 cumulative IPC: 0.117873 (Simulation time: 1 hr 17 min 3 sec) 
Heartbeat CPU 0 instructions: 56000000 cycles: 391746807 heartbeat IPC: 0.204455 cumulative IPC: 0.118968 (Simulation time: 1 hr 17 min 29 sec) 
Heartbeat CPU 0 instructions: 57000000 cycles: 404801663 heartbeat IPC: 0.0765999 cumulative IPC: 0.117585 (Simulation time: 1 hr 18 min 8 sec) 
Heartbeat CPU 0 instructions: 58000000 cycles: 412392316 heartbeat IPC: 0.131741 cumulative IPC: 0.117848 (Simulation time: 1 hr 18 min 33 sec) 
Heartbeat CPU 0 instructions: 59000002 cycles: 417117744 heartbeat IPC: 0.211621 cumulative IPC: 0.118924 (Simulation time: 1 hr 18 min 54 sec) 
Heartbeat CPU 0 instructions: 60000000 cycles: 428591315 heartbeat IPC: 0.0871566 cumulative IPC: 0.118063 (Simulation time: 1 hr 19 min 22 sec) 
Heartbeat CPU 0 instructions: 61000002 cycles: 438612440 heartbeat IPC: 0.0997894 cumulative IPC: 0.117641 (Simulation time: 1 hr 19 min 45 sec) 
Heartbeat CPU 0 instructions: 62000001 cycles: 443462890 heartbeat IPC: 0.206166 cumulative IPC: 0.11862 (Simulation time: 1 hr 20 min 0 sec) 
Heartbeat CPU 0 instructions: 63000001 cycles: 453473824 heartbeat IPC: 0.0998908 cumulative IPC: 0.118202 (Simulation time: 1 hr 20 min 16 sec) 
Heartbeat CPU 0 instructions: 64000000 cycles: 465173231 heartbeat IPC: 0.0854743 cumulative IPC: 0.11737 (Simulation time: 1 hr 20 min 31 sec) 
Heartbeat CPU 0 instructions: 65000000 cycles: 470539485 heartbeat IPC: 0.18635 cumulative IPC: 0.118165 (Simulation time: 1 hr 20 min 41 sec) 
Heartbeat CPU 0 instructions: 66000000 cycles: 476862361 heartbeat IPC: 0.158156 cumulative IPC: 0.118701 (Simulation time: 1 hr 20 min 52 sec) 
Heartbeat CPU 0 instructions: 67000002 cycles: 492775025 heartbeat IPC: 0.0628432 cumulative IPC: 0.116879 (Simulation time: 1 hr 21 min 7 sec) 
Heartbeat CPU 0 instructions: 68000000 cycles: 497929165 heartbeat IPC: 0.194018 cumulative IPC: 0.117685 (Simulation time: 1 hr 21 min 16 sec) 
Heartbeat CPU 0 instructions: 69000000 cycles: 502603799 heartbeat IPC: 0.21392 cumulative IPC: 0.11859 (Simulation time: 1 hr 21 min 24 sec) 
Heartbeat CPU 0 instructions: 70000001 cycles: 516457016 heartbeat IPC: 0.0721855 cumulative IPC: 0.117332 (Simulation time: 1 hr 21 min 35 sec) 
Heartbeat CPU 0 instructions: 71000002 cycles: 525333672 heartbeat IPC: 0.112655 cumulative IPC: 0.117253 (Simulation time: 1 hr 21 min 44 sec) 
Heartbeat CPU 0 instructions: 72000000 cycles: 530492524 heartbeat IPC: 0.193841 cumulative IPC: 0.118005 (Simulation time: 1 hr 21 min 52 sec) 
Heartbeat CPU 0 instructions: 73000002 cycles: 539618761 heartbeat IPC: 0.109574 cumulative IPC: 0.117861 (Simulation time: 1 hr 22 min 1 sec) 
Heartbeat CPU 0 instructions: 74000001 cycles: 551989456 heartbeat IPC: 0.0808361 cumulative IPC: 0.117023 (Simulation time: 1 hr 22 min 11 sec) 
Heartbeat CPU 0 instructions: 75000001 cycles: 557174398 heartbeat IPC: 0.192866 cumulative IPC: 0.117735 (Simulation time: 1 hr 22 min 19 sec) 
Heartbeat CPU 0 instructions: 76000000 cycles: 563671283 heartbeat IPC: 0.15392 cumulative IPC: 0.118156 (Simulation time: 1 hr 22 min 27 sec) 
Heartbeat CPU 0 instructions: 77000001 cycles: 579577149 heartbeat IPC: 0.06287 cumulative IPC: 0.116626 (Simulation time: 1 hr 22 min 39 sec) 
Heartbeat CPU 0 instructions: 78000002 cycles: 585146448 heartbeat IPC: 0.179556 cumulative IPC: 0.11723 (Simulation time: 1 hr 22 min 47 sec) 
Heartbeat CPU 0 instructions: 79000001 cycles: 590263836 heartbeat IPC: 0.195412 cumulative IPC: 0.117914 (Simulation time: 1 hr 22 min 54 sec) 
Heartbeat CPU 0 instructions: 80000000 cycles: 603488708 heartbeat IPC: 0.075615 cumulative IPC: 0.116979 (Simulation time: 1 hr 23 min 5 sec) 
Heartbeat CPU 0 instructions: 81000000 cycles: 611224421 heartbeat IPC: 0.129271 cumulative IPC: 0.117136 (Simulation time: 1 hr 23 min 13 sec) 
Heartbeat CPU 0 instructions: 82000000 cycles: 616451288 heartbeat IPC: 0.191319 cumulative IPC: 0.11777 (Simulation time: 1 hr 23 min 21 sec) 
Heartbeat CPU 0 instructions: 83000001 cycles: 626129580 heartbeat IPC: 0.103324 cumulative IPC: 0.117545 (Simulation time: 1 hr 23 min 30 sec) 
Heartbeat CPU 0 instructions: 84000000 cycles: 637550573 heartbeat IPC: 0.087558 cumulative IPC: 0.117003 (Simulation time: 1 hr 23 min 40 sec) 
Heartbeat CPU 0 instructions: 85000001 cycles: 642431220 heartbeat IPC: 0.204891 cumulative IPC: 0.117676 (Simulation time: 1 hr 23 min 47 sec) 
Heartbeat CPU 0 instructions: 86000000 cycles: 650921137 heartbeat IPC: 0.117787 cumulative IPC: 0.117678 (Simulation time: 1 hr 23 min 56 sec) 
Heartbeat CPU 0 instructions: 87000000 cycles: 665418285 heartbeat IPC: 0.0689791 cumulative IPC: 0.116609 (Simulation time: 1 hr 24 min 7 sec) 
Heartbeat CPU 0 instructions: 88000000 cycles: 672238977 heartbeat IPC: 0.146613 cumulative IPC: 0.116915 (Simulation time: 1 hr 24 min 15 sec) 
Heartbeat CPU 0 instructions: 89000000 cycles: 677137049 heartbeat IPC: 0.204162 cumulative IPC: 0.117551 (Simulation time: 1 hr 24 min 23 sec) 
Heartbeat CPU 0 instructions: 90000003 cycles: 688915072 heartbeat IPC: 0.0849041 cumulative IPC: 0.116989 (Simulation time: 1 hr 24 min 33 sec) 
Heartbeat CPU 0 instructions: 91000000 cycles: 698374291 heartbeat IPC: 0.105717 cumulative IPC: 0.116835 (Simulation time: 1 hr 24 min 42 sec) 
Heartbeat CPU 0 instructions: 92000000 cycles: 703209700 heartbeat IPC: 0.206808 cumulative IPC: 0.117458 (Simulation time: 1 hr 24 min 50 sec) 
Heartbeat CPU 0 instructions: 93000002 cycles: 712345560 heartbeat IPC: 0.109459 cumulative IPC: 0.117355 (Simulation time: 1 hr 24 min 59 sec) 
Heartbeat CPU 0 instructions: 94000002 cycles: 723476246 heartbeat IPC: 0.0898417 cumulative IPC: 0.116929 (Simulation time: 1 hr 25 min 9 sec) 
Heartbeat CPU 0 instructions: 95000000 cycles: 729487328 heartbeat IPC: 0.166359 cumulative IPC: 0.117339 (Simulation time: 1 hr 25 min 16 sec) 
Heartbeat CPU 0 instructions: 96000000 cycles: 735467206 heartbeat IPC: 0.167227 cumulative IPC: 0.117747 (Simulation time: 1 hr 25 min 24 sec) 
Heartbeat CPU 0 instructions: 97000000 cycles: 750149461 heartbeat IPC: 0.0681094 cumulative IPC: 0.116769 (Simulation time: 1 hr 25 min 36 sec) 
Heartbeat CPU 0 instructions: 98000002 cycles: 755164814 heartbeat IPC: 0.199388 cumulative IPC: 0.117322 (Simulation time: 1 hr 25 min 43 sec) 
Heartbeat CPU 0 instructions: 99000002 cycles: 760225473 heartbeat IPC: 0.197603 cumulative IPC: 0.11786 (Simulation time: 1 hr 25 min 51 sec) 
Heartbeat CPU 0 instructions: 100000000 cycles: 773778195 heartbeat IPC: 0.0737858 cumulative IPC: 0.117082 (Simulation time: 1 hr 26 min 1 sec) 
Heartbeat CPU 0 instructions: 101000000 cycles: 780687895 heartbeat IPC: 0.144724 cumulative IPC: 0.117329 (Simulation time: 1 hr 26 min 10 sec) 
Heartbeat CPU 0 instructions: 102000003 cycles: 785411446 heartbeat IPC: 0.211706 cumulative IPC: 0.1179 (Simulation time: 1 hr 26 min 17 sec) 
Heartbeat CPU 0 instructions: 103000003 cycles: 797124810 heartbeat IPC: 0.0853726 cumulative IPC: 0.117419 (Simulation time: 1 hr 26 min 26 sec) 
Heartbeat CPU 0 instructions: 104000000 cycles: 808437152 heartbeat IPC: 0.0883988 cumulative IPC: 0.11701 (Simulation time: 1 hr 26 min 36 sec) 
Heartbeat CPU 0 instructions: 105000000 cycles: 813840486 heartbeat IPC: 0.185071 cumulative IPC: 0.117465 (Simulation time: 1 hr 26 min 43 sec) 
Heartbeat CPU 0 instructions: 106000000 cycles: 818728519 heartbeat IPC: 0.204581 cumulative IPC: 0.117988 (Simulation time: 1 hr 26 min 51 sec) 
Heartbeat CPU 0 instructions: 107000002 cycles: 833764324 heartbeat IPC: 0.066508 cumulative IPC: 0.117054 (Simulation time: 1 hr 27 min 2 sec) 
Heartbeat CPU 0 instructions: 108000000 cycles: 839540988 heartbeat IPC: 0.17311 cumulative IPC: 0.117442 (Simulation time: 1 hr 27 min 9 sec) 
Heartbeat CPU 0 instructions: 109000001 cycles: 844520302 heartbeat IPC: 0.200831 cumulative IPC: 0.117937 (Simulation time: 1 hr 27 min 16 sec) 
Heartbeat CPU 0 instructions: 110000002 cycles: 854174575 heartbeat IPC: 0.103581 cumulative IPC: 0.117774 (Simulation time: 1 hr 27 min 26 sec) 
Finished CPU 0 instructions: 100000001 cycles: 849085205 cummulative IPC: 0.117774 (Simulation time: 1 hr 27 min 26 sec) 

ChampSim completed all CPUs

Region of Interest Statistics

CPU 0 cummulative IPC: 0.117774 instructions: 100000001 cycles: 849085205
LLC TOTAL     ACCESS:   18784478  HIT:    7306427  MISS:   11478051
LLC LOAD      ACCESS:    8478024  HIT:    3867943  MISS:    4610081
LLC RFO       ACCESS:     206414  HIT:     115256  MISS:      91158
LLC PREFETCH  ACCESS:    7991970  HIT:    1995328  MISS:    5996642
LLC WRITEBACK ACCESS:    2108070  HIT:    1327900  MISS:     780170
