
*** ChampSim Multicore Out-of-Order Simulator ***

Warmup Instructions: 10000000
Simulation Instructions: 100000000
Configuration: 2
Number of CPUs: 1
LLC sets: 2048
LLC ways: 16
Off-chip DRAM Channels: 1 Width: 64-bit Data Rate: 1600 MT/s

CPU 0 runs /datasets/cs240c-wi22-a00-public/data/Assignment2-gz/cactusADM_1495B.trace.gz
CPU 0 L1D next line prefetcher
CPU 0 L2C IP-based stride prefetcher
Heartbeat CPU 0 instructions: 1000003 cycles: 593383 heartbeat IPC: 1.68526 cumulative IPC: 1.68526 (Simulation time: 0 hr 0 min 51 sec) 
Heartbeat CPU 0 instructions: 2000000 cycles: 1186345 heartbeat IPC: 1.68644 cumulative IPC: 1.68585 (Simulation time: 0 hr 1 min 42 sec) 
Heartbeat CPU 0 instructions: 3000003 cycles: 1779703 heartbeat IPC: 1.68533 cumulative IPC: 1.68568 (Simulation time: 0 hr 2 min 30 sec) 
Heartbeat CPU 0 instructions: 4000000 cycles: 2372522 heartbeat IPC: 1.68685 cumulative IPC: 1.68597 (Simulation time: 0 hr 3 min 25 sec) 
Heartbeat CPU 0 instructions: 5000000 cycles: 2965579 heartbeat IPC: 1.68618 cumulative IPC: 1.68601 (Simulation time: 0 hr 4 min 11 sec) 
Heartbeat CPU 0 instructions: 6000001 cycles: 3558796 heartbeat IPC: 1.68573 cumulative IPC: 1.68596 (Simulation time: 0 hr 5 min 2 sec) 
Heartbeat CPU 0 instructions: 7000000 cycles: 4151738 heartbeat IPC: 1.6865 cumulative IPC: 1.68604 (Simulation time: 0 hr 5 min 59 sec) 
Heartbeat CPU 0 instructions: 8000000 cycles: 4906776 heartbeat IPC: 1.32444 cumulative IPC: 1.6304 (Simulation time: 0 hr 7 min 3 sec) 
Heartbeat CPU 0 instructions: 9000002 cycles: 5499974 heartbeat IPC: 1.68578 cumulative IPC: 1.63637 (Simulation time: 0 hr 7 min 47 sec) 
Heartbeat CPU 0 instructions: 10000002 cycles: 6092897 heartbeat IPC: 1.68656 cumulative IPC: 1.64126 (Simulation time: 0 hr 8 min 28 sec) 

Warmup complete CPU 0 instructions: 10000002 cycles: 6092897 (Simulation time: 0 hr 8 min 28 sec) 

Heartbeat CPU 0 instructions: 11000000 cycles: 7785958 heartbeat IPC: 0.590645 cumulative IPC: 0.590645 (Simulation time: 0 hr 9 min 21 sec) 
Heartbeat CPU 0 instructions: 12000000 cycles: 9529636 heartbeat IPC: 0.5735 cumulative IPC: 0.581946 (Simulation time: 0 hr 10 min 7 sec) 
Heartbeat CPU 0 instructions: 13000002 cycles: 11274983 heartbeat IPC: 0.572953 cumulative IPC: 0.578917 (Simulation time: 0 hr 10 min 50 sec) 
Heartbeat CPU 0 instructions: 14000001 cycles: 13010265 heartbeat IPC: 0.576275 cumulative IPC: 0.578254 (Simulation time: 0 hr 11 min 32 sec) 
Heartbeat CPU 0 instructions: 15000001 cycles: 14667578 heartbeat IPC: 0.603386 cumulative IPC: 0.583112 (Simulation time: 0 hr 12 min 17 sec) 
Heartbeat CPU 0 instructions: 16000000 cycles: 16388802 heartbeat IPC: 0.580981 cumulative IPC: 0.582756 (Simulation time: 0 hr 12 min 58 sec) 
Heartbeat CPU 0 instructions: 17000003 cycles: 18132624 heartbeat IPC: 0.573455 cumulative IPC: 0.581409 (Simulation time: 0 hr 13 min 44 sec) 
Heartbeat CPU 0 instructions: 18000000 cycles: 19878367 heartbeat IPC: 0.57282 cumulative IPC: 0.580321 (Simulation time: 0 hr 14 min 26 sec) 
Heartbeat CPU 0 instructions: 19000002 cycles: 21589168 heartbeat IPC: 0.584523 cumulative IPC: 0.580785 (Simulation time: 0 hr 15 min 9 sec) 
Heartbeat CPU 0 instructions: 20000000 cycles: 23255222 heartbeat IPC: 0.600219 cumulative IPC: 0.582672 (Simulation time: 0 hr 15 min 54 sec) 
Heartbeat CPU 0 instructions: 21000001 cycles: 29682014 heartbeat IPC: 0.155599 cumulative IPC: 0.466317 (Simulation time: 0 hr 16 min 51 sec) 
Heartbeat CPU 0 instructions: 22000000 cycles: 31785543 heartbeat IPC: 0.475391 cumulative IPC: 0.46706 (Simulation time: 0 hr 17 min 35 sec) 
Heartbeat CPU 0 instructions: 23000001 cycles: 33520291 heartbeat IPC: 0.576453 cumulative IPC: 0.473979 (Simulation time: 0 hr 18 min 18 sec) 
Heartbeat CPU 0 instructions: 24000000 cycles: 35179571 heartbeat IPC: 0.60267 cumulative IPC: 0.48132 (Simulation time: 0 hr 19 min 0 sec) 
Heartbeat CPU 0 instructions: 25000002 cycles: 36909210 heartbeat IPC: 0.578156 cumulative IPC: 0.486755 (Simulation time: 0 hr 19 min 48 sec) 
Heartbeat CPU 0 instructions: 26000000 cycles: 38666660 heartbeat IPC: 0.569005 cumulative IPC: 0.491193 (Simulation time: 0 hr 20 min 30 sec) 
Heartbeat CPU 0 instructions: 27000002 cycles: 40408884 heartbeat IPC: 0.57398 cumulative IPC: 0.495396 (Simulation time: 0 hr 21 min 12 sec) 
Heartbeat CPU 0 instructions: 28000000 cycles: 42120486 heartbeat IPC: 0.584247 cumulative IPC: 0.499617 (Simulation time: 0 hr 21 min 58 sec) 
Heartbeat CPU 0 instructions: 29000003 cycles: 43781507 heartbeat IPC: 0.602041 cumulative IPC: 0.504131 (Simulation time: 0 hr 22 min 44 sec) 
Heartbeat CPU 0 instructions: 30000000 cycles: 45551710 heartbeat IPC: 0.564905 cumulative IPC: 0.506858 (Simulation time: 0 hr 23 min 28 sec) 
Heartbeat CPU 0 instructions: 31000003 cycles: 47295677 heartbeat IPC: 0.573407 cumulative IPC: 0.509674 (Simulation time: 0 hr 24 min 13 sec) 
Heartbeat CPU 0 instructions: 32000000 cycles: 49037153 heartbeat IPC: 0.574224 cumulative IPC: 0.512292 (Simulation time: 0 hr 25 min 7 sec) 
Heartbeat CPU 0 instructions: 33000001 cycles: 50719100 heartbeat IPC: 0.59455 cumulative IPC: 0.515392 (Simulation time: 0 hr 25 min 56 sec) 
Heartbeat CPU 0 instructions: 34000002 cycles: 56226008 heartbeat IPC: 0.18159 cumulative IPC: 0.478726 (Simulation time: 0 hr 26 min 54 sec) 
Heartbeat CPU 0 instructions: 35000002 cycles: 59245812 heartbeat IPC: 0.331147 cumulative IPC: 0.470341 (Simulation time: 0 hr 27 min 48 sec) 
Heartbeat CPU 0 instructions: 36000000 cycles: 60987393 heartbeat IPC: 0.57419 cumulative IPC: 0.473636 (Simulation time: 0 hr 28 min 36 sec) 
Heartbeat CPU 0 instructions: 37000001 cycles: 62706466 heartbeat IPC: 0.581709 cumulative IPC: 0.476917 (Simulation time: 0 hr 29 min 21 sec) 
Heartbeat CPU 0 instructions: 38000003 cycles: 64365894 heartbeat IPC: 0.602619 cumulative IPC: 0.480497 (Simulation time: 0 hr 30 min 11 sec) 
Heartbeat CPU 0 instructions: 39000003 cycles: 66102094 heartbeat IPC: 0.575971 cumulative IPC: 0.483259 (Simulation time: 0 hr 31 min 0 sec) 
Heartbeat CPU 0 instructions: 40000000 cycles: 67845680 heartbeat IPC: 0.573529 cumulative IPC: 0.485808 (Simulation time: 0 hr 31 min 46 sec) 
Heartbeat CPU 0 instructions: 41000002 cycles: 69587214 heartbeat IPC: 0.574208 cumulative IPC: 0.488233 (Simulation time: 0 hr 32 min 30 sec) 
Heartbeat CPU 0 instructions: 42000000 cycles: 71272324 heartbeat IPC: 0.593432 cumulative IPC: 0.490952 (Simulation time: 0 hr 33 min 13 sec) 
Heartbeat CPU 0 instructions: 43000000 cycles: 72958828 heartbeat IPC: 0.592943 cumulative IPC: 0.493525 (Simulation time: 0 hr 33 min 57 sec) 
Heartbeat CPU 0 instructions: 44000000 cycles: 74701737 heartbeat IPC: 0.573753 cumulative IPC: 0.495563 (Simulation time: 0 hr 34 min 39 sec) 
Heartbeat CPU 0 instructions: 45000003 cycles: 76445179 heartbeat IPC: 0.57358 cumulative IPC: 0.497496 (Simulation time: 0 hr 35 min 23 sec) 
Heartbeat CPU 0 instructions: 46000002 cycles: 78180800 heartbeat IPC: 0.576162 cumulative IPC: 0.49939 (Simulation time: 0 hr 36 min 7 sec) 
Heartbeat CPU 0 instructions: 47000001 cycles: 82633583 heartbeat IPC: 0.224578 cumulative IPC: 0.483403 (Simulation time: 0 hr 36 min 59 sec) 
Heartbeat CPU 0 instructions: 48000000 cycles: 86655979 heartbeat IPC: 0.248608 cumulative IPC: 0.47168 (Simulation time: 0 hr 37 min 49 sec) 
Heartbeat CPU 0 instructions: 49000000 cycles: 88396309 heartbeat IPC: 0.574604 cumulative IPC: 0.473856 (Simulation time: 0 hr 38 min 34 sec) 
Heartbeat CPU 0 instructions: 50000000 cycles: 90137601 heartbeat IPC: 0.574286 cumulative IPC: 0.475937 (Simulation time: 0 hr 39 min 17 sec) 
Heartbeat CPU 0 instructions: 51000000 cycles: 91827388 heartbeat IPC: 0.591791 cumulative IPC: 0.478221 (Simulation time: 0 hr 40 min 1 sec) 
Heartbeat CPU 0 instructions: 52000000 cycles: 93509910 heartbeat IPC: 0.594346 cumulative IPC: 0.480456 (Simulation time: 0 hr 40 min 43 sec) 
Heartbeat CPU 0 instructions: 53000003 cycles: 95249613 heartbeat IPC: 0.574812 cumulative IPC: 0.482297 (Simulation time: 0 hr 41 min 25 sec) 
Heartbeat CPU 0 instructions: 54000001 cycles: 96989992 heartbeat IPC: 0.574586 cumulative IPC: 0.484064 (Simulation time: 0 hr 42 min 9 sec) 
Heartbeat CPU 0 instructions: 55000000 cycles: 98726878 heartbeat IPC: 0.575742 cumulative IPC: 0.485783 (Simulation time: 0 hr 42 min 52 sec) 
Heartbeat CPU 0 instructions: 56000000 cycles: 100385810 heartbeat IPC: 0.602797 cumulative IPC: 0.487842 (Simulation time: 0 hr 43 min 37 sec) 
Heartbeat CPU 0 instructions: 57000000 cycles: 102098005 heartbeat IPC: 0.584046 cumulative IPC: 0.489557 (Simulation time: 0 hr 44 min 22 sec) 
Heartbeat CPU 0 instructions: 58000002 cycles: 103838761 heartbeat IPC: 0.574464 cumulative IPC: 0.491069 (Simulation time: 0 hr 45 min 8 sec) 
Heartbeat CPU 0 instructions: 59000001 cycles: 105580062 heartbeat IPC: 0.574283 cumulative IPC: 0.492526 (Simulation time: 0 hr 45 min 51 sec) 
Heartbeat CPU 0 instructions: 60000000 cycles: 108992621 heartbeat IPC: 0.293035 cumulative IPC: 0.48591 (Simulation time: 0 hr 46 min 40 sec) 
Heartbeat CPU 0 instructions: 61000001 cycles: 114053279 heartbeat IPC: 0.197603 cumulative IPC: 0.472396 (Simulation time: 0 hr 47 min 29 sec) 
Heartbeat CPU 0 instructions: 62000000 cycles: 115791130 heartbeat IPC: 0.575423 cumulative IPC: 0.474028 (Simulation time: 0 hr 48 min 14 sec) 
Heartbeat CPU 0 instructions: 63000000 cycles: 117533484 heartbeat IPC: 0.573936 cumulative IPC: 0.47559 (Simulation time: 0 hr 48 min 57 sec) 
Heartbeat CPU 0 instructions: 64000000 cycles: 119270578 heartbeat IPC: 0.575674 cumulative IPC: 0.477126 (Simulation time: 0 hr 49 min 38 sec) 
Heartbeat CPU 0 instructions: 65000002 cycles: 120933335 heartbeat IPC: 0.601412 cumulative IPC: 0.478925 (Simulation time: 0 hr 50 min 18 sec) 
Heartbeat CPU 0 instructions: 66000003 cycles: 122642187 heartbeat IPC: 0.585189 cumulative IPC: 0.480483 (Simulation time: 0 hr 51 min 1 sec) 
Heartbeat CPU 0 instructions: 67000001 cycles: 124384097 heartbeat IPC: 0.574081 cumulative IPC: 0.481862 (Simulation time: 0 hr 51 min 42 sec) 
Heartbeat CPU 0 instructions: 68000000 cycles: 126126166 heartbeat IPC: 0.57403 cumulative IPC: 0.483199 (Simulation time: 0 hr 52 min 21 sec) 
Heartbeat CPU 0 instructions: 69000003 cycles: 127844865 heartbeat IPC: 0.581837 cumulative IPC: 0.484592 (Simulation time: 0 hr 53 min 2 sec) 
Heartbeat CPU 0 instructions: 70000000 cycles: 129500740 heartbeat IPC: 0.603908 cumulative IPC: 0.486193 (Simulation time: 0 hr 53 min 44 sec) 
Heartbeat CPU 0 instructions: 71000002 cycles: 131232404 heartbeat IPC: 0.57748 cumulative IPC: 0.487456 (Simulation time: 0 hr 54 min 26 sec) 
Heartbeat CPU 0 instructions: 72000000 cycles: 132974970 heartbeat IPC: 0.573865 cumulative IPC: 0.488643 (Simulation time: 0 hr 55 min 12 sec) 
Heartbeat CPU 0 instructions: 73000001 cycles: 135461318 heartbeat IPC: 0.402197 cumulative IPC: 0.486981 (Simulation time: 0 hr 55 min 57 sec) 
Heartbeat CPU 0 instructions: 74000002 cycles: 141491224 heartbeat IPC: 0.16584 cumulative IPC: 0.472679 (Simulation time: 0 hr 56 min 46 sec) 
Heartbeat CPU 0 instructions: 75000002 cycles: 143192563 heartbeat IPC: 0.587772 cumulative IPC: 0.474108 (Simulation time: 0 hr 57 min 24 sec) 
Heartbeat CPU 0 instructions: 76000000 cycles: 144933733 heartbeat IPC: 0.574325 cumulative IPC: 0.475364 (Simulation time: 0 hr 58 min 5 sec) 
Heartbeat CPU 0 instructions: 77000001 cycles: 146675911 heartbeat IPC: 0.573995 cumulative IPC: 0.476587 (Simulation time: 0 hr 58 min 48 sec) 
Heartbeat CPU 0 instructions: 78000000 cycles: 148400893 heartbeat IPC: 0.579716 cumulative IPC: 0.477837 (Simulation time: 0 hr 59 min 24 sec) 
Heartbeat CPU 0 instructions: 79000003 cycles: 150051163 heartbeat IPC: 0.605963 cumulative IPC: 0.479306 (Simulation time: 1 hr 0 min 0 sec) 
Heartbeat CPU 0 instructions: 80000000 cycles: 151784469 heartbeat IPC: 0.57693 cumulative IPC: 0.480467 (Simulation time: 1 hr 0 min 41 sec) 
Heartbeat CPU 0 instructions: 81000002 cycles: 153527196 heartbeat IPC: 0.573815 cumulative IPC: 0.48157 (Simulation time: 1 hr 1 min 19 sec) 
Heartbeat CPU 0 instructions: 82000000 cycles: 155271185 heartbeat IPC: 0.573397 cumulative IPC: 0.482644 (Simulation time: 1 hr 2 min 9 sec) 
Heartbeat CPU 0 instructions: 83000000 cycles: 156961878 heartbeat IPC: 0.591473 cumulative IPC: 0.483864 (Simulation time: 1 hr 3 min 0 sec) 
Heartbeat CPU 0 instructions: 84000000 cycles: 158641616 heartbeat IPC: 0.595331 cumulative IPC: 0.485091 (Simulation time: 1 hr 3 min 50 sec) 
Heartbeat CPU 0 instructions: 85000003 cycles: 160407095 heartbeat IPC: 0.56642 cumulative IPC: 0.486021 (Simulation time: 1 hr 4 min 26 sec) 
Heartbeat CPU 0 instructions: 86000000 cycles: 162150231 heartbeat IPC: 0.573677 cumulative IPC: 0.487 (Simulation time: 1 hr 5 min 1 sec) 
Heartbeat CPU 0 instructions: 87000001 cycles: 168997341 heartbeat IPC: 0.146047 cumulative IPC: 0.47267 (Simulation time: 1 hr 5 min 46 sec) 
Heartbeat CPU 0 instructions: 88000000 cycles: 170644410 heartbeat IPC: 0.607139 cumulative IPC: 0.474016 (Simulation time: 1 hr 6 min 19 sec) 
Heartbeat CPU 0 instructions: 89000002 cycles: 172374522 heartbeat IPC: 0.577998 cumulative IPC: 0.475098 (Simulation time: 1 hr 6 min 57 sec) 
Heartbeat CPU 0 instructions: 90000001 cycles: 174142659 heartbeat IPC: 0.565566 cumulative IPC: 0.476049 (Simulation time: 1 hr 7 min 38 sec) 
Heartbeat CPU 0 instructions: 91000002 cycles: 175883571 heartbeat IPC: 0.574412 cumulative IPC: 0.477058 (Simulation time: 1 hr 8 min 18 sec) 
Heartbeat CPU 0 instructions: 92000000 cycles: 177581710 heartbeat IPC: 0.588879 cumulative IPC: 0.478165 (Simulation time: 1 hr 8 min 57 sec) 
Heartbeat CPU 0 instructions: 93000002 cycles: 179255224 heartbeat IPC: 0.597546 cumulative IPC: 0.479319 (Simulation time: 1 hr 9 min 34 sec) 
Heartbeat CPU 0 instructions: 94000002 cycles: 180993952 heartbeat IPC: 0.575133 cumulative IPC: 0.480272 (Simulation time: 1 hr 10 min 6 sec) 
Heartbeat CPU 0 instructions: 95000003 cycles: 182737815 heartbeat IPC: 0.57344 cumulative IPC: 0.481191 (Simulation time: 1 hr 10 min 41 sec) 
Heartbeat CPU 0 instructions: 96000000 cycles: 184476093 heartbeat IPC: 0.57528 cumulative IPC: 0.482108 (Simulation time: 1 hr 11 min 13 sec) 
Heartbeat CPU 0 instructions: 97000003 cycles: 186141019 heartbeat IPC: 0.600629 cumulative IPC: 0.483204 (Simulation time: 1 hr 11 min 45 sec) 
Heartbeat CPU 0 instructions: 98000003 cycles: 187844929 heartbeat IPC: 0.586885 cumulative IPC: 0.484176 (Simulation time: 1 hr 12 min 16 sec) 
Heartbeat CPU 0 instructions: 99000000 cycles: 189585515 heartbeat IPC: 0.574517 cumulative IPC: 0.485033 (Simulation time: 1 hr 12 min 45 sec) 
Heartbeat CPU 0 instructions: 100000000 cycles: 196394950 heartbeat IPC: 0.146855 cumulative IPC: 0.472932 (Simulation time: 1 hr 13 min 21 sec) 
Heartbeat CPU 0 instructions: 101000000 cycles: 198095077 heartbeat IPC: 0.588191 cumulative IPC: 0.473953 (Simulation time: 1 hr 13 min 47 sec) 
Heartbeat CPU 0 instructions: 102000003 cycles: 199765136 heartbeat IPC: 0.598783 cumulative IPC: 0.475029 (Simulation time: 1 hr 14 min 14 sec) 
Heartbeat CPU 0 instructions: 103000000 cycles: 201500208 heartbeat IPC: 0.576343 cumulative IPC: 0.475929 (Simulation time: 1 hr 14 min 39 sec) 
Heartbeat CPU 0 instructions: 104000000 cycles: 203242530 heartbeat IPC: 0.573947 cumulative IPC: 0.476795 (Simulation time: 1 hr 15 min 3 sec) 
Heartbeat CPU 0 instructions: 105000001 cycles: 204980559 heartbeat IPC: 0.575365 cumulative IPC: 0.477657 (Simulation time: 1 hr 15 min 27 sec) 
Heartbeat CPU 0 instructions: 106000000 cycles: 206651771 heartbeat IPC: 0.598368 cumulative IPC: 0.478662 (Simulation time: 1 hr 15 min 50 sec) 
Heartbeat CPU 0 instructions: 107000001 cycles: 208350714 heartbeat IPC: 0.588602 cumulative IPC: 0.479586 (Simulation time: 1 hr 16 min 11 sec) 
Heartbeat CPU 0 instructions: 108000000 cycles: 210092538 heartbeat IPC: 0.57411 cumulative IPC: 0.480393 (Simulation time: 1 hr 16 min 33 sec) 
Heartbeat CPU 0 instructions: 109000002 cycles: 211833813 heartbeat IPC: 0.574293 cumulative IPC: 0.481188 (Simulation time: 1 hr 16 min 53 sec) 
Heartbeat CPU 0 instructions: 110000001 cycles: 213561363 heartbeat IPC: 0.578854 cumulative IPC: 0.482001 (Simulation time: 1 hr 17 min 12 sec) 
Finished CPU 0 instructions: 100000003 cycles: 207468467 cummulative IPC: 0.482001 (Simulation time: 1 hr 17 min 12 sec) 

ChampSim completed all CPUs

Region of Interest Statistics

CPU 0 cummulative IPC: 0.482001 instructions: 100000003 cycles: 207468467
LLC TOTAL     ACCESS:    1112413  HIT:     297159  MISS:     815254
LLC LOAD      ACCESS:      27898  HIT:       1247  MISS:      26651
LLC RFO       ACCESS:     245174  HIT:       9405  MISS:     235769
LLC PREFETCH  ACCESS:     593832  HIT:     138331  MISS:     455501
LLC WRITEBACK ACCESS:     245509  HIT:     148176  MISS:      97333
