
*** ChampSim Multicore Out-of-Order Simulator ***

Warmup Instructions: 10000000
Simulation Instructions: 100000000
Configuration: 2
Number of CPUs: 1
LLC sets: 2048
LLC ways: 16
Off-chip DRAM Channels: 1 Width: 64-bit Data Rate: 1600 MT/s

CPU 0 runs /datasets/cs240c-wi22-a00-public/data/Assignment2-gz/gcc_56B.trace.gz
CPU 0 L1D next line prefetcher
CPU 0 L2C IP-based stride prefetcher
Heartbeat CPU 0 instructions: 1000003 cycles: 954147 heartbeat IPC: 1.04806 cumulative IPC: 1.04806 (Simulation time: 0 hr 0 min 48 sec) 
Heartbeat CPU 0 instructions: 2000001 cycles: 1898356 heartbeat IPC: 1.05909 cumulative IPC: 1.05354 (Simulation time: 0 hr 1 min 37 sec) 
Heartbeat CPU 0 instructions: 3000001 cycles: 2885603 heartbeat IPC: 1.01292 cumulative IPC: 1.03964 (Simulation time: 0 hr 2 min 21 sec) 
Heartbeat CPU 0 instructions: 4000000 cycles: 3848224 heartbeat IPC: 1.03883 cumulative IPC: 1.03944 (Simulation time: 0 hr 3 min 6 sec) 
Heartbeat CPU 0 instructions: 5000002 cycles: 4737714 heartbeat IPC: 1.12424 cumulative IPC: 1.05536 (Simulation time: 0 hr 3 min 49 sec) 
Heartbeat CPU 0 instructions: 6000000 cycles: 5685682 heartbeat IPC: 1.05489 cumulative IPC: 1.05528 (Simulation time: 0 hr 4 min 33 sec) 
Heartbeat CPU 0 instructions: 7000000 cycles: 6649940 heartbeat IPC: 1.03707 cumulative IPC: 1.05264 (Simulation time: 0 hr 5 min 19 sec) 
Heartbeat CPU 0 instructions: 8000000 cycles: 7611176 heartbeat IPC: 1.04033 cumulative IPC: 1.05109 (Simulation time: 0 hr 6 min 3 sec) 
Heartbeat CPU 0 instructions: 9000000 cycles: 8622663 heartbeat IPC: 0.988643 cumulative IPC: 1.04376 (Simulation time: 0 hr 6 min 50 sec) 
Heartbeat CPU 0 instructions: 10000002 cycles: 9583185 heartbeat IPC: 1.0411 cumulative IPC: 1.04349 (Simulation time: 0 hr 7 min 36 sec) 

Warmup complete CPU 0 instructions: 10000002 cycles: 9583185 (Simulation time: 0 hr 7 min 36 sec) 

Heartbeat CPU 0 instructions: 11000000 cycles: 10945940 heartbeat IPC: 0.733806 cumulative IPC: 0.733806 (Simulation time: 0 hr 8 min 23 sec) 
Heartbeat CPU 0 instructions: 12000000 cycles: 12385110 heartbeat IPC: 0.694845 cumulative IPC: 0.713794 (Simulation time: 0 hr 9 min 9 sec) 
Heartbeat CPU 0 instructions: 13000001 cycles: 13781811 heartbeat IPC: 0.715974 cumulative IPC: 0.714519 (Simulation time: 0 hr 9 min 57 sec) 
Heartbeat CPU 0 instructions: 14000000 cycles: 15127545 heartbeat IPC: 0.743088 cumulative IPC: 0.721453 (Simulation time: 0 hr 10 min 48 sec) 
Heartbeat CPU 0 instructions: 15000003 cycles: 16515444 heartbeat IPC: 0.720516 cumulative IPC: 0.721266 (Simulation time: 0 hr 11 min 33 sec) 
Heartbeat CPU 0 instructions: 16000000 cycles: 17853662 heartbeat IPC: 0.74726 cumulative IPC: 0.725472 (Simulation time: 0 hr 12 min 19 sec) 
Heartbeat CPU 0 instructions: 17000001 cycles: 19187150 heartbeat IPC: 0.749914 cumulative IPC: 0.728866 (Simulation time: 0 hr 13 min 5 sec) 
Heartbeat CPU 0 instructions: 18000000 cycles: 20589300 heartbeat IPC: 0.71319 cumulative IPC: 0.726868 (Simulation time: 0 hr 13 min 51 sec) 
Heartbeat CPU 0 instructions: 19000000 cycles: 21981839 heartbeat IPC: 0.718113 cumulative IPC: 0.725885 (Simulation time: 0 hr 14 min 36 sec) 
Heartbeat CPU 0 instructions: 20000000 cycles: 23355524 heartbeat IPC: 0.727969 cumulative IPC: 0.726093 (Simulation time: 0 hr 15 min 23 sec) 
Heartbeat CPU 0 instructions: 21000000 cycles: 24711878 heartbeat IPC: 0.737271 cumulative IPC: 0.727095 (Simulation time: 0 hr 16 min 9 sec) 
Heartbeat CPU 0 instructions: 22000000 cycles: 26047833 heartbeat IPC: 0.748528 cumulative IPC: 0.728834 (Simulation time: 0 hr 16 min 53 sec) 
Heartbeat CPU 0 instructions: 23000000 cycles: 27390778 heartbeat IPC: 0.744632 cumulative IPC: 0.730026 (Simulation time: 0 hr 17 min 39 sec) 
Heartbeat CPU 0 instructions: 24000000 cycles: 28761937 heartbeat IPC: 0.72931 cumulative IPC: 0.729974 (Simulation time: 0 hr 18 min 23 sec) 
Heartbeat CPU 0 instructions: 25000000 cycles: 30141171 heartbeat IPC: 0.72504 cumulative IPC: 0.729643 (Simulation time: 0 hr 19 min 6 sec) 
Heartbeat CPU 0 instructions: 26000002 cycles: 31554280 heartbeat IPC: 0.707661 cumulative IPC: 0.72823 (Simulation time: 0 hr 19 min 51 sec) 
Heartbeat CPU 0 instructions: 27000000 cycles: 32947209 heartbeat IPC: 0.71791 cumulative IPC: 0.727614 (Simulation time: 0 hr 20 min 36 sec) 
Heartbeat CPU 0 instructions: 28000000 cycles: 34295818 heartbeat IPC: 0.741505 cumulative IPC: 0.728372 (Simulation time: 0 hr 21 min 22 sec) 
Heartbeat CPU 0 instructions: 29000000 cycles: 35645562 heartbeat IPC: 0.740881 cumulative IPC: 0.72902 (Simulation time: 0 hr 22 min 11 sec) 
Heartbeat CPU 0 instructions: 30000000 cycles: 37001213 heartbeat IPC: 0.737653 cumulative IPC: 0.729447 (Simulation time: 0 hr 22 min 57 sec) 
Heartbeat CPU 0 instructions: 31000000 cycles: 38361523 heartbeat IPC: 0.735127 cumulative IPC: 0.729715 (Simulation time: 0 hr 23 min 45 sec) 
Heartbeat CPU 0 instructions: 32000000 cycles: 39748980 heartbeat IPC: 0.720743 cumulative IPC: 0.729303 (Simulation time: 0 hr 24 min 29 sec) 
Heartbeat CPU 0 instructions: 33000002 cycles: 41166188 heartbeat IPC: 0.705614 cumulative IPC: 0.72824 (Simulation time: 0 hr 25 min 16 sec) 
Heartbeat CPU 0 instructions: 34000002 cycles: 42541840 heartbeat IPC: 0.726928 cumulative IPC: 0.728185 (Simulation time: 0 hr 26 min 1 sec) 
Heartbeat CPU 0 instructions: 35000002 cycles: 43903198 heartbeat IPC: 0.734561 cumulative IPC: 0.728438 (Simulation time: 0 hr 26 min 50 sec) 
Heartbeat CPU 0 instructions: 36000000 cycles: 45248041 heartbeat IPC: 0.74358 cumulative IPC: 0.729009 (Simulation time: 0 hr 27 min 37 sec) 
Heartbeat CPU 0 instructions: 37000000 cycles: 46573669 heartbeat IPC: 0.754359 cumulative IPC: 0.729917 (Simulation time: 0 hr 28 min 28 sec) 
Heartbeat CPU 0 instructions: 38000002 cycles: 47922144 heartbeat IPC: 0.74158 cumulative IPC: 0.730328 (Simulation time: 0 hr 29 min 11 sec) 
Heartbeat CPU 0 instructions: 39000000 cycles: 49337931 heartbeat IPC: 0.70632 cumulative IPC: 0.729473 (Simulation time: 0 hr 29 min 55 sec) 
Heartbeat CPU 0 instructions: 40000000 cycles: 50716883 heartbeat IPC: 0.725188 cumulative IPC: 0.729329 (Simulation time: 0 hr 30 min 40 sec) 
Heartbeat CPU 0 instructions: 41000001 cycles: 52074303 heartbeat IPC: 0.736692 cumulative IPC: 0.729564 (Simulation time: 0 hr 31 min 25 sec) 
Heartbeat CPU 0 instructions: 42000003 cycles: 53420978 heartbeat IPC: 0.742571 cumulative IPC: 0.729964 (Simulation time: 0 hr 32 min 10 sec) 
Heartbeat CPU 0 instructions: 43000001 cycles: 54774683 heartbeat IPC: 0.738712 cumulative IPC: 0.730226 (Simulation time: 0 hr 32 min 55 sec) 
Heartbeat CPU 0 instructions: 44000000 cycles: 56119316 heartbeat IPC: 0.743697 cumulative IPC: 0.730615 (Simulation time: 0 hr 33 min 40 sec) 
Heartbeat CPU 0 instructions: 45000000 cycles: 57504420 heartbeat IPC: 0.721967 cumulative IPC: 0.730365 (Simulation time: 0 hr 34 min 26 sec) 
Heartbeat CPU 0 instructions: 46000000 cycles: 58912193 heartbeat IPC: 0.710342 cumulative IPC: 0.729794 (Simulation time: 0 hr 35 min 14 sec) 
Heartbeat CPU 0 instructions: 47000002 cycles: 60305101 heartbeat IPC: 0.717924 cumulative IPC: 0.729468 (Simulation time: 0 hr 36 min 0 sec) 
Heartbeat CPU 0 instructions: 48000000 cycles: 61668129 heartbeat IPC: 0.733659 cumulative IPC: 0.729577 (Simulation time: 0 hr 36 min 47 sec) 
Heartbeat CPU 0 instructions: 49000002 cycles: 63010151 heartbeat IPC: 0.745146 cumulative IPC: 0.729968 (Simulation time: 0 hr 37 min 34 sec) 
Heartbeat CPU 0 instructions: 50000000 cycles: 64347653 heartbeat IPC: 0.747661 cumulative IPC: 0.730401 (Simulation time: 0 hr 38 min 26 sec) 
Heartbeat CPU 0 instructions: 51000000 cycles: 65720687 heartbeat IPC: 0.728314 cumulative IPC: 0.73035 (Simulation time: 0 hr 39 min 17 sec) 
Heartbeat CPU 0 instructions: 52000000 cycles: 67129204 heartbeat IPC: 0.709967 cumulative IPC: 0.729851 (Simulation time: 0 hr 40 min 1 sec) 
Heartbeat CPU 0 instructions: 53000001 cycles: 68478557 heartbeat IPC: 0.741097 cumulative IPC: 0.730108 (Simulation time: 0 hr 40 min 44 sec) 
Heartbeat CPU 0 instructions: 54000000 cycles: 69809380 heartbeat IPC: 0.751414 cumulative IPC: 0.730579 (Simulation time: 0 hr 41 min 28 sec) 
Heartbeat CPU 0 instructions: 55000001 cycles: 71131006 heartbeat IPC: 0.756644 cumulative IPC: 0.731139 (Simulation time: 0 hr 42 min 15 sec) 
Heartbeat CPU 0 instructions: 56000000 cycles: 72468594 heartbeat IPC: 0.747614 cumulative IPC: 0.731489 (Simulation time: 0 hr 43 min 0 sec) 
Heartbeat CPU 0 instructions: 57000001 cycles: 73819793 heartbeat IPC: 0.740084 cumulative IPC: 0.73167 (Simulation time: 0 hr 43 min 44 sec) 
Heartbeat CPU 0 instructions: 58000000 cycles: 75214627 heartbeat IPC: 0.71693 cumulative IPC: 0.731357 (Simulation time: 0 hr 44 min 27 sec) 
Heartbeat CPU 0 instructions: 59000000 cycles: 76627766 heartbeat IPC: 0.707644 cumulative IPC: 0.730857 (Simulation time: 0 hr 45 min 12 sec) 
Heartbeat CPU 0 instructions: 60000000 cycles: 78019955 heartbeat IPC: 0.718293 cumulative IPC: 0.730601 (Simulation time: 0 hr 45 min 57 sec) 
Heartbeat CPU 0 instructions: 61000000 cycles: 79365410 heartbeat IPC: 0.743243 cumulative IPC: 0.730845 (Simulation time: 0 hr 46 min 44 sec) 
Heartbeat CPU 0 instructions: 62000002 cycles: 80745254 heartbeat IPC: 0.724721 cumulative IPC: 0.730726 (Simulation time: 0 hr 47 min 31 sec) 
Heartbeat CPU 0 instructions: 63000003 cycles: 82078470 heartbeat IPC: 0.750067 cumulative IPC: 0.731082 (Simulation time: 0 hr 48 min 15 sec) 
Heartbeat CPU 0 instructions: 64000000 cycles: 83415724 heartbeat IPC: 0.747799 cumulative IPC: 0.731385 (Simulation time: 0 hr 48 min 59 sec) 
Heartbeat CPU 0 instructions: 65000000 cycles: 84779802 heartbeat IPC: 0.733096 cumulative IPC: 0.731416 (Simulation time: 0 hr 49 min 41 sec) 
Heartbeat CPU 0 instructions: 66000002 cycles: 86187357 heartbeat IPC: 0.710453 cumulative IPC: 0.731031 (Simulation time: 0 hr 50 min 21 sec) 
Heartbeat CPU 0 instructions: 67000002 cycles: 87590686 heartbeat IPC: 0.712591 cumulative IPC: 0.730699 (Simulation time: 0 hr 51 min 7 sec) 
Heartbeat CPU 0 instructions: 68000000 cycles: 88962159 heartbeat IPC: 0.729142 cumulative IPC: 0.730672 (Simulation time: 0 hr 51 min 52 sec) 
Heartbeat CPU 0 instructions: 69000000 cycles: 90307897 heartbeat IPC: 0.743087 cumulative IPC: 0.730879 (Simulation time: 0 hr 52 min 45 sec) 
Heartbeat CPU 0 instructions: 70000000 cycles: 91652551 heartbeat IPC: 0.743686 cumulative IPC: 0.731089 (Simulation time: 0 hr 53 min 31 sec) 
Heartbeat CPU 0 instructions: 71000003 cycles: 93008322 heartbeat IPC: 0.73759 cumulative IPC: 0.731194 (Simulation time: 0 hr 54 min 17 sec) 
Heartbeat CPU 0 instructions: 72000000 cycles: 94364822 heartbeat IPC: 0.737189 cumulative IPC: 0.73129 (Simulation time: 0 hr 55 min 2 sec) 
Heartbeat CPU 0 instructions: 73000003 cycles: 95749539 heartbeat IPC: 0.722171 cumulative IPC: 0.731144 (Simulation time: 0 hr 55 min 41 sec) 
Heartbeat CPU 0 instructions: 74000001 cycles: 97162629 heartbeat IPC: 0.707668 cumulative IPC: 0.730765 (Simulation time: 0 hr 56 min 28 sec) 
Heartbeat CPU 0 instructions: 75000003 cycles: 98552739 heartbeat IPC: 0.719369 cumulative IPC: 0.730587 (Simulation time: 0 hr 57 min 9 sec) 
Heartbeat CPU 0 instructions: 76000000 cycles: 99913192 heartbeat IPC: 0.735047 cumulative IPC: 0.730654 (Simulation time: 0 hr 57 min 50 sec) 
Heartbeat CPU 0 instructions: 77000003 cycles: 101265539 heartbeat IPC: 0.739457 cumulative IPC: 0.730784 (Simulation time: 0 hr 58 min 33 sec) 
Heartbeat CPU 0 instructions: 78000001 cycles: 102615331 heartbeat IPC: 0.740853 cumulative IPC: 0.73093 (Simulation time: 0 hr 59 min 12 sec) 
Heartbeat CPU 0 instructions: 79000000 cycles: 103986735 heartbeat IPC: 0.729179 cumulative IPC: 0.730905 (Simulation time: 0 hr 59 min 49 sec) 
Heartbeat CPU 0 instructions: 80000000 cycles: 105352445 heartbeat IPC: 0.73222 cumulative IPC: 0.730923 (Simulation time: 1 hr 0 min 29 sec) 
Heartbeat CPU 0 instructions: 81000002 cycles: 106745710 heartbeat IPC: 0.71774 cumulative IPC: 0.730734 (Simulation time: 1 hr 1 min 10 sec) 
Heartbeat CPU 0 instructions: 82000000 cycles: 108132867 heartbeat IPC: 0.720897 cumulative IPC: 0.730596 (Simulation time: 1 hr 1 min 48 sec) 
Heartbeat CPU 0 instructions: 83000003 cycles: 109481108 heartbeat IPC: 0.741709 cumulative IPC: 0.730746 (Simulation time: 1 hr 2 min 33 sec) 
Heartbeat CPU 0 instructions: 84000000 cycles: 110842628 heartbeat IPC: 0.734471 cumulative IPC: 0.730796 (Simulation time: 1 hr 3 min 21 sec) 
Heartbeat CPU 0 instructions: 85000002 cycles: 112172562 heartbeat IPC: 0.751918 cumulative IPC: 0.73107 (Simulation time: 1 hr 4 min 3 sec) 
Heartbeat CPU 0 instructions: 86000003 cycles: 113493589 heartbeat IPC: 0.756988 cumulative IPC: 0.731399 (Simulation time: 1 hr 4 min 38 sec) 
Heartbeat CPU 0 instructions: 87000000 cycles: 114891202 heartbeat IPC: 0.715504 cumulative IPC: 0.731188 (Simulation time: 1 hr 5 min 19 sec) 
Heartbeat CPU 0 instructions: 88000000 cycles: 116257868 heartbeat IPC: 0.731708 cumulative IPC: 0.731195 (Simulation time: 1 hr 5 min 57 sec) 
Heartbeat CPU 0 instructions: 89000000 cycles: 117634220 heartbeat IPC: 0.726558 cumulative IPC: 0.731136 (Simulation time: 1 hr 6 min 33 sec) 
Heartbeat CPU 0 instructions: 90000000 cycles: 118968093 heartbeat IPC: 0.749697 cumulative IPC: 0.731362 (Simulation time: 1 hr 7 min 7 sec) 
Heartbeat CPU 0 instructions: 91000001 cycles: 120291109 heartbeat IPC: 0.75585 cumulative IPC: 0.731655 (Simulation time: 1 hr 7 min 45 sec) 
Heartbeat CPU 0 instructions: 92000000 cycles: 121625318 heartbeat IPC: 0.749507 cumulative IPC: 0.731867 (Simulation time: 1 hr 8 min 19 sec) 
Heartbeat CPU 0 instructions: 93000003 cycles: 123021254 heartbeat IPC: 0.716367 cumulative IPC: 0.731677 (Simulation time: 1 hr 8 min 54 sec) 
Heartbeat CPU 0 instructions: 94000000 cycles: 124379820 heartbeat IPC: 0.736068 cumulative IPC: 0.731729 (Simulation time: 1 hr 9 min 30 sec) 
Heartbeat CPU 0 instructions: 95000000 cycles: 125749573 heartbeat IPC: 0.730059 cumulative IPC: 0.731709 (Simulation time: 1 hr 10 min 1 sec) 
Heartbeat CPU 0 instructions: 96000000 cycles: 127097771 heartbeat IPC: 0.741731 cumulative IPC: 0.731824 (Simulation time: 1 hr 10 min 31 sec) 
Heartbeat CPU 0 instructions: 97000000 cycles: 128421920 heartbeat IPC: 0.755202 cumulative IPC: 0.732085 (Simulation time: 1 hr 11 min 4 sec) 
Heartbeat CPU 0 instructions: 98000003 cycles: 129750495 heartbeat IPC: 0.752688 cumulative IPC: 0.732312 (Simulation time: 1 hr 11 min 30 sec) 
Heartbeat CPU 0 instructions: 99000000 cycles: 131152310 heartbeat IPC: 0.713359 cumulative IPC: 0.732094 (Simulation time: 1 hr 11 min 54 sec) 
Heartbeat CPU 0 instructions: 100000000 cycles: 132511213 heartbeat IPC: 0.735888 cumulative IPC: 0.732136 (Simulation time: 1 hr 12 min 22 sec) 
Heartbeat CPU 0 instructions: 101000000 cycles: 133874269 heartbeat IPC: 0.733646 cumulative IPC: 0.732152 (Simulation time: 1 hr 12 min 48 sec) 
Heartbeat CPU 0 instructions: 102000001 cycles: 135205647 heartbeat IPC: 0.751102 cumulative IPC: 0.732353 (Simulation time: 1 hr 13 min 14 sec) 
Heartbeat CPU 0 instructions: 103000001 cycles: 136522061 heartbeat IPC: 0.759639 cumulative IPC: 0.732636 (Simulation time: 1 hr 13 min 38 sec) 
Heartbeat CPU 0 instructions: 104000000 cycles: 137842315 heartbeat IPC: 0.757429 cumulative IPC: 0.732891 (Simulation time: 1 hr 14 min 1 sec) 
Heartbeat CPU 0 instructions: 105000002 cycles: 139237763 heartbeat IPC: 0.716617 cumulative IPC: 0.732716 (Simulation time: 1 hr 14 min 24 sec) 
Heartbeat CPU 0 instructions: 106000000 cycles: 140658001 heartbeat IPC: 0.704106 cumulative IPC: 0.732406 (Simulation time: 1 hr 14 min 48 sec) 
Heartbeat CPU 0 instructions: 107000002 cycles: 142060990 heartbeat IPC: 0.712765 cumulative IPC: 0.732198 (Simulation time: 1 hr 15 min 11 sec) 
Heartbeat CPU 0 instructions: 108000000 cycles: 143435312 heartbeat IPC: 0.72763 cumulative IPC: 0.732151 (Simulation time: 1 hr 15 min 32 sec) 
Heartbeat CPU 0 instructions: 109000000 cycles: 144789449 heartbeat IPC: 0.738478 cumulative IPC: 0.732215 (Simulation time: 1 hr 15 min 53 sec) 
Heartbeat CPU 0 instructions: 110000000 cycles: 146136477 heartbeat IPC: 0.742375 cumulative IPC: 0.732315 (Simulation time: 1 hr 16 min 13 sec) 
Finished CPU 0 instructions: 100000003 cycles: 136553294 cummulative IPC: 0.732315 (Simulation time: 1 hr 16 min 13 sec) 

ChampSim completed all CPUs

Region of Interest Statistics

CPU 0 cummulative IPC: 0.732315 instructions: 100000003 cycles: 136553294
LLC TOTAL     ACCESS:   21346119  HIT:   21109785  MISS:     236334
LLC LOAD      ACCESS:     165909  HIT:     123071  MISS:      42838
LLC RFO       ACCESS:   10463422  HIT:   10456797  MISS:       6625
LLC PREFETCH  ACCESS:     183300  HIT:      27303  MISS:     155997
LLC WRITEBACK ACCESS:   10533488  HIT:   10502614  MISS:      30874
