
*** ChampSim Multicore Out-of-Order Simulator ***

Warmup Instructions: 10000000
Simulation Instructions: 100000000
Configuration: 2
Number of CPUs: 1
LLC sets: 2048
LLC ways: 16
Off-chip DRAM Channels: 1 Width: 64-bit Data Rate: 1600 MT/s

CPU 0 runs /datasets/cs240c-wi22-a00-public/data/Assignment2-gz/bzip2_281B.trace.gz
CPU 0 L1D next line prefetcher
CPU 0 L2C IP-based stride prefetcher
Heartbeat CPU 0 instructions: 1000000 cycles: 445883 heartbeat IPC: 2.24274 cumulative IPC: 2.24274 (Simulation time: 0 hr 0 min 40 sec) 
Heartbeat CPU 0 instructions: 2000003 cycles: 900143 heartbeat IPC: 2.20139 cumulative IPC: 2.22187 (Simulation time: 0 hr 1 min 21 sec) 
Heartbeat CPU 0 instructions: 3000002 cycles: 1314804 heartbeat IPC: 2.41161 cumulative IPC: 2.28171 (Simulation time: 0 hr 2 min 1 sec) 
Heartbeat CPU 0 instructions: 4000000 cycles: 1753273 heartbeat IPC: 2.28066 cumulative IPC: 2.28145 (Simulation time: 0 hr 2 min 39 sec) 
Heartbeat CPU 0 instructions: 5000002 cycles: 2175273 heartbeat IPC: 2.36967 cumulative IPC: 2.29856 (Simulation time: 0 hr 3 min 18 sec) 
Heartbeat CPU 0 instructions: 6000000 cycles: 2665946 heartbeat IPC: 2.03801 cumulative IPC: 2.25061 (Simulation time: 0 hr 4 min 1 sec) 
Heartbeat CPU 0 instructions: 7000001 cycles: 3193235 heartbeat IPC: 1.8965 cumulative IPC: 2.19213 (Simulation time: 0 hr 4 min 42 sec) 
Heartbeat CPU 0 instructions: 8000000 cycles: 3725869 heartbeat IPC: 1.87746 cumulative IPC: 2.14715 (Simulation time: 0 hr 5 min 25 sec) 
Heartbeat CPU 0 instructions: 9000000 cycles: 4232417 heartbeat IPC: 1.97415 cumulative IPC: 2.12644 (Simulation time: 0 hr 6 min 6 sec) 
Heartbeat CPU 0 instructions: 10000002 cycles: 4685381 heartbeat IPC: 2.20769 cumulative IPC: 2.1343 (Simulation time: 0 hr 6 min 43 sec) 

Warmup complete CPU 0 instructions: 10000002 cycles: 4685381 (Simulation time: 0 hr 6 min 43 sec) 

Heartbeat CPU 0 instructions: 11000001 cycles: 6205106 heartbeat IPC: 0.658013 cumulative IPC: 0.658013 (Simulation time: 0 hr 7 min 19 sec) 
Heartbeat CPU 0 instructions: 12000000 cycles: 7501727 heartbeat IPC: 0.771235 cumulative IPC: 0.710139 (Simulation time: 0 hr 7 min 59 sec) 
Heartbeat CPU 0 instructions: 13000001 cycles: 8871602 heartbeat IPC: 0.729994 cumulative IPC: 0.716637 (Simulation time: 0 hr 8 min 43 sec) 
Heartbeat CPU 0 instructions: 14000000 cycles: 10346304 heartbeat IPC: 0.678102 cumulative IPC: 0.706598 (Simulation time: 0 hr 9 min 17 sec) 
Heartbeat CPU 0 instructions: 15000000 cycles: 11838970 heartbeat IPC: 0.669942 cumulative IPC: 0.69895 (Simulation time: 0 hr 9 min 57 sec) 
Heartbeat CPU 0 instructions: 16000000 cycles: 13398902 heartbeat IPC: 0.641054 cumulative IPC: 0.688585 (Simulation time: 0 hr 10 min 41 sec) 
Heartbeat CPU 0 instructions: 17000000 cycles: 14916258 heartbeat IPC: 0.659041 cumulative IPC: 0.684203 (Simulation time: 0 hr 11 min 22 sec) 
Heartbeat CPU 0 instructions: 18000002 cycles: 16584277 heartbeat IPC: 0.599515 cumulative IPC: 0.672331 (Simulation time: 0 hr 11 min 55 sec) 
Heartbeat CPU 0 instructions: 19000003 cycles: 18046882 heartbeat IPC: 0.683712 cumulative IPC: 0.673577 (Simulation time: 0 hr 12 min 28 sec) 
Heartbeat CPU 0 instructions: 20000000 cycles: 19700773 heartbeat IPC: 0.604633 cumulative IPC: 0.665983 (Simulation time: 0 hr 13 min 4 sec) 
Heartbeat CPU 0 instructions: 21000001 cycles: 21292259 heartbeat IPC: 0.628344 cumulative IPC: 0.662376 (Simulation time: 0 hr 13 min 44 sec) 
Heartbeat CPU 0 instructions: 22000000 cycles: 23203498 heartbeat IPC: 0.52322 cumulative IPC: 0.648014 (Simulation time: 0 hr 14 min 27 sec) 
Heartbeat CPU 0 instructions: 23000001 cycles: 24830121 heartbeat IPC: 0.614771 cumulative IPC: 0.64533 (Simulation time: 0 hr 15 min 0 sec) 
Heartbeat CPU 0 instructions: 24000000 cycles: 26700654 heartbeat IPC: 0.534606 cumulative IPC: 0.635922 (Simulation time: 0 hr 15 min 43 sec) 
Heartbeat CPU 0 instructions: 25000002 cycles: 28413937 heartbeat IPC: 0.583676 cumulative IPC: 0.63215 (Simulation time: 0 hr 16 min 32 sec) 
Heartbeat CPU 0 instructions: 26000000 cycles: 29744974 heartbeat IPC: 0.751292 cumulative IPC: 0.638478 (Simulation time: 0 hr 17 min 23 sec) 
Heartbeat CPU 0 instructions: 27000002 cycles: 31168870 heartbeat IPC: 0.7023 cumulative IPC: 0.641909 (Simulation time: 0 hr 18 min 18 sec) 
Heartbeat CPU 0 instructions: 28000000 cycles: 32133653 heartbeat IPC: 1.0365 cumulative IPC: 0.655779 (Simulation time: 0 hr 18 min 58 sec) 
Heartbeat CPU 0 instructions: 29000001 cycles: 33032988 heartbeat IPC: 1.11193 cumulative IPC: 0.670251 (Simulation time: 0 hr 19 min 34 sec) 
Heartbeat CPU 0 instructions: 30000000 cycles: 33951498 heartbeat IPC: 1.08872 cumulative IPC: 0.683384 (Simulation time: 0 hr 20 min 11 sec) 
Heartbeat CPU 0 instructions: 31000003 cycles: 34958935 heartbeat IPC: 0.992621 cumulative IPC: 0.693675 (Simulation time: 0 hr 20 min 47 sec) 
Heartbeat CPU 0 instructions: 32000000 cycles: 35880333 heartbeat IPC: 1.0853 cumulative IPC: 0.705242 (Simulation time: 0 hr 21 min 21 sec) 
Heartbeat CPU 0 instructions: 33000002 cycles: 36874831 heartbeat IPC: 1.00553 cumulative IPC: 0.71452 (Simulation time: 0 hr 22 min 3 sec) 
Heartbeat CPU 0 instructions: 34000000 cycles: 37823779 heartbeat IPC: 1.0538 cumulative IPC: 0.724235 (Simulation time: 0 hr 22 min 37 sec) 
Heartbeat CPU 0 instructions: 35000000 cycles: 38682301 heartbeat IPC: 1.16479 cumulative IPC: 0.735361 (Simulation time: 0 hr 23 min 9 sec) 
Heartbeat CPU 0 instructions: 36000000 cycles: 39524720 heartbeat IPC: 1.18706 cumulative IPC: 0.746283 (Simulation time: 0 hr 23 min 42 sec) 
Heartbeat CPU 0 instructions: 37000000 cycles: 40377611 heartbeat IPC: 1.17248 cumulative IPC: 0.756467 (Simulation time: 0 hr 24 min 15 sec) 
Heartbeat CPU 0 instructions: 38000002 cycles: 41171836 heartbeat IPC: 1.25909 cumulative IPC: 0.767408 (Simulation time: 0 hr 24 min 46 sec) 
Heartbeat CPU 0 instructions: 39000001 cycles: 42078343 heartbeat IPC: 1.10313 cumulative IPC: 0.775547 (Simulation time: 0 hr 25 min 19 sec) 
Heartbeat CPU 0 instructions: 40000000 cycles: 43013358 heartbeat IPC: 1.0695 cumulative IPC: 0.782718 (Simulation time: 0 hr 25 min 53 sec) 
Heartbeat CPU 0 instructions: 41000002 cycles: 43979219 heartbeat IPC: 1.03535 cumulative IPC: 0.788928 (Simulation time: 0 hr 26 min 27 sec) 
Heartbeat CPU 0 instructions: 42000001 cycles: 44942651 heartbeat IPC: 1.03795 cumulative IPC: 0.794887 (Simulation time: 0 hr 27 min 0 sec) 
Heartbeat CPU 0 instructions: 43000001 cycles: 45896497 heartbeat IPC: 1.04839 cumulative IPC: 0.800755 (Simulation time: 0 hr 27 min 31 sec) 
Heartbeat CPU 0 instructions: 44000000 cycles: 46879676 heartbeat IPC: 1.01711 cumulative IPC: 0.805796 (Simulation time: 0 hr 28 min 7 sec) 
Heartbeat CPU 0 instructions: 45000001 cycles: 47807839 heartbeat IPC: 1.0774 cumulative IPC: 0.811642 (Simulation time: 0 hr 28 min 39 sec) 
Heartbeat CPU 0 instructions: 46000000 cycles: 48717941 heartbeat IPC: 1.09878 cumulative IPC: 0.817577 (Simulation time: 0 hr 29 min 17 sec) 
Heartbeat CPU 0 instructions: 47000000 cycles: 49600089 heartbeat IPC: 1.1336 cumulative IPC: 0.823784 (Simulation time: 0 hr 29 min 53 sec) 
Heartbeat CPU 0 instructions: 48000000 cycles: 50512865 heartbeat IPC: 1.09556 cumulative IPC: 0.829197 (Simulation time: 0 hr 30 min 30 sec) 
Heartbeat CPU 0 instructions: 49000001 cycles: 51456522 heartbeat IPC: 1.05971 cumulative IPC: 0.833848 (Simulation time: 0 hr 31 min 6 sec) 
Heartbeat CPU 0 instructions: 50000003 cycles: 52440902 heartbeat IPC: 1.01587 cumulative IPC: 0.8376 (Simulation time: 0 hr 31 min 41 sec) 
Heartbeat CPU 0 instructions: 51000002 cycles: 53400134 heartbeat IPC: 1.0425 cumulative IPC: 0.841634 (Simulation time: 0 hr 32 min 19 sec) 
Heartbeat CPU 0 instructions: 52000000 cycles: 54365632 heartbeat IPC: 1.03573 cumulative IPC: 0.845406 (Simulation time: 0 hr 32 min 57 sec) 
Heartbeat CPU 0 instructions: 53000001 cycles: 55344202 heartbeat IPC: 1.0219 cumulative IPC: 0.848816 (Simulation time: 0 hr 33 min 31 sec) 
Heartbeat CPU 0 instructions: 54000003 cycles: 56329151 heartbeat IPC: 1.01528 cumulative IPC: 0.851991 (Simulation time: 0 hr 34 min 10 sec) 
Heartbeat CPU 0 instructions: 55000000 cycles: 57297082 heartbeat IPC: 1.03313 cumulative IPC: 0.855323 (Simulation time: 0 hr 34 min 45 sec) 
Heartbeat CPU 0 instructions: 56000000 cycles: 58277097 heartbeat IPC: 1.02039 cumulative IPC: 0.858342 (Simulation time: 0 hr 35 min 21 sec) 
Heartbeat CPU 0 instructions: 57000002 cycles: 59249965 heartbeat IPC: 1.02789 cumulative IPC: 0.861365 (Simulation time: 0 hr 35 min 56 sec) 
Heartbeat CPU 0 instructions: 58000003 cycles: 60226789 heartbeat IPC: 1.02373 cumulative IPC: 0.86422 (Simulation time: 0 hr 36 min 32 sec) 
Heartbeat CPU 0 instructions: 59000003 cycles: 61258539 heartbeat IPC: 0.969227 cumulative IPC: 0.866135 (Simulation time: 0 hr 37 min 12 sec) 
Heartbeat CPU 0 instructions: 60000000 cycles: 62467106 heartbeat IPC: 0.827424 cumulative IPC: 0.865325 (Simulation time: 0 hr 37 min 53 sec) 
Heartbeat CPU 0 instructions: 61000000 cycles: 63674650 heartbeat IPC: 0.828127 cumulative IPC: 0.864564 (Simulation time: 0 hr 38 min 35 sec) 
Heartbeat CPU 0 instructions: 62000003 cycles: 64899057 heartbeat IPC: 0.816724 cumulative IPC: 0.863591 (Simulation time: 0 hr 39 min 18 sec) 
Heartbeat CPU 0 instructions: 63000001 cycles: 66130362 heartbeat IPC: 0.812145 cumulative IPC: 0.86256 (Simulation time: 0 hr 39 min 59 sec) 
Heartbeat CPU 0 instructions: 64000000 cycles: 67451941 heartbeat IPC: 0.75667 cumulative IPC: 0.860331 (Simulation time: 0 hr 40 min 40 sec) 
Heartbeat CPU 0 instructions: 65000001 cycles: 68656206 heartbeat IPC: 0.830383 cumulative IPC: 0.859767 (Simulation time: 0 hr 41 min 22 sec) 
Heartbeat CPU 0 instructions: 66000003 cycles: 69858176 heartbeat IPC: 0.831969 cumulative IPC: 0.859254 (Simulation time: 0 hr 42 min 7 sec) 
Heartbeat CPU 0 instructions: 67000000 cycles: 71069463 heartbeat IPC: 0.825566 cumulative IPC: 0.85864 (Simulation time: 0 hr 42 min 51 sec) 
Heartbeat CPU 0 instructions: 68000000 cycles: 72383510 heartbeat IPC: 0.761008 cumulative IPC: 0.856744 (Simulation time: 0 hr 43 min 29 sec) 
Heartbeat CPU 0 instructions: 69000000 cycles: 73580231 heartbeat IPC: 0.835617 cumulative IPC: 0.856377 (Simulation time: 0 hr 44 min 13 sec) 
Heartbeat CPU 0 instructions: 70000002 cycles: 74782512 heartbeat IPC: 0.831754 cumulative IPC: 0.855955 (Simulation time: 0 hr 44 min 58 sec) 
Heartbeat CPU 0 instructions: 71000003 cycles: 75989388 heartbeat IPC: 0.828586 cumulative IPC: 0.855492 (Simulation time: 0 hr 45 min 41 sec) 
Heartbeat CPU 0 instructions: 72000000 cycles: 77197754 heartbeat IPC: 0.827561 cumulative IPC: 0.855026 (Simulation time: 0 hr 46 min 24 sec) 
Heartbeat CPU 0 instructions: 73000002 cycles: 78501520 heartbeat IPC: 0.76701 cumulative IPC: 0.853472 (Simulation time: 0 hr 47 min 4 sec) 
Heartbeat CPU 0 instructions: 74000000 cycles: 79701219 heartbeat IPC: 0.833541 cumulative IPC: 0.853153 (Simulation time: 0 hr 47 min 45 sec) 
Heartbeat CPU 0 instructions: 75000001 cycles: 80902734 heartbeat IPC: 0.832283 cumulative IPC: 0.852824 (Simulation time: 0 hr 48 min 26 sec) 
Heartbeat CPU 0 instructions: 76000000 cycles: 82112151 heartbeat IPC: 0.826844 cumulative IPC: 0.852418 (Simulation time: 0 hr 49 min 7 sec) 
Heartbeat CPU 0 instructions: 77000001 cycles: 83369409 heartbeat IPC: 0.795382 cumulative IPC: 0.851507 (Simulation time: 0 hr 49 min 49 sec) 
Heartbeat CPU 0 instructions: 78000003 cycles: 84539514 heartbeat IPC: 0.854626 cumulative IPC: 0.851553 (Simulation time: 0 hr 50 min 20 sec) 
Heartbeat CPU 0 instructions: 79000000 cycles: 85458570 heartbeat IPC: 1.08807 cumulative IPC: 0.854244 (Simulation time: 0 hr 50 min 49 sec) 
Heartbeat CPU 0 instructions: 80000000 cycles: 86362025 heartbeat IPC: 1.10686 cumulative IPC: 0.857038 (Simulation time: 0 hr 51 min 22 sec) 
Heartbeat CPU 0 instructions: 81000000 cycles: 87207973 heartbeat IPC: 1.18211 cumulative IPC: 0.86037 (Simulation time: 0 hr 51 min 54 sec) 
Heartbeat CPU 0 instructions: 82000001 cycles: 88099939 heartbeat IPC: 1.12112 cumulative IPC: 0.863159 (Simulation time: 0 hr 52 min 28 sec) 
Heartbeat CPU 0 instructions: 83000000 cycles: 89023826 heartbeat IPC: 1.08238 cumulative IPC: 0.86556 (Simulation time: 0 hr 53 min 2 sec) 
Heartbeat CPU 0 instructions: 84000000 cycles: 89941048 heartbeat IPC: 1.09025 cumulative IPC: 0.867977 (Simulation time: 0 hr 53 min 35 sec) 
Heartbeat CPU 0 instructions: 85000002 cycles: 90876420 heartbeat IPC: 1.0691 cumulative IPC: 0.87016 (Simulation time: 0 hr 54 min 15 sec) 
Heartbeat CPU 0 instructions: 86000002 cycles: 91805809 heartbeat IPC: 1.07598 cumulative IPC: 0.872356 (Simulation time: 0 hr 54 min 55 sec) 
Heartbeat CPU 0 instructions: 87000002 cycles: 92735189 heartbeat IPC: 1.07599 cumulative IPC: 0.874505 (Simulation time: 0 hr 55 min 39 sec) 
Heartbeat CPU 0 instructions: 88000000 cycles: 93783759 heartbeat IPC: 0.953678 cumulative IPC: 0.875437 (Simulation time: 0 hr 56 min 22 sec) 
Heartbeat CPU 0 instructions: 89000002 cycles: 94873791 heartbeat IPC: 0.917406 cumulative IPC: 0.875944 (Simulation time: 0 hr 57 min 0 sec) 
Heartbeat CPU 0 instructions: 90000001 cycles: 95961409 heartbeat IPC: 0.91944 cumulative IPC: 0.876462 (Simulation time: 0 hr 57 min 37 sec) 
Heartbeat CPU 0 instructions: 91000001 cycles: 97055851 heartbeat IPC: 0.913708 cumulative IPC: 0.876904 (Simulation time: 0 hr 58 min 19 sec) 
Heartbeat CPU 0 instructions: 92000000 cycles: 98140107 heartbeat IPC: 0.922291 cumulative IPC: 0.87743 (Simulation time: 0 hr 58 min 57 sec) 
Heartbeat CPU 0 instructions: 93000001 cycles: 99222363 heartbeat IPC: 0.923997 cumulative IPC: 0.877963 (Simulation time: 0 hr 59 min 34 sec) 
Heartbeat CPU 0 instructions: 94000001 cycles: 100302497 heartbeat IPC: 0.925811 cumulative IPC: 0.878504 (Simulation time: 1 hr 0 min 15 sec) 
Heartbeat CPU 0 instructions: 95000000 cycles: 101386411 heartbeat IPC: 0.922581 cumulative IPC: 0.878998 (Simulation time: 1 hr 0 min 54 sec) 
Heartbeat CPU 0 instructions: 96000000 cycles: 102465998 heartbeat IPC: 0.92628 cumulative IPC: 0.87952 (Simulation time: 1 hr 1 min 30 sec) 
Heartbeat CPU 0 instructions: 97000002 cycles: 103548402 heartbeat IPC: 0.923871 cumulative IPC: 0.880005 (Simulation time: 1 hr 2 min 11 sec) 
Heartbeat CPU 0 instructions: 98000002 cycles: 104630629 heartbeat IPC: 0.924021 cumulative IPC: 0.880482 (Simulation time: 1 hr 2 min 42 sec) 
Heartbeat CPU 0 instructions: 99000000 cycles: 105711780 heartbeat IPC: 0.924938 cumulative IPC: 0.880958 (Simulation time: 1 hr 3 min 14 sec) 
Heartbeat CPU 0 instructions: 100000000 cycles: 106796816 heartbeat IPC: 0.921628 cumulative IPC: 0.88139 (Simulation time: 1 hr 3 min 45 sec) 
Heartbeat CPU 0 instructions: 101000000 cycles: 107883796 heartbeat IPC: 0.91998 cumulative IPC: 0.881796 (Simulation time: 1 hr 4 min 15 sec) 
Heartbeat CPU 0 instructions: 102000000 cycles: 108973277 heartbeat IPC: 0.917868 cumulative IPC: 0.882173 (Simulation time: 1 hr 4 min 46 sec) 
Heartbeat CPU 0 instructions: 103000002 cycles: 110061774 heartbeat IPC: 0.9187 cumulative IPC: 0.882551 (Simulation time: 1 hr 5 min 23 sec) 
Heartbeat CPU 0 instructions: 104000000 cycles: 111150184 heartbeat IPC: 0.91877 cumulative IPC: 0.882921 (Simulation time: 1 hr 5 min 56 sec) 
Heartbeat CPU 0 instructions: 105000003 cycles: 112244108 heartbeat IPC: 0.914143 cumulative IPC: 0.883238 (Simulation time: 1 hr 6 min 29 sec) 
Heartbeat CPU 0 instructions: 106000002 cycles: 113340637 heartbeat IPC: 0.911968 cumulative IPC: 0.883528 (Simulation time: 1 hr 7 min 3 sec) 
Heartbeat CPU 0 instructions: 107000001 cycles: 114424253 heartbeat IPC: 0.922835 cumulative IPC: 0.883916 (Simulation time: 1 hr 7 min 40 sec) 
Heartbeat CPU 0 instructions: 108000000 cycles: 115518187 heartbeat IPC: 0.914131 cumulative IPC: 0.884215 (Simulation time: 1 hr 8 min 13 sec) 
Heartbeat CPU 0 instructions: 109000001 cycles: 116613036 heartbeat IPC: 0.913369 cumulative IPC: 0.8845 (Simulation time: 1 hr 8 min 46 sec) 
Heartbeat CPU 0 instructions: 110000002 cycles: 117712012 heartbeat IPC: 0.909939 cumulative IPC: 0.884747 (Simulation time: 1 hr 9 min 21 sec) 
Finished CPU 0 instructions: 100000000 cycles: 113026631 cummulative IPC: 0.884747 (Simulation time: 1 hr 9 min 21 sec) 

ChampSim completed all CPUs

Region of Interest Statistics

CPU 0 cummulative IPC: 0.884747 instructions: 100000000 cycles: 113026631
LLC TOTAL     ACCESS:    2346756  HIT:    2026491  MISS:     320265
LLC LOAD      ACCESS:     882437  HIT:     843347  MISS:      39090
LLC RFO       ACCESS:     180759  HIT:     112774  MISS:      67985
LLC PREFETCH  ACCESS:    1098692  HIT:     904664  MISS:     194028
LLC WRITEBACK ACCESS:     184868  HIT:     165706  MISS:      19162
