
*** ChampSim Multicore Out-of-Order Simulator ***

Warmup Instructions: 10000000
Simulation Instructions: 100000000
Configuration: 2
Number of CPUs: 1
LLC sets: 2048
LLC ways: 16
Off-chip DRAM Channels: 1 Width: 64-bit Data Rate: 1600 MT/s

CPU 0 runs /datasets/cs240c-wi22-a00-public/data/Assignment2-gz/sphinx3_2520B.trace.gz
CPU 0 L1D next line prefetcher
CPU 0 L2C IP-based stride prefetcher
Heartbeat CPU 0 instructions: 1000003 cycles: 338965 heartbeat IPC: 2.95017 cumulative IPC: 2.95017 (Simulation time: 0 hr 0 min 44 sec) 
Heartbeat CPU 0 instructions: 2000000 cycles: 737250 heartbeat IPC: 2.51076 cumulative IPC: 2.71278 (Simulation time: 0 hr 1 min 35 sec) 
Heartbeat CPU 0 instructions: 3000003 cycles: 1185269 heartbeat IPC: 2.23205 cumulative IPC: 2.53107 (Simulation time: 0 hr 2 min 21 sec) 
Heartbeat CPU 0 instructions: 4000000 cycles: 1524301 heartbeat IPC: 2.94957 cumulative IPC: 2.62415 (Simulation time: 0 hr 3 min 7 sec) 
Heartbeat CPU 0 instructions: 5000001 cycles: 1902472 heartbeat IPC: 2.64431 cumulative IPC: 2.62816 (Simulation time: 0 hr 3 min 56 sec) 
Heartbeat CPU 0 instructions: 6000001 cycles: 2368256 heartbeat IPC: 2.14692 cumulative IPC: 2.53351 (Simulation time: 0 hr 4 min 46 sec) 
Heartbeat CPU 0 instructions: 7000001 cycles: 2707197 heartbeat IPC: 2.95037 cumulative IPC: 2.5857 (Simulation time: 0 hr 5 min 35 sec) 
Heartbeat CPU 0 instructions: 8000000 cycles: 3056205 heartbeat IPC: 2.86526 cumulative IPC: 2.61763 (Simulation time: 0 hr 6 min 19 sec) 
Heartbeat CPU 0 instructions: 9000000 cycles: 3509859 heartbeat IPC: 2.20432 cumulative IPC: 2.56421 (Simulation time: 0 hr 7 min 4 sec) 
Heartbeat CPU 0 instructions: 10000000 cycles: 3860016 heartbeat IPC: 2.85586 cumulative IPC: 2.59066 (Simulation time: 0 hr 7 min 48 sec) 

Warmup complete CPU 0 instructions: 10000004 cycles: 3860017 (Simulation time: 0 hr 7 min 48 sec) 

Heartbeat CPU 0 instructions: 11000000 cycles: 4739910 heartbeat IPC: 1.1365 cumulative IPC: 1.1365 (Simulation time: 0 hr 8 min 38 sec) 
Heartbeat CPU 0 instructions: 12000000 cycles: 5687987 heartbeat IPC: 1.05477 cumulative IPC: 1.09411 (Simulation time: 0 hr 9 min 31 sec) 
Heartbeat CPU 0 instructions: 13000002 cycles: 6554427 heartbeat IPC: 1.15415 cumulative IPC: 1.11342 (Simulation time: 0 hr 10 min 23 sec) 
Heartbeat CPU 0 instructions: 14000002 cycles: 7401420 heartbeat IPC: 1.18065 cumulative IPC: 1.1295 (Simulation time: 0 hr 11 min 10 sec) 
Heartbeat CPU 0 instructions: 15000003 cycles: 8340084 heartbeat IPC: 1.06535 cumulative IPC: 1.11605 (Simulation time: 0 hr 11 min 57 sec) 
Heartbeat CPU 0 instructions: 16000000 cycles: 9188773 heartbeat IPC: 1.17828 cumulative IPC: 1.12597 (Simulation time: 0 hr 12 min 39 sec) 
Heartbeat CPU 0 instructions: 17000000 cycles: 10017936 heartbeat IPC: 1.20604 cumulative IPC: 1.13675 (Simulation time: 0 hr 13 min 22 sec) 
Heartbeat CPU 0 instructions: 18000002 cycles: 10935777 heartbeat IPC: 1.08952 cumulative IPC: 1.13062 (Simulation time: 0 hr 14 min 5 sec) 
Heartbeat CPU 0 instructions: 19000001 cycles: 11776855 heartbeat IPC: 1.18895 cumulative IPC: 1.13682 (Simulation time: 0 hr 14 min 48 sec) 
Heartbeat CPU 0 instructions: 20000000 cycles: 12601884 heartbeat IPC: 1.21208 cumulative IPC: 1.14392 (Simulation time: 0 hr 15 min 32 sec) 
Heartbeat CPU 0 instructions: 21000001 cycles: 13784455 heartbeat IPC: 0.845616 cumulative IPC: 1.10837 (Simulation time: 0 hr 16 min 15 sec) 
Heartbeat CPU 0 instructions: 22000002 cycles: 14772780 heartbeat IPC: 1.01181 cumulative IPC: 1.09963 (Simulation time: 0 hr 16 min 58 sec) 
Heartbeat CPU 0 instructions: 23000001 cycles: 15602579 heartbeat IPC: 1.20511 cumulative IPC: 1.10708 (Simulation time: 0 hr 17 min 38 sec) 
Heartbeat CPU 0 instructions: 24000000 cycles: 16434780 heartbeat IPC: 1.20163 cumulative IPC: 1.11334 (Simulation time: 0 hr 18 min 22 sec) 
Heartbeat CPU 0 instructions: 25000003 cycles: 17305833 heartbeat IPC: 1.14804 cumulative IPC: 1.11559 (Simulation time: 0 hr 19 min 3 sec) 
Heartbeat CPU 0 instructions: 26000001 cycles: 18124327 heartbeat IPC: 1.22175 cumulative IPC: 1.12168 (Simulation time: 0 hr 19 min 48 sec) 
Heartbeat CPU 0 instructions: 27000002 cycles: 18960633 heartbeat IPC: 1.19574 cumulative IPC: 1.12578 (Simulation time: 0 hr 20 min 29 sec) 
Heartbeat CPU 0 instructions: 28000000 cycles: 19833735 heartbeat IPC: 1.14534 cumulative IPC: 1.12685 (Simulation time: 0 hr 21 min 8 sec) 
Heartbeat CPU 0 instructions: 29000003 cycles: 20658570 heartbeat IPC: 1.21237 cumulative IPC: 1.13105 (Simulation time: 0 hr 21 min 49 sec) 
Heartbeat CPU 0 instructions: 30000003 cycles: 21484630 heartbeat IPC: 1.21057 cumulative IPC: 1.13478 (Simulation time: 0 hr 22 min 32 sec) 
Heartbeat CPU 0 instructions: 31000001 cycles: 22342294 heartbeat IPC: 1.16596 cumulative IPC: 1.13622 (Simulation time: 0 hr 23 min 11 sec) 
Heartbeat CPU 0 instructions: 32000000 cycles: 23155202 heartbeat IPC: 1.23015 cumulative IPC: 1.14018 (Simulation time: 0 hr 23 min 52 sec) 
Heartbeat CPU 0 instructions: 33000000 cycles: 23981983 heartbeat IPC: 1.20951 cumulative IPC: 1.14303 (Simulation time: 0 hr 24 min 32 sec) 
Heartbeat CPU 0 instructions: 34000000 cycles: 24832089 heartbeat IPC: 1.17632 cumulative IPC: 1.14438 (Simulation time: 0 hr 25 min 13 sec) 
Heartbeat CPU 0 instructions: 35000002 cycles: 25649316 heartbeat IPC: 1.22365 cumulative IPC: 1.14735 (Simulation time: 0 hr 25 min 53 sec) 
Heartbeat CPU 0 instructions: 36000000 cycles: 26455099 heartbeat IPC: 1.24103 cumulative IPC: 1.15069 (Simulation time: 0 hr 26 min 34 sec) 
Heartbeat CPU 0 instructions: 37000000 cycles: 27314205 heartbeat IPC: 1.164 cumulative IPC: 1.15118 (Simulation time: 0 hr 27 min 15 sec) 
Heartbeat CPU 0 instructions: 38000002 cycles: 28141362 heartbeat IPC: 1.20896 cumulative IPC: 1.15315 (Simulation time: 0 hr 27 min 54 sec) 
Heartbeat CPU 0 instructions: 39000000 cycles: 28990723 heartbeat IPC: 1.17735 cumulative IPC: 1.15397 (Simulation time: 0 hr 28 min 33 sec) 
Heartbeat CPU 0 instructions: 40000000 cycles: 29854718 heartbeat IPC: 1.15741 cumulative IPC: 1.15408 (Simulation time: 0 hr 29 min 18 sec) 
Heartbeat CPU 0 instructions: 41000001 cycles: 30664088 heartbeat IPC: 1.23553 cumulative IPC: 1.15654 (Simulation time: 0 hr 29 min 57 sec) 
Heartbeat CPU 0 instructions: 42000002 cycles: 31498059 heartbeat IPC: 1.19908 cumulative IPC: 1.15782 (Simulation time: 0 hr 30 min 39 sec) 
Heartbeat CPU 0 instructions: 43000001 cycles: 32333681 heartbeat IPC: 1.19671 cumulative IPC: 1.15897 (Simulation time: 0 hr 31 min 19 sec) 
Heartbeat CPU 0 instructions: 44000000 cycles: 33141077 heartbeat IPC: 1.23855 cumulative IPC: 1.16116 (Simulation time: 0 hr 31 min 59 sec) 
Heartbeat CPU 0 instructions: 45000001 cycles: 33968392 heartbeat IPC: 1.20873 cumulative IPC: 1.16247 (Simulation time: 0 hr 32 min 37 sec) 
Heartbeat CPU 0 instructions: 46000001 cycles: 34831265 heartbeat IPC: 1.15892 cumulative IPC: 1.16237 (Simulation time: 0 hr 33 min 17 sec) 
Heartbeat CPU 0 instructions: 47000003 cycles: 35636158 heartbeat IPC: 1.2424 cumulative IPC: 1.1644 (Simulation time: 0 hr 33 min 57 sec) 
Heartbeat CPU 0 instructions: 48000000 cycles: 36475825 heartbeat IPC: 1.19094 cumulative IPC: 1.16508 (Simulation time: 0 hr 34 min 40 sec) 
Heartbeat CPU 0 instructions: 49000002 cycles: 37314875 heartbeat IPC: 1.19183 cumulative IPC: 1.16575 (Simulation time: 0 hr 35 min 23 sec) 
Heartbeat CPU 0 instructions: 50000003 cycles: 38114789 heartbeat IPC: 1.25014 cumulative IPC: 1.16772 (Simulation time: 0 hr 36 min 4 sec) 
Heartbeat CPU 0 instructions: 51000001 cycles: 38952015 heartbeat IPC: 1.19442 cumulative IPC: 1.16836 (Simulation time: 0 hr 36 min 43 sec) 
Heartbeat CPU 0 instructions: 52000000 cycles: 39770013 heartbeat IPC: 1.2225 cumulative IPC: 1.16959 (Simulation time: 0 hr 37 min 29 sec) 
Heartbeat CPU 0 instructions: 53000001 cycles: 40578346 heartbeat IPC: 1.23712 cumulative IPC: 1.17108 (Simulation time: 0 hr 38 min 10 sec) 
Heartbeat CPU 0 instructions: 54000001 cycles: 41397383 heartbeat IPC: 1.22095 cumulative IPC: 1.17217 (Simulation time: 0 hr 38 min 53 sec) 
Heartbeat CPU 0 instructions: 55000000 cycles: 42194417 heartbeat IPC: 1.25465 cumulative IPC: 1.17388 (Simulation time: 0 hr 39 min 33 sec) 
Heartbeat CPU 0 instructions: 56000000 cycles: 42995316 heartbeat IPC: 1.2486 cumulative IPC: 1.17541 (Simulation time: 0 hr 40 min 14 sec) 
Heartbeat CPU 0 instructions: 57000000 cycles: 43907190 heartbeat IPC: 1.09664 cumulative IPC: 1.17362 (Simulation time: 0 hr 40 min 52 sec) 
Heartbeat CPU 0 instructions: 58000002 cycles: 45036324 heartbeat IPC: 0.885636 cumulative IPC: 1.16572 (Simulation time: 0 hr 41 min 33 sec) 
Heartbeat CPU 0 instructions: 59000001 cycles: 45877775 heartbeat IPC: 1.18842 cumulative IPC: 1.16617 (Simulation time: 0 hr 42 min 12 sec) 
Heartbeat CPU 0 instructions: 60000000 cycles: 46678825 heartbeat IPC: 1.24836 cumulative IPC: 1.16771 (Simulation time: 0 hr 42 min 50 sec) 
Heartbeat CPU 0 instructions: 61000001 cycles: 47481097 heartbeat IPC: 1.24646 cumulative IPC: 1.16916 (Simulation time: 0 hr 43 min 30 sec) 
Heartbeat CPU 0 instructions: 62000000 cycles: 48300962 heartbeat IPC: 1.21971 cumulative IPC: 1.17009 (Simulation time: 0 hr 44 min 8 sec) 
Heartbeat CPU 0 instructions: 63000002 cycles: 49097352 heartbeat IPC: 1.25567 cumulative IPC: 1.1716 (Simulation time: 0 hr 44 min 46 sec) 
Heartbeat CPU 0 instructions: 64000000 cycles: 49920225 heartbeat IPC: 1.21525 cumulative IPC: 1.17238 (Simulation time: 0 hr 45 min 24 sec) 
Heartbeat CPU 0 instructions: 65000003 cycles: 50728685 heartbeat IPC: 1.23692 cumulative IPC: 1.17349 (Simulation time: 0 hr 46 min 5 sec) 
Heartbeat CPU 0 instructions: 66000000 cycles: 51532397 heartbeat IPC: 1.24422 cumulative IPC: 1.17468 (Simulation time: 0 hr 46 min 45 sec) 
Heartbeat CPU 0 instructions: 67000003 cycles: 52392019 heartbeat IPC: 1.16331 cumulative IPC: 1.17448 (Simulation time: 0 hr 47 min 26 sec) 
Heartbeat CPU 0 instructions: 68000000 cycles: 53201370 heartbeat IPC: 1.23555 cumulative IPC: 1.17548 (Simulation time: 0 hr 48 min 4 sec) 
Heartbeat CPU 0 instructions: 69000003 cycles: 54005936 heartbeat IPC: 1.24291 cumulative IPC: 1.17657 (Simulation time: 0 hr 48 min 45 sec) 
Heartbeat CPU 0 instructions: 70000000 cycles: 54849605 heartbeat IPC: 1.1853 cumulative IPC: 1.17671 (Simulation time: 0 hr 49 min 23 sec) 
Heartbeat CPU 0 instructions: 71000002 cycles: 55659986 heartbeat IPC: 1.23399 cumulative IPC: 1.17761 (Simulation time: 0 hr 50 min 6 sec) 
Heartbeat CPU 0 instructions: 72000000 cycles: 56461567 heartbeat IPC: 1.24753 cumulative IPC: 1.17867 (Simulation time: 0 hr 50 min 43 sec) 
Heartbeat CPU 0 instructions: 73000003 cycles: 57294523 heartbeat IPC: 1.20055 cumulative IPC: 1.17901 (Simulation time: 0 hr 51 min 21 sec) 
Heartbeat CPU 0 instructions: 74000003 cycles: 58099037 heartbeat IPC: 1.24299 cumulative IPC: 1.17996 (Simulation time: 0 hr 52 min 0 sec) 
Heartbeat CPU 0 instructions: 75000002 cycles: 58907026 heartbeat IPC: 1.23764 cumulative IPC: 1.18081 (Simulation time: 0 hr 52 min 41 sec) 
Heartbeat CPU 0 instructions: 76000000 cycles: 59736893 heartbeat IPC: 1.20501 cumulative IPC: 1.18117 (Simulation time: 0 hr 53 min 22 sec) 
Heartbeat CPU 0 instructions: 77000003 cycles: 60564735 heartbeat IPC: 1.20796 cumulative IPC: 1.18156 (Simulation time: 0 hr 54 min 2 sec) 
Heartbeat CPU 0 instructions: 78000003 cycles: 61365224 heartbeat IPC: 1.24924 cumulative IPC: 1.1825 (Simulation time: 0 hr 54 min 40 sec) 
Heartbeat CPU 0 instructions: 79000003 cycles: 62197173 heartbeat IPC: 1.202 cumulative IPC: 1.18278 (Simulation time: 0 hr 55 min 18 sec) 
Heartbeat CPU 0 instructions: 80000000 cycles: 63021744 heartbeat IPC: 1.21275 cumulative IPC: 1.1832 (Simulation time: 0 hr 55 min 55 sec) 
Heartbeat CPU 0 instructions: 81000001 cycles: 63825224 heartbeat IPC: 1.24459 cumulative IPC: 1.18402 (Simulation time: 0 hr 56 min 33 sec) 
Heartbeat CPU 0 instructions: 82000002 cycles: 64658308 heartbeat IPC: 1.20036 cumulative IPC: 1.18424 (Simulation time: 0 hr 57 min 10 sec) 
Heartbeat CPU 0 instructions: 83000003 cycles: 65482045 heartbeat IPC: 1.21398 cumulative IPC: 1.18464 (Simulation time: 0 hr 57 min 46 sec) 
Heartbeat CPU 0 instructions: 84000000 cycles: 66283086 heartbeat IPC: 1.24837 cumulative IPC: 1.18546 (Simulation time: 0 hr 58 min 23 sec) 
Heartbeat CPU 0 instructions: 85000001 cycles: 67112926 heartbeat IPC: 1.20505 cumulative IPC: 1.18572 (Simulation time: 0 hr 58 min 57 sec) 
Heartbeat CPU 0 instructions: 86000000 cycles: 67909310 heartbeat IPC: 1.25567 cumulative IPC: 1.18659 (Simulation time: 0 hr 59 min 35 sec) 
Heartbeat CPU 0 instructions: 87000003 cycles: 68718674 heartbeat IPC: 1.23554 cumulative IPC: 1.1872 (Simulation time: 1 hr 0 min 9 sec) 
Heartbeat CPU 0 instructions: 88000000 cycles: 69548139 heartbeat IPC: 1.20559 cumulative IPC: 1.18743 (Simulation time: 1 hr 0 min 43 sec) 
Heartbeat CPU 0 instructions: 89000000 cycles: 70338180 heartbeat IPC: 1.26576 cumulative IPC: 1.18836 (Simulation time: 1 hr 1 min 21 sec) 
Heartbeat CPU 0 instructions: 90000000 cycles: 71124814 heartbeat IPC: 1.27124 cumulative IPC: 1.18933 (Simulation time: 1 hr 1 min 49 sec) 
Heartbeat CPU 0 instructions: 91000001 cycles: 71950984 heartbeat IPC: 1.21041 cumulative IPC: 1.18959 (Simulation time: 1 hr 2 min 14 sec) 
Heartbeat CPU 0 instructions: 92000000 cycles: 72748705 heartbeat IPC: 1.25357 cumulative IPC: 1.19033 (Simulation time: 1 hr 2 min 42 sec) 
Heartbeat CPU 0 instructions: 93000002 cycles: 73525294 heartbeat IPC: 1.28769 cumulative IPC: 1.19141 (Simulation time: 1 hr 3 min 10 sec) 
Heartbeat CPU 0 instructions: 94000000 cycles: 74370131 heartbeat IPC: 1.18366 cumulative IPC: 1.19132 (Simulation time: 1 hr 3 min 34 sec) 
Heartbeat CPU 0 instructions: 95000000 cycles: 75164239 heartbeat IPC: 1.25927 cumulative IPC: 1.19208 (Simulation time: 1 hr 4 min 2 sec) 
Heartbeat CPU 0 instructions: 96000000 cycles: 75959983 heartbeat IPC: 1.25669 cumulative IPC: 1.19279 (Simulation time: 1 hr 4 min 26 sec) 
Heartbeat CPU 0 instructions: 97000002 cycles: 77146139 heartbeat IPC: 0.843061 cumulative IPC: 1.18713 (Simulation time: 1 hr 4 min 51 sec) 
Heartbeat CPU 0 instructions: 98000003 cycles: 78110000 heartbeat IPC: 1.0375 cumulative IPC: 1.18519 (Simulation time: 1 hr 5 min 19 sec) 
Heartbeat CPU 0 instructions: 99000000 cycles: 78927865 heartbeat IPC: 1.22269 cumulative IPC: 1.18559 (Simulation time: 1 hr 5 min 51 sec) 
Heartbeat CPU 0 instructions: 100000000 cycles: 79728951 heartbeat IPC: 1.24831 cumulative IPC: 1.18626 (Simulation time: 1 hr 6 min 23 sec) 
Heartbeat CPU 0 instructions: 101000001 cycles: 81083269 heartbeat IPC: 0.73838 cumulative IPC: 1.1784 (Simulation time: 1 hr 6 min 56 sec) 
Heartbeat CPU 0 instructions: 102000002 cycles: 81938948 heartbeat IPC: 1.16866 cumulative IPC: 1.17829 (Simulation time: 1 hr 7 min 29 sec) 
Heartbeat CPU 0 instructions: 103000001 cycles: 82757053 heartbeat IPC: 1.22234 cumulative IPC: 1.17875 (Simulation time: 1 hr 8 min 1 sec) 
Heartbeat CPU 0 instructions: 104000000 cycles: 83994051 heartbeat IPC: 0.808408 cumulative IPC: 1.17303 (Simulation time: 1 hr 8 min 33 sec) 
Heartbeat CPU 0 instructions: 105000002 cycles: 84859288 heartbeat IPC: 1.15576 cumulative IPC: 1.17285 (Simulation time: 1 hr 9 min 4 sec) 
Heartbeat CPU 0 instructions: 106000000 cycles: 85668322 heartbeat IPC: 1.23604 cumulative IPC: 1.17347 (Simulation time: 1 hr 9 min 33 sec) 
Heartbeat CPU 0 instructions: 107000000 cycles: 86760441 heartbeat IPC: 0.915651 cumulative IPC: 1.17008 (Simulation time: 1 hr 10 min 0 sec) 
Heartbeat CPU 0 instructions: 108000000 cycles: 87762706 heartbeat IPC: 0.99774 cumulative IPC: 1.16802 (Simulation time: 1 hr 10 min 26 sec) 
Heartbeat CPU 0 instructions: 109000003 cycles: 88576526 heartbeat IPC: 1.22878 cumulative IPC: 1.1686 (Simulation time: 1 hr 10 min 52 sec) 
Heartbeat CPU 0 instructions: 110000000 cycles: 89444548 heartbeat IPC: 1.15204 cumulative IPC: 1.16844 (Simulation time: 1 hr 11 min 18 sec) 
Finished CPU 0 instructions: 100000003 cycles: 85584535 cummulative IPC: 1.16844 (Simulation time: 1 hr 11 min 18 sec) 

ChampSim completed all CPUs

Region of Interest Statistics

CPU 0 cummulative IPC: 1.16844 instructions: 100000003 cycles: 85584535
LLC TOTAL     ACCESS:    1445983  HIT:     475237  MISS:     970746
LLC LOAD      ACCESS:     118941  HIT:     101510  MISS:      17431
LLC RFO       ACCESS:     121976  HIT:     120819  MISS:       1157
LLC PREFETCH  ACCESS:    1076672  HIT:     124751  MISS:     951921
LLC WRITEBACK ACCESS:     128394  HIT:     128157  MISS:        237
