
*** ChampSim Multicore Out-of-Order Simulator ***

Warmup Instructions: 10000000
Simulation Instructions: 100000000
Configuration: 2
Number of CPUs: 1
LLC sets: 2048
LLC ways: 16
Off-chip DRAM Channels: 1 Width: 64-bit Data Rate: 1600 MT/s

CPU 0 runs /datasets/cs240c-wi22-a00-public/data/Assignment2-gz/milc_744B.trace.gz
CPU 0 L1D next line prefetcher
CPU 0 L2C IP-based stride prefetcher
Heartbeat CPU 0 instructions: 1000000 cycles: 383656 heartbeat IPC: 2.6065 cumulative IPC: 2.6065 (Simulation time: 0 hr 0 min 37 sec) 
Heartbeat CPU 0 instructions: 2000001 cycles: 767293 heartbeat IPC: 2.60663 cumulative IPC: 2.60657 (Simulation time: 0 hr 1 min 12 sec) 
Heartbeat CPU 0 instructions: 3000001 cycles: 1150974 heartbeat IPC: 2.60633 cumulative IPC: 2.60649 (Simulation time: 0 hr 1 min 48 sec) 
Heartbeat CPU 0 instructions: 4000000 cycles: 1534617 heartbeat IPC: 2.60659 cumulative IPC: 2.60651 (Simulation time: 0 hr 2 min 28 sec) 
Heartbeat CPU 0 instructions: 5000001 cycles: 1918298 heartbeat IPC: 2.60633 cumulative IPC: 2.60648 (Simulation time: 0 hr 3 min 9 sec) 
Heartbeat CPU 0 instructions: 6000002 cycles: 2301951 heartbeat IPC: 2.60652 cumulative IPC: 2.60649 (Simulation time: 0 hr 3 min 44 sec) 
Heartbeat CPU 0 instructions: 7000002 cycles: 2685605 heartbeat IPC: 2.60652 cumulative IPC: 2.60649 (Simulation time: 0 hr 4 min 22 sec) 
Heartbeat CPU 0 instructions: 8000000 cycles: 3069239 heartbeat IPC: 2.60665 cumulative IPC: 2.60651 (Simulation time: 0 hr 4 min 59 sec) 
Heartbeat CPU 0 instructions: 9000003 cycles: 3452946 heartbeat IPC: 2.60616 cumulative IPC: 2.60647 (Simulation time: 0 hr 5 min 38 sec) 
Heartbeat CPU 0 instructions: 10000002 cycles: 3836611 heartbeat IPC: 2.60644 cumulative IPC: 2.60647 (Simulation time: 0 hr 6 min 17 sec) 

Warmup complete CPU 0 instructions: 10000002 cycles: 3836611 (Simulation time: 0 hr 6 min 17 sec) 

Heartbeat CPU 0 instructions: 11000003 cycles: 5246717 heartbeat IPC: 0.709167 cumulative IPC: 0.709167 (Simulation time: 0 hr 6 min 58 sec) 
Heartbeat CPU 0 instructions: 12000000 cycles: 6655069 heartbeat IPC: 0.710048 cumulative IPC: 0.709607 (Simulation time: 0 hr 7 min 42 sec) 
Heartbeat CPU 0 instructions: 13000003 cycles: 8061222 heartbeat IPC: 0.711162 cumulative IPC: 0.710125 (Simulation time: 0 hr 8 min 30 sec) 
Heartbeat CPU 0 instructions: 14000000 cycles: 9468929 heartbeat IPC: 0.710373 cumulative IPC: 0.710187 (Simulation time: 0 hr 9 min 11 sec) 
Heartbeat CPU 0 instructions: 15000000 cycles: 10872211 heartbeat IPC: 0.712615 cumulative IPC: 0.710671 (Simulation time: 0 hr 9 min 53 sec) 
Heartbeat CPU 0 instructions: 16000000 cycles: 12277464 heartbeat IPC: 0.711616 cumulative IPC: 0.710828 (Simulation time: 0 hr 10 min 35 sec) 
Heartbeat CPU 0 instructions: 17000001 cycles: 13692945 heartbeat IPC: 0.706474 cumulative IPC: 0.710203 (Simulation time: 0 hr 11 min 17 sec) 
Heartbeat CPU 0 instructions: 18000000 cycles: 15113326 heartbeat IPC: 0.704036 cumulative IPC: 0.709426 (Simulation time: 0 hr 12 min 0 sec) 
Heartbeat CPU 0 instructions: 19000003 cycles: 16523615 heartbeat IPC: 0.709077 cumulative IPC: 0.709387 (Simulation time: 0 hr 12 min 43 sec) 
Heartbeat CPU 0 instructions: 20000000 cycles: 17940957 heartbeat IPC: 0.705544 cumulative IPC: 0.709001 (Simulation time: 0 hr 13 min 23 sec) 
Heartbeat CPU 0 instructions: 21000003 cycles: 19353759 heartbeat IPC: 0.707815 cumulative IPC: 0.708893 (Simulation time: 0 hr 14 min 2 sec) 
Heartbeat CPU 0 instructions: 22000002 cycles: 20770721 heartbeat IPC: 0.705735 cumulative IPC: 0.708629 (Simulation time: 0 hr 14 min 41 sec) 
Heartbeat CPU 0 instructions: 23000000 cycles: 22186410 heartbeat IPC: 0.706368 cumulative IPC: 0.708454 (Simulation time: 0 hr 15 min 20 sec) 
Heartbeat CPU 0 instructions: 24000000 cycles: 23594979 heartbeat IPC: 0.70994 cumulative IPC: 0.70856 (Simulation time: 0 hr 15 min 58 sec) 
Heartbeat CPU 0 instructions: 25000002 cycles: 25012088 heartbeat IPC: 0.705663 cumulative IPC: 0.708367 (Simulation time: 0 hr 16 min 35 sec) 
Heartbeat CPU 0 instructions: 26000001 cycles: 26429504 heartbeat IPC: 0.705508 cumulative IPC: 0.708187 (Simulation time: 0 hr 17 min 15 sec) 
Heartbeat CPU 0 instructions: 27000001 cycles: 27847884 heartbeat IPC: 0.70503 cumulative IPC: 0.708001 (Simulation time: 0 hr 17 min 57 sec) 
Heartbeat CPU 0 instructions: 28000000 cycles: 29264862 heartbeat IPC: 0.705727 cumulative IPC: 0.707874 (Simulation time: 0 hr 18 min 36 sec) 
Heartbeat CPU 0 instructions: 29000000 cycles: 30680742 heartbeat IPC: 0.706275 cumulative IPC: 0.70779 (Simulation time: 0 hr 19 min 16 sec) 
Heartbeat CPU 0 instructions: 30000000 cycles: 32094552 heartbeat IPC: 0.707309 cumulative IPC: 0.707766 (Simulation time: 0 hr 19 min 55 sec) 
Heartbeat CPU 0 instructions: 31000003 cycles: 33510981 heartbeat IPC: 0.706003 cumulative IPC: 0.707681 (Simulation time: 0 hr 20 min 36 sec) 
Heartbeat CPU 0 instructions: 32000000 cycles: 34930706 heartbeat IPC: 0.70436 cumulative IPC: 0.70753 (Simulation time: 0 hr 21 min 14 sec) 
Heartbeat CPU 0 instructions: 33000001 cycles: 36353019 heartbeat IPC: 0.703081 cumulative IPC: 0.707335 (Simulation time: 0 hr 21 min 57 sec) 
Heartbeat CPU 0 instructions: 34000002 cycles: 37774816 heartbeat IPC: 0.703336 cumulative IPC: 0.707168 (Simulation time: 0 hr 22 min 38 sec) 
Heartbeat CPU 0 instructions: 35000000 cycles: 39197423 heartbeat IPC: 0.702933 cumulative IPC: 0.706997 (Simulation time: 0 hr 23 min 21 sec) 
Heartbeat CPU 0 instructions: 36000000 cycles: 40613334 heartbeat IPC: 0.706259 cumulative IPC: 0.706969 (Simulation time: 0 hr 24 min 6 sec) 
Heartbeat CPU 0 instructions: 37000001 cycles: 42041285 heartbeat IPC: 0.700305 cumulative IPC: 0.70672 (Simulation time: 0 hr 24 min 47 sec) 
Heartbeat CPU 0 instructions: 38000001 cycles: 43462162 heartbeat IPC: 0.703791 cumulative IPC: 0.706615 (Simulation time: 0 hr 25 min 27 sec) 
Heartbeat CPU 0 instructions: 39000001 cycles: 44879558 heartbeat IPC: 0.705519 cumulative IPC: 0.706577 (Simulation time: 0 hr 26 min 8 sec) 
Heartbeat CPU 0 instructions: 40000000 cycles: 46293090 heartbeat IPC: 0.707447 cumulative IPC: 0.706606 (Simulation time: 0 hr 26 min 49 sec) 
Heartbeat CPU 0 instructions: 41000000 cycles: 47709732 heartbeat IPC: 0.705895 cumulative IPC: 0.706583 (Simulation time: 0 hr 27 min 30 sec) 
Heartbeat CPU 0 instructions: 42000002 cycles: 49122503 heartbeat IPC: 0.70783 cumulative IPC: 0.706622 (Simulation time: 0 hr 28 min 12 sec) 
Heartbeat CPU 0 instructions: 43000003 cycles: 50534792 heartbeat IPC: 0.708071 cumulative IPC: 0.706666 (Simulation time: 0 hr 28 min 51 sec) 
Heartbeat CPU 0 instructions: 44000000 cycles: 51953756 heartbeat IPC: 0.704737 cumulative IPC: 0.706609 (Simulation time: 0 hr 29 min 30 sec) 
Heartbeat CPU 0 instructions: 45000000 cycles: 53373427 heartbeat IPC: 0.704389 cumulative IPC: 0.706545 (Simulation time: 0 hr 30 min 12 sec) 
Heartbeat CPU 0 instructions: 46000003 cycles: 54791994 heartbeat IPC: 0.704939 cumulative IPC: 0.7065 (Simulation time: 0 hr 30 min 51 sec) 
Heartbeat CPU 0 instructions: 47000002 cycles: 56208826 heartbeat IPC: 0.705799 cumulative IPC: 0.706481 (Simulation time: 0 hr 31 min 33 sec) 
Heartbeat CPU 0 instructions: 48000000 cycles: 57627084 heartbeat IPC: 0.705089 cumulative IPC: 0.706445 (Simulation time: 0 hr 32 min 17 sec) 
Heartbeat CPU 0 instructions: 49000001 cycles: 59040775 heartbeat IPC: 0.707369 cumulative IPC: 0.706468 (Simulation time: 0 hr 32 min 59 sec) 
Heartbeat CPU 0 instructions: 50000001 cycles: 60462413 heartbeat IPC: 0.703414 cumulative IPC: 0.706392 (Simulation time: 0 hr 33 min 43 sec) 
Heartbeat CPU 0 instructions: 51000001 cycles: 61880669 heartbeat IPC: 0.705091 cumulative IPC: 0.70636 (Simulation time: 0 hr 34 min 26 sec) 
Heartbeat CPU 0 instructions: 52000000 cycles: 63295892 heartbeat IPC: 0.706602 cumulative IPC: 0.706366 (Simulation time: 0 hr 35 min 10 sec) 
Heartbeat CPU 0 instructions: 53000000 cycles: 64716249 heartbeat IPC: 0.704048 cumulative IPC: 0.706312 (Simulation time: 0 hr 35 min 56 sec) 
Heartbeat CPU 0 instructions: 54000001 cycles: 66130210 heartbeat IPC: 0.707234 cumulative IPC: 0.706333 (Simulation time: 0 hr 36 min 36 sec) 
Heartbeat CPU 0 instructions: 55000003 cycles: 67550028 heartbeat IPC: 0.704317 cumulative IPC: 0.706288 (Simulation time: 0 hr 37 min 16 sec) 
Heartbeat CPU 0 instructions: 56000000 cycles: 68973389 heartbeat IPC: 0.70256 cumulative IPC: 0.706206 (Simulation time: 0 hr 37 min 57 sec) 
Heartbeat CPU 0 instructions: 57000000 cycles: 70391059 heartbeat IPC: 0.705383 cumulative IPC: 0.706189 (Simulation time: 0 hr 38 min 37 sec) 
Heartbeat CPU 0 instructions: 58000000 cycles: 71810243 heartbeat IPC: 0.70463 cumulative IPC: 0.706156 (Simulation time: 0 hr 39 min 19 sec) 
Heartbeat CPU 0 instructions: 59000002 cycles: 73227855 heartbeat IPC: 0.705413 cumulative IPC: 0.706141 (Simulation time: 0 hr 39 min 59 sec) 
Heartbeat CPU 0 instructions: 60000000 cycles: 74640621 heartbeat IPC: 0.70783 cumulative IPC: 0.706175 (Simulation time: 0 hr 40 min 38 sec) 
Heartbeat CPU 0 instructions: 61000001 cycles: 76055262 heartbeat IPC: 0.706894 cumulative IPC: 0.706189 (Simulation time: 0 hr 41 min 19 sec) 
Heartbeat CPU 0 instructions: 62000003 cycles: 77480832 heartbeat IPC: 0.701475 cumulative IPC: 0.706097 (Simulation time: 0 hr 42 min 0 sec) 
Heartbeat CPU 0 instructions: 63000001 cycles: 78902058 heartbeat IPC: 0.703616 cumulative IPC: 0.706051 (Simulation time: 0 hr 42 min 39 sec) 
Heartbeat CPU 0 instructions: 64000000 cycles: 80316345 heartbeat IPC: 0.707069 cumulative IPC: 0.706069 (Simulation time: 0 hr 43 min 23 sec) 
Heartbeat CPU 0 instructions: 65000002 cycles: 81737791 heartbeat IPC: 0.70351 cumulative IPC: 0.706023 (Simulation time: 0 hr 44 min 3 sec) 
Heartbeat CPU 0 instructions: 66000001 cycles: 83151948 heartbeat IPC: 0.707134 cumulative IPC: 0.706043 (Simulation time: 0 hr 44 min 40 sec) 
Heartbeat CPU 0 instructions: 67000003 cycles: 84569816 heartbeat IPC: 0.705286 cumulative IPC: 0.706029 (Simulation time: 0 hr 45 min 19 sec) 
Heartbeat CPU 0 instructions: 68000000 cycles: 85990987 heartbeat IPC: 0.703643 cumulative IPC: 0.705988 (Simulation time: 0 hr 45 min 59 sec) 
Heartbeat CPU 0 instructions: 69000003 cycles: 87410602 heartbeat IPC: 0.704418 cumulative IPC: 0.705961 (Simulation time: 0 hr 46 min 42 sec) 
Heartbeat CPU 0 instructions: 70000002 cycles: 88829062 heartbeat IPC: 0.704989 cumulative IPC: 0.705945 (Simulation time: 0 hr 47 min 24 sec) 
Heartbeat CPU 0 instructions: 71000002 cycles: 90240812 heartbeat IPC: 0.708341 cumulative IPC: 0.705984 (Simulation time: 0 hr 48 min 5 sec) 
Heartbeat CPU 0 instructions: 72000000 cycles: 91659973 heartbeat IPC: 0.70464 cumulative IPC: 0.705962 (Simulation time: 0 hr 48 min 48 sec) 
Heartbeat CPU 0 instructions: 73000002 cycles: 93080443 heartbeat IPC: 0.703994 cumulative IPC: 0.705931 (Simulation time: 0 hr 49 min 27 sec) 
Heartbeat CPU 0 instructions: 74000002 cycles: 94498011 heartbeat IPC: 0.705434 cumulative IPC: 0.705923 (Simulation time: 0 hr 50 min 8 sec) 
Heartbeat CPU 0 instructions: 75000001 cycles: 95913702 heartbeat IPC: 0.706368 cumulative IPC: 0.70593 (Simulation time: 0 hr 50 min 47 sec) 
Heartbeat CPU 0 instructions: 76000000 cycles: 97331219 heartbeat IPC: 0.705458 cumulative IPC: 0.705923 (Simulation time: 0 hr 51 min 25 sec) 
Heartbeat CPU 0 instructions: 77000002 cycles: 98746838 heartbeat IPC: 0.706406 cumulative IPC: 0.70593 (Simulation time: 0 hr 52 min 4 sec) 
Heartbeat CPU 0 instructions: 78000000 cycles: 100165301 heartbeat IPC: 0.704987 cumulative IPC: 0.705916 (Simulation time: 0 hr 52 min 44 sec) 
Heartbeat CPU 0 instructions: 79000000 cycles: 101587121 heartbeat IPC: 0.703324 cumulative IPC: 0.705879 (Simulation time: 0 hr 53 min 24 sec) 
Heartbeat CPU 0 instructions: 80000000 cycles: 103008761 heartbeat IPC: 0.703413 cumulative IPC: 0.705843 (Simulation time: 0 hr 54 min 4 sec) 
Heartbeat CPU 0 instructions: 81000003 cycles: 104422257 heartbeat IPC: 0.707468 cumulative IPC: 0.705866 (Simulation time: 0 hr 54 min 44 sec) 
Heartbeat CPU 0 instructions: 82000003 cycles: 105839259 heartbeat IPC: 0.705715 cumulative IPC: 0.705864 (Simulation time: 0 hr 55 min 24 sec) 
Heartbeat CPU 0 instructions: 83000002 cycles: 107255249 heartbeat IPC: 0.706219 cumulative IPC: 0.705869 (Simulation time: 0 hr 56 min 2 sec) 
Heartbeat CPU 0 instructions: 84000000 cycles: 108673545 heartbeat IPC: 0.70507 cumulative IPC: 0.705858 (Simulation time: 0 hr 56 min 41 sec) 
Heartbeat CPU 0 instructions: 85000000 cycles: 110093304 heartbeat IPC: 0.704345 cumulative IPC: 0.705838 (Simulation time: 0 hr 57 min 19 sec) 
Heartbeat CPU 0 instructions: 86000001 cycles: 111507211 heartbeat IPC: 0.707261 cumulative IPC: 0.705857 (Simulation time: 0 hr 57 min 56 sec) 
Heartbeat CPU 0 instructions: 87000001 cycles: 112930893 heartbeat IPC: 0.702404 cumulative IPC: 0.705812 (Simulation time: 0 hr 58 min 32 sec) 
Heartbeat CPU 0 instructions: 88000000 cycles: 114346497 heartbeat IPC: 0.706412 cumulative IPC: 0.705819 (Simulation time: 0 hr 59 min 7 sec) 
Heartbeat CPU 0 instructions: 89000001 cycles: 115746043 heartbeat IPC: 0.714518 cumulative IPC: 0.705928 (Simulation time: 0 hr 59 min 47 sec) 
Heartbeat CPU 0 instructions: 90000000 cycles: 117152213 heartbeat IPC: 0.711151 cumulative IPC: 0.705993 (Simulation time: 1 hr 0 min 26 sec) 
Heartbeat CPU 0 instructions: 91000001 cycles: 118573508 heartbeat IPC: 0.703584 cumulative IPC: 0.705963 (Simulation time: 1 hr 0 min 58 sec) 
Heartbeat CPU 0 instructions: 92000000 cycles: 123469407 heartbeat IPC: 0.204252 cumulative IPC: 0.685431 (Simulation time: 1 hr 2 min 7 sec) 
Heartbeat CPU 0 instructions: 93000000 cycles: 127835876 heartbeat IPC: 0.229018 cumulative IPC: 0.669359 (Simulation time: 1 hr 3 min 6 sec) 
Heartbeat CPU 0 instructions: 94000000 cycles: 130819922 heartbeat IPC: 0.335115 cumulative IPC: 0.661504 (Simulation time: 1 hr 3 min 52 sec) 
Heartbeat CPU 0 instructions: 95000000 cycles: 132030712 heartbeat IPC: 0.825907 cumulative IPC: 0.663057 (Simulation time: 1 hr 4 min 23 sec) 
Heartbeat CPU 0 instructions: 96000000 cycles: 133380155 heartbeat IPC: 0.741046 cumulative IPC: 0.663869 (Simulation time: 1 hr 4 min 51 sec) 
Heartbeat CPU 0 instructions: 97000002 cycles: 134648034 heartbeat IPC: 0.78872 cumulative IPC: 0.66508 (Simulation time: 1 hr 5 min 18 sec) 
Heartbeat CPU 0 instructions: 98000003 cycles: 135900754 heartbeat IPC: 0.798264 cumulative IPC: 0.666343 (Simulation time: 1 hr 5 min 48 sec) 
Heartbeat CPU 0 instructions: 99000000 cycles: 137152598 heartbeat IPC: 0.798819 cumulative IPC: 0.667587 (Simulation time: 1 hr 6 min 19 sec) 
Heartbeat CPU 0 instructions: 100000000 cycles: 138402617 heartbeat IPC: 0.799988 cumulative IPC: 0.668817 (Simulation time: 1 hr 6 min 49 sec) 
Heartbeat CPU 0 instructions: 101000001 cycles: 139662410 heartbeat IPC: 0.793782 cumulative IPC: 0.669976 (Simulation time: 1 hr 7 min 18 sec) 
Heartbeat CPU 0 instructions: 102000000 cycles: 140919999 heartbeat IPC: 0.795172 cumulative IPC: 0.671124 (Simulation time: 1 hr 7 min 50 sec) 
Heartbeat CPU 0 instructions: 103000002 cycles: 142176763 heartbeat IPC: 0.795696 cumulative IPC: 0.672256 (Simulation time: 1 hr 8 min 20 sec) 
Heartbeat CPU 0 instructions: 104000000 cycles: 143438233 heartbeat IPC: 0.792724 cumulative IPC: 0.673345 (Simulation time: 1 hr 8 min 51 sec) 
Heartbeat CPU 0 instructions: 105000003 cycles: 144698385 heartbeat IPC: 0.793557 cumulative IPC: 0.67442 (Simulation time: 1 hr 9 min 20 sec) 
Heartbeat CPU 0 instructions: 106000002 cycles: 145951592 heartbeat IPC: 0.797952 cumulative IPC: 0.675509 (Simulation time: 1 hr 9 min 47 sec) 
Heartbeat CPU 0 instructions: 107000002 cycles: 147214598 heartbeat IPC: 0.791762 cumulative IPC: 0.676533 (Simulation time: 1 hr 10 min 13 sec) 
Heartbeat CPU 0 instructions: 108000000 cycles: 148476783 heartbeat IPC: 0.792275 cumulative IPC: 0.677543 (Simulation time: 1 hr 10 min 40 sec) 
Heartbeat CPU 0 instructions: 109000001 cycles: 149730823 heartbeat IPC: 0.797424 cumulative IPC: 0.678574 (Simulation time: 1 hr 11 min 6 sec) 
Heartbeat CPU 0 instructions: 110000001 cycles: 150988466 heartbeat IPC: 0.795138 cumulative IPC: 0.67957 (Simulation time: 1 hr 11 min 31 sec) 
Finished CPU 0 instructions: 100000003 cycles: 147151856 cummulative IPC: 0.67957 (Simulation time: 1 hr 11 min 31 sec) 

ChampSim completed all CPUs

Region of Interest Statistics

CPU 0 cummulative IPC: 0.67957 instructions: 100000003 cycles: 147151856
LLC TOTAL     ACCESS:    2872436  HIT:     212754  MISS:    2659682
LLC LOAD      ACCESS:     739355  HIT:         11  MISS:     739344
LLC RFO       ACCESS:     423298  HIT:          0  MISS:     423298
LLC PREFETCH  ACCESS:    1009065  HIT:       1890  MISS:    1007175
LLC WRITEBACK ACCESS:     700718  HIT:     210853  MISS:     489865
