
*** ChampSim Multicore Out-of-Order Simulator ***

Warmup Instructions: 10000000
Simulation Instructions: 100000000
Configuration: 2
Number of CPUs: 1
LLC sets: 2048
LLC ways: 16
Off-chip DRAM Channels: 1 Width: 64-bit Data Rate: 1600 MT/s

CPU 0 runs /datasets/cs240c-wi22-a00-public/data/Assignment2-gz/soplex_66B.trace.gz
CPU 0 L1D next line prefetcher
CPU 0 L2C IP-based stride prefetcher
Heartbeat CPU 0 instructions: 1000003 cycles: 415045 heartbeat IPC: 2.40938 cumulative IPC: 2.40938 (Simulation time: 0 hr 0 min 43 sec) 
Heartbeat CPU 0 instructions: 2000003 cycles: 837178 heartbeat IPC: 2.36892 cumulative IPC: 2.38898 (Simulation time: 0 hr 1 min 40 sec) 
Heartbeat CPU 0 instructions: 3000003 cycles: 1242157 heartbeat IPC: 2.46926 cumulative IPC: 2.41516 (Simulation time: 0 hr 2 min 30 sec) 
Heartbeat CPU 0 instructions: 4000000 cycles: 1626270 heartbeat IPC: 2.60339 cumulative IPC: 2.45962 (Simulation time: 0 hr 3 min 13 sec) 
Heartbeat CPU 0 instructions: 5000000 cycles: 2040957 heartbeat IPC: 2.41146 cumulative IPC: 2.44983 (Simulation time: 0 hr 4 min 0 sec) 
Heartbeat CPU 0 instructions: 6000000 cycles: 2514586 heartbeat IPC: 2.11136 cumulative IPC: 2.38608 (Simulation time: 0 hr 4 min 48 sec) 
Heartbeat CPU 0 instructions: 7000002 cycles: 2887135 heartbeat IPC: 2.68422 cumulative IPC: 2.42455 (Simulation time: 0 hr 5 min 41 sec) 
Heartbeat CPU 0 instructions: 8000000 cycles: 3312870 heartbeat IPC: 2.34887 cumulative IPC: 2.41482 (Simulation time: 0 hr 6 min 35 sec) 
Heartbeat CPU 0 instructions: 9000001 cycles: 3751475 heartbeat IPC: 2.27996 cumulative IPC: 2.39906 (Simulation time: 0 hr 7 min 22 sec) 
Heartbeat CPU 0 instructions: 10000002 cycles: 4163581 heartbeat IPC: 2.42656 cumulative IPC: 2.40178 (Simulation time: 0 hr 8 min 15 sec) 

Warmup complete CPU 0 instructions: 10000002 cycles: 4163581 (Simulation time: 0 hr 8 min 15 sec) 

Heartbeat CPU 0 instructions: 11000001 cycles: 7244994 heartbeat IPC: 0.324526 cumulative IPC: 0.324526 (Simulation time: 0 hr 9 min 23 sec) 
Heartbeat CPU 0 instructions: 12000000 cycles: 8598735 heartbeat IPC: 0.738693 cumulative IPC: 0.450942 (Simulation time: 0 hr 10 min 5 sec) 
Heartbeat CPU 0 instructions: 13000001 cycles: 11212459 heartbeat IPC: 0.382596 cumulative IPC: 0.4256 (Simulation time: 0 hr 11 min 0 sec) 
Heartbeat CPU 0 instructions: 14000002 cycles: 13685559 heartbeat IPC: 0.404351 cumulative IPC: 0.420081 (Simulation time: 0 hr 11 min 59 sec) 
Heartbeat CPU 0 instructions: 15000002 cycles: 16223680 heartbeat IPC: 0.393992 cumulative IPC: 0.41459 (Simulation time: 0 hr 12 min 55 sec) 
Heartbeat CPU 0 instructions: 16000000 cycles: 19017086 heartbeat IPC: 0.357985 cumulative IPC: 0.403945 (Simulation time: 0 hr 13 min 57 sec) 
Heartbeat CPU 0 instructions: 17000001 cycles: 21197835 heartbeat IPC: 0.458558 cumulative IPC: 0.410937 (Simulation time: 0 hr 14 min 51 sec) 
Heartbeat CPU 0 instructions: 18000000 cycles: 23191764 heartbeat IPC: 0.501522 cumulative IPC: 0.420429 (Simulation time: 0 hr 15 min 36 sec) 
Heartbeat CPU 0 instructions: 19000002 cycles: 26581914 heartbeat IPC: 0.294973 cumulative IPC: 0.401457 (Simulation time: 0 hr 16 min 24 sec) 
Heartbeat CPU 0 instructions: 20000000 cycles: 27914418 heartbeat IPC: 0.750465 cumulative IPC: 0.421038 (Simulation time: 0 hr 16 min 54 sec) 
Heartbeat CPU 0 instructions: 21000000 cycles: 30068257 heartbeat IPC: 0.464287 cumulative IPC: 0.424634 (Simulation time: 0 hr 17 min 31 sec) 
Heartbeat CPU 0 instructions: 22000000 cycles: 32735551 heartbeat IPC: 0.374912 cumulative IPC: 0.419992 (Simulation time: 0 hr 18 min 15 sec) 
Heartbeat CPU 0 instructions: 23000000 cycles: 35274885 heartbeat IPC: 0.393804 cumulative IPC: 0.417854 (Simulation time: 0 hr 18 min 52 sec) 
Heartbeat CPU 0 instructions: 24000000 cycles: 37861156 heartbeat IPC: 0.386657 cumulative IPC: 0.41546 (Simulation time: 0 hr 19 min 32 sec) 
Heartbeat CPU 0 instructions: 25000003 cycles: 40046288 heartbeat IPC: 0.45764 cumulative IPC: 0.418029 (Simulation time: 0 hr 20 min 28 sec) 
Heartbeat CPU 0 instructions: 26000001 cycles: 42227463 heartbeat IPC: 0.458468 cumulative IPC: 0.420346 (Simulation time: 0 hr 21 min 11 sec) 
Heartbeat CPU 0 instructions: 27000002 cycles: 45501172 heartbeat IPC: 0.305464 cumulative IPC: 0.411248 (Simulation time: 0 hr 21 min 58 sec) 
Heartbeat CPU 0 instructions: 28000000 cycles: 46832368 heartbeat IPC: 0.751203 cumulative IPC: 0.421854 (Simulation time: 0 hr 22 min 29 sec) 
Heartbeat CPU 0 instructions: 29000002 cycles: 48647223 heartbeat IPC: 0.551009 cumulative IPC: 0.427123 (Simulation time: 0 hr 23 min 7 sec) 
Heartbeat CPU 0 instructions: 30000000 cycles: 51542866 heartbeat IPC: 0.345346 cumulative IPC: 0.422125 (Simulation time: 0 hr 23 min 52 sec) 
Heartbeat CPU 0 instructions: 31000001 cycles: 54160235 heartbeat IPC: 0.382063 cumulative IPC: 0.420028 (Simulation time: 0 hr 24 min 32 sec) 
Heartbeat CPU 0 instructions: 32000000 cycles: 56712758 heartbeat IPC: 0.391769 cumulative IPC: 0.418655 (Simulation time: 0 hr 25 min 10 sec) 
Heartbeat CPU 0 instructions: 33000001 cycles: 59849144 heartbeat IPC: 0.318839 cumulative IPC: 0.413033 (Simulation time: 0 hr 26 min 9 sec) 
Heartbeat CPU 0 instructions: 34000003 cycles: 61867216 heartbeat IPC: 0.495523 cumulative IPC: 0.415918 (Simulation time: 0 hr 26 min 53 sec) 
Heartbeat CPU 0 instructions: 35000003 cycles: 64835816 heartbeat IPC: 0.336859 cumulative IPC: 0.41205 (Simulation time: 0 hr 27 min 40 sec) 
Heartbeat CPU 0 instructions: 36000000 cycles: 66167361 heartbeat IPC: 0.751005 cumulative IPC: 0.419329 (Simulation time: 0 hr 28 min 8 sec) 
Heartbeat CPU 0 instructions: 37000000 cycles: 68688094 heartbeat IPC: 0.39671 cumulative IPC: 0.418446 (Simulation time: 0 hr 28 min 54 sec) 
Heartbeat CPU 0 instructions: 38000001 cycles: 71124334 heartbeat IPC: 0.410469 cumulative IPC: 0.418155 (Simulation time: 0 hr 29 min 36 sec) 
Heartbeat CPU 0 instructions: 39000003 cycles: 73712299 heartbeat IPC: 0.386405 cumulative IPC: 0.416974 (Simulation time: 0 hr 30 min 13 sec) 
Heartbeat CPU 0 instructions: 40000000 cycles: 76428428 heartbeat IPC: 0.36817 cumulative IPC: 0.41514 (Simulation time: 0 hr 30 min 58 sec) 
Heartbeat CPU 0 instructions: 41000001 cycles: 78493052 heartbeat IPC: 0.48435 cumulative IPC: 0.417062 (Simulation time: 0 hr 31 min 47 sec) 
Heartbeat CPU 0 instructions: 42000003 cycles: 80458804 heartbeat IPC: 0.508712 cumulative IPC: 0.419423 (Simulation time: 0 hr 32 min 31 sec) 
Heartbeat CPU 0 instructions: 43000000 cycles: 83810280 heartbeat IPC: 0.298375 cumulative IPC: 0.41433 (Simulation time: 0 hr 33 min 23 sec) 
Heartbeat CPU 0 instructions: 44000000 cycles: 85148195 heartbeat IPC: 0.747432 cumulative IPC: 0.419833 (Simulation time: 0 hr 33 min 56 sec) 
Heartbeat CPU 0 instructions: 45000003 cycles: 87307781 heartbeat IPC: 0.463053 cumulative IPC: 0.420955 (Simulation time: 0 hr 34 min 36 sec) 
Heartbeat CPU 0 instructions: 46000003 cycles: 89980083 heartbeat IPC: 0.374209 cumulative IPC: 0.4195 (Simulation time: 0 hr 35 min 21 sec) 
Heartbeat CPU 0 instructions: 47000001 cycles: 92512013 heartbeat IPC: 0.394955 cumulative IPC: 0.418796 (Simulation time: 0 hr 36 min 6 sec) 
Heartbeat CPU 0 instructions: 48000000 cycles: 95053927 heartbeat IPC: 0.393404 cumulative IPC: 0.418086 (Simulation time: 0 hr 36 min 45 sec) 
Heartbeat CPU 0 instructions: 49000000 cycles: 98415431 heartbeat IPC: 0.297486 cumulative IPC: 0.413785 (Simulation time: 0 hr 37 min 42 sec) 
Heartbeat CPU 0 instructions: 50000003 cycles: 104261700 heartbeat IPC: 0.17105 cumulative IPC: 0.399608 (Simulation time: 0 hr 38 min 49 sec) 
Heartbeat CPU 0 instructions: 51000002 cycles: 106744928 heartbeat IPC: 0.402701 cumulative IPC: 0.399683 (Simulation time: 0 hr 39 min 49 sec) 
Heartbeat CPU 0 instructions: 52000000 cycles: 110758076 heartbeat IPC: 0.24918 cumulative IPC: 0.394017 (Simulation time: 0 hr 40 min 46 sec) 
Heartbeat CPU 0 instructions: 53000003 cycles: 113428814 heartbeat IPC: 0.374429 cumulative IPC: 0.393538 (Simulation time: 0 hr 41 min 37 sec) 
Heartbeat CPU 0 instructions: 54000000 cycles: 115920382 heartbeat IPC: 0.401352 cumulative IPC: 0.393712 (Simulation time: 0 hr 42 min 30 sec) 
Heartbeat CPU 0 instructions: 55000002 cycles: 119574815 heartbeat IPC: 0.273641 cumulative IPC: 0.38991 (Simulation time: 0 hr 43 min 21 sec) 
Heartbeat CPU 0 instructions: 56000000 cycles: 123194741 heartbeat IPC: 0.276248 cumulative IPC: 0.386453 (Simulation time: 0 hr 44 min 13 sec) 
Heartbeat CPU 0 instructions: 57000003 cycles: 125828668 heartbeat IPC: 0.379662 cumulative IPC: 0.386306 (Simulation time: 0 hr 44 min 58 sec) 
Heartbeat CPU 0 instructions: 58000002 cycles: 128056960 heartbeat IPC: 0.448774 cumulative IPC: 0.38743 (Simulation time: 0 hr 45 min 48 sec) 
Heartbeat CPU 0 instructions: 59000002 cycles: 129605929 heartbeat IPC: 0.645591 cumulative IPC: 0.390618 (Simulation time: 0 hr 46 min 32 sec) 
Heartbeat CPU 0 instructions: 60000000 cycles: 130802079 heartbeat IPC: 0.836014 cumulative IPC: 0.394825 (Simulation time: 0 hr 47 min 8 sec) 
Heartbeat CPU 0 instructions: 61000002 cycles: 133589196 heartbeat IPC: 0.358794 cumulative IPC: 0.394049 (Simulation time: 0 hr 47 min 57 sec) 
Heartbeat CPU 0 instructions: 62000002 cycles: 136289549 heartbeat IPC: 0.370322 cumulative IPC: 0.393564 (Simulation time: 0 hr 48 min 51 sec) 
Heartbeat CPU 0 instructions: 63000002 cycles: 138376044 heartbeat IPC: 0.479273 cumulative IPC: 0.394896 (Simulation time: 0 hr 49 min 39 sec) 
Heartbeat CPU 0 instructions: 64000000 cycles: 140814023 heartbeat IPC: 0.410175 cumulative IPC: 0.395169 (Simulation time: 0 hr 50 min 23 sec) 
Heartbeat CPU 0 instructions: 65000000 cycles: 144794826 heartbeat IPC: 0.251206 cumulative IPC: 0.391094 (Simulation time: 0 hr 51 min 22 sec) 
Heartbeat CPU 0 instructions: 66000001 cycles: 146161595 heartbeat IPC: 0.731653 cumulative IPC: 0.394372 (Simulation time: 0 hr 51 min 51 sec) 
Heartbeat CPU 0 instructions: 67000000 cycles: 147513943 heartbeat IPC: 0.739454 cumulative IPC: 0.397627 (Simulation time: 0 hr 52 min 26 sec) 
Heartbeat CPU 0 instructions: 68000000 cycles: 150893853 heartbeat IPC: 0.295866 cumulative IPC: 0.395283 (Simulation time: 0 hr 53 min 16 sec) 
Heartbeat CPU 0 instructions: 69000000 cycles: 153561996 heartbeat IPC: 0.374793 cumulative IPC: 0.394917 (Simulation time: 0 hr 53 min 52 sec) 
Heartbeat CPU 0 instructions: 70000001 cycles: 156155028 heartbeat IPC: 0.385649 cumulative IPC: 0.394759 (Simulation time: 0 hr 54 min 30 sec) 
Heartbeat CPU 0 instructions: 71000000 cycles: 158519119 heartbeat IPC: 0.422995 cumulative IPC: 0.395192 (Simulation time: 0 hr 55 min 21 sec) 
Heartbeat CPU 0 instructions: 72000000 cycles: 161108690 heartbeat IPC: 0.386164 cumulative IPC: 0.395043 (Simulation time: 0 hr 56 min 4 sec) 
Heartbeat CPU 0 instructions: 73000002 cycles: 163898616 heartbeat IPC: 0.358433 cumulative IPC: 0.394403 (Simulation time: 0 hr 56 min 51 sec) 
Heartbeat CPU 0 instructions: 74000000 cycles: 165881953 heartbeat IPC: 0.5042 cumulative IPC: 0.39575 (Simulation time: 0 hr 57 min 21 sec) 
Heartbeat CPU 0 instructions: 75000002 cycles: 167206623 heartbeat IPC: 0.754906 cumulative IPC: 0.398668 (Simulation time: 0 hr 57 min 49 sec) 
Heartbeat CPU 0 instructions: 76000000 cycles: 170300806 heartbeat IPC: 0.323186 cumulative IPC: 0.397262 (Simulation time: 0 hr 58 min 35 sec) 
Heartbeat CPU 0 instructions: 77000000 cycles: 172711241 heartbeat IPC: 0.414863 cumulative IPC: 0.397514 (Simulation time: 0 hr 59 min 6 sec) 
Heartbeat CPU 0 instructions: 78000003 cycles: 175260047 heartbeat IPC: 0.392342 cumulative IPC: 0.397437 (Simulation time: 0 hr 59 min 35 sec) 
Heartbeat CPU 0 instructions: 79000001 cycles: 178252517 heartbeat IPC: 0.334171 cumulative IPC: 0.396349 (Simulation time: 1 hr 0 min 18 sec) 
Heartbeat CPU 0 instructions: 80000000 cycles: 180772814 heartbeat IPC: 0.396778 cumulative IPC: 0.396355 (Simulation time: 1 hr 0 min 59 sec) 
Heartbeat CPU 0 instructions: 81000003 cycles: 183795308 heartbeat IPC: 0.330854 cumulative IPC: 0.395253 (Simulation time: 1 hr 1 min 43 sec) 
Heartbeat CPU 0 instructions: 82000000 cycles: 185542379 heartbeat IPC: 0.572385 cumulative IPC: 0.396959 (Simulation time: 1 hr 2 min 16 sec) 
Heartbeat CPU 0 instructions: 83000001 cycles: 186868729 heartbeat IPC: 0.75395 cumulative IPC: 0.399551 (Simulation time: 1 hr 2 min 41 sec) 
Heartbeat CPU 0 instructions: 84000000 cycles: 190017073 heartbeat IPC: 0.317627 cumulative IPC: 0.398163 (Simulation time: 1 hr 3 min 21 sec) 
Heartbeat CPU 0 instructions: 85000002 cycles: 192398182 heartbeat IPC: 0.419973 cumulative IPC: 0.398439 (Simulation time: 1 hr 3 min 52 sec) 
Heartbeat CPU 0 instructions: 86000000 cycles: 194976529 heartbeat IPC: 0.387845 cumulative IPC: 0.398296 (Simulation time: 1 hr 4 min 19 sec) 
Heartbeat CPU 0 instructions: 87000000 cycles: 197787295 heartbeat IPC: 0.355775 cumulative IPC: 0.397679 (Simulation time: 1 hr 4 min 59 sec) 
Heartbeat CPU 0 instructions: 88000000 cycles: 200001264 heartbeat IPC: 0.451678 cumulative IPC: 0.398289 (Simulation time: 1 hr 5 min 35 sec) 
Heartbeat CPU 0 instructions: 89000001 cycles: 203406954 heartbeat IPC: 0.293627 cumulative IPC: 0.3965 (Simulation time: 1 hr 6 min 17 sec) 
Heartbeat CPU 0 instructions: 90000002 cycles: 204758338 heartbeat IPC: 0.739983 cumulative IPC: 0.398814 (Simulation time: 1 hr 6 min 40 sec) 
Heartbeat CPU 0 instructions: 91000000 cycles: 206178513 heartbeat IPC: 0.704137 cumulative IPC: 0.40096 (Simulation time: 1 hr 7 min 5 sec) 
Heartbeat CPU 0 instructions: 92000000 cycles: 209269340 heartbeat IPC: 0.323538 cumulative IPC: 0.399794 (Simulation time: 1 hr 7 min 40 sec) 
Heartbeat CPU 0 instructions: 93000000 cycles: 211875766 heartbeat IPC: 0.383667 cumulative IPC: 0.399591 (Simulation time: 1 hr 8 min 6 sec) 
Heartbeat CPU 0 instructions: 94000001 cycles: 214362933 heartbeat IPC: 0.402064 cumulative IPC: 0.399621 (Simulation time: 1 hr 8 min 33 sec) 
Heartbeat CPU 0 instructions: 95000003 cycles: 217405106 heartbeat IPC: 0.328713 cumulative IPC: 0.398609 (Simulation time: 1 hr 9 min 11 sec) 
Heartbeat CPU 0 instructions: 96000000 cycles: 219364661 heartbeat IPC: 0.510318 cumulative IPC: 0.399626 (Simulation time: 1 hr 9 min 41 sec) 
Heartbeat CPU 0 instructions: 97000003 cycles: 222474222 heartbeat IPC: 0.32159 cumulative IPC: 0.398515 (Simulation time: 1 hr 10 min 12 sec) 
Heartbeat CPU 0 instructions: 98000003 cycles: 223808984 heartbeat IPC: 0.749197 cumulative IPC: 0.400646 (Simulation time: 1 hr 10 min 31 sec) 
Heartbeat CPU 0 instructions: 99000000 cycles: 226150531 heartbeat IPC: 0.427067 cumulative IPC: 0.400924 (Simulation time: 1 hr 10 min 56 sec) 
Heartbeat CPU 0 instructions: 100000000 cycles: 228762591 heartbeat IPC: 0.38284 cumulative IPC: 0.400714 (Simulation time: 1 hr 11 min 24 sec) 
Heartbeat CPU 0 instructions: 101000001 cycles: 231282330 heartbeat IPC: 0.396867 cumulative IPC: 0.400671 (Simulation time: 1 hr 11 min 45 sec) 
Heartbeat CPU 0 instructions: 102000002 cycles: 233896312 heartbeat IPC: 0.382558 cumulative IPC: 0.400465 (Simulation time: 1 hr 12 min 9 sec) 
Heartbeat CPU 0 instructions: 103000002 cycles: 236894716 heartbeat IPC: 0.333511 cumulative IPC: 0.399603 (Simulation time: 1 hr 12 min 37 sec) 
Heartbeat CPU 0 instructions: 104000000 cycles: 239150219 heartbeat IPC: 0.443359 cumulative IPC: 0.400023 (Simulation time: 1 hr 13 min 4 sec) 
Heartbeat CPU 0 instructions: 105000000 cycles: 241576771 heartbeat IPC: 0.412107 cumulative IPC: 0.400146 (Simulation time: 1 hr 13 min 24 sec) 
Heartbeat CPU 0 instructions: 106000001 cycles: 242905826 heartbeat IPC: 0.752415 cumulative IPC: 0.402107 (Simulation time: 1 hr 13 min 40 sec) 
Heartbeat CPU 0 instructions: 107000001 cycles: 245842324 heartbeat IPC: 0.340542 cumulative IPC: 0.401359 (Simulation time: 1 hr 14 min 2 sec) 
Heartbeat CPU 0 instructions: 108000000 cycles: 248077695 heartbeat IPC: 0.447353 cumulative IPC: 0.401781 (Simulation time: 1 hr 14 min 20 sec) 
Heartbeat CPU 0 instructions: 109000003 cycles: 250629731 heartbeat IPC: 0.391845 cumulative IPC: 0.401678 (Simulation time: 1 hr 14 min 39 sec) 
Heartbeat CPU 0 instructions: 110000001 cycles: 253493945 heartbeat IPC: 0.349135 cumulative IPC: 0.401074 (Simulation time: 1 hr 15 min 3 sec) 
Finished CPU 0 instructions: 100000003 cycles: 249330365 cummulative IPC: 0.401074 (Simulation time: 1 hr 15 min 3 sec) 

ChampSim completed all CPUs

Region of Interest Statistics

CPU 0 cummulative IPC: 0.401074 instructions: 100000003 cycles: 249330365
LLC TOTAL     ACCESS:    6599330  HIT:    3048985  MISS:    3550345
LLC LOAD      ACCESS:    1693941  HIT:     778401  MISS:     915540
LLC RFO       ACCESS:     658473  HIT:     279683  MISS:     378790
LLC PREFETCH  ACCESS:    2686282  HIT:     931216  MISS:    1755066
LLC WRITEBACK ACCESS:    1560634  HIT:    1059685  MISS:     500949
