
*** ChampSim Multicore Out-of-Order Simulator ***

Warmup Instructions: 10000000
Simulation Instructions: 100000000
Configuration: 2
Number of CPUs: 1
LLC sets: 2048
LLC ways: 16
Off-chip DRAM Channels: 1 Width: 64-bit Data Rate: 1600 MT/s

CPU 0 runs /datasets/cs240c-wi22-a00-public/data/Assignment2-gz/GemsFDTD_109B.trace.gz
CPU 0 L1D next line prefetcher
CPU 0 L2C IP-based stride prefetcher
Heartbeat CPU 0 instructions: 1000002 cycles: 579772 heartbeat IPC: 1.72482 cumulative IPC: 1.72482 (Simulation time: 0 hr 0 min 46 sec) 
Heartbeat CPU 0 instructions: 2000001 cycles: 1159546 heartbeat IPC: 1.72481 cumulative IPC: 1.72481 (Simulation time: 0 hr 1 min 33 sec) 
Heartbeat CPU 0 instructions: 3000000 cycles: 1738734 heartbeat IPC: 1.72655 cumulative IPC: 1.72539 (Simulation time: 0 hr 2 min 18 sec) 
Heartbeat CPU 0 instructions: 4000000 cycles: 2317739 heartbeat IPC: 1.7271 cumulative IPC: 1.72582 (Simulation time: 0 hr 3 min 4 sec) 
Heartbeat CPU 0 instructions: 5000000 cycles: 2897590 heartbeat IPC: 1.72458 cumulative IPC: 1.72557 (Simulation time: 0 hr 3 min 52 sec) 
Heartbeat CPU 0 instructions: 6000002 cycles: 3478306 heartbeat IPC: 1.72202 cumulative IPC: 1.72498 (Simulation time: 0 hr 4 min 41 sec) 
Heartbeat CPU 0 instructions: 7000001 cycles: 4058971 heartbeat IPC: 1.72216 cumulative IPC: 1.72458 (Simulation time: 0 hr 5 min 25 sec) 
Heartbeat CPU 0 instructions: 8000000 cycles: 4639158 heartbeat IPC: 1.72358 cumulative IPC: 1.72445 (Simulation time: 0 hr 6 min 8 sec) 
Heartbeat CPU 0 instructions: 9000002 cycles: 5219313 heartbeat IPC: 1.72368 cumulative IPC: 1.72437 (Simulation time: 0 hr 6 min 53 sec) 
Heartbeat CPU 0 instructions: 10000001 cycles: 5799492 heartbeat IPC: 1.7236 cumulative IPC: 1.72429 (Simulation time: 0 hr 7 min 39 sec) 

Warmup complete CPU 0 instructions: 10000001 cycles: 5799492 (Simulation time: 0 hr 7 min 39 sec) 

Heartbeat CPU 0 instructions: 11000002 cycles: 6848384 heartbeat IPC: 0.953388 cumulative IPC: 0.953388 (Simulation time: 0 hr 8 min 27 sec) 
Heartbeat CPU 0 instructions: 12000000 cycles: 7900487 heartbeat IPC: 0.950475 cumulative IPC: 0.951929 (Simulation time: 0 hr 9 min 14 sec) 
Heartbeat CPU 0 instructions: 13000001 cycles: 8986767 heartbeat IPC: 0.920574 cumulative IPC: 0.941243 (Simulation time: 0 hr 10 min 4 sec) 
Heartbeat CPU 0 instructions: 14000002 cycles: 10049199 heartbeat IPC: 0.941238 cumulative IPC: 0.941242 (Simulation time: 0 hr 10 min 52 sec) 
Heartbeat CPU 0 instructions: 15000000 cycles: 11121601 heartbeat IPC: 0.932484 cumulative IPC: 0.939477 (Simulation time: 0 hr 11 min 42 sec) 
Heartbeat CPU 0 instructions: 16000000 cycles: 12185147 heartbeat IPC: 0.940251 cumulative IPC: 0.939606 (Simulation time: 0 hr 12 min 28 sec) 
Heartbeat CPU 0 instructions: 17000000 cycles: 13274205 heartbeat IPC: 0.918225 cumulative IPC: 0.936491 (Simulation time: 0 hr 13 min 19 sec) 
Heartbeat CPU 0 instructions: 18000003 cycles: 14327831 heartbeat IPC: 0.949106 cumulative IPC: 0.938049 (Simulation time: 0 hr 14 min 6 sec) 
Heartbeat CPU 0 instructions: 19000001 cycles: 15404679 heartbeat IPC: 0.928634 cumulative IPC: 0.936994 (Simulation time: 0 hr 14 min 53 sec) 
Heartbeat CPU 0 instructions: 20000000 cycles: 16564832 heartbeat IPC: 0.861954 cumulative IPC: 0.928907 (Simulation time: 0 hr 15 min 38 sec) 
Heartbeat CPU 0 instructions: 21000001 cycles: 17840048 heartbeat IPC: 0.784182 cumulative IPC: 0.913579 (Simulation time: 0 hr 16 min 21 sec) 
Heartbeat CPU 0 instructions: 22000001 cycles: 21348639 heartbeat IPC: 0.285015 cumulative IPC: 0.771747 (Simulation time: 0 hr 17 min 9 sec) 
Heartbeat CPU 0 instructions: 23000001 cycles: 22614198 heartbeat IPC: 0.790165 cumulative IPC: 0.773133 (Simulation time: 0 hr 17 min 57 sec) 
Heartbeat CPU 0 instructions: 24000000 cycles: 26296910 heartbeat IPC: 0.271539 cumulative IPC: 0.683013 (Simulation time: 0 hr 18 min 51 sec) 
Heartbeat CPU 0 instructions: 25000003 cycles: 27543925 heartbeat IPC: 0.801917 cumulative IPC: 0.689832 (Simulation time: 0 hr 19 min 41 sec) 
Heartbeat CPU 0 instructions: 26000000 cycles: 31241968 heartbeat IPC: 0.270412 cumulative IPC: 0.62887 (Simulation time: 0 hr 20 min 35 sec) 
Heartbeat CPU 0 instructions: 27000000 cycles: 32456582 heartbeat IPC: 0.823307 cumulative IPC: 0.637729 (Simulation time: 0 hr 21 min 20 sec) 
Heartbeat CPU 0 instructions: 28000000 cycles: 36011803 heartbeat IPC: 0.281276 cumulative IPC: 0.595784 (Simulation time: 0 hr 22 min 9 sec) 
Heartbeat CPU 0 instructions: 29000000 cycles: 37231534 heartbeat IPC: 0.819853 cumulative IPC: 0.604479 (Simulation time: 0 hr 22 min 53 sec) 
Heartbeat CPU 0 instructions: 30000003 cycles: 38581394 heartbeat IPC: 0.74082 cumulative IPC: 0.610093 (Simulation time: 0 hr 23 min 37 sec) 
Heartbeat CPU 0 instructions: 31000002 cycles: 39747925 heartbeat IPC: 0.857242 cumulative IPC: 0.618585 (Simulation time: 0 hr 24 min 23 sec) 
Heartbeat CPU 0 instructions: 32000000 cycles: 41064795 heartbeat IPC: 0.759375 cumulative IPC: 0.623843 (Simulation time: 0 hr 25 min 7 sec) 
Heartbeat CPU 0 instructions: 33000003 cycles: 42227500 heartbeat IPC: 0.860066 cumulative IPC: 0.631382 (Simulation time: 0 hr 25 min 52 sec) 
Heartbeat CPU 0 instructions: 34000002 cycles: 43546813 heartbeat IPC: 0.757969 cumulative IPC: 0.635807 (Simulation time: 0 hr 26 min 31 sec) 
Heartbeat CPU 0 instructions: 35000003 cycles: 44727314 heartbeat IPC: 0.847099 cumulative IPC: 0.642214 (Simulation time: 0 hr 27 min 23 sec) 
Heartbeat CPU 0 instructions: 36000000 cycles: 46095239 heartbeat IPC: 0.731032 cumulative IPC: 0.645229 (Simulation time: 0 hr 28 min 7 sec) 
Heartbeat CPU 0 instructions: 37000000 cycles: 47424735 heartbeat IPC: 0.752165 cumulative IPC: 0.648645 (Simulation time: 0 hr 28 min 55 sec) 
Heartbeat CPU 0 instructions: 38000001 cycles: 48754273 heartbeat IPC: 0.752142 cumulative IPC: 0.651848 (Simulation time: 0 hr 29 min 46 sec) 
Heartbeat CPU 0 instructions: 39000000 cycles: 50083662 heartbeat IPC: 0.752225 cumulative IPC: 0.654862 (Simulation time: 0 hr 30 min 40 sec) 
Heartbeat CPU 0 instructions: 40000000 cycles: 51413202 heartbeat IPC: 0.75214 cumulative IPC: 0.657697 (Simulation time: 0 hr 31 min 30 sec) 
Heartbeat CPU 0 instructions: 41000000 cycles: 52681077 heartbeat IPC: 0.788721 cumulative IPC: 0.66124 (Simulation time: 0 hr 32 min 11 sec) 
Heartbeat CPU 0 instructions: 42000000 cycles: 54010558 heartbeat IPC: 0.752173 cumulative IPC: 0.663748 (Simulation time: 0 hr 33 min 2 sec) 
Heartbeat CPU 0 instructions: 43000002 cycles: 55340227 heartbeat IPC: 0.752068 cumulative IPC: 0.666119 (Simulation time: 0 hr 33 min 51 sec) 
Heartbeat CPU 0 instructions: 44000000 cycles: 56669728 heartbeat IPC: 0.75216 cumulative IPC: 0.668367 (Simulation time: 0 hr 34 min 40 sec) 
Heartbeat CPU 0 instructions: 45000001 cycles: 57999053 heartbeat IPC: 0.752262 cumulative IPC: 0.670504 (Simulation time: 0 hr 35 min 33 sec) 
Heartbeat CPU 0 instructions: 46000003 cycles: 59372030 heartbeat IPC: 0.728346 cumulative IPC: 0.671986 (Simulation time: 0 hr 36 min 27 sec) 
Heartbeat CPU 0 instructions: 47000001 cycles: 60500104 heartbeat IPC: 0.886465 cumulative IPC: 0.676409 (Simulation time: 0 hr 37 min 4 sec) 
Heartbeat CPU 0 instructions: 48000000 cycles: 61874349 heartbeat IPC: 0.727672 cumulative IPC: 0.677666 (Simulation time: 0 hr 37 min 44 sec) 
Heartbeat CPU 0 instructions: 49000003 cycles: 71482498 heartbeat IPC: 0.104079 cumulative IPC: 0.593761 (Simulation time: 0 hr 39 min 5 sec) 
Heartbeat CPU 0 instructions: 50000001 cycles: 73307402 heartbeat IPC: 0.547973 cumulative IPC: 0.592523 (Simulation time: 0 hr 40 min 0 sec) 
Heartbeat CPU 0 instructions: 51000001 cycles: 74934180 heartbeat IPC: 0.614712 cumulative IPC: 0.593045 (Simulation time: 0 hr 40 min 54 sec) 
Heartbeat CPU 0 instructions: 52000000 cycles: 76564468 heartbeat IPC: 0.613388 cumulative IPC: 0.593514 (Simulation time: 0 hr 41 min 49 sec) 
Heartbeat CPU 0 instructions: 53000001 cycles: 78182612 heartbeat IPC: 0.617993 cumulative IPC: 0.594061 (Simulation time: 0 hr 42 min 42 sec) 
Heartbeat CPU 0 instructions: 54000001 cycles: 79792144 heartbeat IPC: 0.621299 cumulative IPC: 0.594654 (Simulation time: 0 hr 43 min 34 sec) 
Heartbeat CPU 0 instructions: 55000000 cycles: 81378012 heartbeat IPC: 0.630569 cumulative IPC: 0.595407 (Simulation time: 0 hr 44 min 26 sec) 
Heartbeat CPU 0 instructions: 56000000 cycles: 82981373 heartbeat IPC: 0.62369 cumulative IPC: 0.595995 (Simulation time: 0 hr 45 min 22 sec) 
Heartbeat CPU 0 instructions: 57000002 cycles: 84595420 heartbeat IPC: 0.619562 cumulative IPC: 0.596478 (Simulation time: 0 hr 46 min 19 sec) 
Heartbeat CPU 0 instructions: 58000002 cycles: 86206565 heartbeat IPC: 0.620677 cumulative IPC: 0.596962 (Simulation time: 0 hr 47 min 12 sec) 
Heartbeat CPU 0 instructions: 59000001 cycles: 87815195 heartbeat IPC: 0.621646 cumulative IPC: 0.597447 (Simulation time: 0 hr 48 min 6 sec) 
Heartbeat CPU 0 instructions: 60000000 cycles: 89437064 heartbeat IPC: 0.616572 cumulative IPC: 0.597817 (Simulation time: 0 hr 48 min 56 sec) 
Heartbeat CPU 0 instructions: 61000000 cycles: 91029194 heartbeat IPC: 0.628089 cumulative IPC: 0.598383 (Simulation time: 0 hr 49 min 46 sec) 
Heartbeat CPU 0 instructions: 62000003 cycles: 92609724 heartbeat IPC: 0.632701 cumulative IPC: 0.599008 (Simulation time: 0 hr 50 min 35 sec) 
Heartbeat CPU 0 instructions: 63000001 cycles: 94211113 heartbeat IPC: 0.624457 cumulative IPC: 0.599469 (Simulation time: 0 hr 51 min 28 sec) 
Heartbeat CPU 0 instructions: 64000000 cycles: 95828818 heartbeat IPC: 0.618159 cumulative IPC: 0.599805 (Simulation time: 0 hr 52 min 20 sec) 
Heartbeat CPU 0 instructions: 65000003 cycles: 97465690 heartbeat IPC: 0.610923 cumulative IPC: 0.600003 (Simulation time: 0 hr 53 min 16 sec) 
Heartbeat CPU 0 instructions: 66000001 cycles: 99103626 heartbeat IPC: 0.610523 cumulative IPC: 0.600188 (Simulation time: 0 hr 54 min 9 sec) 
Heartbeat CPU 0 instructions: 67000002 cycles: 100708771 heartbeat IPC: 0.622997 cumulative IPC: 0.600574 (Simulation time: 0 hr 55 min 3 sec) 
Heartbeat CPU 0 instructions: 68000000 cycles: 102331912 heartbeat IPC: 0.616088 cumulative IPC: 0.600834 (Simulation time: 0 hr 55 min 54 sec) 
Heartbeat CPU 0 instructions: 69000000 cycles: 103942160 heartbeat IPC: 0.621022 cumulative IPC: 0.601166 (Simulation time: 0 hr 56 min 46 sec) 
Heartbeat CPU 0 instructions: 70000003 cycles: 105520803 heartbeat IPC: 0.633457 cumulative IPC: 0.601677 (Simulation time: 0 hr 57 min 37 sec) 
Heartbeat CPU 0 instructions: 71000003 cycles: 107131554 heartbeat IPC: 0.620828 cumulative IPC: 0.601981 (Simulation time: 0 hr 58 min 28 sec) 
Heartbeat CPU 0 instructions: 72000000 cycles: 108714568 heartbeat IPC: 0.631704 cumulative IPC: 0.602438 (Simulation time: 0 hr 59 min 22 sec) 
Heartbeat CPU 0 instructions: 73000001 cycles: 110338251 heartbeat IPC: 0.615884 cumulative IPC: 0.602647 (Simulation time: 1 hr 0 min 14 sec) 
Heartbeat CPU 0 instructions: 74000000 cycles: 111965442 heartbeat IPC: 0.614555 cumulative IPC: 0.60283 (Simulation time: 1 hr 1 min 3 sec) 
Heartbeat CPU 0 instructions: 75000000 cycles: 113591062 heartbeat IPC: 0.61515 cumulative IPC: 0.603016 (Simulation time: 1 hr 1 min 52 sec) 
Heartbeat CPU 0 instructions: 76000000 cycles: 115177459 heartbeat IPC: 0.630359 cumulative IPC: 0.603412 (Simulation time: 1 hr 2 min 42 sec) 
Heartbeat CPU 0 instructions: 77000002 cycles: 116818515 heartbeat IPC: 0.609365 cumulative IPC: 0.6035 (Simulation time: 1 hr 3 min 34 sec) 
Heartbeat CPU 0 instructions: 78000000 cycles: 118416628 heartbeat IPC: 0.625737 cumulative IPC: 0.603816 (Simulation time: 1 hr 4 min 27 sec) 
Heartbeat CPU 0 instructions: 79000001 cycles: 120009732 heartbeat IPC: 0.627706 cumulative IPC: 0.604149 (Simulation time: 1 hr 5 min 21 sec) 
Heartbeat CPU 0 instructions: 80000000 cycles: 121609408 heartbeat IPC: 0.625126 cumulative IPC: 0.604439 (Simulation time: 1 hr 6 min 14 sec) 
Heartbeat CPU 0 instructions: 81000001 cycles: 123210710 heartbeat IPC: 0.624492 cumulative IPC: 0.604712 (Simulation time: 1 hr 7 min 6 sec) 
Heartbeat CPU 0 instructions: 82000000 cycles: 124824135 heartbeat IPC: 0.619799 cumulative IPC: 0.604917 (Simulation time: 1 hr 7 min 56 sec) 
Heartbeat CPU 0 instructions: 83000003 cycles: 126424695 heartbeat IPC: 0.624783 cumulative IPC: 0.60518 (Simulation time: 1 hr 8 min 45 sec) 
Heartbeat CPU 0 instructions: 84000000 cycles: 128023099 heartbeat IPC: 0.625622 cumulative IPC: 0.605448 (Simulation time: 1 hr 9 min 33 sec) 
Heartbeat CPU 0 instructions: 85000001 cycles: 129642938 heartbeat IPC: 0.617346 cumulative IPC: 0.605603 (Simulation time: 1 hr 10 min 18 sec) 
Heartbeat CPU 0 instructions: 86000000 cycles: 131256354 heartbeat IPC: 0.619802 cumulative IPC: 0.605786 (Simulation time: 1 hr 11 min 4 sec) 
Heartbeat CPU 0 instructions: 87000002 cycles: 132861747 heartbeat IPC: 0.622902 cumulative IPC: 0.606002 (Simulation time: 1 hr 11 min 45 sec) 
Heartbeat CPU 0 instructions: 88000000 cycles: 134480969 heartbeat IPC: 0.617579 cumulative IPC: 0.606148 (Simulation time: 1 hr 12 min 25 sec) 
Heartbeat CPU 0 instructions: 89000003 cycles: 136112397 heartbeat IPC: 0.612962 cumulative IPC: 0.606233 (Simulation time: 1 hr 13 min 3 sec) 
Heartbeat CPU 0 instructions: 90000000 cycles: 137751550 heartbeat IPC: 0.610069 cumulative IPC: 0.606281 (Simulation time: 1 hr 13 min 41 sec) 
Heartbeat CPU 0 instructions: 91000002 cycles: 139393127 heartbeat IPC: 0.609172 cumulative IPC: 0.606316 (Simulation time: 1 hr 14 min 21 sec) 
Heartbeat CPU 0 instructions: 92000000 cycles: 141009474 heartbeat IPC: 0.618678 cumulative IPC: 0.606464 (Simulation time: 1 hr 15 min 0 sec) 
Heartbeat CPU 0 instructions: 93000001 cycles: 142639008 heartbeat IPC: 0.613673 cumulative IPC: 0.60655 (Simulation time: 1 hr 15 min 36 sec) 
Heartbeat CPU 0 instructions: 94000003 cycles: 144236424 heartbeat IPC: 0.626012 cumulative IPC: 0.606775 (Simulation time: 1 hr 16 min 11 sec) 
Heartbeat CPU 0 instructions: 95000000 cycles: 145828557 heartbeat IPC: 0.628086 cumulative IPC: 0.607017 (Simulation time: 1 hr 16 min 44 sec) 
Heartbeat CPU 0 instructions: 96000000 cycles: 147441273 heartbeat IPC: 0.620072 cumulative IPC: 0.607165 (Simulation time: 1 hr 17 min 18 sec) 
Heartbeat CPU 0 instructions: 97000002 cycles: 149055897 heartbeat IPC: 0.61934 cumulative IPC: 0.607303 (Simulation time: 1 hr 17 min 51 sec) 
Heartbeat CPU 0 instructions: 98000000 cycles: 150679468 heartbeat IPC: 0.615925 cumulative IPC: 0.607399 (Simulation time: 1 hr 18 min 23 sec) 
Heartbeat CPU 0 instructions: 99000000 cycles: 152255169 heartbeat IPC: 0.634638 cumulative IPC: 0.607692 (Simulation time: 1 hr 18 min 54 sec) 
Heartbeat CPU 0 instructions: 100000000 cycles: 153881328 heartbeat IPC: 0.614946 cumulative IPC: 0.607772 (Simulation time: 1 hr 19 min 25 sec) 
Heartbeat CPU 0 instructions: 101000001 cycles: 155515187 heartbeat IPC: 0.612049 cumulative IPC: 0.607819 (Simulation time: 1 hr 19 min 53 sec) 
Heartbeat CPU 0 instructions: 102000000 cycles: 157139443 heartbeat IPC: 0.615666 cumulative IPC: 0.607903 (Simulation time: 1 hr 20 min 22 sec) 
Heartbeat CPU 0 instructions: 103000000 cycles: 158743346 heartbeat IPC: 0.623479 cumulative IPC: 0.608066 (Simulation time: 1 hr 20 min 48 sec) 
Heartbeat CPU 0 instructions: 104000000 cycles: 160361207 heartbeat IPC: 0.6181 cumulative IPC: 0.608171 (Simulation time: 1 hr 21 min 13 sec) 
Heartbeat CPU 0 instructions: 105000000 cycles: 161992819 heartbeat IPC: 0.612891 cumulative IPC: 0.608221 (Simulation time: 1 hr 21 min 36 sec) 
Heartbeat CPU 0 instructions: 106000001 cycles: 163616625 heartbeat IPC: 0.615838 cumulative IPC: 0.608299 (Simulation time: 1 hr 21 min 59 sec) 
Heartbeat CPU 0 instructions: 107000001 cycles: 165242506 heartbeat IPC: 0.615051 cumulative IPC: 0.608368 (Simulation time: 1 hr 22 min 22 sec) 
Heartbeat CPU 0 instructions: 108000000 cycles: 166863434 heartbeat IPC: 0.61693 cumulative IPC: 0.608454 (Simulation time: 1 hr 22 min 43 sec) 
Heartbeat CPU 0 instructions: 109000003 cycles: 168445039 heartbeat IPC: 0.632271 cumulative IPC: 0.608686 (Simulation time: 1 hr 23 min 4 sec) 
Heartbeat CPU 0 instructions: 110000002 cycles: 170053310 heartbeat IPC: 0.621785 cumulative IPC: 0.608814 (Simulation time: 1 hr 23 min 24 sec) 
Finished CPU 0 instructions: 100000001 cycles: 164253818 cummulative IPC: 0.608814 (Simulation time: 1 hr 23 min 24 sec) 

ChampSim completed all CPUs

Region of Interest Statistics

CPU 0 cummulative IPC: 0.608814 instructions: 100000001 cycles: 164253818
LLC TOTAL     ACCESS:    4812727  HIT:     579839  MISS:    4232888
LLC LOAD      ACCESS:     462124  HIT:      36188  MISS:     425936
LLC RFO       ACCESS:     126471  HIT:      96747  MISS:      29724
LLC PREFETCH  ACCESS:    2859839  HIT:     108146  MISS:    2751693
LLC WRITEBACK ACCESS:    1364293  HIT:     338758  MISS:    1025535
