
*** ChampSim Multicore Out-of-Order Simulator ***

Warmup Instructions: 10000000
Simulation Instructions: 100000000
Configuration: 2
Number of CPUs: 1
LLC sets: 2048
LLC ways: 16
Off-chip DRAM Channels: 1 Width: 64-bit Data Rate: 1600 MT/s

CPU 0 runs /datasets/cs240c-wi22-a00-public/data/Assignment2-gz/perlbench_135B.trace.gz
CPU 0 L1D next line prefetcher
CPU 0 L2C IP-based stride prefetcher
Heartbeat CPU 0 instructions: 1000000 cycles: 600047 heartbeat IPC: 1.66654 cumulative IPC: 1.66654 (Simulation time: 0 hr 0 min 50 sec) 
Heartbeat CPU 0 instructions: 2000000 cycles: 1209323 heartbeat IPC: 1.64129 cumulative IPC: 1.65382 (Simulation time: 0 hr 1 min 37 sec) 
Heartbeat CPU 0 instructions: 3000000 cycles: 1832880 heartbeat IPC: 1.6037 cumulative IPC: 1.63677 (Simulation time: 0 hr 2 min 26 sec) 
Heartbeat CPU 0 instructions: 4000000 cycles: 2492730 heartbeat IPC: 1.5155 cumulative IPC: 1.60467 (Simulation time: 0 hr 3 min 14 sec) 
Heartbeat CPU 0 instructions: 5000001 cycles: 3079430 heartbeat IPC: 1.70445 cumulative IPC: 1.62368 (Simulation time: 0 hr 3 min 56 sec) 
Heartbeat CPU 0 instructions: 6000002 cycles: 3681882 heartbeat IPC: 1.65988 cumulative IPC: 1.6296 (Simulation time: 0 hr 4 min 42 sec) 
Heartbeat CPU 0 instructions: 7000001 cycles: 4282700 heartbeat IPC: 1.6644 cumulative IPC: 1.63448 (Simulation time: 0 hr 5 min 28 sec) 
Heartbeat CPU 0 instructions: 8000000 cycles: 4893193 heartbeat IPC: 1.63802 cumulative IPC: 1.63492 (Simulation time: 0 hr 6 min 11 sec) 
Heartbeat CPU 0 instructions: 9000001 cycles: 5534301 heartbeat IPC: 1.5598 cumulative IPC: 1.62622 (Simulation time: 0 hr 6 min 54 sec) 
Heartbeat CPU 0 instructions: 10000000 cycles: 6193050 heartbeat IPC: 1.51803 cumulative IPC: 1.61471 (Simulation time: 0 hr 7 min 39 sec) 

Warmup complete CPU 0 instructions: 10000004 cycles: 6193051 (Simulation time: 0 hr 7 min 39 sec) 

Heartbeat CPU 0 instructions: 11000003 cycles: 8938378 heartbeat IPC: 0.364256 cumulative IPC: 0.364255 (Simulation time: 0 hr 8 min 35 sec) 
Heartbeat CPU 0 instructions: 12000000 cycles: 11277643 heartbeat IPC: 0.427483 cumulative IPC: 0.393344 (Simulation time: 0 hr 9 min 27 sec) 
Heartbeat CPU 0 instructions: 13000000 cycles: 13837721 heartbeat IPC: 0.390613 cumulative IPC: 0.39243 (Simulation time: 0 hr 10 min 21 sec) 
Heartbeat CPU 0 instructions: 14000000 cycles: 16857933 heartbeat IPC: 0.331103 cumulative IPC: 0.375062 (Simulation time: 0 hr 11 min 11 sec) 
Heartbeat CPU 0 instructions: 15000003 cycles: 19553384 heartbeat IPC: 0.370997 cumulative IPC: 0.374242 (Simulation time: 0 hr 11 min 58 sec) 
Heartbeat CPU 0 instructions: 16000000 cycles: 22206489 heartbeat IPC: 0.376916 cumulative IPC: 0.374685 (Simulation time: 0 hr 12 min 45 sec) 
Heartbeat CPU 0 instructions: 17000000 cycles: 24929561 heartbeat IPC: 0.367232 cumulative IPC: 0.373602 (Simulation time: 0 hr 13 min 32 sec) 
Heartbeat CPU 0 instructions: 18000000 cycles: 27629084 heartbeat IPC: 0.370436 cumulative IPC: 0.373203 (Simulation time: 0 hr 14 min 17 sec) 
Heartbeat CPU 0 instructions: 19000003 cycles: 30280297 heartbeat IPC: 0.377187 cumulative IPC: 0.373642 (Simulation time: 0 hr 15 min 2 sec) 
Heartbeat CPU 0 instructions: 20000000 cycles: 32938676 heartbeat IPC: 0.376168 cumulative IPC: 0.373893 (Simulation time: 0 hr 15 min 52 sec) 
Heartbeat CPU 0 instructions: 21000000 cycles: 35579030 heartbeat IPC: 0.378737 cumulative IPC: 0.374328 (Simulation time: 0 hr 16 min 40 sec) 
Heartbeat CPU 0 instructions: 22000002 cycles: 38221960 heartbeat IPC: 0.378369 cumulative IPC: 0.374661 (Simulation time: 0 hr 17 min 25 sec) 
Heartbeat CPU 0 instructions: 23000003 cycles: 40883774 heartbeat IPC: 0.375684 cumulative IPC: 0.37474 (Simulation time: 0 hr 18 min 19 sec) 
Heartbeat CPU 0 instructions: 24000000 cycles: 42985073 heartbeat IPC: 0.475895 cumulative IPC: 0.380517 (Simulation time: 0 hr 19 min 6 sec) 
Heartbeat CPU 0 instructions: 25000000 cycles: 45595472 heartbeat IPC: 0.383083 cumulative IPC: 0.380687 (Simulation time: 0 hr 20 min 7 sec) 
Heartbeat CPU 0 instructions: 26000001 cycles: 48166839 heartbeat IPC: 0.388899 cumulative IPC: 0.38119 (Simulation time: 0 hr 20 min 53 sec) 
Heartbeat CPU 0 instructions: 27000000 cycles: 50850081 heartbeat IPC: 0.372683 cumulative IPC: 0.380679 (Simulation time: 0 hr 21 min 39 sec) 
Heartbeat CPU 0 instructions: 28000000 cycles: 53510756 heartbeat IPC: 0.375844 cumulative IPC: 0.380407 (Simulation time: 0 hr 22 min 24 sec) 
Heartbeat CPU 0 instructions: 29000000 cycles: 56158175 heartbeat IPC: 0.377726 cumulative IPC: 0.380265 (Simulation time: 0 hr 23 min 10 sec) 
Heartbeat CPU 0 instructions: 30000000 cycles: 58893547 heartbeat IPC: 0.365581 cumulative IPC: 0.379503 (Simulation time: 0 hr 23 min 59 sec) 
Heartbeat CPU 0 instructions: 31000001 cycles: 61552357 heartbeat IPC: 0.376108 cumulative IPC: 0.37934 (Simulation time: 0 hr 24 min 48 sec) 
Heartbeat CPU 0 instructions: 32000000 cycles: 64225888 heartbeat IPC: 0.374037 cumulative IPC: 0.379096 (Simulation time: 0 hr 25 min 41 sec) 
Heartbeat CPU 0 instructions: 33000000 cycles: 66874760 heartbeat IPC: 0.377519 cumulative IPC: 0.379027 (Simulation time: 0 hr 26 min 29 sec) 
Heartbeat CPU 0 instructions: 34000001 cycles: 69496501 heartbeat IPC: 0.381426 cumulative IPC: 0.379126 (Simulation time: 0 hr 27 min 14 sec) 
Heartbeat CPU 0 instructions: 35000003 cycles: 72155693 heartbeat IPC: 0.376055 cumulative IPC: 0.379002 (Simulation time: 0 hr 28 min 4 sec) 
Heartbeat CPU 0 instructions: 36000000 cycles: 74457399 heartbeat IPC: 0.434459 cumulative IPC: 0.380872 (Simulation time: 0 hr 28 min 52 sec) 
Heartbeat CPU 0 instructions: 37000000 cycles: 76746265 heartbeat IPC: 0.436898 cumulative IPC: 0.38269 (Simulation time: 0 hr 29 min 47 sec) 
Heartbeat CPU 0 instructions: 38000000 cycles: 78833695 heartbeat IPC: 0.479058 cumulative IPC: 0.385459 (Simulation time: 0 hr 30 min 35 sec) 
Heartbeat CPU 0 instructions: 39000000 cycles: 81128735 heartbeat IPC: 0.435722 cumulative IPC: 0.386998 (Simulation time: 0 hr 31 min 23 sec) 
Heartbeat CPU 0 instructions: 40000000 cycles: 83082118 heartbeat IPC: 0.511932 cumulative IPC: 0.390172 (Simulation time: 0 hr 32 min 3 sec) 
Heartbeat CPU 0 instructions: 41000001 cycles: 85162145 heartbeat IPC: 0.480763 cumulative IPC: 0.392559 (Simulation time: 0 hr 32 min 46 sec) 
Heartbeat CPU 0 instructions: 42000003 cycles: 87782504 heartbeat IPC: 0.381628 cumulative IPC: 0.392208 (Simulation time: 0 hr 33 min 38 sec) 
Heartbeat CPU 0 instructions: 43000001 cycles: 90345896 heartbeat IPC: 0.390107 cumulative IPC: 0.392144 (Simulation time: 0 hr 34 min 31 sec) 
Heartbeat CPU 0 instructions: 44000000 cycles: 92640584 heartbeat IPC: 0.435789 cumulative IPC: 0.393302 (Simulation time: 0 hr 35 min 22 sec) 
Heartbeat CPU 0 instructions: 45000003 cycles: 95282577 heartbeat IPC: 0.378503 cumulative IPC: 0.392863 (Simulation time: 0 hr 36 min 12 sec) 
Heartbeat CPU 0 instructions: 46000003 cycles: 97972934 heartbeat IPC: 0.371698 cumulative IPC: 0.392243 (Simulation time: 0 hr 37 min 0 sec) 
Heartbeat CPU 0 instructions: 47000000 cycles: 100621809 heartbeat IPC: 0.377518 cumulative IPC: 0.39183 (Simulation time: 0 hr 37 min 46 sec) 
Heartbeat CPU 0 instructions: 48000000 cycles: 103256646 heartbeat IPC: 0.37953 cumulative IPC: 0.391496 (Simulation time: 0 hr 38 min 32 sec) 
Heartbeat CPU 0 instructions: 49000000 cycles: 105946099 heartbeat IPC: 0.371823 cumulative IPC: 0.390965 (Simulation time: 0 hr 39 min 16 sec) 
Heartbeat CPU 0 instructions: 50000001 cycles: 108590142 heartbeat IPC: 0.378209 cumulative IPC: 0.390636 (Simulation time: 0 hr 40 min 4 sec) 
Heartbeat CPU 0 instructions: 51000000 cycles: 111228652 heartbeat IPC: 0.379001 cumulative IPC: 0.390344 (Simulation time: 0 hr 40 min 50 sec) 
Heartbeat CPU 0 instructions: 52000000 cycles: 113858106 heartbeat IPC: 0.380307 cumulative IPC: 0.390099 (Simulation time: 0 hr 41 min 36 sec) 
Heartbeat CPU 0 instructions: 53000000 cycles: 116453085 heartbeat IPC: 0.38536 cumulative IPC: 0.389987 (Simulation time: 0 hr 42 min 22 sec) 
Heartbeat CPU 0 instructions: 54000001 cycles: 119107594 heartbeat IPC: 0.376718 cumulative IPC: 0.389675 (Simulation time: 0 hr 43 min 9 sec) 
Heartbeat CPU 0 instructions: 55000001 cycles: 121556883 heartbeat IPC: 0.408282 cumulative IPC: 0.39007 (Simulation time: 0 hr 43 min 59 sec) 
Heartbeat CPU 0 instructions: 56000000 cycles: 123684360 heartbeat IPC: 0.47004 cumulative IPC: 0.391518 (Simulation time: 0 hr 44 min 47 sec) 
Heartbeat CPU 0 instructions: 57000000 cycles: 125886067 heartbeat IPC: 0.454193 cumulative IPC: 0.392671 (Simulation time: 0 hr 45 min 35 sec) 
Heartbeat CPU 0 instructions: 58000002 cycles: 127833917 heartbeat IPC: 0.513388 cumulative IPC: 0.394604 (Simulation time: 0 hr 46 min 17 sec) 
Heartbeat CPU 0 instructions: 59000003 cycles: 129957922 heartbeat IPC: 0.470809 cumulative IPC: 0.395912 (Simulation time: 0 hr 47 min 2 sec) 
Heartbeat CPU 0 instructions: 60000000 cycles: 132904913 heartbeat IPC: 0.339328 cumulative IPC: 0.394596 (Simulation time: 0 hr 47 min 51 sec) 
Heartbeat CPU 0 instructions: 61000000 cycles: 135323074 heartbeat IPC: 0.413537 cumulative IPC: 0.394951 (Simulation time: 0 hr 48 min 37 sec) 
Heartbeat CPU 0 instructions: 62000001 cycles: 138116051 heartbeat IPC: 0.358041 cumulative IPC: 0.394169 (Simulation time: 0 hr 49 min 27 sec) 
Heartbeat CPU 0 instructions: 63000000 cycles: 141013427 heartbeat IPC: 0.34514 cumulative IPC: 0.393116 (Simulation time: 0 hr 50 min 16 sec) 
Heartbeat CPU 0 instructions: 64000000 cycles: 143921714 heartbeat IPC: 0.343845 cumulative IPC: 0.392075 (Simulation time: 0 hr 51 min 4 sec) 
Heartbeat CPU 0 instructions: 65000001 cycles: 146813300 heartbeat IPC: 0.345831 cumulative IPC: 0.391124 (Simulation time: 0 hr 51 min 53 sec) 
Heartbeat CPU 0 instructions: 66000001 cycles: 149672820 heartbeat IPC: 0.349709 cumulative IPC: 0.390299 (Simulation time: 0 hr 52 min 38 sec) 
Heartbeat CPU 0 instructions: 67000001 cycles: 152405676 heartbeat IPC: 0.365918 cumulative IPC: 0.389843 (Simulation time: 0 hr 53 min 22 sec) 
Heartbeat CPU 0 instructions: 68000000 cycles: 155144597 heartbeat IPC: 0.365107 cumulative IPC: 0.389388 (Simulation time: 0 hr 54 min 10 sec) 
Heartbeat CPU 0 instructions: 69000002 cycles: 158095612 heartbeat IPC: 0.338867 cumulative IPC: 0.388407 (Simulation time: 0 hr 55 min 2 sec) 
Heartbeat CPU 0 instructions: 70000003 cycles: 159904438 heartbeat IPC: 0.552845 cumulative IPC: 0.390342 (Simulation time: 0 hr 55 min 45 sec) 
Heartbeat CPU 0 instructions: 71000000 cycles: 161824183 heartbeat IPC: 0.520901 cumulative IPC: 0.391952 (Simulation time: 0 hr 56 min 25 sec) 
Heartbeat CPU 0 instructions: 72000000 cycles: 163812344 heartbeat IPC: 0.502977 cumulative IPC: 0.393353 (Simulation time: 0 hr 57 min 14 sec) 
Heartbeat CPU 0 instructions: 73000000 cycles: 166089696 heartbeat IPC: 0.439106 cumulative IPC: 0.394004 (Simulation time: 0 hr 58 min 13 sec) 
Heartbeat CPU 0 instructions: 74000000 cycles: 168008242 heartbeat IPC: 0.521228 cumulative IPC: 0.395513 (Simulation time: 0 hr 59 min 2 sec) 
Heartbeat CPU 0 instructions: 75000003 cycles: 170245687 heartbeat IPC: 0.44694 cumulative IPC: 0.396214 (Simulation time: 0 hr 59 min 49 sec) 
Heartbeat CPU 0 instructions: 76000000 cycles: 172995156 heartbeat IPC: 0.363705 cumulative IPC: 0.395678 (Simulation time: 1 hr 0 min 41 sec) 
Heartbeat CPU 0 instructions: 77000000 cycles: 175697315 heartbeat IPC: 0.370074 cumulative IPC: 0.39527 (Simulation time: 1 hr 1 min 33 sec) 
Heartbeat CPU 0 instructions: 78000000 cycles: 178658061 heartbeat IPC: 0.337753 cumulative IPC: 0.394283 (Simulation time: 1 hr 2 min 27 sec) 
Heartbeat CPU 0 instructions: 79000000 cycles: 180518816 heartbeat IPC: 0.537416 cumulative IPC: 0.395811 (Simulation time: 1 hr 3 min 13 sec) 
Heartbeat CPU 0 instructions: 80000000 cycles: 182305995 heartbeat IPC: 0.559541 cumulative IPC: 0.397472 (Simulation time: 1 hr 3 min 54 sec) 
Heartbeat CPU 0 instructions: 81000000 cycles: 184227391 heartbeat IPC: 0.520455 cumulative IPC: 0.398799 (Simulation time: 1 hr 4 min 38 sec) 
Heartbeat CPU 0 instructions: 82000000 cycles: 186144930 heartbeat IPC: 0.521502 cumulative IPC: 0.400107 (Simulation time: 1 hr 5 min 25 sec) 
Heartbeat CPU 0 instructions: 83000000 cycles: 188478732 heartbeat IPC: 0.428485 cumulative IPC: 0.40047 (Simulation time: 1 hr 6 min 11 sec) 
Heartbeat CPU 0 instructions: 84000000 cycles: 190435896 heartbeat IPC: 0.510943 cumulative IPC: 0.401644 (Simulation time: 1 hr 6 min 53 sec) 
Heartbeat CPU 0 instructions: 85000000 cycles: 192356911 heartbeat IPC: 0.520558 cumulative IPC: 0.402871 (Simulation time: 1 hr 7 min 34 sec) 
Heartbeat CPU 0 instructions: 86000002 cycles: 194275445 heartbeat IPC: 0.521232 cumulative IPC: 0.404078 (Simulation time: 1 hr 8 min 14 sec) 
Heartbeat CPU 0 instructions: 87000003 cycles: 196443596 heartbeat IPC: 0.461223 cumulative IPC: 0.404729 (Simulation time: 1 hr 8 min 52 sec) 
Heartbeat CPU 0 instructions: 88000000 cycles: 199225246 heartbeat IPC: 0.359498 cumulative IPC: 0.404078 (Simulation time: 1 hr 9 min 39 sec) 
Heartbeat CPU 0 instructions: 89000003 cycles: 201799718 heartbeat IPC: 0.38843 cumulative IPC: 0.403872 (Simulation time: 1 hr 10 min 24 sec) 
Heartbeat CPU 0 instructions: 90000001 cycles: 204687133 heartbeat IPC: 0.34633 cumulative IPC: 0.403035 (Simulation time: 1 hr 11 min 9 sec) 
Heartbeat CPU 0 instructions: 91000000 cycles: 207181935 heartbeat IPC: 0.400833 cumulative IPC: 0.403007 (Simulation time: 1 hr 11 min 47 sec) 
Heartbeat CPU 0 instructions: 92000000 cycles: 209646894 heartbeat IPC: 0.405686 cumulative IPC: 0.40304 (Simulation time: 1 hr 12 min 28 sec) 
Heartbeat CPU 0 instructions: 93000000 cycles: 212350397 heartbeat IPC: 0.36989 cumulative IPC: 0.402605 (Simulation time: 1 hr 13 min 3 sec) 
Heartbeat CPU 0 instructions: 94000001 cycles: 215021961 heartbeat IPC: 0.374313 cumulative IPC: 0.402243 (Simulation time: 1 hr 13 min 39 sec) 
Heartbeat CPU 0 instructions: 95000000 cycles: 217876921 heartbeat IPC: 0.350267 cumulative IPC: 0.401542 (Simulation time: 1 hr 14 min 19 sec) 
Heartbeat CPU 0 instructions: 96000000 cycles: 220918060 heartbeat IPC: 0.328824 cumulative IPC: 0.400512 (Simulation time: 1 hr 14 min 56 sec) 
Heartbeat CPU 0 instructions: 97000001 cycles: 223825684 heartbeat IPC: 0.343924 cumulative IPC: 0.399756 (Simulation time: 1 hr 15 min 34 sec) 
Heartbeat CPU 0 instructions: 98000000 cycles: 226486354 heartbeat IPC: 0.375845 cumulative IPC: 0.399467 (Simulation time: 1 hr 16 min 8 sec) 
Heartbeat CPU 0 instructions: 99000000 cycles: 229095078 heartbeat IPC: 0.383329 cumulative IPC: 0.399279 (Simulation time: 1 hr 16 min 41 sec) 
Heartbeat CPU 0 instructions: 100000000 cycles: 231728758 heartbeat IPC: 0.379697 cumulative IPC: 0.39905 (Simulation time: 1 hr 17 min 14 sec) 
Heartbeat CPU 0 instructions: 101000001 cycles: 234342200 heartbeat IPC: 0.382638 cumulative IPC: 0.398862 (Simulation time: 1 hr 17 min 48 sec) 
Heartbeat CPU 0 instructions: 102000000 cycles: 236977807 heartbeat IPC: 0.379419 cumulative IPC: 0.39864 (Simulation time: 1 hr 18 min 21 sec) 
Heartbeat CPU 0 instructions: 103000000 cycles: 239630672 heartbeat IPC: 0.376951 cumulative IPC: 0.398393 (Simulation time: 1 hr 18 min 55 sec) 
Heartbeat CPU 0 instructions: 104000000 cycles: 242372653 heartbeat IPC: 0.3647 cumulative IPC: 0.398002 (Simulation time: 1 hr 19 min 25 sec) 
Heartbeat CPU 0 instructions: 105000001 cycles: 244986101 heartbeat IPC: 0.382637 cumulative IPC: 0.397834 (Simulation time: 1 hr 19 min 56 sec) 
Heartbeat CPU 0 instructions: 106000001 cycles: 247614329 heartbeat IPC: 0.380484 cumulative IPC: 0.397645 (Simulation time: 1 hr 20 min 25 sec) 
Heartbeat CPU 0 instructions: 107000000 cycles: 250242173 heartbeat IPC: 0.38054 cumulative IPC: 0.397461 (Simulation time: 1 hr 20 min 52 sec) 
Heartbeat CPU 0 instructions: 108000000 cycles: 252864590 heartbeat IPC: 0.381328 cumulative IPC: 0.397289 (Simulation time: 1 hr 21 min 16 sec) 
Heartbeat CPU 0 instructions: 109000001 cycles: 255445226 heartbeat IPC: 0.387502 cumulative IPC: 0.397188 (Simulation time: 1 hr 21 min 41 sec) 
Heartbeat CPU 0 instructions: 110000003 cycles: 257600017 heartbeat IPC: 0.464083 cumulative IPC: 0.397761 (Simulation time: 1 hr 22 min 3 sec) 
Finished CPU 0 instructions: 100000003 cycles: 251406967 cummulative IPC: 0.397761 (Simulation time: 1 hr 22 min 3 sec) 

ChampSim completed all CPUs

Region of Interest Statistics

CPU 0 cummulative IPC: 0.397761 instructions: 100000003 cycles: 251406967
LLC TOTAL     ACCESS:     635526  HIT:     466959  MISS:     168567
LLC LOAD      ACCESS:     295072  HIT:     287197  MISS:       7875
LLC RFO       ACCESS:      30362  HIT:      27063  MISS:       3299
LLC PREFETCH  ACCESS:     206811  HIT:      54744  MISS:     152067
LLC WRITEBACK ACCESS:     103281  HIT:      97955  MISS:       5326
