
*** ChampSim Multicore Out-of-Order Simulator ***

Warmup Instructions: 10000000
Simulation Instructions: 100000000
Configuration: 2
Number of CPUs: 1
LLC sets: 2048
LLC ways: 16
Off-chip DRAM Channels: 1 Width: 64-bit Data Rate: 1600 MT/s

CPU 0 runs /datasets/cs240c-wi22-a00-public/data/Assignment2-gz/cactusADM_1039B.trace.gz
CPU 0 L1D next line prefetcher
CPU 0 L2C IP-based stride prefetcher
Heartbeat CPU 0 instructions: 1000000 cycles: 595518 heartbeat IPC: 1.67921 cumulative IPC: 1.67921 (Simulation time: 0 hr 0 min 50 sec) 
Heartbeat CPU 0 instructions: 2000002 cycles: 1190937 heartbeat IPC: 1.67949 cumulative IPC: 1.67935 (Simulation time: 0 hr 1 min 39 sec) 
Heartbeat CPU 0 instructions: 3000003 cycles: 1786622 heartbeat IPC: 1.67874 cumulative IPC: 1.67915 (Simulation time: 0 hr 2 min 30 sec) 
Heartbeat CPU 0 instructions: 4000000 cycles: 2382046 heartbeat IPC: 1.67947 cumulative IPC: 1.67923 (Simulation time: 0 hr 3 min 17 sec) 
Heartbeat CPU 0 instructions: 5000001 cycles: 2977457 heartbeat IPC: 1.67951 cumulative IPC: 1.67929 (Simulation time: 0 hr 4 min 9 sec) 
Heartbeat CPU 0 instructions: 6000002 cycles: 3572930 heartbeat IPC: 1.67934 cumulative IPC: 1.67929 (Simulation time: 0 hr 4 min 55 sec) 
Heartbeat CPU 0 instructions: 7000000 cycles: 4168306 heartbeat IPC: 1.67961 cumulative IPC: 1.67934 (Simulation time: 0 hr 5 min 45 sec) 
Heartbeat CPU 0 instructions: 8000000 cycles: 4763681 heartbeat IPC: 1.67961 cumulative IPC: 1.67937 (Simulation time: 0 hr 6 min 36 sec) 
Heartbeat CPU 0 instructions: 9000002 cycles: 5359336 heartbeat IPC: 1.67883 cumulative IPC: 1.67931 (Simulation time: 0 hr 7 min 28 sec) 
Heartbeat CPU 0 instructions: 10000003 cycles: 5974113 heartbeat IPC: 1.62661 cumulative IPC: 1.67389 (Simulation time: 0 hr 8 min 21 sec) 

Warmup complete CPU 0 instructions: 10000003 cycles: 5974113 (Simulation time: 0 hr 8 min 21 sec) 

Heartbeat CPU 0 instructions: 11000003 cycles: 12126926 heartbeat IPC: 0.162527 cumulative IPC: 0.162527 (Simulation time: 0 hr 9 min 32 sec) 
Heartbeat CPU 0 instructions: 12000000 cycles: 13869364 heartbeat IPC: 0.573907 cumulative IPC: 0.253316 (Simulation time: 0 hr 10 min 25 sec) 
Heartbeat CPU 0 instructions: 13000002 cycles: 15537632 heartbeat IPC: 0.599425 cumulative IPC: 0.313692 (Simulation time: 0 hr 11 min 15 sec) 
Heartbeat CPU 0 instructions: 14000001 cycles: 17245578 heartbeat IPC: 0.585498 cumulative IPC: 0.354878 (Simulation time: 0 hr 12 min 9 sec) 
Heartbeat CPU 0 instructions: 15000002 cycles: 18989310 heartbeat IPC: 0.573483 cumulative IPC: 0.384166 (Simulation time: 0 hr 13 min 5 sec) 
Heartbeat CPU 0 instructions: 16000000 cycles: 20735869 heartbeat IPC: 0.572553 cumulative IPC: 0.406456 (Simulation time: 0 hr 13 min 59 sec) 
Heartbeat CPU 0 instructions: 17000003 cycles: 22459923 heartbeat IPC: 0.58003 cumulative IPC: 0.424608 (Simulation time: 0 hr 14 min 50 sec) 
Heartbeat CPU 0 instructions: 18000002 cycles: 24114250 heartbeat IPC: 0.604475 cumulative IPC: 0.441011 (Simulation time: 0 hr 15 min 45 sec) 
Heartbeat CPU 0 instructions: 19000003 cycles: 25850294 heartbeat IPC: 0.576023 cumulative IPC: 0.452803 (Simulation time: 0 hr 16 min 38 sec) 
Heartbeat CPU 0 instructions: 20000000 cycles: 27593693 heartbeat IPC: 0.57359 cumulative IPC: 0.462544 (Simulation time: 0 hr 17 min 35 sec) 
Heartbeat CPU 0 instructions: 21000002 cycles: 29337109 heartbeat IPC: 0.573588 cumulative IPC: 0.47083 (Simulation time: 0 hr 18 min 31 sec) 
Heartbeat CPU 0 instructions: 22000003 cycles: 31027605 heartbeat IPC: 0.591543 cumulative IPC: 0.478975 (Simulation time: 0 hr 19 min 28 sec) 
Heartbeat CPU 0 instructions: 23000001 cycles: 32712416 heartbeat IPC: 0.593537 cumulative IPC: 0.486194 (Simulation time: 0 hr 20 min 26 sec) 
Heartbeat CPU 0 instructions: 24000000 cycles: 39510291 heartbeat IPC: 0.147105 cumulative IPC: 0.41746 (Simulation time: 0 hr 21 min 34 sec) 
Heartbeat CPU 0 instructions: 25000002 cycles: 41249574 heartbeat IPC: 0.574951 cumulative IPC: 0.425225 (Simulation time: 0 hr 22 min 34 sec) 
Heartbeat CPU 0 instructions: 26000002 cycles: 42975582 heartbeat IPC: 0.579372 cumulative IPC: 0.432415 (Simulation time: 0 hr 23 min 31 sec) 
Heartbeat CPU 0 instructions: 27000002 cycles: 44642298 heartbeat IPC: 0.599982 cumulative IPC: 0.439638 (Simulation time: 0 hr 24 min 29 sec) 
Heartbeat CPU 0 instructions: 28000000 cycles: 46374256 heartbeat IPC: 0.57738 cumulative IPC: 0.445543 (Simulation time: 0 hr 25 min 30 sec) 
Heartbeat CPU 0 instructions: 29000000 cycles: 48115859 heartbeat IPC: 0.574184 cumulative IPC: 0.450859 (Simulation time: 0 hr 26 min 30 sec) 
Heartbeat CPU 0 instructions: 30000003 cycles: 49855499 heartbeat IPC: 0.574833 cumulative IPC: 0.455774 (Simulation time: 0 hr 27 min 37 sec) 
Heartbeat CPU 0 instructions: 31000001 cycles: 51552324 heartbeat IPC: 0.589335 cumulative IPC: 0.460746 (Simulation time: 0 hr 28 min 41 sec) 
Heartbeat CPU 0 instructions: 32000000 cycles: 53228521 heartbeat IPC: 0.596588 cumulative IPC: 0.465565 (Simulation time: 0 hr 29 min 42 sec) 
Heartbeat CPU 0 instructions: 33000001 cycles: 54967422 heartbeat IPC: 0.575076 cumulative IPC: 0.469452 (Simulation time: 0 hr 30 min 50 sec) 
Heartbeat CPU 0 instructions: 34000000 cycles: 56708407 heartbeat IPC: 0.574387 cumulative IPC: 0.473053 (Simulation time: 0 hr 31 min 54 sec) 
Heartbeat CPU 0 instructions: 35000001 cycles: 58445334 heartbeat IPC: 0.57573 cumulative IPC: 0.476452 (Simulation time: 0 hr 33 min 0 sec) 
Heartbeat CPU 0 instructions: 36000000 cycles: 60110470 heartbeat IPC: 0.600551 cumulative IPC: 0.480269 (Simulation time: 0 hr 34 min 5 sec) 
Heartbeat CPU 0 instructions: 37000002 cycles: 66826982 heartbeat IPC: 0.148887 cumulative IPC: 0.443693 (Simulation time: 0 hr 35 min 23 sec) 
Heartbeat CPU 0 instructions: 38000001 cycles: 68568384 heartbeat IPC: 0.574249 cumulative IPC: 0.447325 (Simulation time: 0 hr 36 min 19 sec) 
Heartbeat CPU 0 instructions: 39000002 cycles: 70311550 heartbeat IPC: 0.573669 cumulative IPC: 0.450748 (Simulation time: 0 hr 37 min 19 sec) 
Heartbeat CPU 0 instructions: 40000000 cycles: 72011156 heartbeat IPC: 0.588371 cumulative IPC: 0.45429 (Simulation time: 0 hr 38 min 18 sec) 
Heartbeat CPU 0 instructions: 41000003 cycles: 73683333 heartbeat IPC: 0.598025 cumulative IPC: 0.45784 (Simulation time: 0 hr 39 min 18 sec) 
Heartbeat CPU 0 instructions: 42000000 cycles: 75421008 heartbeat IPC: 0.57548 cumulative IPC: 0.460784 (Simulation time: 0 hr 40 min 16 sec) 
Heartbeat CPU 0 instructions: 43000000 cycles: 77163624 heartbeat IPC: 0.57385 cumulative IPC: 0.463551 (Simulation time: 0 hr 41 min 6 sec) 
Heartbeat CPU 0 instructions: 44000000 cycles: 78902030 heartbeat IPC: 0.57524 cumulative IPC: 0.466214 (Simulation time: 0 hr 41 min 54 sec) 
Heartbeat CPU 0 instructions: 45000000 cycles: 80571087 heartbeat IPC: 0.599141 cumulative IPC: 0.469188 (Simulation time: 0 hr 42 min 42 sec) 
Heartbeat CPU 0 instructions: 46000003 cycles: 82276249 heartbeat IPC: 0.586456 cumulative IPC: 0.471809 (Simulation time: 0 hr 43 min 36 sec) 
Heartbeat CPU 0 instructions: 47000001 cycles: 84018082 heartbeat IPC: 0.574107 cumulative IPC: 0.474092 (Simulation time: 0 hr 44 min 28 sec) 
Heartbeat CPU 0 instructions: 48000000 cycles: 85760082 heartbeat IPC: 0.574052 cumulative IPC: 0.476274 (Simulation time: 0 hr 45 min 21 sec) 
Heartbeat CPU 0 instructions: 49000001 cycles: 87485519 heartbeat IPC: 0.579564 cumulative IPC: 0.478461 (Simulation time: 0 hr 46 min 13 sec) 
Heartbeat CPU 0 instructions: 50000000 cycles: 94242477 heartbeat IPC: 0.147995 cumulative IPC: 0.453163 (Simulation time: 0 hr 47 min 17 sec) 
Heartbeat CPU 0 instructions: 51000003 cycles: 96006988 heartbeat IPC: 0.566731 cumulative IPC: 0.455389 (Simulation time: 0 hr 48 min 6 sec) 
Heartbeat CPU 0 instructions: 52000000 cycles: 97780068 heartbeat IPC: 0.563989 cumulative IPC: 0.457487 (Simulation time: 0 hr 48 min 54 sec) 
Heartbeat CPU 0 instructions: 53000003 cycles: 99552071 heartbeat IPC: 0.564335 cumulative IPC: 0.45951 (Simulation time: 0 hr 49 min 42 sec) 
Heartbeat CPU 0 instructions: 54000002 cycles: 101269034 heartbeat IPC: 0.582423 cumulative IPC: 0.461724 (Simulation time: 0 hr 50 min 35 sec) 
Heartbeat CPU 0 instructions: 55000001 cycles: 102996153 heartbeat IPC: 0.578998 cumulative IPC: 0.463812 (Simulation time: 0 hr 51 min 48 sec) 
Heartbeat CPU 0 instructions: 56000000 cycles: 104766171 heartbeat IPC: 0.564965 cumulative IPC: 0.465624 (Simulation time: 0 hr 52 min 53 sec) 
Heartbeat CPU 0 instructions: 57000000 cycles: 106541520 heartbeat IPC: 0.56327 cumulative IPC: 0.467348 (Simulation time: 0 hr 53 min 55 sec) 
Heartbeat CPU 0 instructions: 58000000 cycles: 108306623 heartbeat IPC: 0.566539 cumulative IPC: 0.469059 (Simulation time: 0 hr 54 min 55 sec) 
Heartbeat CPU 0 instructions: 59000002 cycles: 109994677 heartbeat IPC: 0.592399 cumulative IPC: 0.471061 (Simulation time: 0 hr 55 min 49 sec) 
Heartbeat CPU 0 instructions: 60000000 cycles: 111755021 heartbeat IPC: 0.56807 cumulative IPC: 0.472675 (Simulation time: 0 hr 56 min 46 sec) 
Heartbeat CPU 0 instructions: 61000001 cycles: 113529300 heartbeat IPC: 0.56361 cumulative IPC: 0.474175 (Simulation time: 0 hr 57 min 43 sec) 
Heartbeat CPU 0 instructions: 62000000 cycles: 115302523 heartbeat IPC: 0.563944 cumulative IPC: 0.475631 (Simulation time: 0 hr 58 min 40 sec) 
Heartbeat CPU 0 instructions: 63000001 cycles: 121629484 heartbeat IPC: 0.158054 cumulative IPC: 0.458258 (Simulation time: 0 hr 59 min 48 sec) 
Heartbeat CPU 0 instructions: 64000000 cycles: 123910476 heartbeat IPC: 0.438405 cumulative IPC: 0.457874 (Simulation time: 1 hr 0 min 42 sec) 
Heartbeat CPU 0 instructions: 65000002 cycles: 125681482 heartbeat IPC: 0.564652 cumulative IPC: 0.459454 (Simulation time: 1 hr 1 min 36 sec) 
Heartbeat CPU 0 instructions: 66000001 cycles: 127453472 heartbeat IPC: 0.564337 cumulative IPC: 0.460984 (Simulation time: 1 hr 2 min 30 sec) 
Heartbeat CPU 0 instructions: 67000003 cycles: 129219000 heartbeat IPC: 0.566404 cumulative IPC: 0.462494 (Simulation time: 1 hr 3 min 24 sec) 
Heartbeat CPU 0 instructions: 68000000 cycles: 130944781 heartbeat IPC: 0.579446 cumulative IPC: 0.464109 (Simulation time: 1 hr 4 min 12 sec) 
Heartbeat CPU 0 instructions: 69000003 cycles: 132721032 heartbeat IPC: 0.562985 cumulative IPC: 0.465495 (Simulation time: 1 hr 5 min 4 sec) 
Heartbeat CPU 0 instructions: 70000002 cycles: 134492161 heartbeat IPC: 0.564611 cumulative IPC: 0.466861 (Simulation time: 1 hr 5 min 57 sec) 
Heartbeat CPU 0 instructions: 71000000 cycles: 136263160 heartbeat IPC: 0.564652 cumulative IPC: 0.46819 (Simulation time: 1 hr 6 min 47 sec) 
Heartbeat CPU 0 instructions: 72000000 cycles: 138009833 heartbeat IPC: 0.572517 cumulative IPC: 0.46957 (Simulation time: 1 hr 7 min 36 sec) 
Heartbeat CPU 0 instructions: 73000001 cycles: 139709182 heartbeat IPC: 0.588461 cumulative IPC: 0.471081 (Simulation time: 1 hr 8 min 27 sec) 
Heartbeat CPU 0 instructions: 74000003 cycles: 141475882 heartbeat IPC: 0.566028 cumulative IPC: 0.472319 (Simulation time: 1 hr 9 min 16 sec) 
Heartbeat CPU 0 instructions: 75000002 cycles: 143248277 heartbeat IPC: 0.564208 cumulative IPC: 0.473505 (Simulation time: 1 hr 10 min 6 sec) 
Heartbeat CPU 0 instructions: 76000000 cycles: 148598507 heartbeat IPC: 0.186907 cumulative IPC: 0.462754 (Simulation time: 1 hr 11 min 1 sec) 
Heartbeat CPU 0 instructions: 77000001 cycles: 151792554 heartbeat IPC: 0.313083 cumulative IPC: 0.459475 (Simulation time: 1 hr 11 min 47 sec) 
Heartbeat CPU 0 instructions: 78000000 cycles: 153541718 heartbeat IPC: 0.571701 cumulative IPC: 0.460806 (Simulation time: 1 hr 12 min 29 sec) 
Heartbeat CPU 0 instructions: 79000002 cycles: 155310236 heartbeat IPC: 0.565446 cumulative IPC: 0.462045 (Simulation time: 1 hr 13 min 7 sec) 
Heartbeat CPU 0 instructions: 80000000 cycles: 157080243 heartbeat IPC: 0.564968 cumulative IPC: 0.463251 (Simulation time: 1 hr 13 min 45 sec) 
Heartbeat CPU 0 instructions: 81000002 cycles: 158827682 heartbeat IPC: 0.572267 cumulative IPC: 0.464497 (Simulation time: 1 hr 14 min 26 sec) 
Heartbeat CPU 0 instructions: 82000002 cycles: 160520851 heartbeat IPC: 0.590608 cumulative IPC: 0.465878 (Simulation time: 1 hr 15 min 4 sec) 
Heartbeat CPU 0 instructions: 83000003 cycles: 162285267 heartbeat IPC: 0.56676 cumulative IPC: 0.467017 (Simulation time: 1 hr 15 min 41 sec) 
Heartbeat CPU 0 instructions: 84000000 cycles: 164055170 heartbeat IPC: 0.565001 cumulative IPC: 0.468114 (Simulation time: 1 hr 16 min 18 sec) 
Heartbeat CPU 0 instructions: 85000002 cycles: 165824861 heartbeat IPC: 0.565072 cumulative IPC: 0.469188 (Simulation time: 1 hr 16 min 53 sec) 
Heartbeat CPU 0 instructions: 86000003 cycles: 167539871 heartbeat IPC: 0.583088 cumulative IPC: 0.470397 (Simulation time: 1 hr 17 min 30 sec) 
Heartbeat CPU 0 instructions: 87000000 cycles: 169281308 heartbeat IPC: 0.574237 cumulative IPC: 0.471504 (Simulation time: 1 hr 18 min 5 sec) 
Heartbeat CPU 0 instructions: 88000000 cycles: 171050649 heartbeat IPC: 0.565182 cumulative IPC: 0.472508 (Simulation time: 1 hr 18 min 38 sec) 
Heartbeat CPU 0 instructions: 89000001 cycles: 175432175 heartbeat IPC: 0.228231 cumulative IPC: 0.466192 (Simulation time: 1 hr 19 min 16 sec) 
Heartbeat CPU 0 instructions: 90000002 cycles: 179587547 heartbeat IPC: 0.240653 cumulative IPC: 0.460794 (Simulation time: 1 hr 19 min 52 sec) 
Heartbeat CPU 0 instructions: 91000000 cycles: 181280427 heartbeat IPC: 0.590708 cumulative IPC: 0.462048 (Simulation time: 1 hr 20 min 23 sec) 
Heartbeat CPU 0 instructions: 92000000 cycles: 183043053 heartbeat IPC: 0.567335 cumulative IPC: 0.463096 (Simulation time: 1 hr 20 min 52 sec) 
Heartbeat CPU 0 instructions: 93000001 cycles: 184813212 heartbeat IPC: 0.564922 cumulative IPC: 0.464104 (Simulation time: 1 hr 21 min 19 sec) 
Heartbeat CPU 0 instructions: 94000003 cycles: 186586488 heartbeat IPC: 0.563929 cumulative IPC: 0.465084 (Simulation time: 1 hr 21 min 45 sec) 
Heartbeat CPU 0 instructions: 95000001 cycles: 188305893 heartbeat IPC: 0.581595 cumulative IPC: 0.466183 (Simulation time: 1 hr 22 min 11 sec) 
Heartbeat CPU 0 instructions: 96000000 cycles: 190025008 heartbeat IPC: 0.581694 cumulative IPC: 0.467262 (Simulation time: 1 hr 22 min 34 sec) 
Heartbeat CPU 0 instructions: 97000002 cycles: 191793567 heartbeat IPC: 0.565433 cumulative IPC: 0.468196 (Simulation time: 1 hr 22 min 58 sec) 
Heartbeat CPU 0 instructions: 98000000 cycles: 193565252 heartbeat IPC: 0.564433 cumulative IPC: 0.469105 (Simulation time: 1 hr 23 min 20 sec) 
Heartbeat CPU 0 instructions: 99000002 cycles: 195333159 heartbeat IPC: 0.565642 cumulative IPC: 0.470007 (Simulation time: 1 hr 23 min 41 sec) 
Heartbeat CPU 0 instructions: 100000000 cycles: 197023633 heartbeat IPC: 0.591549 cumulative IPC: 0.471082 (Simulation time: 1 hr 24 min 1 sec) 
Heartbeat CPU 0 instructions: 101000002 cycles: 198778197 heartbeat IPC: 0.569943 cumulative IPC: 0.471982 (Simulation time: 1 hr 24 min 19 sec) 
Heartbeat CPU 0 instructions: 102000000 cycles: 202140820 heartbeat IPC: 0.297386 cumulative IPC: 0.468989 (Simulation time: 1 hr 24 min 36 sec) 
Heartbeat CPU 0 instructions: 103000002 cycles: 207282816 heartbeat IPC: 0.194477 cumulative IPC: 0.461977 (Simulation time: 1 hr 24 min 54 sec) 
Heartbeat CPU 0 instructions: 104000000 cycles: 209007458 heartbeat IPC: 0.579829 cumulative IPC: 0.462978 (Simulation time: 1 hr 25 min 8 sec) 
Heartbeat CPU 0 instructions: 105000002 cycles: 210720621 heartbeat IPC: 0.583717 cumulative IPC: 0.463988 (Simulation time: 1 hr 25 min 22 sec) 
Heartbeat CPU 0 instructions: 106000001 cycles: 212491761 heartbeat IPC: 0.564608 cumulative IPC: 0.464851 (Simulation time: 1 hr 25 min 31 sec) 
Heartbeat CPU 0 instructions: 107000003 cycles: 214261613 heartbeat IPC: 0.56502 cumulative IPC: 0.465702 (Simulation time: 1 hr 25 min 39 sec) 
Heartbeat CPU 0 instructions: 108000000 cycles: 216029115 heartbeat IPC: 0.565769 cumulative IPC: 0.466544 (Simulation time: 1 hr 25 min 46 sec) 
Heartbeat CPU 0 instructions: 109000003 cycles: 217723537 heartbeat IPC: 0.590174 cumulative IPC: 0.467534 (Simulation time: 1 hr 25 min 52 sec) 
Heartbeat CPU 0 instructions: 110000002 cycles: 219472519 heartbeat IPC: 0.571761 cumulative IPC: 0.468388 (Simulation time: 1 hr 25 min 58 sec) 
Finished CPU 0 instructions: 100000003 cycles: 213498407 cummulative IPC: 0.468388 (Simulation time: 1 hr 25 min 58 sec) 

ChampSim completed all CPUs

Region of Interest Statistics

CPU 0 cummulative IPC: 0.468388 instructions: 100000003 cycles: 213498407
LLC TOTAL     ACCESS:    1173943  HIT:     344320  MISS:     829623
LLC LOAD      ACCESS:      30286  HIT:       1888  MISS:      28398
LLC RFO       ACCESS:     265309  HIT:      13634  MISS:     251675
LLC PREFETCH  ACCESS:     611003  HIT:     148704  MISS:     462299
LLC WRITEBACK ACCESS:     267345  HIT:     180094  MISS:      87251
