
*** ChampSim Multicore Out-of-Order Simulator ***

Warmup Instructions: 10000000
Simulation Instructions: 100000000
Configuration: 2
Number of CPUs: 1
LLC sets: 2048
LLC ways: 16
Off-chip DRAM Channels: 1 Width: 64-bit Data Rate: 1600 MT/s

CPU 0 runs /datasets/cs240c-wi22-a00-public/data/Assignment2-gz/lbm_564B.trace.gz
CPU 0 L1D next line prefetcher
CPU 0 L2C IP-based stride prefetcher
Heartbeat CPU 0 instructions: 1000000 cycles: 390168 heartbeat IPC: 2.563 cumulative IPC: 2.563 (Simulation time: 0 hr 0 min 33 sec) 
Heartbeat CPU 0 instructions: 2000003 cycles: 785204 heartbeat IPC: 2.53142 cumulative IPC: 2.54711 (Simulation time: 0 hr 1 min 8 sec) 
Heartbeat CPU 0 instructions: 3000002 cycles: 1175399 heartbeat IPC: 2.56282 cumulative IPC: 2.55233 (Simulation time: 0 hr 1 min 44 sec) 
Heartbeat CPU 0 instructions: 4000000 cycles: 1565583 heartbeat IPC: 2.56289 cumulative IPC: 2.55496 (Simulation time: 0 hr 2 min 18 sec) 
Heartbeat CPU 0 instructions: 5000000 cycles: 1960700 heartbeat IPC: 2.5309 cumulative IPC: 2.55011 (Simulation time: 0 hr 2 min 55 sec) 
Heartbeat CPU 0 instructions: 6000002 cycles: 2350856 heartbeat IPC: 2.56308 cumulative IPC: 2.55226 (Simulation time: 0 hr 3 min 29 sec) 
Heartbeat CPU 0 instructions: 7000001 cycles: 2741117 heartbeat IPC: 2.56239 cumulative IPC: 2.5537 (Simulation time: 0 hr 4 min 2 sec) 
Heartbeat CPU 0 instructions: 8000000 cycles: 3136123 heartbeat IPC: 2.5316 cumulative IPC: 2.55092 (Simulation time: 0 hr 4 min 36 sec) 
Heartbeat CPU 0 instructions: 9000000 cycles: 3526381 heartbeat IPC: 2.56241 cumulative IPC: 2.55219 (Simulation time: 0 hr 5 min 11 sec) 
Heartbeat CPU 0 instructions: 10000002 cycles: 3916530 heartbeat IPC: 2.56313 cumulative IPC: 2.55328 (Simulation time: 0 hr 5 min 44 sec) 

Warmup complete CPU 0 instructions: 10000002 cycles: 3916530 (Simulation time: 0 hr 5 min 44 sec) 

Heartbeat CPU 0 instructions: 11000000 cycles: 5365490 heartbeat IPC: 0.690149 cumulative IPC: 0.690149 (Simulation time: 0 hr 6 min 25 sec) 
Heartbeat CPU 0 instructions: 12000000 cycles: 6738802 heartbeat IPC: 0.728167 cumulative IPC: 0.708648 (Simulation time: 0 hr 7 min 6 sec) 
Heartbeat CPU 0 instructions: 13000001 cycles: 8102808 heartbeat IPC: 0.733135 cumulative IPC: 0.716627 (Simulation time: 0 hr 7 min 49 sec) 
Heartbeat CPU 0 instructions: 14000001 cycles: 9538449 heartbeat IPC: 0.696553 cumulative IPC: 0.711501 (Simulation time: 0 hr 8 min 33 sec) 
Heartbeat CPU 0 instructions: 15000000 cycles: 10921073 heartbeat IPC: 0.723262 cumulative IPC: 0.713822 (Simulation time: 0 hr 9 min 15 sec) 
Heartbeat CPU 0 instructions: 16000000 cycles: 12238240 heartbeat IPC: 0.759205 cumulative IPC: 0.721005 (Simulation time: 0 hr 9 min 56 sec) 
Heartbeat CPU 0 instructions: 17000000 cycles: 13631897 heartbeat IPC: 0.717537 cumulative IPC: 0.720508 (Simulation time: 0 hr 10 min 35 sec) 
Heartbeat CPU 0 instructions: 18000000 cycles: 15039108 heartbeat IPC: 0.710625 cumulative IPC: 0.719258 (Simulation time: 0 hr 11 min 15 sec) 
Heartbeat CPU 0 instructions: 19000003 cycles: 16337806 heartbeat IPC: 0.770004 cumulative IPC: 0.724563 (Simulation time: 0 hr 11 min 53 sec) 
Heartbeat CPU 0 instructions: 20000000 cycles: 17731067 heartbeat IPC: 0.717738 cumulative IPC: 0.723875 (Simulation time: 0 hr 12 min 36 sec) 
Heartbeat CPU 0 instructions: 21000003 cycles: 19116130 heartbeat IPC: 0.721991 cumulative IPC: 0.723703 (Simulation time: 0 hr 13 min 16 sec) 
Heartbeat CPU 0 instructions: 22000003 cycles: 21057594 heartbeat IPC: 0.515075 cumulative IPC: 0.700073 (Simulation time: 0 hr 14 min 6 sec) 
Heartbeat CPU 0 instructions: 23000000 cycles: 23198002 heartbeat IPC: 0.467199 cumulative IPC: 0.674222 (Simulation time: 0 hr 14 min 54 sec) 
Heartbeat CPU 0 instructions: 24000000 cycles: 29940870 heartbeat IPC: 0.148305 cumulative IPC: 0.537958 (Simulation time: 0 hr 16 min 39 sec) 
Heartbeat CPU 0 instructions: 25000003 cycles: 32582241 heartbeat IPC: 0.378592 cumulative IPC: 0.523273 (Simulation time: 0 hr 17 min 41 sec) 
Heartbeat CPU 0 instructions: 26000002 cycles: 34502287 heartbeat IPC: 0.52082 cumulative IPC: 0.523119 (Simulation time: 0 hr 18 min 26 sec) 
Heartbeat CPU 0 instructions: 27000001 cycles: 35971602 heartbeat IPC: 0.680589 cumulative IPC: 0.530337 (Simulation time: 0 hr 19 min 6 sec) 
Heartbeat CPU 0 instructions: 28000000 cycles: 37425534 heartbeat IPC: 0.687789 cumulative IPC: 0.537169 (Simulation time: 0 hr 19 min 43 sec) 
Heartbeat CPU 0 instructions: 29000003 cycles: 38880526 heartbeat IPC: 0.687291 cumulative IPC: 0.543416 (Simulation time: 0 hr 20 min 24 sec) 
Heartbeat CPU 0 instructions: 30000000 cycles: 40282718 heartbeat IPC: 0.713167 cumulative IPC: 0.549961 (Simulation time: 0 hr 21 min 1 sec) 
Heartbeat CPU 0 instructions: 31000000 cycles: 41634918 heartbeat IPC: 0.739536 cumulative IPC: 0.556758 (Simulation time: 0 hr 21 min 39 sec) 
Heartbeat CPU 0 instructions: 32000000 cycles: 43011721 heartbeat IPC: 0.72632 cumulative IPC: 0.562729 (Simulation time: 0 hr 22 min 16 sec) 
Heartbeat CPU 0 instructions: 33000001 cycles: 44515827 heartbeat IPC: 0.664847 cumulative IPC: 0.566512 (Simulation time: 0 hr 22 min 56 sec) 
Heartbeat CPU 0 instructions: 34000001 cycles: 45826968 heartbeat IPC: 0.762694 cumulative IPC: 0.57265 (Simulation time: 0 hr 23 min 36 sec) 
Heartbeat CPU 0 instructions: 35000002 cycles: 47129286 heartbeat IPC: 0.767862 cumulative IPC: 0.578533 (Simulation time: 0 hr 24 min 17 sec) 
Heartbeat CPU 0 instructions: 36000000 cycles: 48505958 heartbeat IPC: 0.726388 cumulative IPC: 0.583098 (Simulation time: 0 hr 25 min 2 sec) 
Heartbeat CPU 0 instructions: 37000000 cycles: 49955855 heartbeat IPC: 0.689704 cumulative IPC: 0.586455 (Simulation time: 0 hr 25 min 45 sec) 
Heartbeat CPU 0 instructions: 38000003 cycles: 51252690 heartbeat IPC: 0.77111 cumulative IPC: 0.591514 (Simulation time: 0 hr 26 min 26 sec) 
Heartbeat CPU 0 instructions: 39000002 cycles: 52598329 heartbeat IPC: 0.743141 cumulative IPC: 0.595705 (Simulation time: 0 hr 27 min 5 sec) 
Heartbeat CPU 0 instructions: 40000000 cycles: 54076520 heartbeat IPC: 0.676501 cumulative IPC: 0.598086 (Simulation time: 0 hr 27 min 50 sec) 
Heartbeat CPU 0 instructions: 41000000 cycles: 55439009 heartbeat IPC: 0.733951 cumulative IPC: 0.601679 (Simulation time: 0 hr 28 min 26 sec) 
Heartbeat CPU 0 instructions: 42000002 cycles: 56750924 heartbeat IPC: 0.762246 cumulative IPC: 0.605666 (Simulation time: 0 hr 29 min 4 sec) 
Heartbeat CPU 0 instructions: 43000001 cycles: 58146262 heartbeat IPC: 0.716672 cumulative IPC: 0.608522 (Simulation time: 0 hr 29 min 47 sec) 
Heartbeat CPU 0 instructions: 44000000 cycles: 59548080 heartbeat IPC: 0.713359 cumulative IPC: 0.611164 (Simulation time: 0 hr 30 min 32 sec) 
Heartbeat CPU 0 instructions: 45000001 cycles: 60874345 heartbeat IPC: 0.753998 cumulative IPC: 0.61449 (Simulation time: 0 hr 31 min 16 sec) 
Heartbeat CPU 0 instructions: 46000002 cycles: 62214214 heartbeat IPC: 0.746342 cumulative IPC: 0.61752 (Simulation time: 0 hr 32 min 2 sec) 
Heartbeat CPU 0 instructions: 47000001 cycles: 63662208 heartbeat IPC: 0.69061 cumulative IPC: 0.619292 (Simulation time: 0 hr 32 min 53 sec) 
Heartbeat CPU 0 instructions: 48000000 cycles: 65003407 heartbeat IPC: 0.745601 cumulative IPC: 0.622065 (Simulation time: 0 hr 33 min 37 sec) 
Heartbeat CPU 0 instructions: 49000001 cycles: 66335221 heartbeat IPC: 0.750856 cumulative IPC: 0.624813 (Simulation time: 0 hr 34 min 21 sec) 
Heartbeat CPU 0 instructions: 50000001 cycles: 67755893 heartbeat IPC: 0.703892 cumulative IPC: 0.626573 (Simulation time: 0 hr 35 min 7 sec) 
Heartbeat CPU 0 instructions: 51000002 cycles: 69156224 heartbeat IPC: 0.714118 cumulative IPC: 0.628452 (Simulation time: 0 hr 35 min 51 sec) 
Heartbeat CPU 0 instructions: 52000000 cycles: 70508774 heartbeat IPC: 0.739343 cumulative IPC: 0.630704 (Simulation time: 0 hr 36 min 34 sec) 
Heartbeat CPU 0 instructions: 53000001 cycles: 71871308 heartbeat IPC: 0.733927 cumulative IPC: 0.632774 (Simulation time: 0 hr 37 min 21 sec) 
Heartbeat CPU 0 instructions: 54000001 cycles: 73304727 heartbeat IPC: 0.697633 cumulative IPC: 0.634114 (Simulation time: 0 hr 38 min 10 sec) 
Heartbeat CPU 0 instructions: 55000003 cycles: 74665922 heartbeat IPC: 0.73465 cumulative IPC: 0.636048 (Simulation time: 0 hr 38 min 59 sec) 
Heartbeat CPU 0 instructions: 56000000 cycles: 76004817 heartbeat IPC: 0.746882 cumulative IPC: 0.638106 (Simulation time: 0 hr 39 min 43 sec) 
Heartbeat CPU 0 instructions: 57000001 cycles: 77417028 heartbeat IPC: 0.70811 cumulative IPC: 0.639451 (Simulation time: 0 hr 40 min 32 sec) 
Heartbeat CPU 0 instructions: 58000002 cycles: 78838663 heartbeat IPC: 0.703416 cumulative IPC: 0.640665 (Simulation time: 0 hr 41 min 18 sec) 
Heartbeat CPU 0 instructions: 59000001 cycles: 80214769 heartbeat IPC: 0.726687 cumulative IPC: 0.642217 (Simulation time: 0 hr 42 min 3 sec) 
Heartbeat CPU 0 instructions: 60000000 cycles: 81610864 heartbeat IPC: 0.716283 cumulative IPC: 0.643548 (Simulation time: 0 hr 42 min 49 sec) 
Heartbeat CPU 0 instructions: 61000003 cycles: 83050793 heartbeat IPC: 0.694481 cumulative IPC: 0.644474 (Simulation time: 0 hr 43 min 37 sec) 
Heartbeat CPU 0 instructions: 62000003 cycles: 84432622 heartbeat IPC: 0.723679 cumulative IPC: 0.645834 (Simulation time: 0 hr 44 min 29 sec) 
Heartbeat CPU 0 instructions: 63000000 cycles: 85850096 heartbeat IPC: 0.705478 cumulative IPC: 0.646865 (Simulation time: 0 hr 45 min 16 sec) 
Heartbeat CPU 0 instructions: 64000000 cycles: 87253887 heartbeat IPC: 0.712357 cumulative IPC: 0.647969 (Simulation time: 0 hr 46 min 1 sec) 
Heartbeat CPU 0 instructions: 65000003 cycles: 88630166 heartbeat IPC: 0.726599 cumulative IPC: 0.649246 (Simulation time: 0 hr 46 min 50 sec) 
Heartbeat CPU 0 instructions: 66000001 cycles: 90009735 heartbeat IPC: 0.724863 cumulative IPC: 0.650458 (Simulation time: 0 hr 47 min 38 sec) 
Heartbeat CPU 0 instructions: 67000001 cycles: 91473260 heartbeat IPC: 0.683282 cumulative IPC: 0.651006 (Simulation time: 0 hr 48 min 26 sec) 
Heartbeat CPU 0 instructions: 68000000 cycles: 92966681 heartbeat IPC: 0.669603 cumulative IPC: 0.651318 (Simulation time: 0 hr 49 min 17 sec) 
Heartbeat CPU 0 instructions: 69000003 cycles: 94298855 heartbeat IPC: 0.750655 cumulative IPC: 0.652782 (Simulation time: 0 hr 50 min 1 sec) 
Heartbeat CPU 0 instructions: 70000003 cycles: 95704050 heartbeat IPC: 0.711645 cumulative IPC: 0.653684 (Simulation time: 0 hr 50 min 48 sec) 
Heartbeat CPU 0 instructions: 71000000 cycles: 97231076 heartbeat IPC: 0.654866 cumulative IPC: 0.653703 (Simulation time: 0 hr 51 min 35 sec) 
Heartbeat CPU 0 instructions: 72000000 cycles: 98585513 heartbeat IPC: 0.738314 cumulative IPC: 0.654914 (Simulation time: 0 hr 52 min 19 sec) 
Heartbeat CPU 0 instructions: 73000003 cycles: 99971990 heartbeat IPC: 0.721255 cumulative IPC: 0.655871 (Simulation time: 0 hr 53 min 6 sec) 
Heartbeat CPU 0 instructions: 74000002 cycles: 101510476 heartbeat IPC: 0.649989 cumulative IPC: 0.655778 (Simulation time: 0 hr 53 min 47 sec) 
Heartbeat CPU 0 instructions: 75000002 cycles: 102871831 heartbeat IPC: 0.734562 cumulative IPC: 0.656862 (Simulation time: 0 hr 54 min 28 sec) 
Heartbeat CPU 0 instructions: 76000000 cycles: 104281190 heartbeat IPC: 0.709541 cumulative IPC: 0.657602 (Simulation time: 0 hr 55 min 11 sec) 
Heartbeat CPU 0 instructions: 77000001 cycles: 105844763 heartbeat IPC: 0.639561 cumulative IPC: 0.657325 (Simulation time: 0 hr 55 min 51 sec) 
Heartbeat CPU 0 instructions: 78000002 cycles: 107230016 heartbeat IPC: 0.721891 cumulative IPC: 0.658191 (Simulation time: 0 hr 56 min 28 sec) 
Heartbeat CPU 0 instructions: 79000000 cycles: 108642092 heartbeat IPC: 0.708176 cumulative IPC: 0.658865 (Simulation time: 0 hr 57 min 11 sec) 
Heartbeat CPU 0 instructions: 80000000 cycles: 110209918 heartbeat IPC: 0.637826 cumulative IPC: 0.658555 (Simulation time: 0 hr 57 min 55 sec) 
Heartbeat CPU 0 instructions: 81000003 cycles: 111587808 heartbeat IPC: 0.725749 cumulative IPC: 0.659414 (Simulation time: 0 hr 58 min 36 sec) 
Heartbeat CPU 0 instructions: 82000001 cycles: 113044133 heartbeat IPC: 0.686659 cumulative IPC: 0.659778 (Simulation time: 0 hr 59 min 20 sec) 
Heartbeat CPU 0 instructions: 83000001 cycles: 114573542 heartbeat IPC: 0.653847 cumulative IPC: 0.659696 (Simulation time: 1 hr 0 min 4 sec) 
Heartbeat CPU 0 instructions: 84000000 cycles: 116040917 heartbeat IPC: 0.681488 cumulative IPC: 0.659981 (Simulation time: 1 hr 0 min 45 sec) 
Heartbeat CPU 0 instructions: 85000002 cycles: 117411252 heartbeat IPC: 0.72975 cumulative IPC: 0.660824 (Simulation time: 1 hr 1 min 24 sec) 
Heartbeat CPU 0 instructions: 86000001 cycles: 119008759 heartbeat IPC: 0.625975 cumulative IPC: 0.66034 (Simulation time: 1 hr 2 min 7 sec) 
Heartbeat CPU 0 instructions: 87000003 cycles: 120477482 heartbeat IPC: 0.680865 cumulative IPC: 0.660599 (Simulation time: 1 hr 2 min 55 sec) 
Heartbeat CPU 0 instructions: 88000000 cycles: 121806805 heartbeat IPC: 0.75226 cumulative IPC: 0.661632 (Simulation time: 1 hr 3 min 39 sec) 
Heartbeat CPU 0 instructions: 89000003 cycles: 123372406 heartbeat IPC: 0.638734 cumulative IPC: 0.661332 (Simulation time: 1 hr 4 min 24 sec) 
Heartbeat CPU 0 instructions: 90000001 cycles: 124878932 heartbeat IPC: 0.663777 cumulative IPC: 0.661363 (Simulation time: 1 hr 5 min 6 sec) 
Heartbeat CPU 0 instructions: 91000000 cycles: 126195997 heartbeat IPC: 0.759263 cumulative IPC: 0.662417 (Simulation time: 1 hr 5 min 43 sec) 
Heartbeat CPU 0 instructions: 92000000 cycles: 127800666 heartbeat IPC: 0.623181 cumulative IPC: 0.661909 (Simulation time: 1 hr 6 min 24 sec) 
Heartbeat CPU 0 instructions: 93000003 cycles: 129334939 heartbeat IPC: 0.651776 cumulative IPC: 0.661785 (Simulation time: 1 hr 7 min 4 sec) 
Heartbeat CPU 0 instructions: 94000002 cycles: 130667441 heartbeat IPC: 0.750467 cumulative IPC: 0.662717 (Simulation time: 1 hr 7 min 39 sec) 
Heartbeat CPU 0 instructions: 95000001 cycles: 132200286 heartbeat IPC: 0.652381 cumulative IPC: 0.662594 (Simulation time: 1 hr 8 min 15 sec) 
Heartbeat CPU 0 instructions: 96000000 cycles: 133741653 heartbeat IPC: 0.648774 cumulative IPC: 0.66243 (Simulation time: 1 hr 8 min 50 sec) 
Heartbeat CPU 0 instructions: 97000002 cycles: 135112765 heartbeat IPC: 0.729337 cumulative IPC: 0.663129 (Simulation time: 1 hr 9 min 22 sec) 
Heartbeat CPU 0 instructions: 98000000 cycles: 136720222 heartbeat IPC: 0.622099 cumulative IPC: 0.662632 (Simulation time: 1 hr 9 min 54 sec) 
Heartbeat CPU 0 instructions: 99000001 cycles: 138220494 heartbeat IPC: 0.666546 cumulative IPC: 0.662676 (Simulation time: 1 hr 10 min 25 sec) 
Heartbeat CPU 0 instructions: 100000000 cycles: 139554166 heartbeat IPC: 0.749809 cumulative IPC: 0.663533 (Simulation time: 1 hr 10 min 54 sec) 
Heartbeat CPU 0 instructions: 101000002 cycles: 141172850 heartbeat IPC: 0.617787 cumulative IPC: 0.662993 (Simulation time: 1 hr 11 min 24 sec) 
Heartbeat CPU 0 instructions: 102000002 cycles: 142694177 heartbeat IPC: 0.657321 cumulative IPC: 0.662931 (Simulation time: 1 hr 11 min 53 sec) 
Heartbeat CPU 0 instructions: 103000001 cycles: 144042512 heartbeat IPC: 0.741655 cumulative IPC: 0.663688 (Simulation time: 1 hr 12 min 22 sec) 
Heartbeat CPU 0 instructions: 104000000 cycles: 145667403 heartbeat IPC: 0.615425 cumulative IPC: 0.663135 (Simulation time: 1 hr 12 min 52 sec) 
Heartbeat CPU 0 instructions: 105000001 cycles: 147207860 heartbeat IPC: 0.649159 cumulative IPC: 0.662985 (Simulation time: 1 hr 13 min 18 sec) 
Heartbeat CPU 0 instructions: 106000001 cycles: 148575227 heartbeat IPC: 0.731333 cumulative IPC: 0.663631 (Simulation time: 1 hr 13 min 43 sec) 
Heartbeat CPU 0 instructions: 107000001 cycles: 150203889 heartbeat IPC: 0.614001 cumulative IPC: 0.663078 (Simulation time: 1 hr 14 min 11 sec) 
Heartbeat CPU 0 instructions: 108000000 cycles: 151735224 heartbeat IPC: 0.653024 cumulative IPC: 0.662974 (Simulation time: 1 hr 14 min 38 sec) 
Heartbeat CPU 0 instructions: 109000003 cycles: 153096903 heartbeat IPC: 0.73439 cumulative IPC: 0.663626 (Simulation time: 1 hr 15 min 4 sec) 
Heartbeat CPU 0 instructions: 110000001 cycles: 154775669 heartbeat IPC: 0.595674 cumulative IPC: 0.66287 (Simulation time: 1 hr 15 min 30 sec) 
Finished CPU 0 instructions: 100000003 cycles: 150859140 cummulative IPC: 0.66287 (Simulation time: 1 hr 15 min 30 sec) 

ChampSim completed all CPUs

Region of Interest Statistics

CPU 0 cummulative IPC: 0.66287 instructions: 100000003 cycles: 150859140
LLC TOTAL     ACCESS:    6070127  HIT:    1692811  MISS:    4377316
LLC LOAD      ACCESS:     445860  HIT:         95  MISS:     445765
LLC RFO       ACCESS:    2591767  HIT:     544591  MISS:    2047176
LLC PREFETCH  ACCESS:     440505  HIT:          1  MISS:     440504
LLC WRITEBACK ACCESS:    2591995  HIT:    1148124  MISS:    1443871
