
*** ChampSim Multicore Out-of-Order Simulator ***

Warmup Instructions: 10000000
Simulation Instructions: 100000000
Configuration: 2
Number of CPUs: 1
LLC sets: 2048
LLC ways: 16
Off-chip DRAM Channels: 1 Width: 64-bit Data Rate: 1600 MT/s

CPU 0 runs /datasets/cs240c-wi22-a00-public/data/Assignment2-gz/soplex_217B.trace.gz
CPU 0 L1D next line prefetcher
CPU 0 L2C IP-based stride prefetcher
Initialize SRRIP state
Heartbeat CPU 0 instructions: 1000002 cycles: 441470 heartbeat IPC: 2.26516 cumulative IPC: 2.26516 (Simulation time: 0 hr 0 min 45 sec) 
Heartbeat CPU 0 instructions: 2000003 cycles: 800554 heartbeat IPC: 2.78487 cumulative IPC: 2.49827 (Simulation time: 0 hr 1 min 20 sec) 
Heartbeat CPU 0 instructions: 3000002 cycles: 1245565 heartbeat IPC: 2.24713 cumulative IPC: 2.40855 (Simulation time: 0 hr 2 min 2 sec) 
Heartbeat CPU 0 instructions: 4000000 cycles: 1673322 heartbeat IPC: 2.33777 cumulative IPC: 2.39045 (Simulation time: 0 hr 2 min 47 sec) 
Heartbeat CPU 0 instructions: 5000001 cycles: 2057370 heartbeat IPC: 2.60384 cumulative IPC: 2.43029 (Simulation time: 0 hr 3 min 19 sec) 
Heartbeat CPU 0 instructions: 6000000 cycles: 2431827 heartbeat IPC: 2.67053 cumulative IPC: 2.46728 (Simulation time: 0 hr 3 min 51 sec) 
Heartbeat CPU 0 instructions: 7000003 cycles: 2961572 heartbeat IPC: 1.88771 cumulative IPC: 2.36361 (Simulation time: 0 hr 4 min 24 sec) 
Heartbeat CPU 0 instructions: 8000000 cycles: 3409290 heartbeat IPC: 2.23354 cumulative IPC: 2.34653 (Simulation time: 0 hr 5 min 7 sec) 
Heartbeat CPU 0 instructions: 9000001 cycles: 3833708 heartbeat IPC: 2.35617 cumulative IPC: 2.3476 (Simulation time: 0 hr 5 min 47 sec) 
Heartbeat CPU 0 instructions: 10000000 cycles: 4246038 heartbeat IPC: 2.42524 cumulative IPC: 2.35514 (Simulation time: 0 hr 6 min 23 sec) 

Warmup complete CPU 0 instructions: 10000004 cycles: 4246039 (Simulation time: 0 hr 6 min 23 sec) 

Heartbeat CPU 0 instructions: 11000002 cycles: 8024402 heartbeat IPC: 0.264665 cumulative IPC: 0.264664 (Simulation time: 0 hr 7 min 22 sec) 
Heartbeat CPU 0 instructions: 12000000 cycles: 10566436 heartbeat IPC: 0.393385 cumulative IPC: 0.316435 (Simulation time: 0 hr 8 min 4 sec) 
Heartbeat CPU 0 instructions: 13000000 cycles: 11866300 heartbeat IPC: 0.769311 cumulative IPC: 0.393687 (Simulation time: 0 hr 8 min 34 sec) 
Heartbeat CPU 0 instructions: 14000000 cycles: 14551815 heartbeat IPC: 0.372368 cumulative IPC: 0.388131 (Simulation time: 0 hr 9 min 14 sec) 
Heartbeat CPU 0 instructions: 15000000 cycles: 17255545 heartbeat IPC: 0.369859 cumulative IPC: 0.384334 (Simulation time: 0 hr 10 min 1 sec) 
Heartbeat CPU 0 instructions: 16000000 cycles: 20893965 heartbeat IPC: 0.274845 cumulative IPC: 0.360405 (Simulation time: 0 hr 11 min 0 sec) 
Heartbeat CPU 0 instructions: 17000002 cycles: 23091094 heartbeat IPC: 0.45514 cumulative IPC: 0.37145 (Simulation time: 0 hr 11 min 43 sec) 
Heartbeat CPU 0 instructions: 18000002 cycles: 25626097 heartbeat IPC: 0.394477 cumulative IPC: 0.37418 (Simulation time: 0 hr 12 min 30 sec) 
Heartbeat CPU 0 instructions: 19000000 cycles: 29035991 heartbeat IPC: 0.293264 cumulative IPC: 0.36305 (Simulation time: 0 hr 13 min 18 sec) 
Heartbeat CPU 0 instructions: 20000000 cycles: 30352021 heartbeat IPC: 0.759861 cumulative IPC: 0.383054 (Simulation time: 0 hr 13 min 45 sec) 
Heartbeat CPU 0 instructions: 21000000 cycles: 31731826 heartbeat IPC: 0.72474 cumulative IPC: 0.400207 (Simulation time: 0 hr 14 min 14 sec) 
Heartbeat CPU 0 instructions: 22000001 cycles: 34940447 heartbeat IPC: 0.311661 cumulative IPC: 0.390951 (Simulation time: 0 hr 15 min 1 sec) 
Heartbeat CPU 0 instructions: 23000003 cycles: 38221148 heartbeat IPC: 0.304814 cumulative IPC: 0.382633 (Simulation time: 0 hr 15 min 50 sec) 
Heartbeat CPU 0 instructions: 24000000 cycles: 41626534 heartbeat IPC: 0.293652 cumulative IPC: 0.374527 (Simulation time: 0 hr 16 min 42 sec) 
Heartbeat CPU 0 instructions: 25000001 cycles: 43049139 heartbeat IPC: 0.702937 cumulative IPC: 0.386567 (Simulation time: 0 hr 17 min 20 sec) 
Heartbeat CPU 0 instructions: 26000003 cycles: 46812040 heartbeat IPC: 0.265753 cumulative IPC: 0.375887 (Simulation time: 0 hr 18 min 16 sec) 
Heartbeat CPU 0 instructions: 27000002 cycles: 49153734 heartbeat IPC: 0.427041 cumulative IPC: 0.378554 (Simulation time: 0 hr 18 min 55 sec) 
Heartbeat CPU 0 instructions: 28000000 cycles: 50427238 heartbeat IPC: 0.785233 cumulative IPC: 0.389769 (Simulation time: 0 hr 19 min 23 sec) 
Heartbeat CPU 0 instructions: 29000002 cycles: 53090665 heartbeat IPC: 0.375457 cumulative IPC: 0.388988 (Simulation time: 0 hr 20 min 1 sec) 
Heartbeat CPU 0 instructions: 30000002 cycles: 55857647 heartbeat IPC: 0.361405 cumulative IPC: 0.38751 (Simulation time: 0 hr 20 min 50 sec) 
Heartbeat CPU 0 instructions: 31000000 cycles: 59040391 heartbeat IPC: 0.314194 cumulative IPC: 0.383251 (Simulation time: 0 hr 21 min 38 sec) 
Heartbeat CPU 0 instructions: 32000000 cycles: 60769851 heartbeat IPC: 0.578215 cumulative IPC: 0.389216 (Simulation time: 0 hr 22 min 18 sec) 
Heartbeat CPU 0 instructions: 33000001 cycles: 64223838 heartbeat IPC: 0.289521 cumulative IPC: 0.383475 (Simulation time: 0 hr 23 min 13 sec) 
Heartbeat CPU 0 instructions: 34000000 cycles: 67021258 heartbeat IPC: 0.357472 cumulative IPC: 0.382316 (Simulation time: 0 hr 23 min 55 sec) 
Heartbeat CPU 0 instructions: 35000002 cycles: 68338048 heartbeat IPC: 0.759424 cumulative IPC: 0.390064 (Simulation time: 0 hr 24 min 22 sec) 
Heartbeat CPU 0 instructions: 36000000 cycles: 70553861 heartbeat IPC: 0.451301 cumulative IPC: 0.392111 (Simulation time: 0 hr 24 min 58 sec) 
Heartbeat CPU 0 instructions: 37000002 cycles: 73217816 heartbeat IPC: 0.375382 cumulative IPC: 0.391464 (Simulation time: 0 hr 25 min 43 sec) 
Heartbeat CPU 0 instructions: 38000000 cycles: 76600252 heartbeat IPC: 0.295644 cumulative IPC: 0.386985 (Simulation time: 0 hr 26 min 35 sec) 
Heartbeat CPU 0 instructions: 39000001 cycles: 78678041 heartbeat IPC: 0.481281 cumulative IPC: 0.389617 (Simulation time: 0 hr 27 min 15 sec) 
Heartbeat CPU 0 instructions: 40000000 cycles: 81817847 heartbeat IPC: 0.318491 cumulative IPC: 0.386738 (Simulation time: 0 hr 28 min 6 sec) 
Heartbeat CPU 0 instructions: 41000000 cycles: 84835621 heartbeat IPC: 0.33137 cumulative IPC: 0.384665 (Simulation time: 0 hr 28 min 51 sec) 
Heartbeat CPU 0 instructions: 42000002 cycles: 86152119 heartbeat IPC: 0.759592 cumulative IPC: 0.390691 (Simulation time: 0 hr 29 min 19 sec) 
Heartbeat CPU 0 instructions: 43000001 cycles: 87920412 heartbeat IPC: 0.565517 cumulative IPC: 0.394386 (Simulation time: 0 hr 29 min 52 sec) 
Heartbeat CPU 0 instructions: 44000000 cycles: 90748677 heartbeat IPC: 0.353573 cumulative IPC: 0.393052 (Simulation time: 0 hr 30 min 38 sec) 
Heartbeat CPU 0 instructions: 45000003 cycles: 94234264 heartbeat IPC: 0.286897 cumulative IPC: 0.38894 (Simulation time: 0 hr 31 min 29 sec) 
Heartbeat CPU 0 instructions: 46000000 cycles: 97150610 heartbeat IPC: 0.342894 cumulative IPC: 0.387494 (Simulation time: 0 hr 32 min 18 sec) 
Heartbeat CPU 0 instructions: 47000001 cycles: 98770504 heartbeat IPC: 0.617325 cumulative IPC: 0.391433 (Simulation time: 0 hr 32 min 58 sec) 
Heartbeat CPU 0 instructions: 48000000 cycles: 102322500 heartbeat IPC: 0.281532 cumulative IPC: 0.387453 (Simulation time: 0 hr 33 min 51 sec) 
Heartbeat CPU 0 instructions: 49000000 cycles: 104876496 heartbeat IPC: 0.391543 cumulative IPC: 0.387557 (Simulation time: 0 hr 34 min 28 sec) 
Heartbeat CPU 0 instructions: 50000001 cycles: 106170005 heartbeat IPC: 0.773092 cumulative IPC: 0.392449 (Simulation time: 0 hr 34 min 56 sec) 
Heartbeat CPU 0 instructions: 51000000 cycles: 108670701 heartbeat IPC: 0.399888 cumulative IPC: 0.392628 (Simulation time: 0 hr 35 min 33 sec) 
Heartbeat CPU 0 instructions: 52000000 cycles: 111384343 heartbeat IPC: 0.368508 cumulative IPC: 0.392017 (Simulation time: 0 hr 36 min 20 sec) 
Heartbeat CPU 0 instructions: 53000000 cycles: 114585251 heartbeat IPC: 0.312411 cumulative IPC: 0.389707 (Simulation time: 0 hr 37 min 13 sec) 
Heartbeat CPU 0 instructions: 54000000 cycles: 116473315 heartbeat IPC: 0.529643 cumulative IPC: 0.392062 (Simulation time: 0 hr 37 min 52 sec) 
Heartbeat CPU 0 instructions: 55000000 cycles: 119748723 heartbeat IPC: 0.305305 cumulative IPC: 0.389601 (Simulation time: 0 hr 38 min 42 sec) 
Heartbeat CPU 0 instructions: 56000000 cycles: 122551651 heartbeat IPC: 0.35677 cumulative IPC: 0.388823 (Simulation time: 0 hr 39 min 25 sec) 
Heartbeat CPU 0 instructions: 57000003 cycles: 123855235 heartbeat IPC: 0.767118 cumulative IPC: 0.392946 (Simulation time: 0 hr 39 min 51 sec) 
Heartbeat CPU 0 instructions: 58000000 cycles: 126002711 heartbeat IPC: 0.465662 cumulative IPC: 0.394229 (Simulation time: 0 hr 40 min 27 sec) 
Heartbeat CPU 0 instructions: 59000000 cycles: 128643150 heartbeat IPC: 0.378725 cumulative IPC: 0.3939 (Simulation time: 0 hr 41 min 12 sec) 
Heartbeat CPU 0 instructions: 60000000 cycles: 131960474 heartbeat IPC: 0.301448 cumulative IPC: 0.391498 (Simulation time: 0 hr 42 min 6 sec) 
Heartbeat CPU 0 instructions: 61000000 cycles: 134191337 heartbeat IPC: 0.448257 cumulative IPC: 0.392473 (Simulation time: 0 hr 42 min 47 sec) 
Heartbeat CPU 0 instructions: 62000000 cycles: 136948055 heartbeat IPC: 0.36275 cumulative IPC: 0.391855 (Simulation time: 0 hr 43 min 34 sec) 
Heartbeat CPU 0 instructions: 63000001 cycles: 140288985 heartbeat IPC: 0.299318 cumulative IPC: 0.389583 (Simulation time: 0 hr 44 min 22 sec) 
Heartbeat CPU 0 instructions: 64000000 cycles: 141608566 heartbeat IPC: 0.757816 cumulative IPC: 0.39312 (Simulation time: 0 hr 44 min 50 sec) 
Heartbeat CPU 0 instructions: 65000001 cycles: 143065401 heartbeat IPC: 0.68642 cumulative IPC: 0.396198 (Simulation time: 0 hr 45 min 24 sec) 
Heartbeat CPU 0 instructions: 66000002 cycles: 146198618 heartbeat IPC: 0.319161 cumulative IPC: 0.394498 (Simulation time: 0 hr 46 min 8 sec) 
Heartbeat CPU 0 instructions: 67000000 cycles: 149399401 heartbeat IPC: 0.312423 cumulative IPC: 0.392688 (Simulation time: 0 hr 47 min 0 sec) 
Heartbeat CPU 0 instructions: 68000000 cycles: 155354751 heartbeat IPC: 0.167916 cumulative IPC: 0.38383 (Simulation time: 0 hr 47 min 56 sec) 
Heartbeat CPU 0 instructions: 69000001 cycles: 159577915 heartbeat IPC: 0.23679 cumulative IPC: 0.379832 (Simulation time: 0 hr 48 min 48 sec) 
Heartbeat CPU 0 instructions: 70000000 cycles: 163497992 heartbeat IPC: 0.255097 cumulative IPC: 0.376761 (Simulation time: 0 hr 49 min 46 sec) 
Heartbeat CPU 0 instructions: 71000002 cycles: 167877196 heartbeat IPC: 0.228352 cumulative IPC: 0.37279 (Simulation time: 0 hr 50 min 40 sec) 
Heartbeat CPU 0 instructions: 72000000 cycles: 171259934 heartbeat IPC: 0.295618 cumulative IPC: 0.371227 (Simulation time: 0 hr 51 min 28 sec) 
Heartbeat CPU 0 instructions: 73000000 cycles: 174561007 heartbeat IPC: 0.302932 cumulative IPC: 0.369903 (Simulation time: 0 hr 52 min 15 sec) 
Heartbeat CPU 0 instructions: 74000000 cycles: 178224592 heartbeat IPC: 0.272957 cumulative IPC: 0.367861 (Simulation time: 0 hr 52 min 58 sec) 
Heartbeat CPU 0 instructions: 75000002 cycles: 181872420 heartbeat IPC: 0.274136 cumulative IPC: 0.365937 (Simulation time: 0 hr 53 min 50 sec) 
Heartbeat CPU 0 instructions: 76000000 cycles: 184409573 heartbeat IPC: 0.394142 cumulative IPC: 0.366334 (Simulation time: 0 hr 54 min 32 sec) 
Heartbeat CPU 0 instructions: 77000000 cycles: 187896959 heartbeat IPC: 0.286748 cumulative IPC: 0.364823 (Simulation time: 0 hr 55 min 18 sec) 
Heartbeat CPU 0 instructions: 78000002 cycles: 190061616 heartbeat IPC: 0.461968 cumulative IPC: 0.365954 (Simulation time: 0 hr 56 min 1 sec) 
Heartbeat CPU 0 instructions: 79000003 cycles: 191970125 heartbeat IPC: 0.52397 cumulative IPC: 0.367561 (Simulation time: 0 hr 56 min 45 sec) 
Heartbeat CPU 0 instructions: 80000000 cycles: 193180366 heartbeat IPC: 0.826279 cumulative IPC: 0.370499 (Simulation time: 0 hr 57 min 18 sec) 
Heartbeat CPU 0 instructions: 81000003 cycles: 195430556 heartbeat IPC: 0.444408 cumulative IPC: 0.371369 (Simulation time: 0 hr 58 min 2 sec) 
Heartbeat CPU 0 instructions: 82000001 cycles: 198244857 heartbeat IPC: 0.355327 cumulative IPC: 0.371136 (Simulation time: 0 hr 58 min 48 sec) 
Heartbeat CPU 0 instructions: 83000002 cycles: 200687601 heartbeat IPC: 0.409376 cumulative IPC: 0.371612 (Simulation time: 0 hr 59 min 31 sec) 
Heartbeat CPU 0 instructions: 84000000 cycles: 202929885 heartbeat IPC: 0.445973 cumulative IPC: 0.372451 (Simulation time: 1 hr 0 min 10 sec) 
Heartbeat CPU 0 instructions: 85000000 cycles: 204497753 heartbeat IPC: 0.637809 cumulative IPC: 0.374529 (Simulation time: 1 hr 0 min 50 sec) 
Heartbeat CPU 0 instructions: 86000000 cycles: 208145731 heartbeat IPC: 0.274124 cumulative IPC: 0.372732 (Simulation time: 1 hr 1 min 39 sec) 
Heartbeat CPU 0 instructions: 87000000 cycles: 210696526 heartbeat IPC: 0.392035 cumulative IPC: 0.372971 (Simulation time: 1 hr 2 min 14 sec) 
Heartbeat CPU 0 instructions: 88000000 cycles: 211989579 heartbeat IPC: 0.773364 cumulative IPC: 0.375463 (Simulation time: 1 hr 2 min 37 sec) 
Heartbeat CPU 0 instructions: 89000003 cycles: 214565855 heartbeat IPC: 0.388158 cumulative IPC: 0.375618 (Simulation time: 1 hr 3 min 11 sec) 
Heartbeat CPU 0 instructions: 90000002 cycles: 217318732 heartbeat IPC: 0.363256 cumulative IPC: 0.375459 (Simulation time: 1 hr 3 min 51 sec) 
Heartbeat CPU 0 instructions: 91000001 cycles: 220567629 heartbeat IPC: 0.307796 cumulative IPC: 0.374442 (Simulation time: 1 hr 4 min 32 sec) 
Heartbeat CPU 0 instructions: 92000000 cycles: 222413722 heartbeat IPC: 0.541684 cumulative IPC: 0.375858 (Simulation time: 1 hr 5 min 3 sec) 
Heartbeat CPU 0 instructions: 93000000 cycles: 225827965 heartbeat IPC: 0.292891 cumulative IPC: 0.374579 (Simulation time: 1 hr 5 min 40 sec) 
Heartbeat CPU 0 instructions: 94000001 cycles: 228604641 heartbeat IPC: 0.360143 cumulative IPC: 0.374401 (Simulation time: 1 hr 6 min 9 sec) 
Heartbeat CPU 0 instructions: 95000003 cycles: 229910516 heartbeat IPC: 0.765772 cumulative IPC: 0.376665 (Simulation time: 1 hr 6 min 27 sec) 
Heartbeat CPU 0 instructions: 96000000 cycles: 232095493 heartbeat IPC: 0.457669 cumulative IPC: 0.377442 (Simulation time: 1 hr 6 min 50 sec) 
Heartbeat CPU 0 instructions: 97000002 cycles: 234589536 heartbeat IPC: 0.400956 cumulative IPC: 0.377697 (Simulation time: 1 hr 7 min 17 sec) 
Heartbeat CPU 0 instructions: 98000003 cycles: 238522903 heartbeat IPC: 0.254235 cumulative IPC: 0.375624 (Simulation time: 1 hr 7 min 54 sec) 
Heartbeat CPU 0 instructions: 99000000 cycles: 241383281 heartbeat IPC: 0.349603 cumulative IPC: 0.37531 (Simulation time: 1 hr 8 min 22 sec) 
Heartbeat CPU 0 instructions: 100000000 cycles: 243277962 heartbeat IPC: 0.527793 cumulative IPC: 0.376519 (Simulation time: 1 hr 8 min 49 sec) 
Heartbeat CPU 0 instructions: 101000001 cycles: 247121275 heartbeat IPC: 0.260192 cumulative IPC: 0.374678 (Simulation time: 1 hr 9 min 22 sec) 
Heartbeat CPU 0 instructions: 102000000 cycles: 248728539 heartbeat IPC: 0.622175 cumulative IPC: 0.376305 (Simulation time: 1 hr 9 min 39 sec) 
Heartbeat CPU 0 instructions: 103000001 cycles: 249976915 heartbeat IPC: 0.801041 cumulative IPC: 0.378463 (Simulation time: 1 hr 9 min 55 sec) 
Heartbeat CPU 0 instructions: 104000000 cycles: 253249455 heartbeat IPC: 0.305573 cumulative IPC: 0.377505 (Simulation time: 1 hr 10 min 22 sec) 
Heartbeat CPU 0 instructions: 105000003 cycles: 256291049 heartbeat IPC: 0.328776 cumulative IPC: 0.376917 (Simulation time: 1 hr 10 min 51 sec) 
Heartbeat CPU 0 instructions: 106000002 cycles: 258989477 heartbeat IPC: 0.370586 cumulative IPC: 0.37685 (Simulation time: 1 hr 11 min 14 sec) 
Heartbeat CPU 0 instructions: 107000000 cycles: 260725968 heartbeat IPC: 0.575873 cumulative IPC: 0.378197 (Simulation time: 1 hr 11 min 37 sec) 
Heartbeat CPU 0 instructions: 108000000 cycles: 264526929 heartbeat IPC: 0.263091 cumulative IPC: 0.376516 (Simulation time: 1 hr 12 min 4 sec) 
Heartbeat CPU 0 instructions: 109000000 cycles: 266425395 heartbeat IPC: 0.526741 cumulative IPC: 0.377604 (Simulation time: 1 hr 12 min 21 sec) 
Heartbeat CPU 0 instructions: 110000002 cycles: 267675121 heartbeat IPC: 0.800177 cumulative IPC: 0.379609 (Simulation time: 1 hr 12 min 35 sec) 
Finished CPU 0 instructions: 100000000 cycles: 263429086 cummulative IPC: 0.379609 (Simulation time: 1 hr 12 min 35 sec) 

ChampSim completed all CPUs

Region of Interest Statistics

CPU 0 cummulative IPC: 0.379609 instructions: 100000000 cycles: 263429086
LLC TOTAL     ACCESS:    8713495  HIT:    4837901  MISS:    3875594
LLC LOAD      ACCESS:    2236849  HIT:    1101538  MISS:    1135311
LLC RFO       ACCESS:     764923  HIT:     292600  MISS:     472323
LLC PREFETCH  ACCESS:    3551254  HIT:    1636010  MISS:    1915244
LLC WRITEBACK ACCESS:    2160469  HIT:    1807753  MISS:     352716
Insertion Distribution: 
	LOAD 375543 0 149270 713814 
	RFO 200673 0 121109 202524 
	PREF 0 177722 353884 1621250 
	WRITEBACK 0 0 0 404918 
Total Prefetch Downgrades: 181224
