
*** ChampSim Multicore Out-of-Order Simulator ***

Warmup Instructions: 10000000
Simulation Instructions: 100000000
Configuration: 2
Number of CPUs: 1
LLC sets: 2048
LLC ways: 16
Off-chip DRAM Channels: 1 Width: 64-bit Data Rate: 1600 MT/s

CPU 0 runs /datasets/cs240c-wi22-a00-public/data/Assignment2-gz/mcf_158B.trace.gz
CPU 0 L1D next line prefetcher
CPU 0 L2C IP-based stride prefetcher
Initialize SRRIP state
Heartbeat CPU 0 instructions: 1000002 cycles: 512164 heartbeat IPC: 1.9525 cumulative IPC: 1.9525 (Simulation time: 0 hr 0 min 52 sec) 
Heartbeat CPU 0 instructions: 2000002 cycles: 1022904 heartbeat IPC: 1.95794 cumulative IPC: 1.95522 (Simulation time: 0 hr 1 min 44 sec) 
Heartbeat CPU 0 instructions: 3000000 cycles: 1535045 heartbeat IPC: 1.95258 cumulative IPC: 1.95434 (Simulation time: 0 hr 2 min 36 sec) 
Heartbeat CPU 0 instructions: 4000000 cycles: 2046041 heartbeat IPC: 1.95696 cumulative IPC: 1.955 (Simulation time: 0 hr 3 min 28 sec) 
Heartbeat CPU 0 instructions: 5000002 cycles: 2553635 heartbeat IPC: 1.97008 cumulative IPC: 1.95799 (Simulation time: 0 hr 4 min 19 sec) 
Heartbeat CPU 0 instructions: 6000001 cycles: 3066272 heartbeat IPC: 1.9507 cumulative IPC: 1.95677 (Simulation time: 0 hr 5 min 8 sec) 
Heartbeat CPU 0 instructions: 7000001 cycles: 3575061 heartbeat IPC: 1.96545 cumulative IPC: 1.95801 (Simulation time: 0 hr 6 min 0 sec) 
Heartbeat CPU 0 instructions: 8000000 cycles: 4085931 heartbeat IPC: 1.95744 cumulative IPC: 1.95794 (Simulation time: 0 hr 6 min 49 sec) 
Heartbeat CPU 0 instructions: 9000000 cycles: 4604121 heartbeat IPC: 1.92979 cumulative IPC: 1.95477 (Simulation time: 0 hr 7 min 39 sec) 
Heartbeat CPU 0 instructions: 10000001 cycles: 5135959 heartbeat IPC: 1.88027 cumulative IPC: 1.94706 (Simulation time: 0 hr 8 min 26 sec) 

Warmup complete CPU 0 instructions: 10000001 cycles: 5135959 (Simulation time: 0 hr 8 min 26 sec) 

Heartbeat CPU 0 instructions: 11000001 cycles: 13616198 heartbeat IPC: 0.117921 cumulative IPC: 0.117921 (Simulation time: 0 hr 9 min 41 sec) 
Heartbeat CPU 0 instructions: 12000000 cycles: 21625662 heartbeat IPC: 0.124852 cumulative IPC: 0.121288 (Simulation time: 0 hr 10 min 46 sec) 
Heartbeat CPU 0 instructions: 13000001 cycles: 29736079 heartbeat IPC: 0.123298 cumulative IPC: 0.121951 (Simulation time: 0 hr 11 min 52 sec) 
Heartbeat CPU 0 instructions: 14000001 cycles: 36974690 heartbeat IPC: 0.138148 cumulative IPC: 0.125633 (Simulation time: 0 hr 12 min 57 sec) 
Heartbeat CPU 0 instructions: 15000000 cycles: 44893281 heartbeat IPC: 0.126285 cumulative IPC: 0.125763 (Simulation time: 0 hr 14 min 0 sec) 
Heartbeat CPU 0 instructions: 16000000 cycles: 60178471 heartbeat IPC: 0.0654228 cumulative IPC: 0.109007 (Simulation time: 0 hr 15 min 25 sec) 
Heartbeat CPU 0 instructions: 17000001 cycles: 70232090 heartbeat IPC: 0.0994668 cumulative IPC: 0.107533 (Simulation time: 0 hr 16 min 34 sec) 
Heartbeat CPU 0 instructions: 18000000 cycles: 78124886 heartbeat IPC: 0.126698 cumulative IPC: 0.109606 (Simulation time: 0 hr 17 min 36 sec) 
Heartbeat CPU 0 instructions: 19000001 cycles: 86689251 heartbeat IPC: 0.116763 cumulative IPC: 0.110357 (Simulation time: 0 hr 18 min 39 sec) 
Heartbeat CPU 0 instructions: 20000000 cycles: 94878570 heartbeat IPC: 0.12211 cumulative IPC: 0.11143 (Simulation time: 0 hr 19 min 43 sec) 
Heartbeat CPU 0 instructions: 21000000 cycles: 102819946 heartbeat IPC: 0.125923 cumulative IPC: 0.112608 (Simulation time: 0 hr 20 min 45 sec) 
Heartbeat CPU 0 instructions: 22000002 cycles: 111090745 heartbeat IPC: 0.120908 cumulative IPC: 0.113256 (Simulation time: 0 hr 21 min 52 sec) 
Heartbeat CPU 0 instructions: 23000002 cycles: 121086434 heartbeat IPC: 0.100043 cumulative IPC: 0.112117 (Simulation time: 0 hr 23 min 3 sec) 
Heartbeat CPU 0 instructions: 24000000 cycles: 136232606 heartbeat IPC: 0.0660231 cumulative IPC: 0.106791 (Simulation time: 0 hr 24 min 32 sec) 
Heartbeat CPU 0 instructions: 25000000 cycles: 144183903 heartbeat IPC: 0.125766 cumulative IPC: 0.107876 (Simulation time: 0 hr 25 min 33 sec) 
Heartbeat CPU 0 instructions: 26000000 cycles: 150754439 heartbeat IPC: 0.152195 cumulative IPC: 0.109876 (Simulation time: 0 hr 26 min 30 sec) 
Heartbeat CPU 0 instructions: 27000002 cycles: 157484507 heartbeat IPC: 0.148587 cumulative IPC: 0.111586 (Simulation time: 0 hr 27 min 27 sec) 
Heartbeat CPU 0 instructions: 28000000 cycles: 172384446 heartbeat IPC: 0.0671142 cumulative IPC: 0.107624 (Simulation time: 0 hr 28 min 51 sec) 
Heartbeat CPU 0 instructions: 29000003 cycles: 180946010 heartbeat IPC: 0.116801 cumulative IPC: 0.108071 (Simulation time: 0 hr 29 min 55 sec) 
Heartbeat CPU 0 instructions: 30000003 cycles: 187032574 heartbeat IPC: 0.164296 cumulative IPC: 0.109953 (Simulation time: 0 hr 30 min 50 sec) 
Heartbeat CPU 0 instructions: 31000003 cycles: 194609767 heartbeat IPC: 0.131975 cumulative IPC: 0.110833 (Simulation time: 0 hr 31 min 49 sec) 
Heartbeat CPU 0 instructions: 32000000 cycles: 209680168 heartbeat IPC: 0.066355 cumulative IPC: 0.107556 (Simulation time: 0 hr 33 min 15 sec) 
Heartbeat CPU 0 instructions: 33000000 cycles: 216508397 heartbeat IPC: 0.146451 cumulative IPC: 0.108813 (Simulation time: 0 hr 34 min 16 sec) 
Heartbeat CPU 0 instructions: 34000000 cycles: 223509678 heartbeat IPC: 0.142831 cumulative IPC: 0.109903 (Simulation time: 0 hr 35 min 16 sec) 
Heartbeat CPU 0 instructions: 35000001 cycles: 231169439 heartbeat IPC: 0.130553 cumulative IPC: 0.110603 (Simulation time: 0 hr 36 min 17 sec) 
Heartbeat CPU 0 instructions: 36000000 cycles: 247089309 heartbeat IPC: 0.0628145 cumulative IPC: 0.107459 (Simulation time: 0 hr 37 min 49 sec) 
Heartbeat CPU 0 instructions: 37000001 cycles: 254878043 heartbeat IPC: 0.128391 cumulative IPC: 0.108112 (Simulation time: 0 hr 38 min 48 sec) 
Heartbeat CPU 0 instructions: 38000000 cycles: 262120800 heartbeat IPC: 0.138069 cumulative IPC: 0.108956 (Simulation time: 0 hr 39 min 46 sec) 
Heartbeat CPU 0 instructions: 39000000 cycles: 268404223 heartbeat IPC: 0.159149 cumulative IPC: 0.110154 (Simulation time: 0 hr 40 min 44 sec) 
Heartbeat CPU 0 instructions: 40000000 cycles: 282838548 heartbeat IPC: 0.0692793 cumulative IPC: 0.108029 (Simulation time: 0 hr 42 min 7 sec) 
Heartbeat CPU 0 instructions: 41000003 cycles: 291356837 heartbeat IPC: 0.117395 cumulative IPC: 0.108308 (Simulation time: 0 hr 43 min 12 sec) 
Heartbeat CPU 0 instructions: 42000000 cycles: 297652774 heartbeat IPC: 0.158832 cumulative IPC: 0.109395 (Simulation time: 0 hr 44 min 7 sec) 
Heartbeat CPU 0 instructions: 43000001 cycles: 307922274 heartbeat IPC: 0.0973758 cumulative IPC: 0.108988 (Simulation time: 0 hr 45 min 13 sec) 
Heartbeat CPU 0 instructions: 44000000 cycles: 320203572 heartbeat IPC: 0.0814245 cumulative IPC: 0.107913 (Simulation time: 0 hr 46 min 28 sec) 
Heartbeat CPU 0 instructions: 45000000 cycles: 325752940 heartbeat IPC: 0.180201 cumulative IPC: 0.109165 (Simulation time: 0 hr 47 min 28 sec) 
Heartbeat CPU 0 instructions: 46000002 cycles: 335558543 heartbeat IPC: 0.101983 cumulative IPC: 0.108951 (Simulation time: 0 hr 48 min 40 sec) 
Heartbeat CPU 0 instructions: 47000002 cycles: 348103833 heartbeat IPC: 0.0797112 cumulative IPC: 0.107882 (Simulation time: 0 hr 50 min 0 sec) 
Heartbeat CPU 0 instructions: 48000000 cycles: 353890617 heartbeat IPC: 0.172807 cumulative IPC: 0.108959 (Simulation time: 0 hr 50 min 58 sec) 
Heartbeat CPU 0 instructions: 49000003 cycles: 363488043 heartbeat IPC: 0.104195 cumulative IPC: 0.108832 (Simulation time: 0 hr 52 min 10 sec) 
Heartbeat CPU 0 instructions: 50000000 cycles: 376087353 heartbeat IPC: 0.0793692 cumulative IPC: 0.107831 (Simulation time: 0 hr 53 min 35 sec) 
Heartbeat CPU 0 instructions: 51000000 cycles: 381697711 heartbeat IPC: 0.178242 cumulative IPC: 0.10888 (Simulation time: 0 hr 54 min 31 sec) 
Heartbeat CPU 0 instructions: 52000000 cycles: 390505838 heartbeat IPC: 0.113532 cumulative IPC: 0.108986 (Simulation time: 0 hr 55 min 36 sec) 
Heartbeat CPU 0 instructions: 53000000 cycles: 404092314 heartbeat IPC: 0.0736026 cumulative IPC: 0.107781 (Simulation time: 0 hr 56 min 58 sec) 
Heartbeat CPU 0 instructions: 54000000 cycles: 409903121 heartbeat IPC: 0.172093 cumulative IPC: 0.108704 (Simulation time: 0 hr 57 min 54 sec) 
Heartbeat CPU 0 instructions: 55000000 cycles: 417203551 heartbeat IPC: 0.136978 cumulative IPC: 0.109205 (Simulation time: 0 hr 58 min 52 sec) 
Heartbeat CPU 0 instructions: 56000000 cycles: 432115951 heartbeat IPC: 0.0670583 cumulative IPC: 0.107733 (Simulation time: 1 hr 0 min 19 sec) 
Heartbeat CPU 0 instructions: 57000001 cycles: 437917002 heartbeat IPC: 0.172383 cumulative IPC: 0.1086 (Simulation time: 1 hr 1 min 15 sec) 
Heartbeat CPU 0 instructions: 58000001 cycles: 443470121 heartbeat IPC: 0.180079 cumulative IPC: 0.109505 (Simulation time: 1 hr 2 min 11 sec) 
Heartbeat CPU 0 instructions: 59000000 cycles: 459301362 heartbeat IPC: 0.0631662 cumulative IPC: 0.10789 (Simulation time: 1 hr 3 min 35 sec) 
Heartbeat CPU 0 instructions: 60000000 cycles: 465687238 heartbeat IPC: 0.156596 cumulative IPC: 0.108566 (Simulation time: 1 hr 4 min 24 sec) 
Heartbeat CPU 0 instructions: 61000000 cycles: 471959742 heartbeat IPC: 0.159426 cumulative IPC: 0.109249 (Simulation time: 1 hr 5 min 9 sec) 
Heartbeat CPU 0 instructions: 62000001 cycles: 484125432 heartbeat IPC: 0.0821985 cumulative IPC: 0.108562 (Simulation time: 1 hr 6 min 7 sec) 
Heartbeat CPU 0 instructions: 63000001 cycles: 494162434 heartbeat IPC: 0.0996313 cumulative IPC: 0.108379 (Simulation time: 1 hr 6 min 54 sec) 
Heartbeat CPU 0 instructions: 64000000 cycles: 499718537 heartbeat IPC: 0.179982 cumulative IPC: 0.109183 (Simulation time: 1 hr 7 min 32 sec) 
Heartbeat CPU 0 instructions: 65000000 cycles: 506481603 heartbeat IPC: 0.147862 cumulative IPC: 0.109705 (Simulation time: 1 hr 8 min 10 sec) 
Heartbeat CPU 0 instructions: 66000000 cycles: 521638931 heartbeat IPC: 0.0659747 cumulative IPC: 0.108421 (Simulation time: 1 hr 9 min 6 sec) 
Heartbeat CPU 0 instructions: 67000002 cycles: 527335590 heartbeat IPC: 0.175542 cumulative IPC: 0.109154 (Simulation time: 1 hr 9 min 42 sec) 
Heartbeat CPU 0 instructions: 68000000 cycles: 532683487 heartbeat IPC: 0.186989 cumulative IPC: 0.109943 (Simulation time: 1 hr 10 min 15 sec) 
Heartbeat CPU 0 instructions: 69000000 cycles: 545650191 heartbeat IPC: 0.0771206 cumulative IPC: 0.109155 (Simulation time: 1 hr 11 min 3 sec) 
Heartbeat CPU 0 instructions: 70000000 cycles: 554565478 heartbeat IPC: 0.112167 cumulative IPC: 0.109204 (Simulation time: 1 hr 11 min 44 sec) 
Heartbeat CPU 0 instructions: 71000002 cycles: 559964456 heartbeat IPC: 0.185221 cumulative IPC: 0.109944 (Simulation time: 1 hr 12 min 15 sec) 
Heartbeat CPU 0 instructions: 72000000 cycles: 567306804 heartbeat IPC: 0.136196 cumulative IPC: 0.110287 (Simulation time: 1 hr 12 min 46 sec) 
Heartbeat CPU 0 instructions: 73000000 cycles: 581834092 heartbeat IPC: 0.068836 cumulative IPC: 0.109243 (Simulation time: 1 hr 13 min 26 sec) 
Heartbeat CPU 0 instructions: 74000000 cycles: 587637789 heartbeat IPC: 0.172304 cumulative IPC: 0.109871 (Simulation time: 1 hr 13 min 48 sec) 
Heartbeat CPU 0 instructions: 75000001 cycles: 593358454 heartbeat IPC: 0.174805 cumulative IPC: 0.110502 (Simulation time: 1 hr 14 min 7 sec) 
Heartbeat CPU 0 instructions: 76000000 cycles: 605448019 heartbeat IPC: 0.0827159 cumulative IPC: 0.109943 (Simulation time: 1 hr 14 min 31 sec) 
Heartbeat CPU 0 instructions: 77000000 cycles: 615993625 heartbeat IPC: 0.0948262 cumulative IPC: 0.109682 (Simulation time: 1 hr 14 min 53 sec) 
Heartbeat CPU 0 instructions: 78000000 cycles: 622238654 heartbeat IPC: 0.160127 cumulative IPC: 0.110192 (Simulation time: 1 hr 15 min 8 sec) 
Heartbeat CPU 0 instructions: 79000001 cycles: 628909756 heartbeat IPC: 0.1499 cumulative IPC: 0.110617 (Simulation time: 1 hr 15 min 22 sec) 
Heartbeat CPU 0 instructions: 80000000 cycles: 644391065 heartbeat IPC: 0.064594 cumulative IPC: 0.109502 (Simulation time: 1 hr 15 min 43 sec) 
Heartbeat CPU 0 instructions: 81000001 cycles: 651148845 heartbeat IPC: 0.147978 cumulative IPC: 0.109905 (Simulation time: 1 hr 15 min 56 sec) 
Heartbeat CPU 0 instructions: 82000001 cycles: 657358926 heartbeat IPC: 0.161028 cumulative IPC: 0.110392 (Simulation time: 1 hr 16 min 8 sec) 
Heartbeat CPU 0 instructions: 83000001 cycles: 669722777 heartbeat IPC: 0.0808809 cumulative IPC: 0.109843 (Simulation time: 1 hr 16 min 23 sec) 
Heartbeat CPU 0 instructions: 84000000 cycles: 680454740 heartbeat IPC: 0.0931795 cumulative IPC: 0.109578 (Simulation time: 1 hr 16 min 36 sec) 
Heartbeat CPU 0 instructions: 85000000 cycles: 686238426 heartbeat IPC: 0.1729 cumulative IPC: 0.110116 (Simulation time: 1 hr 16 min 46 sec) 
Heartbeat CPU 0 instructions: 86000002 cycles: 693467912 heartbeat IPC: 0.138323 cumulative IPC: 0.110412 (Simulation time: 1 hr 16 min 56 sec) 
Heartbeat CPU 0 instructions: 87000000 cycles: 708609927 heartbeat IPC: 0.0660413 cumulative IPC: 0.109457 (Simulation time: 1 hr 17 min 8 sec) 
Heartbeat CPU 0 instructions: 88000000 cycles: 714974681 heartbeat IPC: 0.157115 cumulative IPC: 0.109884 (Simulation time: 1 hr 17 min 17 sec) 
Heartbeat CPU 0 instructions: 89000000 cycles: 721501366 heartbeat IPC: 0.153217 cumulative IPC: 0.110279 (Simulation time: 1 hr 17 min 26 sec) 
Heartbeat CPU 0 instructions: 90000002 cycles: 735250367 heartbeat IPC: 0.0727327 cumulative IPC: 0.109572 (Simulation time: 1 hr 17 min 36 sec) 
Heartbeat CPU 0 instructions: 91000000 cycles: 744154554 heartbeat IPC: 0.112306 cumulative IPC: 0.109605 (Simulation time: 1 hr 17 min 44 sec) 
Heartbeat CPU 0 instructions: 92000000 cycles: 750098483 heartbeat IPC: 0.168239 cumulative IPC: 0.110073 (Simulation time: 1 hr 17 min 51 sec) 
Heartbeat CPU 0 instructions: 93000003 cycles: 760794329 heartbeat IPC: 0.0934945 cumulative IPC: 0.109838 (Simulation time: 1 hr 17 min 58 sec) 
Heartbeat CPU 0 instructions: 94000000 cycles: 772841362 heartbeat IPC: 0.0830077 cumulative IPC: 0.109417 (Simulation time: 1 hr 18 min 7 sec) 
Heartbeat CPU 0 instructions: 95000000 cycles: 779011636 heartbeat IPC: 0.162067 cumulative IPC: 0.109837 (Simulation time: 1 hr 18 min 13 sec) 
Heartbeat CPU 0 instructions: 96000000 cycles: 786083376 heartbeat IPC: 0.141408 cumulative IPC: 0.110123 (Simulation time: 1 hr 18 min 19 sec) 
Heartbeat CPU 0 instructions: 97000003 cycles: 802054546 heartbeat IPC: 0.062613 cumulative IPC: 0.109171 (Simulation time: 1 hr 18 min 28 sec) 
Heartbeat CPU 0 instructions: 98000002 cycles: 808690150 heartbeat IPC: 0.150702 cumulative IPC: 0.109513 (Simulation time: 1 hr 18 min 35 sec) 
Heartbeat CPU 0 instructions: 99000000 cycles: 815024541 heartbeat IPC: 0.157868 cumulative IPC: 0.109892 (Simulation time: 1 hr 18 min 41 sec) 
Heartbeat CPU 0 instructions: 100000000 cycles: 828577218 heartbeat IPC: 0.0737862 cumulative IPC: 0.109297 (Simulation time: 1 hr 18 min 49 sec) 
Heartbeat CPU 0 instructions: 101000000 cycles: 838567086 heartbeat IPC: 0.100101 cumulative IPC: 0.109187 (Simulation time: 1 hr 18 min 57 sec) 
Heartbeat CPU 0 instructions: 102000000 cycles: 845216818 heartbeat IPC: 0.150382 cumulative IPC: 0.109513 (Simulation time: 1 hr 19 min 3 sec) 
Heartbeat CPU 0 instructions: 103000001 cycles: 851395473 heartbeat IPC: 0.161848 cumulative IPC: 0.109895 (Simulation time: 1 hr 19 min 9 sec) 
Heartbeat CPU 0 instructions: 104000000 cycles: 867493067 heartbeat IPC: 0.062121 cumulative IPC: 0.109004 (Simulation time: 1 hr 19 min 19 sec) 
Heartbeat CPU 0 instructions: 105000000 cycles: 874985938 heartbeat IPC: 0.13346 cumulative IPC: 0.109214 (Simulation time: 1 hr 19 min 26 sec) 
Heartbeat CPU 0 instructions: 106000000 cycles: 881618874 heartbeat IPC: 0.150763 cumulative IPC: 0.109529 (Simulation time: 1 hr 19 min 31 sec) 
Heartbeat CPU 0 instructions: 107000000 cycles: 891215479 heartbeat IPC: 0.104204 cumulative IPC: 0.109471 (Simulation time: 1 hr 19 min 39 sec) 
Heartbeat CPU 0 instructions: 108000000 cycles: 905010985 heartbeat IPC: 0.0724874 cumulative IPC: 0.108904 (Simulation time: 1 hr 19 min 48 sec) 
Heartbeat CPU 0 instructions: 109000000 cycles: 911588727 heartbeat IPC: 0.152028 cumulative IPC: 0.109217 (Simulation time: 1 hr 19 min 54 sec) 
Heartbeat CPU 0 instructions: 110000000 cycles: 918623060 heartbeat IPC: 0.14216 cumulative IPC: 0.109471 (Simulation time: 1 hr 20 min 1 sec) 
Finished CPU 0 instructions: 100000002 cycles: 913487103 cummulative IPC: 0.109471 (Simulation time: 1 hr 20 min 1 sec) 

ChampSim completed all CPUs

Region of Interest Statistics

CPU 0 cummulative IPC: 0.109471 instructions: 100000002 cycles: 913487103
LLC TOTAL     ACCESS:   21078336  HIT:    9739059  MISS:   11339277
LLC LOAD      ACCESS:    9505605  HIT:    5900037  MISS:    3605568
LLC RFO       ACCESS:     164364  HIT:      54327  MISS:     110037
LLC PREFETCH  ACCESS:    9645416  HIT:    2294901  MISS:    7350515
LLC WRITEBACK ACCESS:    1762951  HIT:    1489794  MISS:     273157
Insertion Distribution: 
	LOAD 897021 0 615118 2327918 
	RFO 49658 0 33881 30139 
	PREF 0 1742096 1820799 4954393 
	WRITEBACK 0 0 0 298615 
Total Prefetch Downgrades: 1656823
