
*** ChampSim Multicore Out-of-Order Simulator ***

Warmup Instructions: 10000000
Simulation Instructions: 100000000
Configuration: 2
Number of CPUs: 1
LLC sets: 2048
LLC ways: 16
Off-chip DRAM Channels: 1 Width: 64-bit Data Rate: 1600 MT/s

CPU 0 runs /datasets/cs240c-wi22-a00-public/data/Assignment2-gz/leslie3d_1186B.trace.gz
CPU 0 L1D next line prefetcher
CPU 0 L2C IP-based stride prefetcher
Initialize SRRIP state
Heartbeat CPU 0 instructions: 1000002 cycles: 564509 heartbeat IPC: 1.77145 cumulative IPC: 1.77145 (Simulation time: 0 hr 0 min 45 sec) 
Heartbeat CPU 0 instructions: 2000000 cycles: 1215814 heartbeat IPC: 1.53538 cumulative IPC: 1.64499 (Simulation time: 0 hr 1 min 32 sec) 
Heartbeat CPU 0 instructions: 3000000 cycles: 1867530 heartbeat IPC: 1.53441 cumulative IPC: 1.6064 (Simulation time: 0 hr 2 min 18 sec) 
Heartbeat CPU 0 instructions: 4000000 cycles: 2473057 heartbeat IPC: 1.65145 cumulative IPC: 1.61743 (Simulation time: 0 hr 3 min 2 sec) 
Heartbeat CPU 0 instructions: 5000000 cycles: 3083368 heartbeat IPC: 1.63851 cumulative IPC: 1.6216 (Simulation time: 0 hr 3 min 48 sec) 
Heartbeat CPU 0 instructions: 6000000 cycles: 3735078 heartbeat IPC: 1.53442 cumulative IPC: 1.60639 (Simulation time: 0 hr 4 min 34 sec) 
Heartbeat CPU 0 instructions: 7000001 cycles: 4386323 heartbeat IPC: 1.53552 cumulative IPC: 1.59587 (Simulation time: 0 hr 5 min 21 sec) 
Heartbeat CPU 0 instructions: 8000000 cycles: 4950913 heartbeat IPC: 1.7712 cumulative IPC: 1.61586 (Simulation time: 0 hr 6 min 6 sec) 
Heartbeat CPU 0 instructions: 9000003 cycles: 5602206 heartbeat IPC: 1.53541 cumulative IPC: 1.60651 (Simulation time: 0 hr 6 min 53 sec) 
Heartbeat CPU 0 instructions: 10000001 cycles: 6253368 heartbeat IPC: 1.53571 cumulative IPC: 1.59914 (Simulation time: 0 hr 7 min 37 sec) 

Warmup complete CPU 0 instructions: 10000001 cycles: 6253368 (Simulation time: 0 hr 7 min 37 sec) 

Heartbeat CPU 0 instructions: 11000001 cycles: 7717276 heartbeat IPC: 0.683103 cumulative IPC: 0.683103 (Simulation time: 0 hr 8 min 22 sec) 
Heartbeat CPU 0 instructions: 12000000 cycles: 8958381 heartbeat IPC: 0.805733 cumulative IPC: 0.739368 (Simulation time: 0 hr 9 min 12 sec) 
Heartbeat CPU 0 instructions: 13000000 cycles: 10149236 heartbeat IPC: 0.839733 cumulative IPC: 0.770046 (Simulation time: 0 hr 9 min 59 sec) 
Heartbeat CPU 0 instructions: 14000000 cycles: 11379589 heartbeat IPC: 0.812775 cumulative IPC: 0.780302 (Simulation time: 0 hr 10 min 43 sec) 
Heartbeat CPU 0 instructions: 15000002 cycles: 12814262 heartbeat IPC: 0.697024 cumulative IPC: 0.762091 (Simulation time: 0 hr 11 min 28 sec) 
Heartbeat CPU 0 instructions: 16000000 cycles: 13998286 heartbeat IPC: 0.844576 cumulative IPC: 0.774701 (Simulation time: 0 hr 12 min 15 sec) 
Heartbeat CPU 0 instructions: 17000000 cycles: 15183123 heartbeat IPC: 0.843998 cumulative IPC: 0.783896 (Simulation time: 0 hr 13 min 2 sec) 
Heartbeat CPU 0 instructions: 18000001 cycles: 16623376 heartbeat IPC: 0.694323 cumulative IPC: 0.771456 (Simulation time: 0 hr 13 min 45 sec) 
Heartbeat CPU 0 instructions: 19000003 cycles: 17851795 heartbeat IPC: 0.814056 cumulative IPC: 0.775967 (Simulation time: 0 hr 14 min 30 sec) 
Heartbeat CPU 0 instructions: 20000000 cycles: 19058180 heartbeat IPC: 0.82892 cumulative IPC: 0.780956 (Simulation time: 0 hr 15 min 14 sec) 
Heartbeat CPU 0 instructions: 21000003 cycles: 20360843 heartbeat IPC: 0.767661 cumulative IPC: 0.779729 (Simulation time: 0 hr 16 min 0 sec) 
Heartbeat CPU 0 instructions: 22000003 cycles: 21693353 heartbeat IPC: 0.750463 cumulative IPC: 0.777203 (Simulation time: 0 hr 16 min 45 sec) 
Heartbeat CPU 0 instructions: 23000002 cycles: 22886728 heartbeat IPC: 0.837959 cumulative IPC: 0.781562 (Simulation time: 0 hr 17 min 30 sec) 
Heartbeat CPU 0 instructions: 24000000 cycles: 24065807 heartbeat IPC: 0.848118 cumulative IPC: 0.785968 (Simulation time: 0 hr 18 min 15 sec) 
Heartbeat CPU 0 instructions: 25000000 cycles: 25494498 heartbeat IPC: 0.699941 cumulative IPC: 0.77958 (Simulation time: 0 hr 18 min 58 sec) 
Heartbeat CPU 0 instructions: 26000000 cycles: 26694738 heartbeat IPC: 0.833167 cumulative IPC: 0.782726 (Simulation time: 0 hr 19 min 45 sec) 
Heartbeat CPU 0 instructions: 27000000 cycles: 27885717 heartbeat IPC: 0.839645 cumulative IPC: 0.78586 (Simulation time: 0 hr 20 min 30 sec) 
Heartbeat CPU 0 instructions: 28000000 cycles: 29283660 heartbeat IPC: 0.715337 cumulative IPC: 0.781579 (Simulation time: 0 hr 21 min 12 sec) 
Heartbeat CPU 0 instructions: 29000002 cycles: 30498037 heartbeat IPC: 0.823469 cumulative IPC: 0.783677 (Simulation time: 0 hr 21 min 57 sec) 
Heartbeat CPU 0 instructions: 30000002 cycles: 31688761 heartbeat IPC: 0.839825 cumulative IPC: 0.786306 (Simulation time: 0 hr 22 min 41 sec) 
Heartbeat CPU 0 instructions: 31000002 cycles: 32901300 heartbeat IPC: 0.824716 cumulative IPC: 0.788054 (Simulation time: 0 hr 23 min 25 sec) 
Heartbeat CPU 0 instructions: 32000000 cycles: 34296877 heartbeat IPC: 0.716548 cumulative IPC: 0.784495 (Simulation time: 0 hr 24 min 10 sec) 
Heartbeat CPU 0 instructions: 33000000 cycles: 35482266 heartbeat IPC: 0.843605 cumulative IPC: 0.786892 (Simulation time: 0 hr 24 min 54 sec) 
Heartbeat CPU 0 instructions: 34000000 cycles: 36673964 heartbeat IPC: 0.839139 cumulative IPC: 0.788939 (Simulation time: 0 hr 25 min 40 sec) 
Heartbeat CPU 0 instructions: 35000000 cycles: 38093065 heartbeat IPC: 0.704672 cumulative IPC: 0.785183 (Simulation time: 0 hr 26 min 23 sec) 
Heartbeat CPU 0 instructions: 36000000 cycles: 39310702 heartbeat IPC: 0.821263 cumulative IPC: 0.786512 (Simulation time: 0 hr 27 min 9 sec) 
Heartbeat CPU 0 instructions: 37000003 cycles: 40519747 heartbeat IPC: 0.827102 cumulative IPC: 0.787944 (Simulation time: 0 hr 27 min 53 sec) 
Heartbeat CPU 0 instructions: 38000003 cycles: 41841680 heartbeat IPC: 0.756468 cumulative IPC: 0.786775 (Simulation time: 0 hr 28 min 36 sec) 
Heartbeat CPU 0 instructions: 39000001 cycles: 43149684 heartbeat IPC: 0.764522 cumulative IPC: 0.785986 (Simulation time: 0 hr 29 min 22 sec) 
Heartbeat CPU 0 instructions: 40000000 cycles: 44354080 heartbeat IPC: 0.830291 cumulative IPC: 0.787387 (Simulation time: 0 hr 30 min 5 sec) 
Heartbeat CPU 0 instructions: 41000000 cycles: 45535448 heartbeat IPC: 0.846476 cumulative IPC: 0.789164 (Simulation time: 0 hr 30 min 52 sec) 
Heartbeat CPU 0 instructions: 42000000 cycles: 46961341 heartbeat IPC: 0.701315 cumulative IPC: 0.786087 (Simulation time: 0 hr 31 min 35 sec) 
Heartbeat CPU 0 instructions: 43000002 cycles: 48144246 heartbeat IPC: 0.845378 cumulative IPC: 0.787761 (Simulation time: 0 hr 32 min 18 sec) 
Heartbeat CPU 0 instructions: 44000000 cycles: 49337226 heartbeat IPC: 0.838235 cumulative IPC: 0.789159 (Simulation time: 0 hr 33 min 2 sec) 
Heartbeat CPU 0 instructions: 45000001 cycles: 50815835 heartbeat IPC: 0.676312 cumulative IPC: 0.785414 (Simulation time: 0 hr 33 min 48 sec) 
Heartbeat CPU 0 instructions: 46000001 cycles: 52510046 heartbeat IPC: 0.590245 cumulative IPC: 0.778266 (Simulation time: 0 hr 34 min 32 sec) 
Heartbeat CPU 0 instructions: 47000002 cycles: 54250661 heartbeat IPC: 0.57451 cumulative IPC: 0.770877 (Simulation time: 0 hr 35 min 18 sec) 
Heartbeat CPU 0 instructions: 48000000 cycles: 55959741 heartbeat IPC: 0.585109 cumulative IPC: 0.764489 (Simulation time: 0 hr 36 min 3 sec) 
Heartbeat CPU 0 instructions: 49000002 cycles: 57705737 heartbeat IPC: 0.57274 cumulative IPC: 0.757983 (Simulation time: 0 hr 36 min 50 sec) 
Heartbeat CPU 0 instructions: 50000002 cycles: 59471825 heartbeat IPC: 0.566223 cumulative IPC: 0.751619 (Simulation time: 0 hr 37 min 35 sec) 
Heartbeat CPU 0 instructions: 51000000 cycles: 61288372 heartbeat IPC: 0.550494 cumulative IPC: 0.74498 (Simulation time: 0 hr 38 min 21 sec) 
Heartbeat CPU 0 instructions: 52000000 cycles: 63141495 heartbeat IPC: 0.53963 cumulative IPC: 0.738291 (Simulation time: 0 hr 39 min 8 sec) 
Heartbeat CPU 0 instructions: 53000003 cycles: 64903901 heartbeat IPC: 0.567408 cumulative IPC: 0.733156 (Simulation time: 0 hr 39 min 54 sec) 
Heartbeat CPU 0 instructions: 54000003 cycles: 66765607 heartbeat IPC: 0.537142 cumulative IPC: 0.727126 (Simulation time: 0 hr 40 min 42 sec) 
Heartbeat CPU 0 instructions: 55000001 cycles: 68764830 heartbeat IPC: 0.500193 cumulative IPC: 0.719868 (Simulation time: 0 hr 41 min 29 sec) 
Heartbeat CPU 0 instructions: 56000000 cycles: 71099779 heartbeat IPC: 0.428274 cumulative IPC: 0.709368 (Simulation time: 0 hr 42 min 21 sec) 
Heartbeat CPU 0 instructions: 57000003 cycles: 73490793 heartbeat IPC: 0.418234 cumulative IPC: 0.699015 (Simulation time: 0 hr 43 min 13 sec) 
Heartbeat CPU 0 instructions: 58000001 cycles: 75779835 heartbeat IPC: 0.436863 cumulative IPC: 0.690385 (Simulation time: 0 hr 43 min 59 sec) 
Heartbeat CPU 0 instructions: 59000003 cycles: 78067750 heartbeat IPC: 0.43708 cumulative IPC: 0.682315 (Simulation time: 0 hr 44 min 51 sec) 
Heartbeat CPU 0 instructions: 60000000 cycles: 80393472 heartbeat IPC: 0.429973 cumulative IPC: 0.674399 (Simulation time: 0 hr 45 min 48 sec) 
Heartbeat CPU 0 instructions: 61000003 cycles: 82716966 heartbeat IPC: 0.430388 cumulative IPC: 0.666984 (Simulation time: 0 hr 46 min 43 sec) 
Heartbeat CPU 0 instructions: 62000001 cycles: 85024575 heartbeat IPC: 0.433348 cumulative IPC: 0.66014 (Simulation time: 0 hr 47 min 36 sec) 
Heartbeat CPU 0 instructions: 63000000 cycles: 86991809 heartbeat IPC: 0.508327 cumulative IPC: 0.656441 (Simulation time: 0 hr 48 min 26 sec) 
Heartbeat CPU 0 instructions: 64000000 cycles: 88209284 heartbeat IPC: 0.821372 cumulative IPC: 0.658891 (Simulation time: 0 hr 49 min 11 sec) 
Heartbeat CPU 0 instructions: 65000000 cycles: 89463257 heartbeat IPC: 0.797465 cumulative IPC: 0.660979 (Simulation time: 0 hr 49 min 55 sec) 
Heartbeat CPU 0 instructions: 66000002 cycles: 90728085 heartbeat IPC: 0.790623 cumulative IPC: 0.66292 (Simulation time: 0 hr 50 min 41 sec) 
Heartbeat CPU 0 instructions: 67000001 cycles: 91985729 heartbeat IPC: 0.795137 cumulative IPC: 0.66486 (Simulation time: 0 hr 51 min 24 sec) 
Heartbeat CPU 0 instructions: 68000000 cycles: 93307489 heartbeat IPC: 0.756566 cumulative IPC: 0.666252 (Simulation time: 0 hr 52 min 12 sec) 
Heartbeat CPU 0 instructions: 69000000 cycles: 94559718 heartbeat IPC: 0.798576 cumulative IPC: 0.668129 (Simulation time: 0 hr 52 min 58 sec) 
Heartbeat CPU 0 instructions: 70000000 cycles: 95849598 heartbeat IPC: 0.775266 cumulative IPC: 0.669671 (Simulation time: 0 hr 53 min 43 sec) 
Heartbeat CPU 0 instructions: 71000000 cycles: 97106134 heartbeat IPC: 0.795839 cumulative IPC: 0.671416 (Simulation time: 0 hr 54 min 27 sec) 
Heartbeat CPU 0 instructions: 72000000 cycles: 98387227 heartbeat IPC: 0.780583 cumulative IPC: 0.672934 (Simulation time: 0 hr 55 min 10 sec) 
Heartbeat CPU 0 instructions: 73000000 cycles: 99675019 heartbeat IPC: 0.776523 cumulative IPC: 0.674362 (Simulation time: 0 hr 55 min 54 sec) 
Heartbeat CPU 0 instructions: 74000000 cycles: 100934844 heartbeat IPC: 0.793761 cumulative IPC: 0.675951 (Simulation time: 0 hr 56 min 39 sec) 
Heartbeat CPU 0 instructions: 75000003 cycles: 102233626 heartbeat IPC: 0.769954 cumulative IPC: 0.677223 (Simulation time: 0 hr 57 min 20 sec) 
Heartbeat CPU 0 instructions: 76000000 cycles: 103491696 heartbeat IPC: 0.794866 cumulative IPC: 0.678745 (Simulation time: 0 hr 58 min 1 sec) 
Heartbeat CPU 0 instructions: 77000000 cycles: 104791003 heartbeat IPC: 0.769641 cumulative IPC: 0.679943 (Simulation time: 0 hr 58 min 43 sec) 
Heartbeat CPU 0 instructions: 78000001 cycles: 106065795 heartbeat IPC: 0.784442 cumulative IPC: 0.681278 (Simulation time: 0 hr 59 min 26 sec) 
Heartbeat CPU 0 instructions: 79000002 cycles: 107361565 heartbeat IPC: 0.771743 cumulative IPC: 0.682437 (Simulation time: 1 hr 0 min 8 sec) 
Heartbeat CPU 0 instructions: 80000000 cycles: 108649789 heartbeat IPC: 0.776261 cumulative IPC: 0.683618 (Simulation time: 1 hr 0 min 48 sec) 
Heartbeat CPU 0 instructions: 81000000 cycles: 109909882 heartbeat IPC: 0.793592 cumulative IPC: 0.684955 (Simulation time: 1 hr 1 min 31 sec) 
Heartbeat CPU 0 instructions: 82000003 cycles: 111209268 heartbeat IPC: 0.769597 cumulative IPC: 0.686002 (Simulation time: 1 hr 2 min 10 sec) 
Heartbeat CPU 0 instructions: 83000001 cycles: 112486496 heartbeat IPC: 0.782944 cumulative IPC: 0.687168 (Simulation time: 1 hr 2 min 49 sec) 
Heartbeat CPU 0 instructions: 84000000 cycles: 113781268 heartbeat IPC: 0.772336 cumulative IPC: 0.688194 (Simulation time: 1 hr 3 min 28 sec) 
Heartbeat CPU 0 instructions: 85000001 cycles: 115053524 heartbeat IPC: 0.786006 cumulative IPC: 0.689337 (Simulation time: 1 hr 4 min 6 sec) 
Heartbeat CPU 0 instructions: 86000003 cycles: 116344041 heartbeat IPC: 0.774885 cumulative IPC: 0.69034 (Simulation time: 1 hr 4 min 41 sec) 
Heartbeat CPU 0 instructions: 87000001 cycles: 117626355 heartbeat IPC: 0.779839 cumulative IPC: 0.691371 (Simulation time: 1 hr 5 min 15 sec) 
Heartbeat CPU 0 instructions: 88000000 cycles: 118911134 heartbeat IPC: 0.778343 cumulative IPC: 0.692362 (Simulation time: 1 hr 5 min 48 sec) 
Heartbeat CPU 0 instructions: 89000001 cycles: 120215168 heartbeat IPC: 0.766852 cumulative IPC: 0.693215 (Simulation time: 1 hr 6 min 20 sec) 
Heartbeat CPU 0 instructions: 90000002 cycles: 121502173 heartbeat IPC: 0.776999 cumulative IPC: 0.69415 (Simulation time: 1 hr 6 min 49 sec) 
Heartbeat CPU 0 instructions: 91000000 cycles: 122797512 heartbeat IPC: 0.771997 cumulative IPC: 0.695016 (Simulation time: 1 hr 7 min 18 sec) 
Heartbeat CPU 0 instructions: 92000000 cycles: 124070247 heartbeat IPC: 0.78571 cumulative IPC: 0.695995 (Simulation time: 1 hr 7 min 46 sec) 
Heartbeat CPU 0 instructions: 93000002 cycles: 125388841 heartbeat IPC: 0.758385 cumulative IPC: 0.696686 (Simulation time: 1 hr 8 min 14 sec) 
Heartbeat CPU 0 instructions: 94000000 cycles: 126650717 heartbeat IPC: 0.792469 cumulative IPC: 0.69769 (Simulation time: 1 hr 8 min 41 sec) 
Heartbeat CPU 0 instructions: 95000003 cycles: 127924709 heartbeat IPC: 0.784937 cumulative IPC: 0.698603 (Simulation time: 1 hr 9 min 9 sec) 
Heartbeat CPU 0 instructions: 96000000 cycles: 129232051 heartbeat IPC: 0.764908 cumulative IPC: 0.699308 (Simulation time: 1 hr 9 min 36 sec) 
Heartbeat CPU 0 instructions: 97000001 cycles: 130497321 heartbeat IPC: 0.790346 cumulative IPC: 0.700235 (Simulation time: 1 hr 10 min 3 sec) 
Heartbeat CPU 0 instructions: 98000002 cycles: 131806779 heartbeat IPC: 0.763676 cumulative IPC: 0.700897 (Simulation time: 1 hr 10 min 30 sec) 
Heartbeat CPU 0 instructions: 99000000 cycles: 133075398 heartbeat IPC: 0.788257 cumulative IPC: 0.701771 (Simulation time: 1 hr 10 min 56 sec) 
Heartbeat CPU 0 instructions: 100000000 cycles: 134390697 heartbeat IPC: 0.760283 cumulative IPC: 0.702371 (Simulation time: 1 hr 11 min 21 sec) 
Heartbeat CPU 0 instructions: 101000000 cycles: 135667632 heartbeat IPC: 0.783125 cumulative IPC: 0.703168 (Simulation time: 1 hr 11 min 45 sec) 
Heartbeat CPU 0 instructions: 102000001 cycles: 136929320 heartbeat IPC: 0.79259 cumulative IPC: 0.704032 (Simulation time: 1 hr 12 min 8 sec) 
Heartbeat CPU 0 instructions: 103000001 cycles: 138232332 heartbeat IPC: 0.767453 cumulative IPC: 0.704658 (Simulation time: 1 hr 12 min 31 sec) 
Heartbeat CPU 0 instructions: 104000000 cycles: 139485232 heartbeat IPC: 0.798147 cumulative IPC: 0.705537 (Simulation time: 1 hr 12 min 52 sec) 
Heartbeat CPU 0 instructions: 105000001 cycles: 140793177 heartbeat IPC: 0.764559 cumulative IPC: 0.706111 (Simulation time: 1 hr 13 min 11 sec) 
Heartbeat CPU 0 instructions: 106000002 cycles: 142054275 heartbeat IPC: 0.792961 cumulative IPC: 0.706917 (Simulation time: 1 hr 13 min 29 sec) 
Heartbeat CPU 0 instructions: 107000000 cycles: 143349994 heartbeat IPC: 0.771771 cumulative IPC: 0.70753 (Simulation time: 1 hr 13 min 45 sec) 
Heartbeat CPU 0 instructions: 108000000 cycles: 144624414 heartbeat IPC: 0.784671 cumulative IPC: 0.708241 (Simulation time: 1 hr 14 min 0 sec) 
Heartbeat CPU 0 instructions: 109000003 cycles: 145893204 heartbeat IPC: 0.788155 cumulative IPC: 0.708967 (Simulation time: 1 hr 14 min 14 sec) 
Heartbeat CPU 0 instructions: 110000001 cycles: 147197308 heartbeat IPC: 0.766808 cumulative IPC: 0.709502 (Simulation time: 1 hr 14 min 29 sec) 
Finished CPU 0 instructions: 100000000 cycles: 140943940 cummulative IPC: 0.709502 (Simulation time: 1 hr 14 min 29 sec) 

ChampSim completed all CPUs

Region of Interest Statistics

CPU 0 cummulative IPC: 0.709502 instructions: 100000000 cycles: 140943940
LLC TOTAL     ACCESS:    3757138  HIT:    1219511  MISS:    2537627
LLC LOAD      ACCESS:     404680  HIT:     124649  MISS:     280031
LLC RFO       ACCESS:     463740  HIT:     173971  MISS:     289769
LLC PREFETCH  ACCESS:    2139518  HIT:     584500  MISS:    1555018
LLC WRITEBACK ACCESS:     749200  HIT:     336391  MISS:     412809
Insertion Distribution: 
	LOAD 45806 0 49938 187859 
	RFO 959 0 26562 264398 
	PREF 0 85878 256170 1389280 
	WRITEBACK 0 0 0 436346 
Total Prefetch Downgrades: 69939
