
*** ChampSim Multicore Out-of-Order Simulator ***

Warmup Instructions: 10000000
Simulation Instructions: 100000000
Configuration: 2
Number of CPUs: 1
LLC sets: 2048
LLC ways: 16
Off-chip DRAM Channels: 1 Width: 64-bit Data Rate: 1600 MT/s

CPU 0 runs /datasets/cs240c-wi22-a00-public/data/Assignment2-gz/wrf_1650B.trace.gz
CPU 0 L1D next line prefetcher
CPU 0 L2C IP-based stride prefetcher
Initialize SRRIP state
Heartbeat CPU 0 instructions: 1000000 cycles: 514299 heartbeat IPC: 1.94439 cumulative IPC: 1.94439 (Simulation time: 0 hr 0 min 36 sec) 
Heartbeat CPU 0 instructions: 2000000 cycles: 1028473 heartbeat IPC: 1.94487 cumulative IPC: 1.94463 (Simulation time: 0 hr 1 min 16 sec) 
Heartbeat CPU 0 instructions: 3000001 cycles: 1546184 heartbeat IPC: 1.93158 cumulative IPC: 1.94026 (Simulation time: 0 hr 1 min 56 sec) 
Heartbeat CPU 0 instructions: 4000000 cycles: 2063940 heartbeat IPC: 1.93141 cumulative IPC: 1.93804 (Simulation time: 0 hr 2 min 35 sec) 
Heartbeat CPU 0 instructions: 5000001 cycles: 2581687 heartbeat IPC: 1.93145 cumulative IPC: 1.93672 (Simulation time: 0 hr 3 min 13 sec) 
Heartbeat CPU 0 instructions: 6000003 cycles: 3099505 heartbeat IPC: 1.93118 cumulative IPC: 1.93579 (Simulation time: 0 hr 3 min 50 sec) 
Heartbeat CPU 0 instructions: 7000000 cycles: 3617214 heartbeat IPC: 1.93158 cumulative IPC: 1.93519 (Simulation time: 0 hr 4 min 28 sec) 
Heartbeat CPU 0 instructions: 8000000 cycles: 4135023 heartbeat IPC: 1.93121 cumulative IPC: 1.93469 (Simulation time: 0 hr 5 min 7 sec) 
Heartbeat CPU 0 instructions: 9000001 cycles: 4649336 heartbeat IPC: 1.94434 cumulative IPC: 1.93576 (Simulation time: 0 hr 5 min 44 sec) 
Heartbeat CPU 0 instructions: 10000001 cycles: 5163453 heartbeat IPC: 1.94508 cumulative IPC: 1.93669 (Simulation time: 0 hr 6 min 20 sec) 

Warmup complete CPU 0 instructions: 10000001 cycles: 5163453 (Simulation time: 0 hr 6 min 20 sec) 

Heartbeat CPU 0 instructions: 11000000 cycles: 6646675 heartbeat IPC: 0.674207 cumulative IPC: 0.674207 (Simulation time: 0 hr 7 min 10 sec) 
Heartbeat CPU 0 instructions: 12000000 cycles: 8135729 heartbeat IPC: 0.671567 cumulative IPC: 0.672885 (Simulation time: 0 hr 7 min 58 sec) 
Heartbeat CPU 0 instructions: 13000002 cycles: 9629724 heartbeat IPC: 0.669348 cumulative IPC: 0.671701 (Simulation time: 0 hr 8 min 48 sec) 
Heartbeat CPU 0 instructions: 14000002 cycles: 11124015 heartbeat IPC: 0.669214 cumulative IPC: 0.671078 (Simulation time: 0 hr 9 min 37 sec) 
Heartbeat CPU 0 instructions: 15000001 cycles: 12618833 heartbeat IPC: 0.668977 cumulative IPC: 0.670657 (Simulation time: 0 hr 10 min 23 sec) 
Heartbeat CPU 0 instructions: 16000000 cycles: 14113265 heartbeat IPC: 0.66915 cumulative IPC: 0.670405 (Simulation time: 0 hr 11 min 11 sec) 
Heartbeat CPU 0 instructions: 17000000 cycles: 15607540 heartbeat IPC: 0.669221 cumulative IPC: 0.670236 (Simulation time: 0 hr 11 min 57 sec) 
Heartbeat CPU 0 instructions: 18000001 cycles: 17095469 heartbeat IPC: 0.672076 cumulative IPC: 0.670465 (Simulation time: 0 hr 12 min 45 sec) 
Heartbeat CPU 0 instructions: 19000003 cycles: 18577611 heartbeat IPC: 0.674701 cumulative IPC: 0.670933 (Simulation time: 0 hr 13 min 30 sec) 
Heartbeat CPU 0 instructions: 20000000 cycles: 20060902 heartbeat IPC: 0.674175 cumulative IPC: 0.671256 (Simulation time: 0 hr 14 min 16 sec) 
Heartbeat CPU 0 instructions: 21000000 cycles: 21544828 heartbeat IPC: 0.673888 cumulative IPC: 0.671494 (Simulation time: 0 hr 15 min 1 sec) 
Heartbeat CPU 0 instructions: 22000000 cycles: 23038726 heartbeat IPC: 0.66939 cumulative IPC: 0.671318 (Simulation time: 0 hr 15 min 46 sec) 
Heartbeat CPU 0 instructions: 23000003 cycles: 24534146 heartbeat IPC: 0.66871 cumulative IPC: 0.671117 (Simulation time: 0 hr 16 min 32 sec) 
Heartbeat CPU 0 instructions: 24000000 cycles: 26027752 heartbeat IPC: 0.669519 cumulative IPC: 0.671003 (Simulation time: 0 hr 17 min 18 sec) 
Heartbeat CPU 0 instructions: 25000000 cycles: 27522673 heartbeat IPC: 0.668932 cumulative IPC: 0.670864 (Simulation time: 0 hr 18 min 5 sec) 
Heartbeat CPU 0 instructions: 26000001 cycles: 29017430 heartbeat IPC: 0.669006 cumulative IPC: 0.670748 (Simulation time: 0 hr 18 min 52 sec) 
Heartbeat CPU 0 instructions: 27000003 cycles: 30510702 heartbeat IPC: 0.669672 cumulative IPC: 0.670684 (Simulation time: 0 hr 19 min 37 sec) 
Heartbeat CPU 0 instructions: 28000000 cycles: 31993187 heartbeat IPC: 0.674541 cumulative IPC: 0.670897 (Simulation time: 0 hr 20 min 23 sec) 
Heartbeat CPU 0 instructions: 29000001 cycles: 33476108 heartbeat IPC: 0.674345 cumulative IPC: 0.671078 (Simulation time: 0 hr 21 min 9 sec) 
Heartbeat CPU 0 instructions: 30000001 cycles: 34959463 heartbeat IPC: 0.674147 cumulative IPC: 0.671231 (Simulation time: 0 hr 21 min 56 sec) 
Heartbeat CPU 0 instructions: 31000000 cycles: 36450339 heartbeat IPC: 0.670746 cumulative IPC: 0.671208 (Simulation time: 0 hr 22 min 41 sec) 
Heartbeat CPU 0 instructions: 32000000 cycles: 37944205 heartbeat IPC: 0.669404 cumulative IPC: 0.671126 (Simulation time: 0 hr 23 min 27 sec) 
Heartbeat CPU 0 instructions: 33000001 cycles: 39438165 heartbeat IPC: 0.669363 cumulative IPC: 0.671049 (Simulation time: 0 hr 24 min 13 sec) 
Heartbeat CPU 0 instructions: 34000002 cycles: 40932447 heartbeat IPC: 0.669218 cumulative IPC: 0.670972 (Simulation time: 0 hr 24 min 58 sec) 
Heartbeat CPU 0 instructions: 35000001 cycles: 42427793 heartbeat IPC: 0.668741 cumulative IPC: 0.670883 (Simulation time: 0 hr 25 min 43 sec) 
Heartbeat CPU 0 instructions: 36000000 cycles: 43922710 heartbeat IPC: 0.668933 cumulative IPC: 0.670807 (Simulation time: 0 hr 26 min 31 sec) 
Heartbeat CPU 0 instructions: 37000003 cycles: 45408870 heartbeat IPC: 0.672877 cumulative IPC: 0.670884 (Simulation time: 0 hr 27 min 17 sec) 
Heartbeat CPU 0 instructions: 38000000 cycles: 46891586 heartbeat IPC: 0.674436 cumulative IPC: 0.67101 (Simulation time: 0 hr 28 min 4 sec) 
Heartbeat CPU 0 instructions: 39000001 cycles: 48375465 heartbeat IPC: 0.67391 cumulative IPC: 0.67111 (Simulation time: 0 hr 28 min 52 sec) 
Heartbeat CPU 0 instructions: 40000000 cycles: 49861326 heartbeat IPC: 0.67301 cumulative IPC: 0.671173 (Simulation time: 0 hr 29 min 41 sec) 
Heartbeat CPU 0 instructions: 41000000 cycles: 51355412 heartbeat IPC: 0.669306 cumulative IPC: 0.671112 (Simulation time: 0 hr 30 min 28 sec) 
Heartbeat CPU 0 instructions: 42000001 cycles: 52851232 heartbeat IPC: 0.66853 cumulative IPC: 0.671031 (Simulation time: 0 hr 31 min 16 sec) 
Heartbeat CPU 0 instructions: 43000001 cycles: 54345355 heartbeat IPC: 0.669289 cumulative IPC: 0.670979 (Simulation time: 0 hr 32 min 1 sec) 
Heartbeat CPU 0 instructions: 44000000 cycles: 55840997 heartbeat IPC: 0.668609 cumulative IPC: 0.670909 (Simulation time: 0 hr 32 min 48 sec) 
Heartbeat CPU 0 instructions: 45000000 cycles: 57335388 heartbeat IPC: 0.669169 cumulative IPC: 0.670859 (Simulation time: 0 hr 33 min 35 sec) 
Heartbeat CPU 0 instructions: 46000002 cycles: 59611489 heartbeat IPC: 0.439349 cumulative IPC: 0.661181 (Simulation time: 0 hr 34 min 30 sec) 
Heartbeat CPU 0 instructions: 47000002 cycles: 61180168 heartbeat IPC: 0.637479 cumulative IPC: 0.660517 (Simulation time: 0 hr 35 min 13 sec) 
Heartbeat CPU 0 instructions: 48000000 cycles: 62846972 heartbeat IPC: 0.599949 cumulative IPC: 0.658767 (Simulation time: 0 hr 35 min 57 sec) 
Heartbeat CPU 0 instructions: 49000001 cycles: 64521981 heartbeat IPC: 0.597012 cumulative IPC: 0.657024 (Simulation time: 0 hr 36 min 40 sec) 
Heartbeat CPU 0 instructions: 50000000 cycles: 66196983 heartbeat IPC: 0.597014 cumulative IPC: 0.655377 (Simulation time: 0 hr 37 min 24 sec) 
Heartbeat CPU 0 instructions: 51000000 cycles: 68002045 heartbeat IPC: 0.553998 cumulative IPC: 0.652465 (Simulation time: 0 hr 38 min 7 sec) 
Heartbeat CPU 0 instructions: 52000000 cycles: 69756046 heartbeat IPC: 0.570125 cumulative IPC: 0.650229 (Simulation time: 0 hr 38 min 51 sec) 
Heartbeat CPU 0 instructions: 53000002 cycles: 70791240 heartbeat IPC: 0.966004 cumulative IPC: 0.65521 (Simulation time: 0 hr 39 min 32 sec) 
Heartbeat CPU 0 instructions: 54000001 cycles: 71704730 heartbeat IPC: 1.0947 cumulative IPC: 0.661244 (Simulation time: 0 hr 40 min 11 sec) 
Heartbeat CPU 0 instructions: 55000000 cycles: 72606564 heartbeat IPC: 1.10885 cumulative IPC: 0.667229 (Simulation time: 0 hr 40 min 51 sec) 
Heartbeat CPU 0 instructions: 56000000 cycles: 73490145 heartbeat IPC: 1.13176 cumulative IPC: 0.673236 (Simulation time: 0 hr 41 min 30 sec) 
Heartbeat CPU 0 instructions: 57000001 cycles: 74376426 heartbeat IPC: 1.12831 cumulative IPC: 0.679063 (Simulation time: 0 hr 42 min 9 sec) 
Heartbeat CPU 0 instructions: 58000002 cycles: 75260306 heartbeat IPC: 1.13138 cumulative IPC: 0.684767 (Simulation time: 0 hr 42 min 48 sec) 
Heartbeat CPU 0 instructions: 59000003 cycles: 76145986 heartbeat IPC: 1.12908 cumulative IPC: 0.690311 (Simulation time: 0 hr 43 min 27 sec) 
Heartbeat CPU 0 instructions: 60000000 cycles: 77035475 heartbeat IPC: 1.12424 cumulative IPC: 0.695681 (Simulation time: 0 hr 44 min 5 sec) 
Heartbeat CPU 0 instructions: 61000003 cycles: 78330620 heartbeat IPC: 0.772117 cumulative IPC: 0.697034 (Simulation time: 0 hr 44 min 45 sec) 
Heartbeat CPU 0 instructions: 62000002 cycles: 79818107 heartbeat IPC: 0.672274 cumulative IPC: 0.696541 (Simulation time: 0 hr 45 min 26 sec) 
Heartbeat CPU 0 instructions: 63000002 cycles: 81304032 heartbeat IPC: 0.672982 cumulative IPC: 0.696081 (Simulation time: 0 hr 46 min 6 sec) 
Heartbeat CPU 0 instructions: 64000000 cycles: 82789932 heartbeat IPC: 0.672991 cumulative IPC: 0.695639 (Simulation time: 0 hr 46 min 47 sec) 
Heartbeat CPU 0 instructions: 65000001 cycles: 84277740 heartbeat IPC: 0.67213 cumulative IPC: 0.695197 (Simulation time: 0 hr 47 min 27 sec) 
Heartbeat CPU 0 instructions: 66000000 cycles: 85763129 heartbeat IPC: 0.673224 cumulative IPC: 0.694792 (Simulation time: 0 hr 48 min 7 sec) 
Heartbeat CPU 0 instructions: 67000001 cycles: 87252133 heartbeat IPC: 0.671591 cumulative IPC: 0.694371 (Simulation time: 0 hr 48 min 48 sec) 
Heartbeat CPU 0 instructions: 68000000 cycles: 88737966 heartbeat IPC: 0.673022 cumulative IPC: 0.693991 (Simulation time: 0 hr 49 min 30 sec) 
Heartbeat CPU 0 instructions: 69000002 cycles: 90223064 heartbeat IPC: 0.673358 cumulative IPC: 0.693631 (Simulation time: 0 hr 50 min 15 sec) 
Heartbeat CPU 0 instructions: 70000000 cycles: 91709998 heartbeat IPC: 0.672523 cumulative IPC: 0.693269 (Simulation time: 0 hr 50 min 57 sec) 
Heartbeat CPU 0 instructions: 71000001 cycles: 93197098 heartbeat IPC: 0.67245 cumulative IPC: 0.692917 (Simulation time: 0 hr 51 min 38 sec) 
Heartbeat CPU 0 instructions: 72000000 cycles: 94684708 heartbeat IPC: 0.672219 cumulative IPC: 0.692573 (Simulation time: 0 hr 52 min 17 sec) 
Heartbeat CPU 0 instructions: 73000000 cycles: 96170870 heartbeat IPC: 0.672874 cumulative IPC: 0.692251 (Simulation time: 0 hr 52 min 58 sec) 
Heartbeat CPU 0 instructions: 74000003 cycles: 97656569 heartbeat IPC: 0.673086 cumulative IPC: 0.691943 (Simulation time: 0 hr 53 min 39 sec) 
Heartbeat CPU 0 instructions: 75000003 cycles: 99143069 heartbeat IPC: 0.672721 cumulative IPC: 0.691639 (Simulation time: 0 hr 54 min 18 sec) 
Heartbeat CPU 0 instructions: 76000000 cycles: 100629297 heartbeat IPC: 0.672842 cumulative IPC: 0.691347 (Simulation time: 0 hr 54 min 58 sec) 
Heartbeat CPU 0 instructions: 77000002 cycles: 102117707 heartbeat IPC: 0.671859 cumulative IPC: 0.691048 (Simulation time: 0 hr 55 min 39 sec) 
Heartbeat CPU 0 instructions: 78000001 cycles: 103605061 heartbeat IPC: 0.672334 cumulative IPC: 0.690765 (Simulation time: 0 hr 56 min 21 sec) 
Heartbeat CPU 0 instructions: 79000001 cycles: 105093056 heartbeat IPC: 0.672045 cumulative IPC: 0.690486 (Simulation time: 0 hr 56 min 59 sec) 
Heartbeat CPU 0 instructions: 80000000 cycles: 106578611 heartbeat IPC: 0.673148 cumulative IPC: 0.690232 (Simulation time: 0 hr 57 min 36 sec) 
Heartbeat CPU 0 instructions: 81000000 cycles: 108066358 heartbeat IPC: 0.672157 cumulative IPC: 0.689971 (Simulation time: 0 hr 58 min 14 sec) 
Heartbeat CPU 0 instructions: 82000003 cycles: 109551744 heartbeat IPC: 0.673228 cumulative IPC: 0.689733 (Simulation time: 0 hr 58 min 52 sec) 
Heartbeat CPU 0 instructions: 83000003 cycles: 111041367 heartbeat IPC: 0.671311 cumulative IPC: 0.689473 (Simulation time: 0 hr 59 min 29 sec) 
Heartbeat CPU 0 instructions: 84000000 cycles: 112527267 heartbeat IPC: 0.672991 cumulative IPC: 0.689245 (Simulation time: 1 hr 0 min 5 sec) 
Heartbeat CPU 0 instructions: 85000002 cycles: 114013520 heartbeat IPC: 0.672834 cumulative IPC: 0.689021 (Simulation time: 1 hr 0 min 43 sec) 
Heartbeat CPU 0 instructions: 86000001 cycles: 115499313 heartbeat IPC: 0.673041 cumulative IPC: 0.688806 (Simulation time: 1 hr 1 min 21 sec) 
Heartbeat CPU 0 instructions: 87000001 cycles: 116985519 heartbeat IPC: 0.672854 cumulative IPC: 0.688594 (Simulation time: 1 hr 1 min 57 sec) 
Heartbeat CPU 0 instructions: 88000000 cycles: 118494670 heartbeat IPC: 0.662624 cumulative IPC: 0.688248 (Simulation time: 1 hr 2 min 35 sec) 
Heartbeat CPU 0 instructions: 89000003 cycles: 119995480 heartbeat IPC: 0.666309 cumulative IPC: 0.687961 (Simulation time: 1 hr 3 min 13 sec) 
Heartbeat CPU 0 instructions: 90000003 cycles: 121499179 heartbeat IPC: 0.665027 cumulative IPC: 0.687665 (Simulation time: 1 hr 3 min 50 sec) 
Heartbeat CPU 0 instructions: 91000001 cycles: 123000022 heartbeat IPC: 0.666291 cumulative IPC: 0.687393 (Simulation time: 1 hr 4 min 25 sec) 
Heartbeat CPU 0 instructions: 92000000 cycles: 124507700 heartbeat IPC: 0.663271 cumulative IPC: 0.687088 (Simulation time: 1 hr 4 min 58 sec) 
Heartbeat CPU 0 instructions: 93000001 cycles: 126016901 heartbeat IPC: 0.662603 cumulative IPC: 0.686782 (Simulation time: 1 hr 5 min 30 sec) 
Heartbeat CPU 0 instructions: 94000001 cycles: 127527344 heartbeat IPC: 0.662057 cumulative IPC: 0.686477 (Simulation time: 1 hr 6 min 1 sec) 
Heartbeat CPU 0 instructions: 95000001 cycles: 129037592 heartbeat IPC: 0.662143 cumulative IPC: 0.68618 (Simulation time: 1 hr 6 min 31 sec) 
Heartbeat CPU 0 instructions: 96000000 cycles: 130550092 heartbeat IPC: 0.661156 cumulative IPC: 0.685879 (Simulation time: 1 hr 6 min 59 sec) 
Heartbeat CPU 0 instructions: 97000000 cycles: 132066043 heartbeat IPC: 0.659652 cumulative IPC: 0.685565 (Simulation time: 1 hr 7 min 27 sec) 
Heartbeat CPU 0 instructions: 98000000 cycles: 133580551 heartbeat IPC: 0.66028 cumulative IPC: 0.685267 (Simulation time: 1 hr 7 min 55 sec) 
Heartbeat CPU 0 instructions: 99000000 cycles: 135092277 heartbeat IPC: 0.661496 cumulative IPC: 0.68499 (Simulation time: 1 hr 8 min 23 sec) 
Heartbeat CPU 0 instructions: 100000000 cycles: 136607723 heartbeat IPC: 0.659872 cumulative IPC: 0.684701 (Simulation time: 1 hr 8 min 50 sec) 
Heartbeat CPU 0 instructions: 101000002 cycles: 138125753 heartbeat IPC: 0.65875 cumulative IPC: 0.684405 (Simulation time: 1 hr 9 min 17 sec) 
Heartbeat CPU 0 instructions: 102000002 cycles: 139639422 heartbeat IPC: 0.660646 cumulative IPC: 0.684137 (Simulation time: 1 hr 9 min 42 sec) 
Heartbeat CPU 0 instructions: 103000002 cycles: 141153269 heartbeat IPC: 0.660569 cumulative IPC: 0.683875 (Simulation time: 1 hr 10 min 9 sec) 
Heartbeat CPU 0 instructions: 104000000 cycles: 142669110 heartbeat IPC: 0.659698 cumulative IPC: 0.683608 (Simulation time: 1 hr 10 min 35 sec) 
Heartbeat CPU 0 instructions: 105000001 cycles: 144183604 heartbeat IPC: 0.660287 cumulative IPC: 0.683354 (Simulation time: 1 hr 10 min 59 sec) 
Heartbeat CPU 0 instructions: 106000001 cycles: 145699612 heartbeat IPC: 0.659627 cumulative IPC: 0.683098 (Simulation time: 1 hr 11 min 23 sec) 
Heartbeat CPU 0 instructions: 107000000 cycles: 147210876 heartbeat IPC: 0.661697 cumulative IPC: 0.682871 (Simulation time: 1 hr 11 min 46 sec) 
Heartbeat CPU 0 instructions: 108000000 cycles: 148724578 heartbeat IPC: 0.660632 cumulative IPC: 0.682636 (Simulation time: 1 hr 12 min 8 sec) 
Heartbeat CPU 0 instructions: 109000000 cycles: 150236732 heartbeat IPC: 0.661308 cumulative IPC: 0.682414 (Simulation time: 1 hr 12 min 30 sec) 
Heartbeat CPU 0 instructions: 110000001 cycles: 151740677 heartbeat IPC: 0.664919 cumulative IPC: 0.682234 (Simulation time: 1 hr 12 min 51 sec) 
Finished CPU 0 instructions: 100000000 cycles: 146577224 cummulative IPC: 0.682234 (Simulation time: 1 hr 12 min 51 sec) 

ChampSim completed all CPUs

Region of Interest Statistics

CPU 0 cummulative IPC: 0.682234 instructions: 100000000 cycles: 146577224
LLC TOTAL     ACCESS:    1089037  HIT:     142112  MISS:     946925
LLC LOAD      ACCESS:      57694  HIT:       8774  MISS:      48920
LLC RFO       ACCESS:     201523  HIT:       1450  MISS:     200073
LLC PREFETCH  ACCESS:     601302  HIT:      48481  MISS:     552821
LLC WRITEBACK ACCESS:     228518  HIT:      83407  MISS:     145111
Insertion Distribution: 
	LOAD 5748 0 26637 16821 
	RFO 0 0 47412 156837 
	PREF 0 0 94269 469096 
	WRITEBACK 0 0 0 145111 
Total Prefetch Downgrades: 505
