
*** ChampSim Multicore Out-of-Order Simulator ***

Warmup Instructions: 10000000
Simulation Instructions: 100000000
Configuration: 2
Number of CPUs: 1
LLC sets: 2048
LLC ways: 16
Off-chip DRAM Channels: 1 Width: 64-bit Data Rate: 1600 MT/s

CPU 0 runs /datasets/cs240c-wi22-a00-public/data/Assignment2-gz/sphinx3_883B.trace.gz
CPU 0 L1D next line prefetcher
CPU 0 L2C IP-based stride prefetcher
Initialize SRRIP state
Heartbeat CPU 0 instructions: 1000003 cycles: 414388 heartbeat IPC: 2.4132 cumulative IPC: 2.4132 (Simulation time: 0 hr 0 min 39 sec) 
Heartbeat CPU 0 instructions: 2000000 cycles: 823942 heartbeat IPC: 2.44167 cumulative IPC: 2.42736 (Simulation time: 0 hr 1 min 16 sec) 
Heartbeat CPU 0 instructions: 3000003 cycles: 1298777 heartbeat IPC: 2.106 cumulative IPC: 2.30987 (Simulation time: 0 hr 1 min 49 sec) 
Heartbeat CPU 0 instructions: 4000000 cycles: 1637668 heartbeat IPC: 2.95079 cumulative IPC: 2.4425 (Simulation time: 0 hr 2 min 24 sec) 
Heartbeat CPU 0 instructions: 5000000 cycles: 1992320 heartbeat IPC: 2.81967 cumulative IPC: 2.50964 (Simulation time: 0 hr 3 min 0 sec) 
Heartbeat CPU 0 instructions: 6000003 cycles: 2406734 heartbeat IPC: 2.41305 cumulative IPC: 2.49301 (Simulation time: 0 hr 3 min 39 sec) 
Heartbeat CPU 0 instructions: 7000002 cycles: 2815515 heartbeat IPC: 2.4463 cumulative IPC: 2.48622 (Simulation time: 0 hr 4 min 20 sec) 
Heartbeat CPU 0 instructions: 8000000 cycles: 3291710 heartbeat IPC: 2.09998 cumulative IPC: 2.43035 (Simulation time: 0 hr 4 min 59 sec) 
Heartbeat CPU 0 instructions: 9000001 cycles: 3630707 heartbeat IPC: 2.94988 cumulative IPC: 2.47886 (Simulation time: 0 hr 5 min 33 sec) 
Heartbeat CPU 0 instructions: 10000000 cycles: 3984795 heartbeat IPC: 2.82415 cumulative IPC: 2.50954 (Simulation time: 0 hr 6 min 8 sec) 

Warmup complete CPU 0 instructions: 10000004 cycles: 3984796 (Simulation time: 0 hr 6 min 8 sec) 

Heartbeat CPU 0 instructions: 11000002 cycles: 5673996 heartbeat IPC: 0.591997 cumulative IPC: 0.591995 (Simulation time: 0 hr 6 min 50 sec) 
Heartbeat CPU 0 instructions: 12000000 cycles: 7268885 heartbeat IPC: 0.627002 cumulative IPC: 0.608996 (Simulation time: 0 hr 7 min 33 sec) 
Heartbeat CPU 0 instructions: 13000001 cycles: 8463553 heartbeat IPC: 0.837053 cumulative IPC: 0.669828 (Simulation time: 0 hr 8 min 13 sec) 
Heartbeat CPU 0 instructions: 14000002 cycles: 9220873 heartbeat IPC: 1.32045 cumulative IPC: 0.76393 (Simulation time: 0 hr 8 min 53 sec) 
Heartbeat CPU 0 instructions: 15000000 cycles: 10078130 heartbeat IPC: 1.16651 cumulative IPC: 0.820568 (Simulation time: 0 hr 9 min 31 sec) 
Heartbeat CPU 0 instructions: 16000000 cycles: 11736859 heartbeat IPC: 0.602871 cumulative IPC: 0.773987 (Simulation time: 0 hr 10 min 13 sec) 
Heartbeat CPU 0 instructions: 17000000 cycles: 13295219 heartbeat IPC: 0.6417 cumulative IPC: 0.751845 (Simulation time: 0 hr 10 min 54 sec) 
Heartbeat CPU 0 instructions: 18000002 cycles: 14568184 heartbeat IPC: 0.785569 cumulative IPC: 0.755901 (Simulation time: 0 hr 11 min 32 sec) 
Heartbeat CPU 0 instructions: 19000003 cycles: 15371236 heartbeat IPC: 1.24525 cumulative IPC: 0.790414 (Simulation time: 0 hr 12 min 9 sec) 
Heartbeat CPU 0 instructions: 20000000 cycles: 16135468 heartbeat IPC: 1.3085 cumulative IPC: 0.822999 (Simulation time: 0 hr 12 min 44 sec) 
Heartbeat CPU 0 instructions: 21000000 cycles: 17742089 heartbeat IPC: 0.622424 cumulative IPC: 0.799576 (Simulation time: 0 hr 13 min 24 sec) 
Heartbeat CPU 0 instructions: 22000002 cycles: 19361174 heartbeat IPC: 0.617634 cumulative IPC: 0.780418 (Simulation time: 0 hr 14 min 5 sec) 
Heartbeat CPU 0 instructions: 23000001 cycles: 20866475 heartbeat IPC: 0.664318 cumulative IPC: 0.770065 (Simulation time: 0 hr 14 min 44 sec) 
Heartbeat CPU 0 instructions: 24000000 cycles: 21766367 heartbeat IPC: 1.11124 cumulative IPC: 0.787332 (Simulation time: 0 hr 15 min 19 sec) 
Heartbeat CPU 0 instructions: 25000001 cycles: 22563637 heartbeat IPC: 1.25428 cumulative IPC: 0.80737 (Simulation time: 0 hr 15 min 56 sec) 
Heartbeat CPU 0 instructions: 26000001 cycles: 23800006 heartbeat IPC: 0.80882 cumulative IPC: 0.80746 (Simulation time: 0 hr 16 min 37 sec) 
Heartbeat CPU 0 instructions: 27000000 cycles: 25417925 heartbeat IPC: 0.618077 cumulative IPC: 0.793164 (Simulation time: 0 hr 17 min 20 sec) 
Heartbeat CPU 0 instructions: 28000000 cycles: 26961103 heartbeat IPC: 0.648013 cumulative IPC: 0.783416 (Simulation time: 0 hr 18 min 2 sec) 
Heartbeat CPU 0 instructions: 29000000 cycles: 27986083 heartbeat IPC: 0.975629 cumulative IPC: 0.791624 (Simulation time: 0 hr 18 min 41 sec) 
Heartbeat CPU 0 instructions: 30000002 cycles: 28793232 heartbeat IPC: 1.23893 cumulative IPC: 0.806177 (Simulation time: 0 hr 19 min 17 sec) 
Heartbeat CPU 0 instructions: 31000003 cycles: 29887236 heartbeat IPC: 0.914074 cumulative IPC: 0.810734 (Simulation time: 0 hr 19 min 53 sec) 
Heartbeat CPU 0 instructions: 32000000 cycles: 31505110 heartbeat IPC: 0.618093 cumulative IPC: 0.799409 (Simulation time: 0 hr 20 min 34 sec) 
Heartbeat CPU 0 instructions: 33000000 cycles: 33008738 heartbeat IPC: 0.665058 cumulative IPC: 0.792449 (Simulation time: 0 hr 21 min 13 sec) 
Heartbeat CPU 0 instructions: 34000000 cycles: 34127672 heartbeat IPC: 0.893708 cumulative IPC: 0.796208 (Simulation time: 0 hr 21 min 49 sec) 
Heartbeat CPU 0 instructions: 35000003 cycles: 34957503 heartbeat IPC: 1.20507 cumulative IPC: 0.807162 (Simulation time: 0 hr 22 min 24 sec) 
Heartbeat CPU 0 instructions: 36000000 cycles: 35993555 heartbeat IPC: 0.9652 cumulative IPC: 0.812278 (Simulation time: 0 hr 23 min 3 sec) 
Heartbeat CPU 0 instructions: 37000001 cycles: 37579943 heartbeat IPC: 0.630363 cumulative IPC: 0.803687 (Simulation time: 0 hr 23 min 41 sec) 
Heartbeat CPU 0 instructions: 38000000 cycles: 39085657 heartbeat IPC: 0.664136 cumulative IPC: 0.797701 (Simulation time: 0 hr 24 min 21 sec) 
Heartbeat CPU 0 instructions: 39000003 cycles: 40179323 heartbeat IPC: 0.914359 cumulative IPC: 0.801226 (Simulation time: 0 hr 25 min 1 sec) 
Heartbeat CPU 0 instructions: 40000000 cycles: 41027808 heartbeat IPC: 1.17857 cumulative IPC: 0.809869 (Simulation time: 0 hr 25 min 36 sec) 
Heartbeat CPU 0 instructions: 41000003 cycles: 42061865 heartbeat IPC: 0.967068 cumulative IPC: 0.814138 (Simulation time: 0 hr 26 min 16 sec) 
Heartbeat CPU 0 instructions: 42000000 cycles: 43638200 heartbeat IPC: 0.634381 cumulative IPC: 0.806992 (Simulation time: 0 hr 26 min 59 sec) 
Heartbeat CPU 0 instructions: 43000003 cycles: 45163535 heartbeat IPC: 0.655596 cumulative IPC: 0.801384 (Simulation time: 0 hr 27 min 38 sec) 
Heartbeat CPU 0 instructions: 44000000 cycles: 46199176 heartbeat IPC: 0.965583 cumulative IPC: 0.805413 (Simulation time: 0 hr 28 min 14 sec) 
Heartbeat CPU 0 instructions: 45000002 cycles: 47026451 heartbeat IPC: 1.20879 cumulative IPC: 0.813166 (Simulation time: 0 hr 28 min 50 sec) 
Heartbeat CPU 0 instructions: 46000001 cycles: 48105805 heartbeat IPC: 0.926479 cumulative IPC: 0.815938 (Simulation time: 0 hr 29 min 30 sec) 
Heartbeat CPU 0 instructions: 47000002 cycles: 49654762 heartbeat IPC: 0.645596 cumulative IPC: 0.81016 (Simulation time: 0 hr 30 min 9 sec) 
Heartbeat CPU 0 instructions: 48000000 cycles: 51170927 heartbeat IPC: 0.659558 cumulative IPC: 0.805321 (Simulation time: 0 hr 30 min 47 sec) 
Heartbeat CPU 0 instructions: 49000001 cycles: 52127352 heartbeat IPC: 1.04556 cumulative IPC: 0.810094 (Simulation time: 0 hr 31 min 23 sec) 
Heartbeat CPU 0 instructions: 50000000 cycles: 52923386 heartbeat IPC: 1.25623 cumulative IPC: 0.817351 (Simulation time: 0 hr 32 min 0 sec) 
Heartbeat CPU 0 instructions: 51000003 cycles: 54041354 heartbeat IPC: 0.894483 cumulative IPC: 0.819073 (Simulation time: 0 hr 32 min 37 sec) 
Heartbeat CPU 0 instructions: 52000000 cycles: 55622516 heartbeat IPC: 0.632444 cumulative IPC: 0.813359 (Simulation time: 0 hr 33 min 17 sec) 
Heartbeat CPU 0 instructions: 53000000 cycles: 57351112 heartbeat IPC: 0.578504 cumulative IPC: 0.805752 (Simulation time: 0 hr 33 min 58 sec) 
Heartbeat CPU 0 instructions: 54000003 cycles: 58638045 heartbeat IPC: 0.777044 cumulative IPC: 0.805076 (Simulation time: 0 hr 34 min 37 sec) 
Heartbeat CPU 0 instructions: 55000003 cycles: 59522421 heartbeat IPC: 1.13074 cumulative IPC: 0.810261 (Simulation time: 0 hr 35 min 11 sec) 
Heartbeat CPU 0 instructions: 56000000 cycles: 60401595 heartbeat IPC: 1.13743 cumulative IPC: 0.81536 (Simulation time: 0 hr 35 min 47 sec) 
Heartbeat CPU 0 instructions: 57000002 cycles: 61570772 heartbeat IPC: 0.855304 cumulative IPC: 0.816171 (Simulation time: 0 hr 36 min 25 sec) 
Heartbeat CPU 0 instructions: 58000001 cycles: 62615054 heartbeat IPC: 0.957595 cumulative IPC: 0.81869 (Simulation time: 0 hr 37 min 0 sec) 
Heartbeat CPU 0 instructions: 59000003 cycles: 63471332 heartbeat IPC: 1.16785 cumulative IPC: 0.823716 (Simulation time: 0 hr 37 min 34 sec) 
Heartbeat CPU 0 instructions: 60000000 cycles: 64367331 heartbeat IPC: 1.11607 cumulative IPC: 0.828054 (Simulation time: 0 hr 38 min 11 sec) 
Heartbeat CPU 0 instructions: 61000001 cycles: 65565294 heartbeat IPC: 0.834751 cumulative IPC: 0.828184 (Simulation time: 0 hr 38 min 48 sec) 
Heartbeat CPU 0 instructions: 62000001 cycles: 66415425 heartbeat IPC: 1.17629 cumulative IPC: 0.832924 (Simulation time: 0 hr 39 min 23 sec) 
Heartbeat CPU 0 instructions: 63000003 cycles: 67250044 heartbeat IPC: 1.19815 cumulative IPC: 0.837743 (Simulation time: 0 hr 40 min 0 sec) 
Heartbeat CPU 0 instructions: 64000000 cycles: 68511993 heartbeat IPC: 0.792423 cumulative IPC: 0.836856 (Simulation time: 0 hr 40 min 39 sec) 
Heartbeat CPU 0 instructions: 65000003 cycles: 69384226 heartbeat IPC: 1.14649 cumulative IPC: 0.840986 (Simulation time: 0 hr 41 min 17 sec) 
Heartbeat CPU 0 instructions: 66000002 cycles: 70232978 heartbeat IPC: 1.1782 cumulative IPC: 0.845306 (Simulation time: 0 hr 42 min 4 sec) 
Heartbeat CPU 0 instructions: 67000000 cycles: 71478132 heartbeat IPC: 0.803112 cumulative IPC: 0.844528 (Simulation time: 0 hr 42 min 51 sec) 
Heartbeat CPU 0 instructions: 68000000 cycles: 73102296 heartbeat IPC: 0.615701 cumulative IPC: 0.839151 (Simulation time: 0 hr 43 min 44 sec) 
Heartbeat CPU 0 instructions: 69000003 cycles: 73954302 heartbeat IPC: 1.1737 cumulative IPC: 0.843224 (Simulation time: 0 hr 44 min 30 sec) 
Heartbeat CPU 0 instructions: 70000000 cycles: 74809882 heartbeat IPC: 1.16879 cumulative IPC: 0.847157 (Simulation time: 0 hr 45 min 17 sec) 
Heartbeat CPU 0 instructions: 71000000 cycles: 75969534 heartbeat IPC: 0.862328 cumulative IPC: 0.847402 (Simulation time: 0 hr 46 min 5 sec) 
Heartbeat CPU 0 instructions: 72000000 cycles: 77440510 heartbeat IPC: 0.679821 cumulative IPC: 0.844046 (Simulation time: 0 hr 46 min 53 sec) 
Heartbeat CPU 0 instructions: 73000000 cycles: 78290080 heartbeat IPC: 1.17707 cumulative IPC: 0.847854 (Simulation time: 0 hr 47 min 37 sec) 
Heartbeat CPU 0 instructions: 74000000 cycles: 79151760 heartbeat IPC: 1.16052 cumulative IPC: 0.851438 (Simulation time: 0 hr 48 min 25 sec) 
Heartbeat CPU 0 instructions: 75000000 cycles: 80366852 heartbeat IPC: 0.822983 cumulative IPC: 0.850985 (Simulation time: 0 hr 49 min 12 sec) 
Heartbeat CPU 0 instructions: 76000000 cycles: 81674204 heartbeat IPC: 0.764905 cumulative IPC: 0.849537 (Simulation time: 0 hr 49 min 57 sec) 
Heartbeat CPU 0 instructions: 77000000 cycles: 82516711 heartbeat IPC: 1.18693 cumulative IPC: 0.853156 (Simulation time: 0 hr 50 min 44 sec) 
Heartbeat CPU 0 instructions: 78000000 cycles: 83363742 heartbeat IPC: 1.18059 cumulative IPC: 0.85665 (Simulation time: 0 hr 51 min 30 sec) 
Heartbeat CPU 0 instructions: 79000001 cycles: 84722727 heartbeat IPC: 0.735844 cumulative IPC: 0.854617 (Simulation time: 0 hr 52 min 17 sec) 
Heartbeat CPU 0 instructions: 80000000 cycles: 85892980 heartbeat IPC: 0.854515 cumulative IPC: 0.854615 (Simulation time: 0 hr 53 min 6 sec) 
Heartbeat CPU 0 instructions: 81000000 cycles: 86736061 heartbeat IPC: 1.18613 cumulative IPC: 0.857993 (Simulation time: 0 hr 53 min 52 sec) 
Heartbeat CPU 0 instructions: 82000000 cycles: 87567907 heartbeat IPC: 1.20215 cumulative IPC: 0.861418 (Simulation time: 0 hr 54 min 37 sec) 
Heartbeat CPU 0 instructions: 83000000 cycles: 89050753 heartbeat IPC: 0.674379 cumulative IPC: 0.858158 (Simulation time: 0 hr 55 min 23 sec) 
Heartbeat CPU 0 instructions: 84000000 cycles: 89968303 heartbeat IPC: 1.08986 cumulative IPC: 0.86063 (Simulation time: 0 hr 56 min 7 sec) 
Heartbeat CPU 0 instructions: 85000001 cycles: 90777648 heartbeat IPC: 1.23557 cumulative IPC: 0.864126 (Simulation time: 0 hr 56 min 52 sec) 
Heartbeat CPU 0 instructions: 86000001 cycles: 91833860 heartbeat IPC: 0.94678 cumulative IPC: 0.86512 (Simulation time: 0 hr 57 min 39 sec) 
Heartbeat CPU 0 instructions: 87000000 cycles: 93053157 heartbeat IPC: 0.820144 cumulative IPC: 0.864504 (Simulation time: 0 hr 58 min 24 sec) 
Heartbeat CPU 0 instructions: 88000000 cycles: 93892984 heartbeat IPC: 1.19072 cumulative IPC: 0.867552 (Simulation time: 0 hr 59 min 5 sec) 
Heartbeat CPU 0 instructions: 89000000 cycles: 94716143 heartbeat IPC: 1.21483 cumulative IPC: 0.870702 (Simulation time: 0 hr 59 min 44 sec) 
Heartbeat CPU 0 instructions: 90000000 cycles: 96076700 heartbeat IPC: 0.734993 cumulative IPC: 0.868697 (Simulation time: 1 hr 0 min 28 sec) 
Heartbeat CPU 0 instructions: 91000003 cycles: 97326650 heartbeat IPC: 0.800034 cumulative IPC: 0.867778 (Simulation time: 1 hr 1 min 14 sec) 
Heartbeat CPU 0 instructions: 92000000 cycles: 98289320 heartbeat IPC: 1.03877 cumulative IPC: 0.869523 (Simulation time: 1 hr 1 min 56 sec) 
Heartbeat CPU 0 instructions: 93000000 cycles: 99092252 heartbeat IPC: 1.24544 cumulative IPC: 0.872697 (Simulation time: 1 hr 2 min 36 sec) 
Heartbeat CPU 0 instructions: 94000002 cycles: 99924133 heartbeat IPC: 1.2021 cumulative IPC: 0.875553 (Simulation time: 1 hr 3 min 19 sec) 
Heartbeat CPU 0 instructions: 95000001 cycles: 101357309 heartbeat IPC: 0.69775 cumulative IPC: 0.872936 (Simulation time: 1 hr 4 min 4 sec) 
Heartbeat CPU 0 instructions: 96000000 cycles: 102205430 heartbeat IPC: 1.17908 cumulative IPC: 0.87558 (Simulation time: 1 hr 4 min 44 sec) 
Heartbeat CPU 0 instructions: 97000002 cycles: 103027707 heartbeat IPC: 1.21614 cumulative IPC: 0.878407 (Simulation time: 1 hr 5 min 21 sec) 
Heartbeat CPU 0 instructions: 98000003 cycles: 104247995 heartbeat IPC: 0.81948 cumulative IPC: 0.87769 (Simulation time: 1 hr 5 min 59 sec) 
Heartbeat CPU 0 instructions: 99000000 cycles: 105337448 heartbeat IPC: 0.917889 cumulative IPC: 0.878122 (Simulation time: 1 hr 6 min 32 sec) 
Heartbeat CPU 0 instructions: 100000000 cycles: 106138376 heartbeat IPC: 1.24855 cumulative IPC: 0.881026 (Simulation time: 1 hr 7 min 0 sec) 
Heartbeat CPU 0 instructions: 101000000 cycles: 106972167 heartbeat IPC: 1.19934 cumulative IPC: 0.883603 (Simulation time: 1 hr 7 min 29 sec) 
Heartbeat CPU 0 instructions: 102000003 cycles: 108504246 heartbeat IPC: 0.65271 cumulative IPC: 0.880219 (Simulation time: 1 hr 8 min 1 sec) 
Heartbeat CPU 0 instructions: 103000002 cycles: 109449570 heartbeat IPC: 1.05784 cumulative IPC: 0.881811 (Simulation time: 1 hr 8 min 30 sec) 
Heartbeat CPU 0 instructions: 104000000 cycles: 110279252 heartbeat IPC: 1.20528 cumulative IPC: 0.884336 (Simulation time: 1 hr 8 min 57 sec) 
Heartbeat CPU 0 instructions: 105000002 cycles: 111386220 heartbeat IPC: 0.90337 cumulative IPC: 0.884532 (Simulation time: 1 hr 9 min 25 sec) 
Heartbeat CPU 0 instructions: 106000000 cycles: 112888196 heartbeat IPC: 0.665788 cumulative IPC: 0.881515 (Simulation time: 1 hr 9 min 54 sec) 
Heartbeat CPU 0 instructions: 107000001 cycles: 113746462 heartbeat IPC: 1.16514 cumulative IPC: 0.883733 (Simulation time: 1 hr 10 min 19 sec) 
Heartbeat CPU 0 instructions: 108000000 cycles: 114544778 heartbeat IPC: 1.25264 cumulative IPC: 0.886397 (Simulation time: 1 hr 10 min 45 sec) 
Heartbeat CPU 0 instructions: 109000001 cycles: 115718635 heartbeat IPC: 0.851893 cumulative IPC: 0.886034 (Simulation time: 1 hr 11 min 8 sec) 
Heartbeat CPU 0 instructions: 110000000 cycles: 117118037 heartbeat IPC: 0.71459 cumulative IPC: 0.883913 (Simulation time: 1 hr 11 min 34 sec) 
Finished CPU 0 instructions: 100000000 cycles: 113133242 cummulative IPC: 0.883914 (Simulation time: 1 hr 11 min 34 sec) 

ChampSim completed all CPUs

Region of Interest Statistics

CPU 0 cummulative IPC: 0.883914 instructions: 100000000 cycles: 113133242
LLC TOTAL     ACCESS:    1795785  HIT:     699346  MISS:    1096439
LLC LOAD      ACCESS:     315628  HIT:     223223  MISS:      92405
LLC RFO       ACCESS:      99597  HIT:      78906  MISS:      20691
LLC PREFETCH  ACCESS:    1239142  HIT:     268181  MISS:     970961
LLC WRITEBACK ACCESS:     141418  HIT:     129036  MISS:      12382
Insertion Distribution: 
	LOAD 10432 0 30226 76216 
	RFO 10903 0 3584 10120 
	PREF 0 4120 75736 1000258 
	WRITEBACK 0 0 0 13628 
Total Prefetch Downgrades: 6392
