
*** ChampSim Multicore Out-of-Order Simulator ***

Warmup Instructions: 10000000
Simulation Instructions: 100000000
Configuration: 2
Number of CPUs: 1
LLC sets: 2048
LLC ways: 16
Off-chip DRAM Channels: 1 Width: 64-bit Data Rate: 1600 MT/s

CPU 0 runs /datasets/cs240c-wi22-a00-public/data/Assignment2-gz/calculix_2655B.trace.gz
CPU 0 L1D next line prefetcher
CPU 0 L2C IP-based stride prefetcher
Initialize SRRIP state
Heartbeat CPU 0 instructions: 1000003 cycles: 392383 heartbeat IPC: 2.54854 cumulative IPC: 2.54854 (Simulation time: 0 hr 0 min 26 sec) 
Heartbeat CPU 0 instructions: 2000001 cycles: 785148 heartbeat IPC: 2.54605 cumulative IPC: 2.54729 (Simulation time: 0 hr 0 min 55 sec) 
Heartbeat CPU 0 instructions: 3000002 cycles: 1177684 heartbeat IPC: 2.54754 cumulative IPC: 2.54737 (Simulation time: 0 hr 1 min 22 sec) 
Heartbeat CPU 0 instructions: 4000000 cycles: 1569447 heartbeat IPC: 2.55256 cumulative IPC: 2.54867 (Simulation time: 0 hr 1 min 49 sec) 
Heartbeat CPU 0 instructions: 5000003 cycles: 1961684 heartbeat IPC: 2.54949 cumulative IPC: 2.54883 (Simulation time: 0 hr 2 min 16 sec) 
Heartbeat CPU 0 instructions: 6000003 cycles: 2353797 heartbeat IPC: 2.55029 cumulative IPC: 2.54907 (Simulation time: 0 hr 2 min 41 sec) 
Heartbeat CPU 0 instructions: 7000002 cycles: 2745952 heartbeat IPC: 2.55001 cumulative IPC: 2.54921 (Simulation time: 0 hr 3 min 6 sec) 
Heartbeat CPU 0 instructions: 8000000 cycles: 3137922 heartbeat IPC: 2.55121 cumulative IPC: 2.54946 (Simulation time: 0 hr 3 min 33 sec) 
Heartbeat CPU 0 instructions: 9000001 cycles: 3530092 heartbeat IPC: 2.54992 cumulative IPC: 2.54951 (Simulation time: 0 hr 3 min 59 sec) 
Heartbeat CPU 0 instructions: 10000000 cycles: 3921567 heartbeat IPC: 2.55444 cumulative IPC: 2.55 (Simulation time: 0 hr 4 min 24 sec) 

Warmup complete CPU 0 instructions: 10000004 cycles: 3921568 (Simulation time: 0 hr 4 min 24 sec) 

Heartbeat CPU 0 instructions: 11000001 cycles: 4354283 heartbeat IPC: 2.31099 cumulative IPC: 2.31098 (Simulation time: 0 hr 4 min 56 sec) 
Heartbeat CPU 0 instructions: 12000000 cycles: 4782148 heartbeat IPC: 2.33718 cumulative IPC: 2.32401 (Simulation time: 0 hr 5 min 26 sec) 
Heartbeat CPU 0 instructions: 13000000 cycles: 5209917 heartbeat IPC: 2.33771 cumulative IPC: 2.32856 (Simulation time: 0 hr 5 min 57 sec) 
Heartbeat CPU 0 instructions: 14000002 cycles: 5637401 heartbeat IPC: 2.33927 cumulative IPC: 2.33123 (Simulation time: 0 hr 6 min 28 sec) 
Heartbeat CPU 0 instructions: 15000001 cycles: 6061090 heartbeat IPC: 2.36022 cumulative IPC: 2.33697 (Simulation time: 0 hr 6 min 59 sec) 
Heartbeat CPU 0 instructions: 16000000 cycles: 6645636 heartbeat IPC: 1.71073 cumulative IPC: 2.20259 (Simulation time: 0 hr 7 min 31 sec) 
Heartbeat CPU 0 instructions: 17000000 cycles: 7074358 heartbeat IPC: 2.33251 cumulative IPC: 2.22025 (Simulation time: 0 hr 8 min 0 sec) 
Heartbeat CPU 0 instructions: 18000000 cycles: 7502865 heartbeat IPC: 2.33368 cumulative IPC: 2.23383 (Simulation time: 0 hr 8 min 30 sec) 
Heartbeat CPU 0 instructions: 19000000 cycles: 7929794 heartbeat IPC: 2.34231 cumulative IPC: 2.24538 (Simulation time: 0 hr 9 min 0 sec) 
Heartbeat CPU 0 instructions: 20000000 cycles: 8356945 heartbeat IPC: 2.34109 cumulative IPC: 2.2546 (Simulation time: 0 hr 9 min 31 sec) 
Heartbeat CPU 0 instructions: 21000002 cycles: 8782877 heartbeat IPC: 2.3478 cumulative IPC: 2.26276 (Simulation time: 0 hr 10 min 3 sec) 
Heartbeat CPU 0 instructions: 22000001 cycles: 9373034 heartbeat IPC: 1.69446 cumulative IPC: 2.20124 (Simulation time: 0 hr 10 min 36 sec) 
Heartbeat CPU 0 instructions: 23000000 cycles: 9798635 heartbeat IPC: 2.34962 cumulative IPC: 2.21199 (Simulation time: 0 hr 11 min 7 sec) 
Heartbeat CPU 0 instructions: 24000000 cycles: 10223685 heartbeat IPC: 2.35266 cumulative IPC: 2.22148 (Simulation time: 0 hr 11 min 37 sec) 
Heartbeat CPU 0 instructions: 25000003 cycles: 10648711 heartbeat IPC: 2.3528 cumulative IPC: 2.22977 (Simulation time: 0 hr 12 min 6 sec) 
Heartbeat CPU 0 instructions: 26000003 cycles: 11072815 heartbeat IPC: 2.35791 cumulative IPC: 2.23737 (Simulation time: 0 hr 12 min 37 sec) 
Heartbeat CPU 0 instructions: 27000000 cycles: 11524370 heartbeat IPC: 2.21456 cumulative IPC: 2.23602 (Simulation time: 0 hr 13 min 8 sec) 
Heartbeat CPU 0 instructions: 28000000 cycles: 12093003 heartbeat IPC: 1.7586 cumulative IPC: 2.2028 (Simulation time: 0 hr 13 min 39 sec) 
Heartbeat CPU 0 instructions: 29000003 cycles: 12518989 heartbeat IPC: 2.3475 cumulative IPC: 2.20996 (Simulation time: 0 hr 14 min 7 sec) 
Heartbeat CPU 0 instructions: 30000003 cycles: 12945559 heartbeat IPC: 2.34428 cumulative IPC: 2.21631 (Simulation time: 0 hr 14 min 35 sec) 
Heartbeat CPU 0 instructions: 31000002 cycles: 13370941 heartbeat IPC: 2.35083 cumulative IPC: 2.22237 (Simulation time: 0 hr 15 min 3 sec) 
Heartbeat CPU 0 instructions: 32000000 cycles: 13796017 heartbeat IPC: 2.35252 cumulative IPC: 2.22797 (Simulation time: 0 hr 15 min 34 sec) 
Heartbeat CPU 0 instructions: 33000003 cycles: 14291581 heartbeat IPC: 2.01791 cumulative IPC: 2.21793 (Simulation time: 0 hr 16 min 4 sec) 
Heartbeat CPU 0 instructions: 34000002 cycles: 14878342 heartbeat IPC: 1.70427 cumulative IPC: 2.19043 (Simulation time: 0 hr 16 min 33 sec) 
Heartbeat CPU 0 instructions: 35000001 cycles: 15367424 heartbeat IPC: 2.04464 cumulative IPC: 2.1842 (Simulation time: 0 hr 17 min 1 sec) 
Heartbeat CPU 0 instructions: 36000000 cycles: 15814825 heartbeat IPC: 2.23513 cumulative IPC: 2.18611 (Simulation time: 0 hr 17 min 28 sec) 
Heartbeat CPU 0 instructions: 37000002 cycles: 16250312 heartbeat IPC: 2.29628 cumulative IPC: 2.19 (Simulation time: 0 hr 17 min 58 sec) 
Heartbeat CPU 0 instructions: 38000002 cycles: 16678823 heartbeat IPC: 2.33366 cumulative IPC: 2.19483 (Simulation time: 0 hr 18 min 28 sec) 
Heartbeat CPU 0 instructions: 39000002 cycles: 17255263 heartbeat IPC: 1.73479 cumulative IPC: 2.17494 (Simulation time: 0 hr 18 min 58 sec) 
Heartbeat CPU 0 instructions: 40000000 cycles: 17740775 heartbeat IPC: 2.05968 cumulative IPC: 2.17089 (Simulation time: 0 hr 19 min 28 sec) 
Heartbeat CPU 0 instructions: 41000003 cycles: 18231798 heartbeat IPC: 2.03657 cumulative IPC: 2.16628 (Simulation time: 0 hr 19 min 57 sec) 
Heartbeat CPU 0 instructions: 42000001 cycles: 18744265 heartbeat IPC: 1.95134 cumulative IPC: 2.15885 (Simulation time: 0 hr 20 min 28 sec) 
Heartbeat CPU 0 instructions: 43000001 cycles: 19272917 heartbeat IPC: 1.8916 cumulative IPC: 2.14965 (Simulation time: 0 hr 20 min 58 sec) 
Heartbeat CPU 0 instructions: 44000000 cycles: 19991378 heartbeat IPC: 1.39186 cumulative IPC: 2.11577 (Simulation time: 0 hr 21 min 32 sec) 
Heartbeat CPU 0 instructions: 45000002 cycles: 20451133 heartbeat IPC: 2.17508 cumulative IPC: 2.11742 (Simulation time: 0 hr 22 min 3 sec) 
Heartbeat CPU 0 instructions: 46000003 cycles: 20964849 heartbeat IPC: 1.9466 cumulative IPC: 2.11227 (Simulation time: 0 hr 22 min 32 sec) 
Heartbeat CPU 0 instructions: 47000000 cycles: 21460318 heartbeat IPC: 2.01828 cumulative IPC: 2.10961 (Simulation time: 0 hr 23 min 1 sec) 
Heartbeat CPU 0 instructions: 48000000 cycles: 21994614 heartbeat IPC: 1.87162 cumulative IPC: 2.10258 (Simulation time: 0 hr 23 min 32 sec) 
Heartbeat CPU 0 instructions: 49000000 cycles: 22438755 heartbeat IPC: 2.25154 cumulative IPC: 2.10615 (Simulation time: 0 hr 24 min 1 sec) 
Heartbeat CPU 0 instructions: 50000002 cycles: 22921090 heartbeat IPC: 2.07325 cumulative IPC: 2.10532 (Simulation time: 0 hr 24 min 30 sec) 
Heartbeat CPU 0 instructions: 51000001 cycles: 23399844 heartbeat IPC: 2.08875 cumulative IPC: 2.10491 (Simulation time: 0 hr 24 min 59 sec) 
Heartbeat CPU 0 instructions: 52000000 cycles: 23834257 heartbeat IPC: 2.30195 cumulative IPC: 2.10921 (Simulation time: 0 hr 25 min 28 sec) 
Heartbeat CPU 0 instructions: 53000002 cycles: 24364477 heartbeat IPC: 1.88601 cumulative IPC: 2.10342 (Simulation time: 0 hr 25 min 57 sec) 
Heartbeat CPU 0 instructions: 54000002 cycles: 25157395 heartbeat IPC: 1.26116 cumulative IPC: 2.07197 (Simulation time: 0 hr 26 min 31 sec) 
Heartbeat CPU 0 instructions: 55000002 cycles: 25677369 heartbeat IPC: 1.92317 cumulative IPC: 2.06841 (Simulation time: 0 hr 27 min 2 sec) 
Heartbeat CPU 0 instructions: 56000000 cycles: 26147237 heartbeat IPC: 2.12825 cumulative IPC: 2.06968 (Simulation time: 0 hr 27 min 31 sec) 
Heartbeat CPU 0 instructions: 57000000 cycles: 26674888 heartbeat IPC: 1.89519 cumulative IPC: 2.06563 (Simulation time: 0 hr 28 min 1 sec) 
Heartbeat CPU 0 instructions: 58000003 cycles: 27121460 heartbeat IPC: 2.23929 cumulative IPC: 2.06898 (Simulation time: 0 hr 28 min 30 sec) 
Heartbeat CPU 0 instructions: 59000001 cycles: 27643758 heartbeat IPC: 1.91461 cumulative IPC: 2.06558 (Simulation time: 0 hr 29 min 0 sec) 
Heartbeat CPU 0 instructions: 60000000 cycles: 28119636 heartbeat IPC: 2.10138 cumulative IPC: 2.06628 (Simulation time: 0 hr 29 min 29 sec) 
Heartbeat CPU 0 instructions: 61000002 cycles: 28621478 heartbeat IPC: 1.99266 cumulative IPC: 2.06478 (Simulation time: 0 hr 30 min 0 sec) 
Heartbeat CPU 0 instructions: 62000003 cycles: 29139366 heartbeat IPC: 1.93092 cumulative IPC: 2.06204 (Simulation time: 0 hr 30 min 30 sec) 
Heartbeat CPU 0 instructions: 63000003 cycles: 29816187 heartbeat IPC: 1.4775 cumulative IPC: 2.04676 (Simulation time: 0 hr 31 min 4 sec) 
Heartbeat CPU 0 instructions: 64000000 cycles: 30306436 heartbeat IPC: 2.03977 cumulative IPC: 2.04663 (Simulation time: 0 hr 31 min 34 sec) 
Heartbeat CPU 0 instructions: 65000001 cycles: 30834192 heartbeat IPC: 1.89482 cumulative IPC: 2.04365 (Simulation time: 0 hr 32 min 4 sec) 
Heartbeat CPU 0 instructions: 66000001 cycles: 31487378 heartbeat IPC: 1.53096 cumulative IPC: 2.0315 (Simulation time: 0 hr 32 min 34 sec) 
Heartbeat CPU 0 instructions: 67000003 cycles: 32062199 heartbeat IPC: 1.73968 cumulative IPC: 2.02554 (Simulation time: 0 hr 33 min 5 sec) 
Heartbeat CPU 0 instructions: 68000000 cycles: 32625607 heartbeat IPC: 1.77491 cumulative IPC: 2.02062 (Simulation time: 0 hr 33 min 36 sec) 
Heartbeat CPU 0 instructions: 69000001 cycles: 33180367 heartbeat IPC: 1.80258 cumulative IPC: 2.01649 (Simulation time: 0 hr 34 min 7 sec) 
Heartbeat CPU 0 instructions: 70000002 cycles: 33743715 heartbeat IPC: 1.7751 cumulative IPC: 2.01193 (Simulation time: 0 hr 34 min 37 sec) 
Heartbeat CPU 0 instructions: 71000003 cycles: 34305710 heartbeat IPC: 1.77938 cumulative IPC: 2.00763 (Simulation time: 0 hr 35 min 9 sec) 
Heartbeat CPU 0 instructions: 72000000 cycles: 34868810 heartbeat IPC: 1.77588 cumulative IPC: 2.00341 (Simulation time: 0 hr 35 min 40 sec) 
Heartbeat CPU 0 instructions: 73000000 cycles: 35430277 heartbeat IPC: 1.78105 cumulative IPC: 1.99945 (Simulation time: 0 hr 36 min 11 sec) 
Heartbeat CPU 0 instructions: 74000000 cycles: 35983753 heartbeat IPC: 1.80676 cumulative IPC: 1.99612 (Simulation time: 0 hr 36 min 41 sec) 
Heartbeat CPU 0 instructions: 75000000 cycles: 36605468 heartbeat IPC: 1.60845 cumulative IPC: 1.98875 (Simulation time: 0 hr 37 min 12 sec) 
Heartbeat CPU 0 instructions: 76000000 cycles: 37192350 heartbeat IPC: 1.70392 cumulative IPC: 1.98372 (Simulation time: 0 hr 37 min 41 sec) 
Heartbeat CPU 0 instructions: 77000003 cycles: 37772216 heartbeat IPC: 1.72454 cumulative IPC: 1.97928 (Simulation time: 0 hr 38 min 10 sec) 
Heartbeat CPU 0 instructions: 78000002 cycles: 38352529 heartbeat IPC: 1.72321 cumulative IPC: 1.97497 (Simulation time: 0 hr 38 min 40 sec) 
Heartbeat CPU 0 instructions: 79000001 cycles: 38925152 heartbeat IPC: 1.74635 cumulative IPC: 1.97123 (Simulation time: 0 hr 39 min 11 sec) 
Heartbeat CPU 0 instructions: 80000000 cycles: 39499469 heartbeat IPC: 1.7412 cumulative IPC: 1.96751 (Simulation time: 0 hr 39 min 42 sec) 
Heartbeat CPU 0 instructions: 81000001 cycles: 40070146 heartbeat IPC: 1.75231 cumulative IPC: 1.96412 (Simulation time: 0 hr 40 min 12 sec) 
Heartbeat CPU 0 instructions: 82000003 cycles: 40629154 heartbeat IPC: 1.78889 cumulative IPC: 1.96145 (Simulation time: 0 hr 40 min 42 sec) 
Heartbeat CPU 0 instructions: 83000003 cycles: 41193679 heartbeat IPC: 1.7714 cumulative IPC: 1.95857 (Simulation time: 0 hr 41 min 10 sec) 
Heartbeat CPU 0 instructions: 84000000 cycles: 41789422 heartbeat IPC: 1.67857 cumulative IPC: 1.95416 (Simulation time: 0 hr 41 min 41 sec) 
Heartbeat CPU 0 instructions: 85000002 cycles: 42328309 heartbeat IPC: 1.85568 cumulative IPC: 1.95278 (Simulation time: 0 hr 42 min 12 sec) 
Heartbeat CPU 0 instructions: 86000001 cycles: 43023973 heartbeat IPC: 1.43747 cumulative IPC: 1.94361 (Simulation time: 0 hr 42 min 46 sec) 
Heartbeat CPU 0 instructions: 87000003 cycles: 43598238 heartbeat IPC: 1.74136 cumulative IPC: 1.94069 (Simulation time: 0 hr 43 min 19 sec) 
Heartbeat CPU 0 instructions: 88000000 cycles: 44063505 heartbeat IPC: 2.1493 cumulative IPC: 1.9431 (Simulation time: 0 hr 43 min 49 sec) 
Heartbeat CPU 0 instructions: 89000000 cycles: 44525682 heartbeat IPC: 2.16367 cumulative IPC: 1.94562 (Simulation time: 0 hr 44 min 19 sec) 
Heartbeat CPU 0 instructions: 90000001 cycles: 44992219 heartbeat IPC: 2.14345 cumulative IPC: 1.94786 (Simulation time: 0 hr 44 min 48 sec) 
Heartbeat CPU 0 instructions: 91000002 cycles: 45530873 heartbeat IPC: 1.85648 cumulative IPC: 1.94668 (Simulation time: 0 hr 45 min 18 sec) 
Heartbeat CPU 0 instructions: 92000000 cycles: 46047593 heartbeat IPC: 1.93528 cumulative IPC: 1.94654 (Simulation time: 0 hr 45 min 48 sec) 
Heartbeat CPU 0 instructions: 93000000 cycles: 46566730 heartbeat IPC: 1.92627 cumulative IPC: 1.94629 (Simulation time: 0 hr 46 min 17 sec) 
Heartbeat CPU 0 instructions: 94000003 cycles: 47071158 heartbeat IPC: 1.98245 cumulative IPC: 1.94672 (Simulation time: 0 hr 46 min 46 sec) 
Heartbeat CPU 0 instructions: 95000003 cycles: 47613383 heartbeat IPC: 1.84425 cumulative IPC: 1.94544 (Simulation time: 0 hr 47 min 16 sec) 
Heartbeat CPU 0 instructions: 96000000 cycles: 48088728 heartbeat IPC: 2.10373 cumulative IPC: 1.94715 (Simulation time: 0 hr 47 min 44 sec) 
Heartbeat CPU 0 instructions: 97000002 cycles: 48574656 heartbeat IPC: 2.05792 cumulative IPC: 1.94835 (Simulation time: 0 hr 48 min 14 sec) 
Heartbeat CPU 0 instructions: 98000001 cycles: 49045064 heartbeat IPC: 2.12581 cumulative IPC: 1.9502 (Simulation time: 0 hr 48 min 42 sec) 
Heartbeat CPU 0 instructions: 99000001 cycles: 49583251 heartbeat IPC: 1.85809 cumulative IPC: 1.94912 (Simulation time: 0 hr 49 min 12 sec) 
Heartbeat CPU 0 instructions: 100000000 cycles: 50058618 heartbeat IPC: 2.10364 cumulative IPC: 1.95071 (Simulation time: 0 hr 49 min 40 sec) 
Heartbeat CPU 0 instructions: 101000001 cycles: 50528995 heartbeat IPC: 2.12596 cumulative IPC: 1.95248 (Simulation time: 0 hr 50 min 8 sec) 
Heartbeat CPU 0 instructions: 102000003 cycles: 50988221 heartbeat IPC: 2.17758 cumulative IPC: 1.95467 (Simulation time: 0 hr 50 min 36 sec) 
Heartbeat CPU 0 instructions: 103000003 cycles: 51510117 heartbeat IPC: 1.91609 cumulative IPC: 1.95425 (Simulation time: 0 hr 51 min 6 sec) 
Heartbeat CPU 0 instructions: 104000000 cycles: 52060895 heartbeat IPC: 1.81561 cumulative IPC: 1.95267 (Simulation time: 0 hr 51 min 36 sec) 
Heartbeat CPU 0 instructions: 105000001 cycles: 52485603 heartbeat IPC: 2.35456 cumulative IPC: 1.95618 (Simulation time: 0 hr 52 min 5 sec) 
Heartbeat CPU 0 instructions: 106000002 cycles: 52931004 heartbeat IPC: 2.24517 cumulative IPC: 1.95881 (Simulation time: 0 hr 52 min 35 sec) 
Heartbeat CPU 0 instructions: 107000001 cycles: 53382755 heartbeat IPC: 2.21361 cumulative IPC: 1.96113 (Simulation time: 0 hr 53 min 4 sec) 
Heartbeat CPU 0 instructions: 108000000 cycles: 53801924 heartbeat IPC: 2.38567 cumulative IPC: 1.9647 (Simulation time: 0 hr 53 min 32 sec) 
Heartbeat CPU 0 instructions: 109000000 cycles: 54276008 heartbeat IPC: 2.10933 cumulative IPC: 1.96606 (Simulation time: 0 hr 54 min 2 sec) 
Heartbeat CPU 0 instructions: 110000000 cycles: 54694719 heartbeat IPC: 2.38828 cumulative IPC: 1.96954 (Simulation time: 0 hr 54 min 31 sec) 
Finished CPU 0 instructions: 100000000 cycles: 50773152 cummulative IPC: 1.96954 (Simulation time: 0 hr 54 min 31 sec) 

ChampSim completed all CPUs

Region of Interest Statistics

CPU 0 cummulative IPC: 1.96954 instructions: 100000000 cycles: 50773152
LLC TOTAL     ACCESS:     865121  HIT:     568545  MISS:     296576
LLC LOAD      ACCESS:     110526  HIT:      92845  MISS:      17681
LLC RFO       ACCESS:        417  HIT:        406  MISS:         11
LLC PREFETCH  ACCESS:     655866  HIT:     382476  MISS:     273390
LLC WRITEBACK ACCESS:      98312  HIT:      92818  MISS:       5494
Insertion Distribution: 
	LOAD 10791 0 9255 358 
	RFO 0 0 18 0 
	PREF 0 13433 46852 231341 
	WRITEBACK 0 0 0 5516 
Total Prefetch Downgrades: 2734
