
*** ChampSim Multicore Out-of-Order Simulator ***

Warmup Instructions: 10000000
Simulation Instructions: 100000000
Configuration: 2
Number of CPUs: 1
LLC sets: 2048
LLC ways: 16
Off-chip DRAM Channels: 1 Width: 64-bit Data Rate: 1600 MT/s

CPU 0 runs /datasets/cs240c-wi22-a00-public/data/Assignment2-gz/calculix_2670B.trace.gz
CPU 0 L1D next line prefetcher
CPU 0 L2C IP-based stride prefetcher
Initialize SRRIP state
Heartbeat CPU 0 instructions: 1000003 cycles: 520895 heartbeat IPC: 1.91978 cumulative IPC: 1.91978 (Simulation time: 0 hr 0 min 30 sec) 
Heartbeat CPU 0 instructions: 2000001 cycles: 1040960 heartbeat IPC: 1.92283 cumulative IPC: 1.9213 (Simulation time: 0 hr 1 min 5 sec) 
Heartbeat CPU 0 instructions: 3000001 cycles: 1561277 heartbeat IPC: 1.92191 cumulative IPC: 1.9215 (Simulation time: 0 hr 1 min 34 sec) 
Heartbeat CPU 0 instructions: 4000000 cycles: 2082996 heartbeat IPC: 1.91674 cumulative IPC: 1.92031 (Simulation time: 0 hr 2 min 4 sec) 
Heartbeat CPU 0 instructions: 5000000 cycles: 2603426 heartbeat IPC: 1.92149 cumulative IPC: 1.92055 (Simulation time: 0 hr 2 min 34 sec) 
Heartbeat CPU 0 instructions: 6000001 cycles: 3125241 heartbeat IPC: 1.91639 cumulative IPC: 1.91985 (Simulation time: 0 hr 3 min 4 sec) 
Heartbeat CPU 0 instructions: 7000001 cycles: 3645588 heartbeat IPC: 1.92179 cumulative IPC: 1.92013 (Simulation time: 0 hr 3 min 34 sec) 
Heartbeat CPU 0 instructions: 8000000 cycles: 4167263 heartbeat IPC: 1.9169 cumulative IPC: 1.91973 (Simulation time: 0 hr 4 min 3 sec) 
Heartbeat CPU 0 instructions: 9000001 cycles: 4687881 heartbeat IPC: 1.9208 cumulative IPC: 1.91984 (Simulation time: 0 hr 4 min 32 sec) 
Heartbeat CPU 0 instructions: 10000000 cycles: 5209474 heartbeat IPC: 1.9172 cumulative IPC: 1.91958 (Simulation time: 0 hr 5 min 2 sec) 

Warmup complete CPU 0 instructions: 10000002 cycles: 5209476 (Simulation time: 0 hr 5 min 2 sec) 

Heartbeat CPU 0 instructions: 11000002 cycles: 5685589 heartbeat IPC: 2.10034 cumulative IPC: 2.10034 (Simulation time: 0 hr 5 min 35 sec) 
Heartbeat CPU 0 instructions: 12000000 cycles: 6161357 heartbeat IPC: 2.10186 cumulative IPC: 2.1011 (Simulation time: 0 hr 6 min 8 sec) 
Heartbeat CPU 0 instructions: 13000001 cycles: 6634785 heartbeat IPC: 2.11226 cumulative IPC: 2.10481 (Simulation time: 0 hr 6 min 39 sec) 
Heartbeat CPU 0 instructions: 14000002 cycles: 7110656 heartbeat IPC: 2.10141 cumulative IPC: 2.10396 (Simulation time: 0 hr 7 min 10 sec) 
Heartbeat CPU 0 instructions: 15000002 cycles: 7583911 heartbeat IPC: 2.11303 cumulative IPC: 2.10576 (Simulation time: 0 hr 7 min 40 sec) 
Heartbeat CPU 0 instructions: 16000000 cycles: 8059658 heartbeat IPC: 2.10195 cumulative IPC: 2.10513 (Simulation time: 0 hr 8 min 11 sec) 
Heartbeat CPU 0 instructions: 17000000 cycles: 8533080 heartbeat IPC: 2.11228 cumulative IPC: 2.10615 (Simulation time: 0 hr 8 min 42 sec) 
Heartbeat CPU 0 instructions: 18000001 cycles: 9008460 heartbeat IPC: 2.10358 cumulative IPC: 2.10583 (Simulation time: 0 hr 9 min 14 sec) 
Heartbeat CPU 0 instructions: 19000001 cycles: 9484114 heartbeat IPC: 2.10237 cumulative IPC: 2.10544 (Simulation time: 0 hr 9 min 45 sec) 
Heartbeat CPU 0 instructions: 20000000 cycles: 9957589 heartbeat IPC: 2.11204 cumulative IPC: 2.1061 (Simulation time: 0 hr 10 min 17 sec) 
Heartbeat CPU 0 instructions: 21000003 cycles: 10433107 heartbeat IPC: 2.10298 cumulative IPC: 2.10582 (Simulation time: 0 hr 10 min 47 sec) 
Heartbeat CPU 0 instructions: 22000000 cycles: 10906699 heartbeat IPC: 2.11152 cumulative IPC: 2.10629 (Simulation time: 0 hr 11 min 17 sec) 
Heartbeat CPU 0 instructions: 23000000 cycles: 11382202 heartbeat IPC: 2.10304 cumulative IPC: 2.10604 (Simulation time: 0 hr 11 min 46 sec) 
Heartbeat CPU 0 instructions: 24000000 cycles: 11855667 heartbeat IPC: 2.11209 cumulative IPC: 2.10647 (Simulation time: 0 hr 12 min 15 sec) 
Heartbeat CPU 0 instructions: 25000001 cycles: 12331977 heartbeat IPC: 2.09948 cumulative IPC: 2.106 (Simulation time: 0 hr 12 min 45 sec) 
Heartbeat CPU 0 instructions: 26000001 cycles: 12897679 heartbeat IPC: 1.76772 cumulative IPC: 2.08111 (Simulation time: 0 hr 13 min 16 sec) 
Heartbeat CPU 0 instructions: 27000001 cycles: 13646332 heartbeat IPC: 1.33573 cumulative IPC: 2.01497 (Simulation time: 0 hr 13 min 50 sec) 
Heartbeat CPU 0 instructions: 28000000 cycles: 14119985 heartbeat IPC: 2.11125 cumulative IPC: 2.02009 (Simulation time: 0 hr 14 min 21 sec) 
Heartbeat CPU 0 instructions: 29000002 cycles: 14596152 heartbeat IPC: 2.10011 cumulative IPC: 2.02415 (Simulation time: 0 hr 14 min 52 sec) 
Heartbeat CPU 0 instructions: 30000001 cycles: 15071976 heartbeat IPC: 2.10162 cumulative IPC: 2.02788 (Simulation time: 0 hr 15 min 21 sec) 
Heartbeat CPU 0 instructions: 31000002 cycles: 15545391 heartbeat IPC: 2.11231 cumulative IPC: 2.03175 (Simulation time: 0 hr 15 min 53 sec) 
Heartbeat CPU 0 instructions: 32000000 cycles: 16021176 heartbeat IPC: 2.10179 cumulative IPC: 2.03483 (Simulation time: 0 hr 16 min 23 sec) 
Heartbeat CPU 0 instructions: 33000000 cycles: 16494623 heartbeat IPC: 2.11217 cumulative IPC: 2.03808 (Simulation time: 0 hr 16 min 53 sec) 
Heartbeat CPU 0 instructions: 34000003 cycles: 16970307 heartbeat IPC: 2.10224 cumulative IPC: 2.04067 (Simulation time: 0 hr 17 min 23 sec) 
Heartbeat CPU 0 instructions: 35000002 cycles: 17443697 heartbeat IPC: 2.11242 cumulative IPC: 2.04345 (Simulation time: 0 hr 17 min 55 sec) 
Heartbeat CPU 0 instructions: 36000000 cycles: 17919434 heartbeat IPC: 2.102 cumulative IPC: 2.04564 (Simulation time: 0 hr 18 min 26 sec) 
Heartbeat CPU 0 instructions: 37000001 cycles: 18392694 heartbeat IPC: 2.11301 cumulative IPC: 2.04806 (Simulation time: 0 hr 18 min 55 sec) 
Heartbeat CPU 0 instructions: 38000000 cycles: 18868226 heartbeat IPC: 2.10291 cumulative IPC: 2.04997 (Simulation time: 0 hr 19 min 27 sec) 
Heartbeat CPU 0 instructions: 39000003 cycles: 19343876 heartbeat IPC: 2.10239 cumulative IPC: 2.05173 (Simulation time: 0 hr 19 min 58 sec) 
Heartbeat CPU 0 instructions: 40000000 cycles: 19817714 heartbeat IPC: 2.11042 cumulative IPC: 2.05364 (Simulation time: 0 hr 20 min 28 sec) 
Heartbeat CPU 0 instructions: 41000001 cycles: 20293482 heartbeat IPC: 2.10187 cumulative IPC: 2.05516 (Simulation time: 0 hr 20 min 59 sec) 
Heartbeat CPU 0 instructions: 42000000 cycles: 20766847 heartbeat IPC: 2.11253 cumulative IPC: 2.0569 (Simulation time: 0 hr 21 min 29 sec) 
Heartbeat CPU 0 instructions: 43000003 cycles: 21242410 heartbeat IPC: 2.10278 cumulative IPC: 2.05826 (Simulation time: 0 hr 21 min 58 sec) 
Heartbeat CPU 0 instructions: 44000000 cycles: 21715940 heartbeat IPC: 2.11179 cumulative IPC: 2.0598 (Simulation time: 0 hr 22 min 27 sec) 
Heartbeat CPU 0 instructions: 45000002 cycles: 22191678 heartbeat IPC: 2.102 cumulative IPC: 2.06098 (Simulation time: 0 hr 22 min 55 sec) 
Heartbeat CPU 0 instructions: 46000000 cycles: 22667102 heartbeat IPC: 2.10338 cumulative IPC: 2.06214 (Simulation time: 0 hr 23 min 24 sec) 
Heartbeat CPU 0 instructions: 47000001 cycles: 23140930 heartbeat IPC: 2.11047 cumulative IPC: 2.06341 (Simulation time: 0 hr 23 min 55 sec) 
Heartbeat CPU 0 instructions: 48000000 cycles: 23616606 heartbeat IPC: 2.10227 cumulative IPC: 2.06442 (Simulation time: 0 hr 24 min 24 sec) 
Heartbeat CPU 0 instructions: 49000000 cycles: 24089769 heartbeat IPC: 2.11344 cumulative IPC: 2.06565 (Simulation time: 0 hr 24 min 55 sec) 
Heartbeat CPU 0 instructions: 50000001 cycles: 24565275 heartbeat IPC: 2.10302 cumulative IPC: 2.06656 (Simulation time: 0 hr 25 min 25 sec) 
Heartbeat CPU 0 instructions: 51000001 cycles: 25038744 heartbeat IPC: 2.11207 cumulative IPC: 2.06765 (Simulation time: 0 hr 25 min 55 sec) 
Heartbeat CPU 0 instructions: 52000000 cycles: 25514378 heartbeat IPC: 2.10245 cumulative IPC: 2.06847 (Simulation time: 0 hr 26 min 26 sec) 
Heartbeat CPU 0 instructions: 53000001 cycles: 25989978 heartbeat IPC: 2.10261 cumulative IPC: 2.06925 (Simulation time: 0 hr 26 min 56 sec) 
Heartbeat CPU 0 instructions: 54000000 cycles: 26463612 heartbeat IPC: 2.11133 cumulative IPC: 2.07019 (Simulation time: 0 hr 27 min 26 sec) 
Heartbeat CPU 0 instructions: 55000003 cycles: 26939066 heartbeat IPC: 2.10326 cumulative IPC: 2.07091 (Simulation time: 0 hr 27 min 56 sec) 
Heartbeat CPU 0 instructions: 56000000 cycles: 27412417 heartbeat IPC: 2.11259 cumulative IPC: 2.0718 (Simulation time: 0 hr 28 min 26 sec) 
Heartbeat CPU 0 instructions: 57000000 cycles: 27888010 heartbeat IPC: 2.10264 cumulative IPC: 2.07244 (Simulation time: 0 hr 28 min 55 sec) 
Heartbeat CPU 0 instructions: 58000002 cycles: 28361285 heartbeat IPC: 2.11294 cumulative IPC: 2.07327 (Simulation time: 0 hr 29 min 25 sec) 
Heartbeat CPU 0 instructions: 59000003 cycles: 28836869 heartbeat IPC: 2.10268 cumulative IPC: 2.07386 (Simulation time: 0 hr 29 min 57 sec) 
Heartbeat CPU 0 instructions: 60000000 cycles: 29312544 heartbeat IPC: 2.10227 cumulative IPC: 2.07442 (Simulation time: 0 hr 30 min 27 sec) 
Heartbeat CPU 0 instructions: 61000003 cycles: 29785994 heartbeat IPC: 2.11216 cumulative IPC: 2.07515 (Simulation time: 0 hr 30 min 58 sec) 
Heartbeat CPU 0 instructions: 62000000 cycles: 30261465 heartbeat IPC: 2.10317 cumulative IPC: 2.07568 (Simulation time: 0 hr 31 min 29 sec) 
Heartbeat CPU 0 instructions: 63000003 cycles: 30735015 heartbeat IPC: 2.11172 cumulative IPC: 2.07635 (Simulation time: 0 hr 32 min 2 sec) 
Heartbeat CPU 0 instructions: 64000000 cycles: 31210681 heartbeat IPC: 2.10231 cumulative IPC: 2.07683 (Simulation time: 0 hr 32 min 32 sec) 
Heartbeat CPU 0 instructions: 65000002 cycles: 31683979 heartbeat IPC: 2.11284 cumulative IPC: 2.07747 (Simulation time: 0 hr 33 min 4 sec) 
Heartbeat CPU 0 instructions: 66000002 cycles: 32159334 heartbeat IPC: 2.10369 cumulative IPC: 2.07793 (Simulation time: 0 hr 33 min 36 sec) 
Heartbeat CPU 0 instructions: 67000001 cycles: 32632675 heartbeat IPC: 2.11264 cumulative IPC: 2.07853 (Simulation time: 0 hr 34 min 6 sec) 
Heartbeat CPU 0 instructions: 68000000 cycles: 33108533 heartbeat IPC: 2.10147 cumulative IPC: 2.07892 (Simulation time: 0 hr 34 min 37 sec) 
Heartbeat CPU 0 instructions: 69000001 cycles: 33583915 heartbeat IPC: 2.10357 cumulative IPC: 2.07934 (Simulation time: 0 hr 35 min 11 sec) 
Heartbeat CPU 0 instructions: 70000002 cycles: 34057697 heartbeat IPC: 2.11068 cumulative IPC: 2.07985 (Simulation time: 0 hr 35 min 41 sec) 
Heartbeat CPU 0 instructions: 71000003 cycles: 34533368 heartbeat IPC: 2.1023 cumulative IPC: 2.08021 (Simulation time: 0 hr 36 min 15 sec) 
Heartbeat CPU 0 instructions: 72000000 cycles: 35006622 heartbeat IPC: 2.11302 cumulative IPC: 2.08074 (Simulation time: 0 hr 36 min 51 sec) 
Heartbeat CPU 0 instructions: 73000003 cycles: 35482264 heartbeat IPC: 2.10243 cumulative IPC: 2.08108 (Simulation time: 0 hr 37 min 22 sec) 
Heartbeat CPU 0 instructions: 74000000 cycles: 35955764 heartbeat IPC: 2.11193 cumulative IPC: 2.08155 (Simulation time: 0 hr 37 min 54 sec) 
Heartbeat CPU 0 instructions: 75000003 cycles: 36686808 heartbeat IPC: 1.36791 cumulative IPC: 2.06498 (Simulation time: 0 hr 38 min 30 sec) 
Heartbeat CPU 0 instructions: 76000000 cycles: 37160478 heartbeat IPC: 2.11117 cumulative IPC: 2.06566 (Simulation time: 0 hr 39 min 2 sec) 
Heartbeat CPU 0 instructions: 77000003 cycles: 37636582 heartbeat IPC: 2.10039 cumulative IPC: 2.06617 (Simulation time: 0 hr 39 min 35 sec) 
Heartbeat CPU 0 instructions: 78000000 cycles: 38112208 heartbeat IPC: 2.10249 cumulative IPC: 2.0667 (Simulation time: 0 hr 40 min 5 sec) 
Heartbeat CPU 0 instructions: 79000000 cycles: 38585723 heartbeat IPC: 2.11187 cumulative IPC: 2.06734 (Simulation time: 0 hr 40 min 37 sec) 
Heartbeat CPU 0 instructions: 80000000 cycles: 39061495 heartbeat IPC: 2.10185 cumulative IPC: 2.06782 (Simulation time: 0 hr 41 min 6 sec) 
Heartbeat CPU 0 instructions: 81000002 cycles: 39535132 heartbeat IPC: 2.11133 cumulative IPC: 2.06842 (Simulation time: 0 hr 41 min 37 sec) 
Heartbeat CPU 0 instructions: 82000001 cycles: 40011094 heartbeat IPC: 2.10101 cumulative IPC: 2.06887 (Simulation time: 0 hr 42 min 7 sec) 
Heartbeat CPU 0 instructions: 83000001 cycles: 40484532 heartbeat IPC: 2.11221 cumulative IPC: 2.06945 (Simulation time: 0 hr 42 min 37 sec) 
Heartbeat CPU 0 instructions: 84000000 cycles: 40960431 heartbeat IPC: 2.10128 cumulative IPC: 2.06987 (Simulation time: 0 hr 43 min 9 sec) 
Heartbeat CPU 0 instructions: 85000003 cycles: 41433795 heartbeat IPC: 2.11255 cumulative IPC: 2.07043 (Simulation time: 0 hr 43 min 42 sec) 
Heartbeat CPU 0 instructions: 86000003 cycles: 41909640 heartbeat IPC: 2.10152 cumulative IPC: 2.07084 (Simulation time: 0 hr 44 min 13 sec) 
Heartbeat CPU 0 instructions: 87000001 cycles: 42385592 heartbeat IPC: 2.10105 cumulative IPC: 2.07122 (Simulation time: 0 hr 44 min 45 sec) 
Heartbeat CPU 0 instructions: 88000000 cycles: 42859372 heartbeat IPC: 2.11068 cumulative IPC: 2.07172 (Simulation time: 0 hr 45 min 16 sec) 
Heartbeat CPU 0 instructions: 89000000 cycles: 43335270 heartbeat IPC: 2.10129 cumulative IPC: 2.07209 (Simulation time: 0 hr 45 min 47 sec) 
Heartbeat CPU 0 instructions: 90000003 cycles: 43808656 heartbeat IPC: 2.11245 cumulative IPC: 2.07258 (Simulation time: 0 hr 46 min 17 sec) 
Heartbeat CPU 0 instructions: 91000002 cycles: 44284377 heartbeat IPC: 2.10207 cumulative IPC: 2.07294 (Simulation time: 0 hr 46 min 47 sec) 
Heartbeat CPU 0 instructions: 92000000 cycles: 44757707 heartbeat IPC: 2.11269 cumulative IPC: 2.07342 (Simulation time: 0 hr 47 min 18 sec) 
Heartbeat CPU 0 instructions: 93000003 cycles: 45233882 heartbeat IPC: 2.10007 cumulative IPC: 2.07373 (Simulation time: 0 hr 47 min 48 sec) 
Heartbeat CPU 0 instructions: 94000000 cycles: 45709520 heartbeat IPC: 2.10243 cumulative IPC: 2.07407 (Simulation time: 0 hr 48 min 17 sec) 
Heartbeat CPU 0 instructions: 95000003 cycles: 46183133 heartbeat IPC: 2.11143 cumulative IPC: 2.0745 (Simulation time: 0 hr 48 min 47 sec) 
Heartbeat CPU 0 instructions: 96000000 cycles: 46659278 heartbeat IPC: 2.10019 cumulative IPC: 2.0748 (Simulation time: 0 hr 49 min 19 sec) 
Heartbeat CPU 0 instructions: 97000001 cycles: 47132554 heartbeat IPC: 2.11293 cumulative IPC: 2.07523 (Simulation time: 0 hr 49 min 51 sec) 
Heartbeat CPU 0 instructions: 98000000 cycles: 47608833 heartbeat IPC: 2.09961 cumulative IPC: 2.0755 (Simulation time: 0 hr 50 min 23 sec) 
Heartbeat CPU 0 instructions: 99000000 cycles: 48082254 heartbeat IPC: 2.11228 cumulative IPC: 2.07591 (Simulation time: 0 hr 50 min 54 sec) 
Heartbeat CPU 0 instructions: 100000000 cycles: 48558287 heartbeat IPC: 2.10069 cumulative IPC: 2.07618 (Simulation time: 0 hr 51 min 25 sec) 
Heartbeat CPU 0 instructions: 101000002 cycles: 49034288 heartbeat IPC: 2.10084 cumulative IPC: 2.07645 (Simulation time: 0 hr 51 min 57 sec) 
Heartbeat CPU 0 instructions: 102000002 cycles: 49507926 heartbeat IPC: 2.11132 cumulative IPC: 2.07682 (Simulation time: 0 hr 52 min 27 sec) 
Heartbeat CPU 0 instructions: 103000003 cycles: 49983984 heartbeat IPC: 2.10059 cumulative IPC: 2.07707 (Simulation time: 0 hr 52 min 58 sec) 
Heartbeat CPU 0 instructions: 104000000 cycles: 50457283 heartbeat IPC: 2.11282 cumulative IPC: 2.07745 (Simulation time: 0 hr 53 min 27 sec) 
Heartbeat CPU 0 instructions: 105000002 cycles: 50933285 heartbeat IPC: 2.10084 cumulative IPC: 2.07769 (Simulation time: 0 hr 53 min 59 sec) 
Heartbeat CPU 0 instructions: 106000000 cycles: 51406513 heartbeat IPC: 2.11314 cumulative IPC: 2.07806 (Simulation time: 0 hr 54 min 30 sec) 
Heartbeat CPU 0 instructions: 107000001 cycles: 51882760 heartbeat IPC: 2.09975 cumulative IPC: 2.07828 (Simulation time: 0 hr 55 min 0 sec) 
Heartbeat CPU 0 instructions: 108000000 cycles: 52358496 heartbeat IPC: 2.102 cumulative IPC: 2.07852 (Simulation time: 0 hr 55 min 29 sec) 
Heartbeat CPU 0 instructions: 109000001 cycles: 52831970 heartbeat IPC: 2.11205 cumulative IPC: 2.07885 (Simulation time: 0 hr 55 min 59 sec) 
Heartbeat CPU 0 instructions: 110000003 cycles: 53308389 heartbeat IPC: 2.099 cumulative IPC: 2.07905 (Simulation time: 0 hr 56 min 28 sec) 
Finished CPU 0 instructions: 100000001 cycles: 48098913 cummulative IPC: 2.07905 (Simulation time: 0 hr 56 min 28 sec) 

ChampSim completed all CPUs

Region of Interest Statistics

CPU 0 cummulative IPC: 2.07905 instructions: 100000001 cycles: 48098913
LLC TOTAL     ACCESS:       2155  HIT:         25  MISS:       2130
LLC LOAD      ACCESS:        803  HIT:          0  MISS:        803
LLC RFO       ACCESS:        129  HIT:          0  MISS:        129
LLC PREFETCH  ACCESS:       1200  HIT:          2  MISS:       1198
LLC WRITEBACK ACCESS:         23  HIT:         23  MISS:          0
Insertion Distribution: 
	LOAD 0 0 1119 0 
	RFO 0 0 145 0 
	PREF 0 0 1600 0 
	WRITEBACK 0 0 0 0 
Total Prefetch Downgrades: 0
