
*** ChampSim Multicore Out-of-Order Simulator ***

Warmup Instructions: 10000000
Simulation Instructions: 100000000
Configuration: 2
Number of CPUs: 1
LLC sets: 2048
LLC ways: 16
Off-chip DRAM Channels: 1 Width: 64-bit Data Rate: 1600 MT/s

CPU 0 runs /datasets/cs240c-wi22-a00-public/data/Assignment2-gz/sphinx3_1339B.trace.gz
CPU 0 L1D next line prefetcher
CPU 0 L2C IP-based stride prefetcher
Initialize SRRIP state
Heartbeat CPU 0 instructions: 1000000 cycles: 339022 heartbeat IPC: 2.94966 cumulative IPC: 2.94966 (Simulation time: 0 hr 0 min 32 sec) 
Heartbeat CPU 0 instructions: 2000001 cycles: 693417 heartbeat IPC: 2.82171 cumulative IPC: 2.88427 (Simulation time: 0 hr 1 min 6 sec) 
Heartbeat CPU 0 instructions: 3000000 cycles: 1084463 heartbeat IPC: 2.55724 cumulative IPC: 2.76635 (Simulation time: 0 hr 1 min 45 sec) 
Heartbeat CPU 0 instructions: 4000000 cycles: 1529987 heartbeat IPC: 2.24455 cumulative IPC: 2.6144 (Simulation time: 0 hr 2 min 18 sec) 
Heartbeat CPU 0 instructions: 5000003 cycles: 1869001 heartbeat IPC: 2.94974 cumulative IPC: 2.67523 (Simulation time: 0 hr 2 min 52 sec) 
Heartbeat CPU 0 instructions: 6000002 cycles: 2253236 heartbeat IPC: 2.60257 cumulative IPC: 2.66284 (Simulation time: 0 hr 3 min 29 sec) 
Heartbeat CPU 0 instructions: 7000001 cycles: 2716991 heartbeat IPC: 2.15631 cumulative IPC: 2.57638 (Simulation time: 0 hr 4 min 3 sec) 
Heartbeat CPU 0 instructions: 8000000 cycles: 3055862 heartbeat IPC: 2.95097 cumulative IPC: 2.61792 (Simulation time: 0 hr 4 min 39 sec) 
Heartbeat CPU 0 instructions: 9000003 cycles: 3412421 heartbeat IPC: 2.80459 cumulative IPC: 2.63742 (Simulation time: 0 hr 5 min 12 sec) 
Heartbeat CPU 0 instructions: 10000001 cycles: 3799085 heartbeat IPC: 2.58622 cumulative IPC: 2.63221 (Simulation time: 0 hr 5 min 50 sec) 

Warmup complete CPU 0 instructions: 10000001 cycles: 3799085 (Simulation time: 0 hr 5 min 50 sec) 

Heartbeat CPU 0 instructions: 11000001 cycles: 4701827 heartbeat IPC: 1.10774 cumulative IPC: 1.10774 (Simulation time: 0 hr 6 min 27 sec) 
Heartbeat CPU 0 instructions: 12000000 cycles: 5529607 heartbeat IPC: 1.20805 cumulative IPC: 1.15572 (Simulation time: 0 hr 7 min 6 sec) 
Heartbeat CPU 0 instructions: 13000000 cycles: 6739822 heartbeat IPC: 0.826299 cumulative IPC: 1.02015 (Simulation time: 0 hr 7 min 47 sec) 
Heartbeat CPU 0 instructions: 14000000 cycles: 7600783 heartbeat IPC: 1.16149 cumulative IPC: 1.05216 (Simulation time: 0 hr 8 min 23 sec) 
Heartbeat CPU 0 instructions: 15000001 cycles: 8478050 heartbeat IPC: 1.1399 cumulative IPC: 1.06861 (Simulation time: 0 hr 9 min 0 sec) 
Heartbeat CPU 0 instructions: 16000000 cycles: 9487200 heartbeat IPC: 0.990932 cumulative IPC: 1.05483 (Simulation time: 0 hr 9 min 38 sec) 
Heartbeat CPU 0 instructions: 17000001 cycles: 10804201 heartbeat IPC: 0.759302 cumulative IPC: 0.99927 (Simulation time: 0 hr 10 min 16 sec) 
Heartbeat CPU 0 instructions: 18000003 cycles: 11862663 heartbeat IPC: 0.944769 cumulative IPC: 0.992116 (Simulation time: 0 hr 10 min 55 sec) 
Heartbeat CPU 0 instructions: 19000002 cycles: 12716412 heartbeat IPC: 1.1713 cumulative IPC: 1.00927 (Simulation time: 0 hr 11 min 30 sec) 
Heartbeat CPU 0 instructions: 20000000 cycles: 13584814 heartbeat IPC: 1.15154 cumulative IPC: 1.0219 (Simulation time: 0 hr 12 min 3 sec) 
Heartbeat CPU 0 instructions: 21000000 cycles: 14722336 heartbeat IPC: 0.879104 cumulative IPC: 1.00703 (Simulation time: 0 hr 12 min 41 sec) 
Heartbeat CPU 0 instructions: 22000000 cycles: 15697192 heartbeat IPC: 1.02579 cumulative IPC: 1.00856 (Simulation time: 0 hr 13 min 14 sec) 
Heartbeat CPU 0 instructions: 23000003 cycles: 16579113 heartbeat IPC: 1.13389 cumulative IPC: 1.01721 (Simulation time: 0 hr 13 min 51 sec) 
Heartbeat CPU 0 instructions: 24000000 cycles: 17504220 heartbeat IPC: 1.08095 cumulative IPC: 1.02151 (Simulation time: 0 hr 14 min 27 sec) 
Heartbeat CPU 0 instructions: 25000001 cycles: 18404109 heartbeat IPC: 1.11125 cumulative IPC: 1.02704 (Simulation time: 0 hr 15 min 1 sec) 
Heartbeat CPU 0 instructions: 26000003 cycles: 19250195 heartbeat IPC: 1.18192 cumulative IPC: 1.03552 (Simulation time: 0 hr 15 min 36 sec) 
Heartbeat CPU 0 instructions: 27000000 cycles: 20091309 heartbeat IPC: 1.1889 cumulative IPC: 1.04344 (Simulation time: 0 hr 16 min 11 sec) 
Heartbeat CPU 0 instructions: 28000000 cycles: 20983929 heartbeat IPC: 1.1203 cumulative IPC: 1.04743 (Simulation time: 0 hr 16 min 46 sec) 
Heartbeat CPU 0 instructions: 29000003 cycles: 21830453 heartbeat IPC: 1.1813 cumulative IPC: 1.05372 (Simulation time: 0 hr 17 min 19 sec) 
Heartbeat CPU 0 instructions: 30000003 cycles: 22660471 heartbeat IPC: 1.20479 cumulative IPC: 1.06037 (Simulation time: 0 hr 17 min 53 sec) 
Heartbeat CPU 0 instructions: 31000002 cycles: 23541516 heartbeat IPC: 1.13501 cumulative IPC: 1.0637 (Simulation time: 0 hr 18 min 29 sec) 
Heartbeat CPU 0 instructions: 32000000 cycles: 24423135 heartbeat IPC: 1.13427 cumulative IPC: 1.06672 (Simulation time: 0 hr 19 min 4 sec) 
Heartbeat CPU 0 instructions: 33000001 cycles: 25254214 heartbeat IPC: 1.20326 cumulative IPC: 1.072 (Simulation time: 0 hr 19 min 39 sec) 
Heartbeat CPU 0 instructions: 34000001 cycles: 26599244 heartbeat IPC: 0.743478 cumulative IPC: 1.05262 (Simulation time: 0 hr 20 min 19 sec) 
Heartbeat CPU 0 instructions: 35000002 cycles: 27500253 heartbeat IPC: 1.10987 cumulative IPC: 1.0548 (Simulation time: 0 hr 20 min 53 sec) 
Heartbeat CPU 0 instructions: 36000000 cycles: 28386836 heartbeat IPC: 1.12792 cumulative IPC: 1.05744 (Simulation time: 0 hr 21 min 28 sec) 
Heartbeat CPU 0 instructions: 37000003 cycles: 29379171 heartbeat IPC: 1.00773 cumulative IPC: 1.05551 (Simulation time: 0 hr 22 min 4 sec) 
Heartbeat CPU 0 instructions: 38000000 cycles: 30511964 heartbeat IPC: 0.882771 cumulative IPC: 1.04818 (Simulation time: 0 hr 22 min 41 sec) 
Heartbeat CPU 0 instructions: 39000003 cycles: 31406439 heartbeat IPC: 1.11798 cumulative IPC: 1.05044 (Simulation time: 0 hr 23 min 17 sec) 
Heartbeat CPU 0 instructions: 40000000 cycles: 32271321 heartbeat IPC: 1.15622 cumulative IPC: 1.05366 (Simulation time: 0 hr 23 min 53 sec) 
Heartbeat CPU 0 instructions: 41000000 cycles: 33458222 heartbeat IPC: 0.84253 cumulative IPC: 1.04521 (Simulation time: 0 hr 24 min 29 sec) 
Heartbeat CPU 0 instructions: 42000002 cycles: 34320821 heartbeat IPC: 1.15929 cumulative IPC: 1.04843 (Simulation time: 0 hr 25 min 6 sec) 
Heartbeat CPU 0 instructions: 43000001 cycles: 35209489 heartbeat IPC: 1.12528 cumulative IPC: 1.05061 (Simulation time: 0 hr 25 min 42 sec) 
Heartbeat CPU 0 instructions: 44000000 cycles: 36251848 heartbeat IPC: 0.959361 cumulative IPC: 1.04768 (Simulation time: 0 hr 26 min 19 sec) 
Heartbeat CPU 0 instructions: 45000002 cycles: 37223458 heartbeat IPC: 1.02922 cumulative IPC: 1.04714 (Simulation time: 0 hr 26 min 52 sec) 
Heartbeat CPU 0 instructions: 46000003 cycles: 38085970 heartbeat IPC: 1.15941 cumulative IPC: 1.04996 (Simulation time: 0 hr 27 min 30 sec) 
Heartbeat CPU 0 instructions: 47000000 cycles: 38958282 heartbeat IPC: 1.14638 cumulative IPC: 1.05236 (Simulation time: 0 hr 28 min 4 sec) 
Heartbeat CPU 0 instructions: 48000000 cycles: 39909851 heartbeat IPC: 1.0509 cumulative IPC: 1.05232 (Simulation time: 0 hr 28 min 39 sec) 
Heartbeat CPU 0 instructions: 49000000 cycles: 40783000 heartbeat IPC: 1.14528 cumulative IPC: 1.05451 (Simulation time: 0 hr 29 min 14 sec) 
Heartbeat CPU 0 instructions: 50000000 cycles: 41638824 heartbeat IPC: 1.16846 cumulative IPC: 1.05709 (Simulation time: 0 hr 29 min 50 sec) 
Heartbeat CPU 0 instructions: 51000001 cycles: 42792860 heartbeat IPC: 0.866525 cumulative IPC: 1.05145 (Simulation time: 0 hr 30 min 26 sec) 
Heartbeat CPU 0 instructions: 52000000 cycles: 43630361 heartbeat IPC: 1.19403 cumulative IPC: 1.05445 (Simulation time: 0 hr 31 min 1 sec) 
Heartbeat CPU 0 instructions: 53000002 cycles: 44513694 heartbeat IPC: 1.13208 cumulative IPC: 1.05613 (Simulation time: 0 hr 31 min 35 sec) 
Heartbeat CPU 0 instructions: 54000003 cycles: 45637048 heartbeat IPC: 0.890192 cumulative IPC: 1.05168 (Simulation time: 0 hr 32 min 10 sec) 
Heartbeat CPU 0 instructions: 55000001 cycles: 46514560 heartbeat IPC: 1.13958 cumulative IPC: 1.05348 (Simulation time: 0 hr 32 min 47 sec) 
Heartbeat CPU 0 instructions: 56000000 cycles: 47401756 heartbeat IPC: 1.12715 cumulative IPC: 1.05498 (Simulation time: 0 hr 33 min 22 sec) 
Heartbeat CPU 0 instructions: 57000000 cycles: 48379621 heartbeat IPC: 1.02264 cumulative IPC: 1.05427 (Simulation time: 0 hr 33 min 59 sec) 
Heartbeat CPU 0 instructions: 58000000 cycles: 49422336 heartbeat IPC: 0.959035 cumulative IPC: 1.0521 (Simulation time: 0 hr 34 min 34 sec) 
Heartbeat CPU 0 instructions: 59000001 cycles: 50294753 heartbeat IPC: 1.14624 cumulative IPC: 1.05386 (Simulation time: 0 hr 35 min 9 sec) 
Heartbeat CPU 0 instructions: 60000000 cycles: 51161457 heartbeat IPC: 1.1538 cumulative IPC: 1.05569 (Simulation time: 0 hr 35 min 44 sec) 
Heartbeat CPU 0 instructions: 61000000 cycles: 52474200 heartbeat IPC: 0.761764 cumulative IPC: 1.04776 (Simulation time: 0 hr 36 min 21 sec) 
Heartbeat CPU 0 instructions: 62000002 cycles: 53617043 heartbeat IPC: 0.875013 cumulative IPC: 1.0438 (Simulation time: 0 hr 36 min 58 sec) 
Heartbeat CPU 0 instructions: 63000003 cycles: 54439227 heartbeat IPC: 1.21627 cumulative IPC: 1.0466 (Simulation time: 0 hr 37 min 33 sec) 
Heartbeat CPU 0 instructions: 64000000 cycles: 55329008 heartbeat IPC: 1.12387 cumulative IPC: 1.04793 (Simulation time: 0 hr 38 min 8 sec) 
Heartbeat CPU 0 instructions: 65000000 cycles: 56386177 heartbeat IPC: 0.945923 cumulative IPC: 1.04588 (Simulation time: 0 hr 38 min 44 sec) 
Heartbeat CPU 0 instructions: 66000001 cycles: 57326358 heartbeat IPC: 1.06363 cumulative IPC: 1.0462 (Simulation time: 0 hr 39 min 17 sec) 
Heartbeat CPU 0 instructions: 67000000 cycles: 58199980 heartbeat IPC: 1.14466 cumulative IPC: 1.04778 (Simulation time: 0 hr 39 min 53 sec) 
Heartbeat CPU 0 instructions: 68000000 cycles: 59120689 heartbeat IPC: 1.08612 cumulative IPC: 1.04841 (Simulation time: 0 hr 40 min 30 sec) 
Heartbeat CPU 0 instructions: 69000003 cycles: 60190817 heartbeat IPC: 0.93447 cumulative IPC: 1.04625 (Simulation time: 0 hr 41 min 5 sec) 
Heartbeat CPU 0 instructions: 70000001 cycles: 61057362 heartbeat IPC: 1.15401 cumulative IPC: 1.04788 (Simulation time: 0 hr 41 min 38 sec) 
Heartbeat CPU 0 instructions: 71000001 cycles: 61930588 heartbeat IPC: 1.14518 cumulative IPC: 1.04935 (Simulation time: 0 hr 42 min 13 sec) 
Heartbeat CPU 0 instructions: 72000000 cycles: 63092048 heartbeat IPC: 0.860984 cumulative IPC: 1.04566 (Simulation time: 0 hr 42 min 49 sec) 
Heartbeat CPU 0 instructions: 73000001 cycles: 63912419 heartbeat IPC: 1.21896 cumulative IPC: 1.04802 (Simulation time: 0 hr 43 min 24 sec) 
Heartbeat CPU 0 instructions: 74000001 cycles: 64793809 heartbeat IPC: 1.13457 cumulative IPC: 1.04927 (Simulation time: 0 hr 44 min 1 sec) 
Heartbeat CPU 0 instructions: 75000003 cycles: 65864770 heartbeat IPC: 0.933743 cumulative IPC: 1.04728 (Simulation time: 0 hr 44 min 39 sec) 
Heartbeat CPU 0 instructions: 76000000 cycles: 66761326 heartbeat IPC: 1.11538 cumulative IPC: 1.04825 (Simulation time: 0 hr 45 min 12 sec) 
Heartbeat CPU 0 instructions: 77000002 cycles: 67627864 heartbeat IPC: 1.15402 cumulative IPC: 1.04968 (Simulation time: 0 hr 45 min 48 sec) 
Heartbeat CPU 0 instructions: 78000002 cycles: 68569167 heartbeat IPC: 1.06236 cumulative IPC: 1.04987 (Simulation time: 0 hr 46 min 22 sec) 
Heartbeat CPU 0 instructions: 79000001 cycles: 69584859 heartbeat IPC: 0.984549 cumulative IPC: 1.04886 (Simulation time: 0 hr 46 min 54 sec) 
Heartbeat CPU 0 instructions: 80000000 cycles: 70442543 heartbeat IPC: 1.16593 cumulative IPC: 1.05037 (Simulation time: 0 hr 47 min 30 sec) 
Heartbeat CPU 0 instructions: 81000001 cycles: 71317927 heartbeat IPC: 1.14236 cumulative IPC: 1.05156 (Simulation time: 0 hr 48 min 4 sec) 
Heartbeat CPU 0 instructions: 82000000 cycles: 72452644 heartbeat IPC: 0.881276 cumulative IPC: 1.04874 (Simulation time: 0 hr 48 min 42 sec) 
Heartbeat CPU 0 instructions: 83000001 cycles: 73274877 heartbeat IPC: 1.2162 cumulative IPC: 1.05073 (Simulation time: 0 hr 49 min 17 sec) 
Heartbeat CPU 0 instructions: 84000000 cycles: 74155930 heartbeat IPC: 1.135 cumulative IPC: 1.05178 (Simulation time: 0 hr 49 min 51 sec) 
Heartbeat CPU 0 instructions: 85000002 cycles: 75267573 heartbeat IPC: 0.899571 cumulative IPC: 1.04941 (Simulation time: 0 hr 50 min 28 sec) 
Heartbeat CPU 0 instructions: 86000003 cycles: 76118692 heartbeat IPC: 1.17492 cumulative IPC: 1.05089 (Simulation time: 0 hr 51 min 4 sec) 
Heartbeat CPU 0 instructions: 87000001 cycles: 76996256 heartbeat IPC: 1.13952 cumulative IPC: 1.05195 (Simulation time: 0 hr 51 min 42 sec) 
Heartbeat CPU 0 instructions: 88000000 cycles: 78012906 heartbeat IPC: 0.983622 cumulative IPC: 1.05102 (Simulation time: 0 hr 52 min 19 sec) 
Heartbeat CPU 0 instructions: 89000000 cycles: 78987286 heartbeat IPC: 1.02629 cumulative IPC: 1.0507 (Simulation time: 0 hr 52 min 55 sec) 
Heartbeat CPU 0 instructions: 90000000 cycles: 79804246 heartbeat IPC: 1.22405 cumulative IPC: 1.05256 (Simulation time: 0 hr 53 min 28 sec) 
Heartbeat CPU 0 instructions: 91000000 cycles: 80686668 heartbeat IPC: 1.13324 cumulative IPC: 1.05349 (Simulation time: 0 hr 54 min 3 sec) 
Heartbeat CPU 0 instructions: 92000000 cycles: 81814000 heartbeat IPC: 0.88705 cumulative IPC: 1.05108 (Simulation time: 0 hr 54 min 38 sec) 
Heartbeat CPU 0 instructions: 93000001 cycles: 82631760 heartbeat IPC: 1.22285 cumulative IPC: 1.05286 (Simulation time: 0 hr 55 min 12 sec) 
Heartbeat CPU 0 instructions: 94000000 cycles: 83510739 heartbeat IPC: 1.13768 cumulative IPC: 1.0538 (Simulation time: 0 hr 55 min 47 sec) 
Heartbeat CPU 0 instructions: 95000002 cycles: 84686637 heartbeat IPC: 0.850416 cumulative IPC: 1.05084 (Simulation time: 0 hr 56 min 21 sec) 
Heartbeat CPU 0 instructions: 96000000 cycles: 85502726 heartbeat IPC: 1.22535 cumulative IPC: 1.05258 (Simulation time: 0 hr 56 min 54 sec) 
Heartbeat CPU 0 instructions: 97000002 cycles: 86368365 heartbeat IPC: 1.15522 cumulative IPC: 1.05366 (Simulation time: 0 hr 57 min 27 sec) 
Heartbeat CPU 0 instructions: 98000000 cycles: 87457235 heartbeat IPC: 0.918381 cumulative IPC: 1.0519 (Simulation time: 0 hr 58 min 1 sec) 
Heartbeat CPU 0 instructions: 99000003 cycles: 88519007 heartbeat IPC: 0.941825 cumulative IPC: 1.05052 (Simulation time: 0 hr 58 min 33 sec) 
Heartbeat CPU 0 instructions: 100000000 cycles: 89349678 heartbeat IPC: 1.20384 cumulative IPC: 1.05201 (Simulation time: 0 hr 59 min 6 sec) 
Heartbeat CPU 0 instructions: 101000000 cycles: 90235575 heartbeat IPC: 1.1288 cumulative IPC: 1.0528 (Simulation time: 0 hr 59 min 38 sec) 
Heartbeat CPU 0 instructions: 102000001 cycles: 91663185 heartbeat IPC: 0.700472 cumulative IPC: 1.04707 (Simulation time: 1 hr 0 min 13 sec) 
Heartbeat CPU 0 instructions: 103000000 cycles: 92932928 heartbeat IPC: 0.78756 cumulative IPC: 1.04337 (Simulation time: 1 hr 0 min 47 sec) 
Heartbeat CPU 0 instructions: 104000000 cycles: 93861636 heartbeat IPC: 1.07676 cumulative IPC: 1.04372 (Simulation time: 1 hr 1 min 21 sec) 
Heartbeat CPU 0 instructions: 105000003 cycles: 94713477 heartbeat IPC: 1.17393 cumulative IPC: 1.04494 (Simulation time: 1 hr 1 min 53 sec) 
Heartbeat CPU 0 instructions: 106000000 cycles: 95621668 heartbeat IPC: 1.10109 cumulative IPC: 1.04549 (Simulation time: 1 hr 2 min 24 sec) 
Heartbeat CPU 0 instructions: 107000001 cycles: 97044448 heartbeat IPC: 0.70285 cumulative IPC: 1.04027 (Simulation time: 1 hr 2 min 56 sec) 
Heartbeat CPU 0 instructions: 108000000 cycles: 97933578 heartbeat IPC: 1.12469 cumulative IPC: 1.04106 (Simulation time: 1 hr 3 min 28 sec) 
Heartbeat CPU 0 instructions: 109000000 cycles: 98813166 heartbeat IPC: 1.1369 cumulative IPC: 1.04195 (Simulation time: 1 hr 3 min 57 sec) 
Heartbeat CPU 0 instructions: 110000000 cycles: 99937779 heartbeat IPC: 0.889195 cumulative IPC: 1.04016 (Simulation time: 1 hr 4 min 27 sec) 
Finished CPU 0 instructions: 100000000 cycles: 96138696 cummulative IPC: 1.04016 (Simulation time: 1 hr 4 min 27 sec) 

ChampSim completed all CPUs

Region of Interest Statistics

CPU 0 cummulative IPC: 1.04016 instructions: 100000000 cycles: 96138696
LLC TOTAL     ACCESS:    1574042  HIT:     795144  MISS:     778898
LLC LOAD      ACCESS:     202255  HIT:     169900  MISS:      32355
LLC RFO       ACCESS:     111346  HIT:     109942  MISS:       1404
LLC PREFETCH  ACCESS:    1127284  HIT:     384770  MISS:     742514
LLC WRITEBACK ACCESS:     133157  HIT:     130532  MISS:       2625
Insertion Distribution: 
	LOAD 9675 0 12419 18714 
	RFO 803 0 3996 136 
	PREF 0 4848 88970 732129 
	WRITEBACK 0 0 0 2968 
Total Prefetch Downgrades: 8084
