
*** ChampSim Multicore Out-of-Order Simulator ***

Warmup Instructions: 10000000
Simulation Instructions: 100000000
Configuration: 2
Number of CPUs: 1
LLC sets: 2048
LLC ways: 16
Off-chip DRAM Channels: 1 Width: 64-bit Data Rate: 1600 MT/s

CPU 0 runs /datasets/cs240c-wi22-a00-public/data/Assignment2-gz/calculix_2655B.trace.gz
CPU 0 L1D next line prefetcher
CPU 0 L2C IP-based stride prefetcher
Heartbeat CPU 0 instructions: 1000003 cycles: 392389 heartbeat IPC: 2.5485 cumulative IPC: 2.5485 (Simulation time: 0 hr 0 min 23 sec) 
Heartbeat CPU 0 instructions: 2000001 cycles: 785151 heartbeat IPC: 2.54607 cumulative IPC: 2.54728 (Simulation time: 0 hr 0 min 44 sec) 
Heartbeat CPU 0 instructions: 3000002 cycles: 1177702 heartbeat IPC: 2.54744 cumulative IPC: 2.54734 (Simulation time: 0 hr 1 min 7 sec) 
Heartbeat CPU 0 instructions: 4000000 cycles: 1569472 heartbeat IPC: 2.55251 cumulative IPC: 2.54863 (Simulation time: 0 hr 1 min 34 sec) 
Heartbeat CPU 0 instructions: 5000003 cycles: 1961689 heartbeat IPC: 2.54962 cumulative IPC: 2.54883 (Simulation time: 0 hr 1 min 56 sec) 
Heartbeat CPU 0 instructions: 6000003 cycles: 2353830 heartbeat IPC: 2.5501 cumulative IPC: 2.54904 (Simulation time: 0 hr 2 min 18 sec) 
Heartbeat CPU 0 instructions: 7000002 cycles: 2745987 heartbeat IPC: 2.55 cumulative IPC: 2.54918 (Simulation time: 0 hr 2 min 41 sec) 
Heartbeat CPU 0 instructions: 8000000 cycles: 3138004 heartbeat IPC: 2.5509 cumulative IPC: 2.54939 (Simulation time: 0 hr 3 min 3 sec) 
Heartbeat CPU 0 instructions: 9000001 cycles: 3530187 heartbeat IPC: 2.54983 cumulative IPC: 2.54944 (Simulation time: 0 hr 3 min 24 sec) 
Heartbeat CPU 0 instructions: 10000000 cycles: 3921662 heartbeat IPC: 2.55444 cumulative IPC: 2.54994 (Simulation time: 0 hr 3 min 46 sec) 

Warmup complete CPU 0 instructions: 10000004 cycles: 3921663 (Simulation time: 0 hr 3 min 46 sec) 

Heartbeat CPU 0 instructions: 11000001 cycles: 4593342 heartbeat IPC: 1.48881 cumulative IPC: 1.4888 (Simulation time: 0 hr 4 min 14 sec) 
Heartbeat CPU 0 instructions: 12000000 cycles: 5259984 heartbeat IPC: 1.50005 cumulative IPC: 1.49441 (Simulation time: 0 hr 4 min 44 sec) 
Heartbeat CPU 0 instructions: 13000000 cycles: 5924034 heartbeat IPC: 1.50591 cumulative IPC: 1.49822 (Simulation time: 0 hr 5 min 13 sec) 
Heartbeat CPU 0 instructions: 14000003 cycles: 6584187 heartbeat IPC: 1.5148 cumulative IPC: 1.50233 (Simulation time: 0 hr 5 min 40 sec) 
Heartbeat CPU 0 instructions: 15000002 cycles: 7230253 heartbeat IPC: 1.54783 cumulative IPC: 1.51122 (Simulation time: 0 hr 6 min 6 sec) 
Heartbeat CPU 0 instructions: 16000000 cycles: 7938910 heartbeat IPC: 1.41112 cumulative IPC: 1.49356 (Simulation time: 0 hr 6 min 34 sec) 
Heartbeat CPU 0 instructions: 17000000 cycles: 8579880 heartbeat IPC: 1.56014 cumulative IPC: 1.50272 (Simulation time: 0 hr 7 min 6 sec) 
Heartbeat CPU 0 instructions: 18000000 cycles: 9214829 heartbeat IPC: 1.57493 cumulative IPC: 1.51138 (Simulation time: 0 hr 7 min 37 sec) 
Heartbeat CPU 0 instructions: 19000000 cycles: 9849572 heartbeat IPC: 1.57544 cumulative IPC: 1.51824 (Simulation time: 0 hr 8 min 4 sec) 
Heartbeat CPU 0 instructions: 20000000 cycles: 10491053 heartbeat IPC: 1.55889 cumulative IPC: 1.52221 (Simulation time: 0 hr 8 min 35 sec) 
Heartbeat CPU 0 instructions: 21000000 cycles: 11128827 heartbeat IPC: 1.56795 cumulative IPC: 1.52626 (Simulation time: 0 hr 9 min 4 sec) 
Heartbeat CPU 0 instructions: 22000001 cycles: 11830625 heartbeat IPC: 1.42491 cumulative IPC: 1.51727 (Simulation time: 0 hr 9 min 32 sec) 
Heartbeat CPU 0 instructions: 23000000 cycles: 12482852 heartbeat IPC: 1.53321 cumulative IPC: 1.51848 (Simulation time: 0 hr 10 min 0 sec) 
Heartbeat CPU 0 instructions: 24000000 cycles: 13127463 heartbeat IPC: 1.55132 cumulative IPC: 1.52078 (Simulation time: 0 hr 10 min 33 sec) 
Heartbeat CPU 0 instructions: 25000003 cycles: 13778565 heartbeat IPC: 1.53586 cumulative IPC: 1.52178 (Simulation time: 0 hr 11 min 0 sec) 
Heartbeat CPU 0 instructions: 26000001 cycles: 14415641 heartbeat IPC: 1.56967 cumulative IPC: 1.52468 (Simulation time: 0 hr 11 min 27 sec) 
Heartbeat CPU 0 instructions: 27000000 cycles: 15075166 heartbeat IPC: 1.51624 cumulative IPC: 1.52418 (Simulation time: 0 hr 11 min 55 sec) 
Heartbeat CPU 0 instructions: 28000000 cycles: 15752799 heartbeat IPC: 1.47573 cumulative IPC: 1.52141 (Simulation time: 0 hr 12 min 25 sec) 
Heartbeat CPU 0 instructions: 29000003 cycles: 16390103 heartbeat IPC: 1.56911 cumulative IPC: 1.52385 (Simulation time: 0 hr 12 min 56 sec) 
Heartbeat CPU 0 instructions: 30000001 cycles: 17037622 heartbeat IPC: 1.54435 cumulative IPC: 1.52486 (Simulation time: 0 hr 13 min 26 sec) 
Heartbeat CPU 0 instructions: 31000000 cycles: 17680130 heartbeat IPC: 1.5564 cumulative IPC: 1.52633 (Simulation time: 0 hr 13 min 53 sec) 
Heartbeat CPU 0 instructions: 32000000 cycles: 18305237 heartbeat IPC: 1.59973 cumulative IPC: 1.52952 (Simulation time: 0 hr 14 min 21 sec) 
Heartbeat CPU 0 instructions: 33000003 cycles: 18971853 heartbeat IPC: 1.50012 cumulative IPC: 1.52822 (Simulation time: 0 hr 14 min 52 sec) 
Heartbeat CPU 0 instructions: 34000002 cycles: 19671076 heartbeat IPC: 1.43016 cumulative IPC: 1.52387 (Simulation time: 0 hr 15 min 22 sec) 
Heartbeat CPU 0 instructions: 35000001 cycles: 20340857 heartbeat IPC: 1.49302 cumulative IPC: 1.52261 (Simulation time: 0 hr 15 min 48 sec) 
Heartbeat CPU 0 instructions: 36000000 cycles: 21000128 heartbeat IPC: 1.51683 cumulative IPC: 1.52238 (Simulation time: 0 hr 16 min 14 sec) 
Heartbeat CPU 0 instructions: 37000002 cycles: 21665817 heartbeat IPC: 1.50221 cumulative IPC: 1.52163 (Simulation time: 0 hr 16 min 43 sec) 
Heartbeat CPU 0 instructions: 38000002 cycles: 22313494 heartbeat IPC: 1.54398 cumulative IPC: 1.52241 (Simulation time: 0 hr 17 min 16 sec) 
Heartbeat CPU 0 instructions: 39000002 cycles: 23049783 heartbeat IPC: 1.35816 cumulative IPC: 1.51609 (Simulation time: 0 hr 17 min 44 sec) 
Heartbeat CPU 0 instructions: 40000000 cycles: 23557858 heartbeat IPC: 1.96821 cumulative IPC: 1.52779 (Simulation time: 0 hr 18 min 9 sec) 
Heartbeat CPU 0 instructions: 41000003 cycles: 24050048 heartbeat IPC: 2.03174 cumulative IPC: 1.54011 (Simulation time: 0 hr 18 min 34 sec) 
Heartbeat CPU 0 instructions: 42000001 cycles: 24573887 heartbeat IPC: 1.90898 cumulative IPC: 1.54947 (Simulation time: 0 hr 19 min 5 sec) 
Heartbeat CPU 0 instructions: 43000001 cycles: 25105035 heartbeat IPC: 1.88271 cumulative IPC: 1.55783 (Simulation time: 0 hr 19 min 30 sec) 
Heartbeat CPU 0 instructions: 44000000 cycles: 25825202 heartbeat IPC: 1.38857 cumulative IPC: 1.55226 (Simulation time: 0 hr 20 min 2 sec) 
Heartbeat CPU 0 instructions: 45000002 cycles: 26293824 heartbeat IPC: 2.13392 cumulative IPC: 1.56444 (Simulation time: 0 hr 20 min 28 sec) 
Heartbeat CPU 0 instructions: 46000003 cycles: 26817410 heartbeat IPC: 1.90991 cumulative IPC: 1.57234 (Simulation time: 0 hr 21 min 0 sec) 
Heartbeat CPU 0 instructions: 47000000 cycles: 27329901 heartbeat IPC: 1.95125 cumulative IPC: 1.58064 (Simulation time: 0 hr 21 min 30 sec) 
Heartbeat CPU 0 instructions: 48000000 cycles: 27883175 heartbeat IPC: 1.80742 cumulative IPC: 1.58588 (Simulation time: 0 hr 21 min 58 sec) 
Heartbeat CPU 0 instructions: 49000000 cycles: 28331841 heartbeat IPC: 2.22883 cumulative IPC: 1.59769 (Simulation time: 0 hr 22 min 24 sec) 
Heartbeat CPU 0 instructions: 50000002 cycles: 28818590 heartbeat IPC: 2.05445 cumulative IPC: 1.60662 (Simulation time: 0 hr 22 min 52 sec) 
Heartbeat CPU 0 instructions: 51000001 cycles: 29300396 heartbeat IPC: 2.07552 cumulative IPC: 1.61553 (Simulation time: 0 hr 23 min 20 sec) 
Heartbeat CPU 0 instructions: 52000000 cycles: 29736356 heartbeat IPC: 2.29379 cumulative IPC: 1.62698 (Simulation time: 0 hr 23 min 45 sec) 
Heartbeat CPU 0 instructions: 53000002 cycles: 30268596 heartbeat IPC: 1.87886 cumulative IPC: 1.63207 (Simulation time: 0 hr 24 min 16 sec) 
Heartbeat CPU 0 instructions: 54000002 cycles: 31071269 heartbeat IPC: 1.24584 cumulative IPC: 1.62065 (Simulation time: 0 hr 24 min 45 sec) 
Heartbeat CPU 0 instructions: 55000002 cycles: 31620595 heartbeat IPC: 1.82041 cumulative IPC: 1.62461 (Simulation time: 0 hr 25 min 13 sec) 
Heartbeat CPU 0 instructions: 56000000 cycles: 32117805 heartbeat IPC: 2.01122 cumulative IPC: 1.63143 (Simulation time: 0 hr 25 min 48 sec) 
Heartbeat CPU 0 instructions: 57000000 cycles: 32666222 heartbeat IPC: 1.82343 cumulative IPC: 1.63509 (Simulation time: 0 hr 26 min 16 sec) 
Heartbeat CPU 0 instructions: 58000003 cycles: 33119950 heartbeat IPC: 2.20397 cumulative IPC: 1.64393 (Simulation time: 0 hr 26 min 41 sec) 
Heartbeat CPU 0 instructions: 59000001 cycles: 33659306 heartbeat IPC: 1.85406 cumulative IPC: 1.64774 (Simulation time: 0 hr 27 min 6 sec) 
Heartbeat CPU 0 instructions: 60000000 cycles: 34144941 heartbeat IPC: 2.05916 cumulative IPC: 1.65435 (Simulation time: 0 hr 27 min 30 sec) 
Heartbeat CPU 0 instructions: 61000002 cycles: 34661939 heartbeat IPC: 1.93425 cumulative IPC: 1.65906 (Simulation time: 0 hr 27 min 55 sec) 
Heartbeat CPU 0 instructions: 62000003 cycles: 35186492 heartbeat IPC: 1.90639 cumulative IPC: 1.66321 (Simulation time: 0 hr 28 min 25 sec) 
Heartbeat CPU 0 instructions: 63000003 cycles: 35869275 heartbeat IPC: 1.46459 cumulative IPC: 1.65897 (Simulation time: 0 hr 28 min 52 sec) 
Heartbeat CPU 0 instructions: 64000000 cycles: 36361739 heartbeat IPC: 2.0306 cumulative IPC: 1.66461 (Simulation time: 0 hr 29 min 18 sec) 
Heartbeat CPU 0 instructions: 65000001 cycles: 36891003 heartbeat IPC: 1.88942 cumulative IPC: 1.66822 (Simulation time: 0 hr 29 min 43 sec) 
Heartbeat CPU 0 instructions: 66000001 cycles: 37546353 heartbeat IPC: 1.5259 cumulative IPC: 1.66544 (Simulation time: 0 hr 30 min 13 sec) 
Heartbeat CPU 0 instructions: 67000003 cycles: 38139635 heartbeat IPC: 1.68554 cumulative IPC: 1.66579 (Simulation time: 0 hr 30 min 42 sec) 
Heartbeat CPU 0 instructions: 68000000 cycles: 38721178 heartbeat IPC: 1.71956 cumulative IPC: 1.66669 (Simulation time: 0 hr 31 min 13 sec) 
Heartbeat CPU 0 instructions: 69000001 cycles: 39296510 heartbeat IPC: 1.73813 cumulative IPC: 1.66785 (Simulation time: 0 hr 31 min 40 sec) 
Heartbeat CPU 0 instructions: 70000002 cycles: 39882039 heartbeat IPC: 1.70786 cumulative IPC: 1.6685 (Simulation time: 0 hr 32 min 10 sec) 
Heartbeat CPU 0 instructions: 71000003 cycles: 40459199 heartbeat IPC: 1.73262 cumulative IPC: 1.66952 (Simulation time: 0 hr 32 min 40 sec) 
Heartbeat CPU 0 instructions: 72000000 cycles: 41040617 heartbeat IPC: 1.71993 cumulative IPC: 1.67031 (Simulation time: 0 hr 33 min 8 sec) 
Heartbeat CPU 0 instructions: 73000000 cycles: 41624730 heartbeat IPC: 1.712 cumulative IPC: 1.67095 (Simulation time: 0 hr 33 min 36 sec) 
Heartbeat CPU 0 instructions: 74000000 cycles: 42201637 heartbeat IPC: 1.73338 cumulative IPC: 1.67189 (Simulation time: 0 hr 34 min 4 sec) 
Heartbeat CPU 0 instructions: 75000000 cycles: 42843235 heartbeat IPC: 1.55861 cumulative IPC: 1.67002 (Simulation time: 0 hr 34 min 31 sec) 
Heartbeat CPU 0 instructions: 76000000 cycles: 43444834 heartbeat IPC: 1.66224 cumulative IPC: 1.66991 (Simulation time: 0 hr 34 min 59 sec) 
Heartbeat CPU 0 instructions: 77000003 cycles: 44047518 heartbeat IPC: 1.65925 cumulative IPC: 1.66975 (Simulation time: 0 hr 35 min 24 sec) 
Heartbeat CPU 0 instructions: 78000002 cycles: 44646494 heartbeat IPC: 1.66951 cumulative IPC: 1.66974 (Simulation time: 0 hr 35 min 52 sec) 
Heartbeat CPU 0 instructions: 79000001 cycles: 45235755 heartbeat IPC: 1.69704 cumulative IPC: 1.67013 (Simulation time: 0 hr 36 min 18 sec) 
Heartbeat CPU 0 instructions: 80000000 cycles: 45831780 heartbeat IPC: 1.67778 cumulative IPC: 1.67024 (Simulation time: 0 hr 36 min 45 sec) 
Heartbeat CPU 0 instructions: 81000001 cycles: 46423947 heartbeat IPC: 1.68871 cumulative IPC: 1.6705 (Simulation time: 0 hr 37 min 12 sec) 
Heartbeat CPU 0 instructions: 82000001 cycles: 47008625 heartbeat IPC: 1.71034 cumulative IPC: 1.67104 (Simulation time: 0 hr 37 min 40 sec) 
Heartbeat CPU 0 instructions: 83000003 cycles: 47595654 heartbeat IPC: 1.7035 cumulative IPC: 1.67148 (Simulation time: 0 hr 38 min 7 sec) 
Heartbeat CPU 0 instructions: 84000000 cycles: 48217102 heartbeat IPC: 1.60914 cumulative IPC: 1.6706 (Simulation time: 0 hr 38 min 38 sec) 
Heartbeat CPU 0 instructions: 85000002 cycles: 48767825 heartbeat IPC: 1.8158 cumulative IPC: 1.67238 (Simulation time: 0 hr 39 min 3 sec) 
Heartbeat CPU 0 instructions: 86000001 cycles: 49483351 heartbeat IPC: 1.39757 cumulative IPC: 1.66807 (Simulation time: 0 hr 39 min 33 sec) 
Heartbeat CPU 0 instructions: 87000003 cycles: 50074768 heartbeat IPC: 1.69086 cumulative IPC: 1.66836 (Simulation time: 0 hr 40 min 1 sec) 
Heartbeat CPU 0 instructions: 88000000 cycles: 50544310 heartbeat IPC: 2.12973 cumulative IPC: 1.67301 (Simulation time: 0 hr 40 min 25 sec) 
Heartbeat CPU 0 instructions: 89000000 cycles: 51010167 heartbeat IPC: 2.14658 cumulative IPC: 1.67769 (Simulation time: 0 hr 40 min 51 sec) 
Heartbeat CPU 0 instructions: 90000001 cycles: 51482225 heartbeat IPC: 2.11839 cumulative IPC: 1.68207 (Simulation time: 0 hr 41 min 23 sec) 
Heartbeat CPU 0 instructions: 91000002 cycles: 52033479 heartbeat IPC: 1.81405 cumulative IPC: 1.68358 (Simulation time: 0 hr 41 min 50 sec) 
Heartbeat CPU 0 instructions: 92000000 cycles: 52566622 heartbeat IPC: 1.87567 cumulative IPC: 1.68568 (Simulation time: 0 hr 42 min 15 sec) 
Heartbeat CPU 0 instructions: 93000000 cycles: 53104578 heartbeat IPC: 1.85889 cumulative IPC: 1.68758 (Simulation time: 0 hr 42 min 40 sec) 
Heartbeat CPU 0 instructions: 94000003 cycles: 53622202 heartbeat IPC: 1.93191 cumulative IPC: 1.69012 (Simulation time: 0 hr 43 min 9 sec) 
Heartbeat CPU 0 instructions: 95000003 cycles: 54174806 heartbeat IPC: 1.80961 cumulative IPC: 1.69144 (Simulation time: 0 hr 43 min 36 sec) 
Heartbeat CPU 0 instructions: 96000000 cycles: 54656522 heartbeat IPC: 2.07591 cumulative IPC: 1.69509 (Simulation time: 0 hr 43 min 59 sec) 
Heartbeat CPU 0 instructions: 97000002 cycles: 55150534 heartbeat IPC: 2.02425 cumulative IPC: 1.69826 (Simulation time: 0 hr 44 min 28 sec) 
Heartbeat CPU 0 instructions: 98000001 cycles: 55626339 heartbeat IPC: 2.1017 cumulative IPC: 1.70197 (Simulation time: 0 hr 44 min 55 sec) 
Heartbeat CPU 0 instructions: 99000001 cycles: 56175608 heartbeat IPC: 1.8206 cumulative IPC: 1.70322 (Simulation time: 0 hr 45 min 22 sec) 
Heartbeat CPU 0 instructions: 100000000 cycles: 56666459 heartbeat IPC: 2.03728 cumulative IPC: 1.70633 (Simulation time: 0 hr 45 min 48 sec) 
Heartbeat CPU 0 instructions: 101000001 cycles: 57155042 heartbeat IPC: 2.04674 cumulative IPC: 1.70945 (Simulation time: 0 hr 46 min 17 sec) 
Heartbeat CPU 0 instructions: 102000003 cycles: 57627496 heartbeat IPC: 2.11661 cumulative IPC: 1.71304 (Simulation time: 0 hr 46 min 43 sec) 
Heartbeat CPU 0 instructions: 103000003 cycles: 58164965 heartbeat IPC: 1.86057 cumulative IPC: 1.7145 (Simulation time: 0 hr 47 min 9 sec) 
Heartbeat CPU 0 instructions: 104000000 cycles: 58724197 heartbeat IPC: 1.78816 cumulative IPC: 1.71525 (Simulation time: 0 hr 47 min 36 sec) 
Heartbeat CPU 0 instructions: 105000001 cycles: 59151111 heartbeat IPC: 2.34239 cumulative IPC: 1.7201 (Simulation time: 0 hr 48 min 4 sec) 
Heartbeat CPU 0 instructions: 106000002 cycles: 59599862 heartbeat IPC: 2.22841 cumulative IPC: 1.72419 (Simulation time: 0 hr 48 min 32 sec) 
Heartbeat CPU 0 instructions: 107000001 cycles: 60052581 heartbeat IPC: 2.20887 cumulative IPC: 1.7281 (Simulation time: 0 hr 48 min 57 sec) 
Heartbeat CPU 0 instructions: 108000000 cycles: 60471636 heartbeat IPC: 2.38632 cumulative IPC: 1.73298 (Simulation time: 0 hr 49 min 23 sec) 
Heartbeat CPU 0 instructions: 109000000 cycles: 60948981 heartbeat IPC: 2.09492 cumulative IPC: 1.73601 (Simulation time: 0 hr 49 min 51 sec) 
Heartbeat CPU 0 instructions: 110000000 cycles: 61367692 heartbeat IPC: 2.38828 cumulative IPC: 1.74076 (Simulation time: 0 hr 50 min 15 sec) 
Finished CPU 0 instructions: 100000000 cycles: 57446030 cummulative IPC: 1.74076 (Simulation time: 0 hr 50 min 15 sec) 

ChampSim completed all CPUs

Region of Interest Statistics

CPU 0 cummulative IPC: 1.74076 instructions: 100000000 cycles: 57446030
LLC TOTAL     ACCESS:     865134  HIT:     194670  MISS:     670464
LLC LOAD      ACCESS:     110528  HIT:      89574  MISS:      20954
LLC RFO       ACCESS:        413  HIT:        407  MISS:          6
LLC PREFETCH  ACCESS:     655881  HIT:      48945  MISS:     606936
LLC WRITEBACK ACCESS:      98312  HIT:      55744  MISS:      42568
