
*** ChampSim Multicore Out-of-Order Simulator ***

Warmup Instructions: 10000000
Simulation Instructions: 100000000
Configuration: 2
Number of CPUs: 1
LLC sets: 2048
LLC ways: 16
Off-chip DRAM Channels: 1 Width: 64-bit Data Rate: 1600 MT/s

CPU 0 runs /datasets/cs240c-wi22-a00-public/data/Assignment2-gz/wrf_1228B.trace.gz
CPU 0 L1D next line prefetcher
CPU 0 L2C IP-based stride prefetcher
Heartbeat CPU 0 instructions: 1000003 cycles: 591063 heartbeat IPC: 1.69187 cumulative IPC: 1.69187 (Simulation time: 0 hr 0 min 31 sec) 
select_counter is 680
Heartbeat CPU 0 instructions: 2000002 cycles: 1111169 heartbeat IPC: 1.92268 cumulative IPC: 1.79991 (Simulation time: 0 hr 1 min 2 sec) 
select_counter is 1023
Heartbeat CPU 0 instructions: 3000000 cycles: 1729128 heartbeat IPC: 1.61823 cumulative IPC: 1.73498 (Simulation time: 0 hr 1 min 35 sec) 
select_counter is 906
Heartbeat CPU 0 instructions: 4000000 cycles: 2349777 heartbeat IPC: 1.61122 cumulative IPC: 1.70229 (Simulation time: 0 hr 2 min 8 sec) 
select_counter is 1023
Heartbeat CPU 0 instructions: 5000000 cycles: 3052145 heartbeat IPC: 1.42376 cumulative IPC: 1.63819 (Simulation time: 0 hr 2 min 44 sec) 
select_counter is 1022
Heartbeat CPU 0 instructions: 6000000 cycles: 3612233 heartbeat IPC: 1.78543 cumulative IPC: 1.66102 (Simulation time: 0 hr 3 min 18 sec) 
select_counter is 969
Heartbeat CPU 0 instructions: 7000001 cycles: 4164997 heartbeat IPC: 1.80909 cumulative IPC: 1.68067 (Simulation time: 0 hr 3 min 48 sec) 
select_counter is 943
Heartbeat CPU 0 instructions: 8000000 cycles: 4716361 heartbeat IPC: 1.81368 cumulative IPC: 1.69622 (Simulation time: 0 hr 4 min 19 sec) 
select_counter is 996
Heartbeat CPU 0 instructions: 9000002 cycles: 5266551 heartbeat IPC: 1.81756 cumulative IPC: 1.7089 (Simulation time: 0 hr 4 min 53 sec) 
select_counter is 1023
Heartbeat CPU 0 instructions: 10000001 cycles: 5819447 heartbeat IPC: 1.80866 cumulative IPC: 1.71838 (Simulation time: 0 hr 5 min 24 sec) 
select_counter is 1021

Warmup complete CPU 0 instructions: 10000001 cycles: 5819447 (Simulation time: 0 hr 5 min 24 sec) 

Heartbeat CPU 0 instructions: 11000000 cycles: 6683157 heartbeat IPC: 1.15779 cumulative IPC: 1.15779 (Simulation time: 0 hr 5 min 55 sec) 
select_counter is 1023
Heartbeat CPU 0 instructions: 12000000 cycles: 7578980 heartbeat IPC: 1.11629 cumulative IPC: 1.13666 (Simulation time: 0 hr 6 min 26 sec) 
select_counter is 1021
Heartbeat CPU 0 instructions: 13000003 cycles: 8482803 heartbeat IPC: 1.10641 cumulative IPC: 1.1264 (Simulation time: 0 hr 6 min 58 sec) 
select_counter is 1022
Heartbeat CPU 0 instructions: 14000002 cycles: 9377564 heartbeat IPC: 1.11762 cumulative IPC: 1.12419 (Simulation time: 0 hr 7 min 27 sec) 
select_counter is 992
Heartbeat CPU 0 instructions: 15000001 cycles: 10222335 heartbeat IPC: 1.18375 cumulative IPC: 1.13562 (Simulation time: 0 hr 7 min 56 sec) 
select_counter is 900
Heartbeat CPU 0 instructions: 16000000 cycles: 11060106 heartbeat IPC: 1.19364 cumulative IPC: 1.14489 (Simulation time: 0 hr 8 min 23 sec) 
select_counter is 871
Heartbeat CPU 0 instructions: 17000002 cycles: 11908050 heartbeat IPC: 1.17933 cumulative IPC: 1.14969 (Simulation time: 0 hr 8 min 49 sec) 
select_counter is 962
Heartbeat CPU 0 instructions: 18000003 cycles: 12725421 heartbeat IPC: 1.22344 cumulative IPC: 1.15842 (Simulation time: 0 hr 9 min 17 sec) 
select_counter is 1021
Heartbeat CPU 0 instructions: 19000000 cycles: 13525164 heartbeat IPC: 1.2504 cumulative IPC: 1.16796 (Simulation time: 0 hr 9 min 43 sec) 
select_counter is 1023
Heartbeat CPU 0 instructions: 20000000 cycles: 14327826 heartbeat IPC: 1.24585 cumulative IPC: 1.17531 (Simulation time: 0 hr 10 min 11 sec) 
select_counter is 1023
Heartbeat CPU 0 instructions: 21000000 cycles: 15125974 heartbeat IPC: 1.2529 cumulative IPC: 1.18197 (Simulation time: 0 hr 10 min 38 sec) 
select_counter is 1023
Heartbeat CPU 0 instructions: 22000000 cycles: 15951530 heartbeat IPC: 1.2113 cumulative IPC: 1.18436 (Simulation time: 0 hr 11 min 6 sec) 
select_counter is 1019
Heartbeat CPU 0 instructions: 23000003 cycles: 16907000 heartbeat IPC: 1.04661 cumulative IPC: 1.17249 (Simulation time: 0 hr 11 min 38 sec) 
select_counter is 895
Heartbeat CPU 0 instructions: 24000000 cycles: 17851033 heartbeat IPC: 1.05928 cumulative IPC: 1.1636 (Simulation time: 0 hr 12 min 11 sec) 
select_counter is 868
Heartbeat CPU 0 instructions: 25000000 cycles: 18803235 heartbeat IPC: 1.0502 cumulative IPC: 1.15529 (Simulation time: 0 hr 12 min 41 sec) 
select_counter is 950
Heartbeat CPU 0 instructions: 26000003 cycles: 19737339 heartbeat IPC: 1.07055 cumulative IPC: 1.1496 (Simulation time: 0 hr 13 min 12 sec) 
select_counter is 1020
Heartbeat CPU 0 instructions: 27000003 cycles: 20666106 heartbeat IPC: 1.0767 cumulative IPC: 1.14504 (Simulation time: 0 hr 13 min 42 sec) 
select_counter is 1023
Heartbeat CPU 0 instructions: 28000000 cycles: 21598072 heartbeat IPC: 1.073 cumulative IPC: 1.14078 (Simulation time: 0 hr 14 min 11 sec) 
select_counter is 1021
Heartbeat CPU 0 instructions: 29000003 cycles: 23236380 heartbeat IPC: 0.610388 cumulative IPC: 1.09089 (Simulation time: 0 hr 14 min 51 sec) 
select_counter is 1022
Heartbeat CPU 0 instructions: 30000000 cycles: 24966505 heartbeat IPC: 0.577991 cumulative IPC: 1.04455 (Simulation time: 0 hr 15 min 25 sec) 
select_counter is 1023
Heartbeat CPU 0 instructions: 31000003 cycles: 26873200 heartbeat IPC: 0.524469 cumulative IPC: 0.997447 (Simulation time: 0 hr 16 min 3 sec) 
select_counter is 906
Heartbeat CPU 0 instructions: 32000000 cycles: 28643264 heartbeat IPC: 0.56495 cumulative IPC: 0.963905 (Simulation time: 0 hr 16 min 40 sec) 
select_counter is 1016
Heartbeat CPU 0 instructions: 33000001 cycles: 30073850 heartbeat IPC: 0.699015 cumulative IPC: 0.948281 (Simulation time: 0 hr 17 min 15 sec) 
select_counter is 1018
Heartbeat CPU 0 instructions: 34000002 cycles: 31535804 heartbeat IPC: 0.684017 cumulative IPC: 0.933258 (Simulation time: 0 hr 17 min 52 sec) 
select_counter is 949
Heartbeat CPU 0 instructions: 35000001 cycles: 33282413 heartbeat IPC: 0.572537 cumulative IPC: 0.910317 (Simulation time: 0 hr 18 min 31 sec) 
select_counter is 634
Heartbeat CPU 0 instructions: 36000000 cycles: 34260556 heartbeat IPC: 1.02234 cumulative IPC: 0.91417 (Simulation time: 0 hr 19 min 2 sec) 
select_counter is 526
Heartbeat CPU 0 instructions: 37000001 cycles: 35252226 heartbeat IPC: 1.0084 cumulative IPC: 0.917345 (Simulation time: 0 hr 19 min 34 sec) 
select_counter is 442
Heartbeat CPU 0 instructions: 38000003 cycles: 36200383 heartbeat IPC: 1.05468 cumulative IPC: 0.921631 (Simulation time: 0 hr 20 min 4 sec) 
select_counter is 404
Heartbeat CPU 0 instructions: 39000002 cycles: 37182358 heartbeat IPC: 1.01835 cumulative IPC: 0.924659 (Simulation time: 0 hr 20 min 34 sec) 
select_counter is 303
Heartbeat CPU 0 instructions: 40000000 cycles: 38146463 heartbeat IPC: 1.03723 cumulative IPC: 0.928016 (Simulation time: 0 hr 21 min 4 sec) 
select_counter is 232
Heartbeat CPU 0 instructions: 41000000 cycles: 39118599 heartbeat IPC: 1.02866 cumulative IPC: 0.930955 (Simulation time: 0 hr 21 min 35 sec) 
select_counter is 244
Heartbeat CPU 0 instructions: 42000002 cycles: 40081532 heartbeat IPC: 1.0385 cumulative IPC: 0.933977 (Simulation time: 0 hr 22 min 5 sec) 
select_counter is 265
Heartbeat CPU 0 instructions: 43000000 cycles: 41049947 heartbeat IPC: 1.03261 cumulative IPC: 0.936688 (Simulation time: 0 hr 22 min 37 sec) 
select_counter is 248
Heartbeat CPU 0 instructions: 44000000 cycles: 41922794 heartbeat IPC: 1.14568 cumulative IPC: 0.941741 (Simulation time: 0 hr 23 min 6 sec) 
select_counter is 200
Heartbeat CPU 0 instructions: 45000000 cycles: 42780727 heartbeat IPC: 1.16559 cumulative IPC: 0.946937 (Simulation time: 0 hr 23 min 33 sec) 
select_counter is 118
Heartbeat CPU 0 instructions: 46000001 cycles: 43666279 heartbeat IPC: 1.12924 cumulative IPC: 0.951202 (Simulation time: 0 hr 23 min 59 sec) 
select_counter is 76
Heartbeat CPU 0 instructions: 47000001 cycles: 44557576 heartbeat IPC: 1.12196 cumulative IPC: 0.955131 (Simulation time: 0 hr 24 min 28 sec) 
select_counter is 43
Heartbeat CPU 0 instructions: 48000000 cycles: 45446382 heartbeat IPC: 1.1251 cumulative IPC: 0.958944 (Simulation time: 0 hr 24 min 55 sec) 
select_counter is 1013
Heartbeat CPU 0 instructions: 49000001 cycles: 46333640 heartbeat IPC: 1.12707 cumulative IPC: 0.962626 (Simulation time: 0 hr 25 min 23 sec) 
select_counter is 1003
Heartbeat CPU 0 instructions: 50000002 cycles: 47239552 heartbeat IPC: 1.10386 cumulative IPC: 0.965715 (Simulation time: 0 hr 25 min 49 sec) 
select_counter is 1023
Heartbeat CPU 0 instructions: 51000001 cycles: 48130217 heartbeat IPC: 1.12276 cumulative IPC: 0.96902 (Simulation time: 0 hr 26 min 16 sec) 
select_counter is 1018
Heartbeat CPU 0 instructions: 52000000 cycles: 49056231 heartbeat IPC: 1.0799 cumulative IPC: 0.971395 (Simulation time: 0 hr 26 min 44 sec) 
select_counter is 1009
Heartbeat CPU 0 instructions: 53000002 cycles: 50050314 heartbeat IPC: 1.00595 cumulative IPC: 0.972172 (Simulation time: 0 hr 27 min 13 sec) 
select_counter is 914
Heartbeat CPU 0 instructions: 54000001 cycles: 51048011 heartbeat IPC: 1.00231 cumulative IPC: 0.972837 (Simulation time: 0 hr 27 min 42 sec) 
select_counter is 834
Heartbeat CPU 0 instructions: 55000003 cycles: 52054506 heartbeat IPC: 0.993549 cumulative IPC: 0.973287 (Simulation time: 0 hr 28 min 11 sec) 
select_counter is 765
Heartbeat CPU 0 instructions: 56000000 cycles: 53067470 heartbeat IPC: 0.987199 cumulative IPC: 0.973586 (Simulation time: 0 hr 28 min 41 sec) 
select_counter is 722
Heartbeat CPU 0 instructions: 57000001 cycles: 54074681 heartbeat IPC: 0.992842 cumulative IPC: 0.973988 (Simulation time: 0 hr 29 min 11 sec) 
select_counter is 788
Heartbeat CPU 0 instructions: 58000000 cycles: 55080360 heartbeat IPC: 0.994352 cumulative IPC: 0.974403 (Simulation time: 0 hr 29 min 39 sec) 
select_counter is 816
Heartbeat CPU 0 instructions: 59000001 cycles: 56674148 heartbeat IPC: 0.627437 cumulative IPC: 0.963529 (Simulation time: 0 hr 30 min 12 sec) 
select_counter is 521
Heartbeat CPU 0 instructions: 60000000 cycles: 58398064 heartbeat IPC: 0.580074 cumulative IPC: 0.950957 (Simulation time: 0 hr 30 min 46 sec) 
select_counter is 287
Heartbeat CPU 0 instructions: 61000000 cycles: 60286427 heartbeat IPC: 0.529559 cumulative IPC: 0.936347 (Simulation time: 0 hr 31 min 20 sec) 
select_counter is 803
Heartbeat CPU 0 instructions: 62000000 cycles: 61923142 heartbeat IPC: 0.61098 cumulative IPC: 0.926855 (Simulation time: 0 hr 31 min 55 sec) 
select_counter is 860
Heartbeat CPU 0 instructions: 63000001 cycles: 63343145 heartbeat IPC: 0.704225 cumulative IPC: 0.921359 (Simulation time: 0 hr 32 min 30 sec) 
select_counter is 597
Heartbeat CPU 0 instructions: 64000000 cycles: 64834663 heartbeat IPC: 0.670457 cumulative IPC: 0.915018 (Simulation time: 0 hr 33 min 4 sec) 
select_counter is 600
Heartbeat CPU 0 instructions: 65000003 cycles: 66329490 heartbeat IPC: 0.668976 cumulative IPC: 0.90894 (Simulation time: 0 hr 33 min 40 sec) 
select_counter is 600
Heartbeat CPU 0 instructions: 66000000 cycles: 67825261 heartbeat IPC: 0.66855 cumulative IPC: 0.903141 (Simulation time: 0 hr 34 min 15 sec) 
select_counter is 600
Heartbeat CPU 0 instructions: 67000000 cycles: 69319784 heartbeat IPC: 0.66911 cumulative IPC: 0.897633 (Simulation time: 0 hr 34 min 49 sec) 
select_counter is 602
Heartbeat CPU 0 instructions: 68000000 cycles: 70814236 heartbeat IPC: 0.669142 cumulative IPC: 0.892379 (Simulation time: 0 hr 35 min 26 sec) 
select_counter is 613
Heartbeat CPU 0 instructions: 69000000 cycles: 72321482 heartbeat IPC: 0.663462 cumulative IPC: 0.887191 (Simulation time: 0 hr 36 min 3 sec) 
select_counter is 618
Heartbeat CPU 0 instructions: 70000001 cycles: 73818058 heartbeat IPC: 0.668193 cumulative IPC: 0.882371 (Simulation time: 0 hr 36 min 39 sec) 
select_counter is 631
Heartbeat CPU 0 instructions: 71000001 cycles: 75312081 heartbeat IPC: 0.669334 cumulative IPC: 0.877791 (Simulation time: 0 hr 37 min 15 sec) 
select_counter is 640
Heartbeat CPU 0 instructions: 72000000 cycles: 76795034 heartbeat IPC: 0.67433 cumulative IPC: 0.87354 (Simulation time: 0 hr 37 min 47 sec) 
select_counter is 650
Heartbeat CPU 0 instructions: 73000003 cycles: 78282743 heartbeat IPC: 0.672176 cumulative IPC: 0.869406 (Simulation time: 0 hr 38 min 23 sec) 
select_counter is 661
Heartbeat CPU 0 instructions: 74000000 cycles: 79780270 heartbeat IPC: 0.667766 cumulative IPC: 0.865323 (Simulation time: 0 hr 39 min 1 sec) 
select_counter is 676
Heartbeat CPU 0 instructions: 75000001 cycles: 81274244 heartbeat IPC: 0.669356 cumulative IPC: 0.861443 (Simulation time: 0 hr 39 min 37 sec) 
select_counter is 692
Heartbeat CPU 0 instructions: 76000000 cycles: 82770676 heartbeat IPC: 0.668256 cumulative IPC: 0.857686 (Simulation time: 0 hr 40 min 14 sec) 
select_counter is 705
Heartbeat CPU 0 instructions: 77000003 cycles: 84264471 heartbeat IPC: 0.669438 cumulative IPC: 0.854101 (Simulation time: 0 hr 40 min 49 sec) 
select_counter is 717
Heartbeat CPU 0 instructions: 78000001 cycles: 85759166 heartbeat IPC: 0.669032 cumulative IPC: 0.850641 (Simulation time: 0 hr 41 min 26 sec) 
select_counter is 726
Heartbeat CPU 0 instructions: 79000000 cycles: 87255605 heartbeat IPC: 0.668252 cumulative IPC: 0.847289 (Simulation time: 0 hr 42 min 1 sec) 
select_counter is 729
Heartbeat CPU 0 instructions: 80000000 cycles: 88745984 heartbeat IPC: 0.67097 cumulative IPC: 0.844121 (Simulation time: 0 hr 42 min 37 sec) 
select_counter is 749
Heartbeat CPU 0 instructions: 81000001 cycles: 90229926 heartbeat IPC: 0.673881 cumulative IPC: 0.841128 (Simulation time: 0 hr 43 min 12 sec) 
select_counter is 755
Heartbeat CPU 0 instructions: 82000000 cycles: 91712890 heartbeat IPC: 0.674325 cumulative IPC: 0.838248 (Simulation time: 0 hr 43 min 47 sec) 
select_counter is 764
Heartbeat CPU 0 instructions: 83000000 cycles: 93196241 heartbeat IPC: 0.674149 cumulative IPC: 0.835462 (Simulation time: 0 hr 44 min 20 sec) 
select_counter is 782
Heartbeat CPU 0 instructions: 84000000 cycles: 94691144 heartbeat IPC: 0.66894 cumulative IPC: 0.832661 (Simulation time: 0 hr 44 min 53 sec) 
select_counter is 796
Heartbeat CPU 0 instructions: 85000000 cycles: 96186025 heartbeat IPC: 0.66895 cumulative IPC: 0.829953 (Simulation time: 0 hr 45 min 27 sec) 
select_counter is 806
Heartbeat CPU 0 instructions: 86000000 cycles: 97680117 heartbeat IPC: 0.669303 cumulative IPC: 0.82734 (Simulation time: 0 hr 45 min 59 sec) 
select_counter is 820
Heartbeat CPU 0 instructions: 87000000 cycles: 99174971 heartbeat IPC: 0.668962 cumulative IPC: 0.824804 (Simulation time: 0 hr 46 min 33 sec) 
select_counter is 824
Heartbeat CPU 0 instructions: 88000000 cycles: 100670189 heartbeat IPC: 0.668799 cumulative IPC: 0.822345 (Simulation time: 0 hr 47 min 7 sec) 
select_counter is 843
Heartbeat CPU 0 instructions: 89000002 cycles: 102166027 heartbeat IPC: 0.668523 cumulative IPC: 0.819956 (Simulation time: 0 hr 47 min 39 sec) 
select_counter is 854
Heartbeat CPU 0 instructions: 90000000 cycles: 103650363 heartbeat IPC: 0.673701 cumulative IPC: 0.817737 (Simulation time: 0 hr 48 min 10 sec) 
select_counter is 862
Heartbeat CPU 0 instructions: 91000000 cycles: 105133959 heartbeat IPC: 0.674038 cumulative IPC: 0.815591 (Simulation time: 0 hr 48 min 40 sec) 
select_counter is 880
Heartbeat CPU 0 instructions: 92000000 cycles: 106617798 heartbeat IPC: 0.673928 cumulative IPC: 0.813505 (Simulation time: 0 hr 49 min 7 sec) 
select_counter is 885
Heartbeat CPU 0 instructions: 93000000 cycles: 108107535 heartbeat IPC: 0.671259 cumulative IPC: 0.811434 (Simulation time: 0 hr 49 min 32 sec) 
select_counter is 897
Heartbeat CPU 0 instructions: 94000003 cycles: 109601390 heartbeat IPC: 0.669411 cumulative IPC: 0.809389 (Simulation time: 0 hr 49 min 56 sec) 
select_counter is 907
Heartbeat CPU 0 instructions: 95000000 cycles: 111097186 heartbeat IPC: 0.668538 cumulative IPC: 0.807388 (Simulation time: 0 hr 50 min 20 sec) 
select_counter is 915
Heartbeat CPU 0 instructions: 96000000 cycles: 112591135 heartbeat IPC: 0.669367 cumulative IPC: 0.805457 (Simulation time: 0 hr 50 min 43 sec) 
select_counter is 926
Heartbeat CPU 0 instructions: 97000001 cycles: 114086683 heartbeat IPC: 0.668652 cumulative IPC: 0.803567 (Simulation time: 0 hr 51 min 5 sec) 
select_counter is 939
Heartbeat CPU 0 instructions: 98000003 cycles: 115582062 heartbeat IPC: 0.668728 cumulative IPC: 0.80173 (Simulation time: 0 hr 51 min 25 sec) 
select_counter is 948
Heartbeat CPU 0 instructions: 99000000 cycles: 117071168 heartbeat IPC: 0.671542 cumulative IPC: 0.799988 (Simulation time: 0 hr 51 min 46 sec) 
select_counter is 956
Heartbeat CPU 0 instructions: 100000000 cycles: 118554563 heartbeat IPC: 0.674129 cumulative IPC: 0.798332 (Simulation time: 0 hr 52 min 7 sec) 
select_counter is 966
Heartbeat CPU 0 instructions: 101000000 cycles: 120037773 heartbeat IPC: 0.674213 cumulative IPC: 0.79672 (Simulation time: 0 hr 52 min 26 sec) 
select_counter is 980
Heartbeat CPU 0 instructions: 102000003 cycles: 121521355 heartbeat IPC: 0.674046 cumulative IPC: 0.795147 (Simulation time: 0 hr 52 min 46 sec) 
select_counter is 993
Heartbeat CPU 0 instructions: 103000003 cycles: 123017617 heartbeat IPC: 0.668332 cumulative IPC: 0.793528 (Simulation time: 0 hr 53 min 4 sec) 
select_counter is 1003
Heartbeat CPU 0 instructions: 104000000 cycles: 124512643 heartbeat IPC: 0.668883 cumulative IPC: 0.791958 (Simulation time: 0 hr 53 min 22 sec) 
select_counter is 1013
Heartbeat CPU 0 instructions: 105000000 cycles: 126007459 heartbeat IPC: 0.668979 cumulative IPC: 0.790428 (Simulation time: 0 hr 53 min 40 sec) 
select_counter is 1022
Heartbeat CPU 0 instructions: 106000000 cycles: 127502520 heartbeat IPC: 0.668869 cumulative IPC: 0.788935 (Simulation time: 0 hr 53 min 57 sec) 
select_counter is 1018
Heartbeat CPU 0 instructions: 107000000 cycles: 128998490 heartbeat IPC: 0.668463 cumulative IPC: 0.787472 (Simulation time: 0 hr 54 min 14 sec) 
select_counter is 1020
Heartbeat CPU 0 instructions: 108000000 cycles: 130494067 heartbeat IPC: 0.668638 cumulative IPC: 0.786046 (Simulation time: 0 hr 54 min 30 sec) 
select_counter is 1023
Heartbeat CPU 0 instructions: 109000003 cycles: 131976926 heartbeat IPC: 0.674375 cumulative IPC: 0.784734 (Simulation time: 0 hr 54 min 45 sec) 
select_counter is 1019
Heartbeat CPU 0 instructions: 110000001 cycles: 133460534 heartbeat IPC: 0.674031 cumulative IPC: 0.783447 (Simulation time: 0 hr 55 min 1 sec) 
select_counter is 1023
Finished CPU 0 instructions: 100000000 cycles: 127641087 cummulative IPC: 0.783447 (Simulation time: 0 hr 55 min 1 sec) 

ChampSim completed all CPUs

Region of Interest Statistics

CPU 0 cummulative IPC: 0.783447 instructions: 100000000 cycles: 127641087
LLC TOTAL     ACCESS:    1495390  HIT:     483729  MISS:    1011661
LLC LOAD      ACCESS:      90302  HIT:      27513  MISS:      62789
LLC RFO       ACCESS:     219210  HIT:      43375  MISS:     175835
LLC PREFETCH  ACCESS:     749734  HIT:     148983  MISS:     600751
LLC WRITEBACK ACCESS:     436144  HIT:     263858  MISS:     172286
Ship samples: 
28, 49, 76, 107, 131, 175, 192, 240, 282, 304, 328, 368, 384, 430, 474, 496, 514, 572, 586, 627, 643, 701, 713, 754, 773, 815, 847, 880, 920, 952, 980, 1000, 1035, 1077, 1111, 1134, 1152, 1187, 1220, 1266, 1302, 1334, 1360, 1389, 1438, 1443, 1480, 1522, 1566, 1592, 1610, 1647, 1688, 1719, 1753, 1763, 1802, 1828, 1886, 1898, 1937, 1955, 1991, 2022, 
Lime duel samples: 
7, 45, 69, 104, 132, 188, 207, 231, 271, 312, 331, 364, 387, 440, 457, 501, 534, 546, 590, 615, 653, 674, 707, 749, 772, 803, 845, 895, 911, 959, 978, 1001, 1046, 1060, 1099, 1123, 1177, 1201, 1229, 1255, 1287, 1312, 1365, 1381, 1423, 1471, 1479, 1529, 1548, 1575, 1621, 1638, 1674, 1714, 1756, 1770, 1807, 1849, 1882, 1906, 1948, 1965, 2009, 2037, 
Lime samples: 
7, 132, 271, 387, 534, 653, 772, 911, 1046, 1177, 1287, 1423, 1548, 1674, 1807, 
Insertion Distribution: 
	LOAD 649 0 0 0 0 0 2771 14637 
	RFO 6937 0 0 0 0 0 10435 10305 
	PREF 0 203 0 0 0 0 15007 148962 
	WRITEBACK 0 0 0 0 0 0 0 41284 
Total Prefetch Downgrades: 4110
