
*** ChampSim Multicore Out-of-Order Simulator ***

Warmup Instructions: 10000000
Simulation Instructions: 100000000
Configuration: 2
Number of CPUs: 1
LLC sets: 2048
LLC ways: 16
Off-chip DRAM Channels: 1 Width: 64-bit Data Rate: 1600 MT/s

CPU 0 runs /datasets/cs240c-wi22-a00-public/data/Assignment2-gz/leslie3d_1116B.trace.gz
CPU 0 L1D next line prefetcher
CPU 0 L2C IP-based stride prefetcher
Heartbeat CPU 0 instructions: 1000003 cycles: 535311 heartbeat IPC: 1.86808 cumulative IPC: 1.86808 (Simulation time: 0 hr 0 min 32 sec) 
select_counter is 526
Heartbeat CPU 0 instructions: 2000003 cycles: 1071188 heartbeat IPC: 1.8661 cumulative IPC: 1.86709 (Simulation time: 0 hr 1 min 3 sec) 
select_counter is 536
Heartbeat CPU 0 instructions: 3000003 cycles: 1607882 heartbeat IPC: 1.86326 cumulative IPC: 1.86581 (Simulation time: 0 hr 1 min 34 sec) 
select_counter is 596
Heartbeat CPU 0 instructions: 4000000 cycles: 2143243 heartbeat IPC: 1.86789 cumulative IPC: 1.86633 (Simulation time: 0 hr 2 min 7 sec) 
select_counter is 630
Heartbeat CPU 0 instructions: 5000001 cycles: 2678333 heartbeat IPC: 1.86885 cumulative IPC: 1.86683 (Simulation time: 0 hr 2 min 38 sec) 
select_counter is 518
Heartbeat CPU 0 instructions: 6000001 cycles: 3213731 heartbeat IPC: 1.86777 cumulative IPC: 1.86699 (Simulation time: 0 hr 3 min 8 sec) 
select_counter is 443
Heartbeat CPU 0 instructions: 7000001 cycles: 3749695 heartbeat IPC: 1.8658 cumulative IPC: 1.86682 (Simulation time: 0 hr 3 min 38 sec) 
select_counter is 489
Heartbeat CPU 0 instructions: 8000000 cycles: 4285731 heartbeat IPC: 1.86554 cumulative IPC: 1.86666 (Simulation time: 0 hr 4 min 9 sec) 
select_counter is 483
Heartbeat CPU 0 instructions: 9000003 cycles: 4820856 heartbeat IPC: 1.86873 cumulative IPC: 1.86689 (Simulation time: 0 hr 4 min 40 sec) 
select_counter is 426
Heartbeat CPU 0 instructions: 10000002 cycles: 5355889 heartbeat IPC: 1.86904 cumulative IPC: 1.8671 (Simulation time: 0 hr 5 min 10 sec) 
select_counter is 408

Warmup complete CPU 0 instructions: 10000002 cycles: 5355889 (Simulation time: 0 hr 5 min 10 sec) 

Heartbeat CPU 0 instructions: 11000001 cycles: 6442912 heartbeat IPC: 0.919943 cumulative IPC: 0.919943 (Simulation time: 0 hr 5 min 39 sec) 
select_counter is 431
Heartbeat CPU 0 instructions: 12000000 cycles: 7489886 heartbeat IPC: 0.955133 cumulative IPC: 0.937208 (Simulation time: 0 hr 6 min 11 sec) 
select_counter is 343
Heartbeat CPU 0 instructions: 13000002 cycles: 8535429 heartbeat IPC: 0.956443 cumulative IPC: 0.943533 (Simulation time: 0 hr 6 min 41 sec) 
select_counter is 244
Heartbeat CPU 0 instructions: 14000003 cycles: 9591936 heartbeat IPC: 0.946516 cumulative IPC: 0.944277 (Simulation time: 0 hr 7 min 12 sec) 
select_counter is 181
Heartbeat CPU 0 instructions: 15000000 cycles: 10670421 heartbeat IPC: 0.927224 cumulative IPC: 0.940816 (Simulation time: 0 hr 7 min 44 sec) 
select_counter is 130
Heartbeat CPU 0 instructions: 16000000 cycles: 11731558 heartbeat IPC: 0.942385 cumulative IPC: 0.941077 (Simulation time: 0 hr 8 min 15 sec) 
select_counter is 48
Heartbeat CPU 0 instructions: 17000003 cycles: 12750850 heartbeat IPC: 0.981076 cumulative IPC: 0.946591 (Simulation time: 0 hr 8 min 45 sec) 
select_counter is 946
Heartbeat CPU 0 instructions: 18000001 cycles: 13813061 heartbeat IPC: 0.941431 cumulative IPC: 0.945943 (Simulation time: 0 hr 9 min 18 sec) 
select_counter is 855
Heartbeat CPU 0 instructions: 19000001 cycles: 14871813 heartbeat IPC: 0.944508 cumulative IPC: 0.945783 (Simulation time: 0 hr 9 min 51 sec) 
select_counter is 774
Heartbeat CPU 0 instructions: 20000000 cycles: 15906106 heartbeat IPC: 0.966843 cumulative IPC: 0.947848 (Simulation time: 0 hr 10 min 23 sec) 
select_counter is 645
Heartbeat CPU 0 instructions: 21000000 cycles: 16981385 heartbeat IPC: 0.929991 cumulative IPC: 0.946196 (Simulation time: 0 hr 10 min 56 sec) 
select_counter is 544
Heartbeat CPU 0 instructions: 22000000 cycles: 18054212 heartbeat IPC: 0.932117 cumulative IPC: 0.945006 (Simulation time: 0 hr 11 min 29 sec) 
select_counter is 428
Heartbeat CPU 0 instructions: 23000003 cycles: 19129557 heartbeat IPC: 0.929937 cumulative IPC: 0.94383 (Simulation time: 0 hr 12 min 4 sec) 
select_counter is 299
Heartbeat CPU 0 instructions: 24000000 cycles: 20200797 heartbeat IPC: 0.933495 cumulative IPC: 0.943084 (Simulation time: 0 hr 12 min 37 sec) 
select_counter is 186
Heartbeat CPU 0 instructions: 25000002 cycles: 21271851 heartbeat IPC: 0.933662 cumulative IPC: 0.94245 (Simulation time: 0 hr 13 min 11 sec) 
select_counter is 82
Heartbeat CPU 0 instructions: 26000002 cycles: 22348996 heartbeat IPC: 0.92838 cumulative IPC: 0.941558 (Simulation time: 0 hr 13 min 46 sec) 
select_counter is 979
Heartbeat CPU 0 instructions: 27000001 cycles: 23399150 heartbeat IPC: 0.95224 cumulative IPC: 0.94218 (Simulation time: 0 hr 14 min 20 sec) 
select_counter is 848
Heartbeat CPU 0 instructions: 28000000 cycles: 24466461 heartbeat IPC: 0.936933 cumulative IPC: 0.941887 (Simulation time: 0 hr 14 min 54 sec) 
select_counter is 739
Heartbeat CPU 0 instructions: 29000003 cycles: 25528154 heartbeat IPC: 0.941895 cumulative IPC: 0.941887 (Simulation time: 0 hr 15 min 29 sec) 
select_counter is 624
Heartbeat CPU 0 instructions: 30000002 cycles: 26628933 heartbeat IPC: 0.908447 cumulative IPC: 0.940157 (Simulation time: 0 hr 16 min 4 sec) 
select_counter is 512
Heartbeat CPU 0 instructions: 31000001 cycles: 27714304 heartbeat IPC: 0.921343 cumulative IPC: 0.939244 (Simulation time: 0 hr 16 min 39 sec) 
select_counter is 389
Heartbeat CPU 0 instructions: 32000000 cycles: 28809996 heartbeat IPC: 0.912664 cumulative IPC: 0.938002 (Simulation time: 0 hr 17 min 11 sec) 
select_counter is 296
Heartbeat CPU 0 instructions: 33000002 cycles: 29890729 heartbeat IPC: 0.9253 cumulative IPC: 0.937442 (Simulation time: 0 hr 17 min 44 sec) 
select_counter is 176
Heartbeat CPU 0 instructions: 34000002 cycles: 30963487 heartbeat IPC: 0.932177 cumulative IPC: 0.937222 (Simulation time: 0 hr 18 min 16 sec) 
select_counter is 54
Heartbeat CPU 0 instructions: 35000000 cycles: 31999769 heartbeat IPC: 0.964986 cumulative IPC: 0.938302 (Simulation time: 0 hr 18 min 48 sec) 
select_counter is 943
Heartbeat CPU 0 instructions: 36000000 cycles: 33058941 heartbeat IPC: 0.944134 cumulative IPC: 0.938525 (Simulation time: 0 hr 19 min 18 sec) 
select_counter is 829
Heartbeat CPU 0 instructions: 37000003 cycles: 34387640 heartbeat IPC: 0.752618 cumulative IPC: 0.930016 (Simulation time: 0 hr 19 min 52 sec) 
select_counter is 815
Heartbeat CPU 0 instructions: 38000003 cycles: 35845496 heartbeat IPC: 0.685939 cumulative IPC: 0.918346 (Simulation time: 0 hr 20 min 24 sec) 
select_counter is 1021
Heartbeat CPU 0 instructions: 39000003 cycles: 37423448 heartbeat IPC: 0.633733 cumulative IPC: 0.904341 (Simulation time: 0 hr 20 min 58 sec) 
select_counter is 1023
Heartbeat CPU 0 instructions: 40000000 cycles: 39024275 heartbeat IPC: 0.624675 cumulative IPC: 0.891044 (Simulation time: 0 hr 21 min 31 sec) 
select_counter is 1021
Heartbeat CPU 0 instructions: 41000002 cycles: 40597375 heartbeat IPC: 0.635689 cumulative IPC: 0.879645 (Simulation time: 0 hr 22 min 6 sec) 
select_counter is 1023
Heartbeat CPU 0 instructions: 42000001 cycles: 42181342 heartbeat IPC: 0.631326 cumulative IPC: 0.868964 (Simulation time: 0 hr 22 min 41 sec) 
select_counter is 1023
Heartbeat CPU 0 instructions: 43000003 cycles: 43708277 heartbeat IPC: 0.654908 cumulative IPC: 0.860442 (Simulation time: 0 hr 23 min 16 sec) 
select_counter is 1022
Heartbeat CPU 0 instructions: 44000000 cycles: 45194382 heartbeat IPC: 0.672898 cumulative IPC: 0.853446 (Simulation time: 0 hr 23 min 47 sec) 
select_counter is 1014
Heartbeat CPU 0 instructions: 45000002 cycles: 46654429 heartbeat IPC: 0.684911 cumulative IPC: 0.847488 (Simulation time: 0 hr 24 min 19 sec) 
select_counter is 1020
Heartbeat CPU 0 instructions: 46000002 cycles: 48121334 heartbeat IPC: 0.681707 cumulative IPC: 0.841801 (Simulation time: 0 hr 24 min 54 sec) 
select_counter is 996
Heartbeat CPU 0 instructions: 47000001 cycles: 49592260 heartbeat IPC: 0.679843 cumulative IPC: 0.836416 (Simulation time: 0 hr 25 min 27 sec) 
select_counter is 1000
Heartbeat CPU 0 instructions: 48000000 cycles: 51046290 heartbeat IPC: 0.687743 cumulative IPC: 0.831684 (Simulation time: 0 hr 26 min 0 sec) 
select_counter is 995
Heartbeat CPU 0 instructions: 49000002 cycles: 53215542 heartbeat IPC: 0.460989 cumulative IPC: 0.814883 (Simulation time: 0 hr 26 min 41 sec) 
select_counter is 1019
Heartbeat CPU 0 instructions: 50000000 cycles: 55688508 heartbeat IPC: 0.404372 cumulative IPC: 0.794713 (Simulation time: 0 hr 27 min 22 sec) 
select_counter is 994
Heartbeat CPU 0 instructions: 51000003 cycles: 58152755 heartbeat IPC: 0.405805 cumulative IPC: 0.776561 (Simulation time: 0 hr 28 min 5 sec) 
select_counter is 1013
Heartbeat CPU 0 instructions: 52000000 cycles: 60648826 heartbeat IPC: 0.400628 cumulative IPC: 0.759591 (Simulation time: 0 hr 28 min 46 sec) 
select_counter is 990
Heartbeat CPU 0 instructions: 53000003 cycles: 63153041 heartbeat IPC: 0.399328 cumulative IPC: 0.743981 (Simulation time: 0 hr 29 min 26 sec) 
select_counter is 991
Heartbeat CPU 0 instructions: 54000000 cycles: 65506493 heartbeat IPC: 0.424906 cumulative IPC: 0.731497 (Simulation time: 0 hr 30 min 12 sec) 
select_counter is 1020
Heartbeat CPU 0 instructions: 55000002 cycles: 67841049 heartbeat IPC: 0.428348 cumulative IPC: 0.720171 (Simulation time: 0 hr 30 min 57 sec) 
select_counter is 1020
Heartbeat CPU 0 instructions: 56000000 cycles: 70235763 heartbeat IPC: 0.417586 cumulative IPC: 0.709003 (Simulation time: 0 hr 31 min 43 sec) 
select_counter is 1016
Heartbeat CPU 0 instructions: 57000001 cycles: 72576810 heartbeat IPC: 0.42716 cumulative IPC: 0.699187 (Simulation time: 0 hr 32 min 27 sec) 
select_counter is 984
Heartbeat CPU 0 instructions: 58000001 cycles: 74841425 heartbeat IPC: 0.441576 cumulative IPC: 0.690791 (Simulation time: 0 hr 33 min 11 sec) 
select_counter is 926
Heartbeat CPU 0 instructions: 59000000 cycles: 76146614 heartbeat IPC: 0.766172 cumulative IPC: 0.692181 (Simulation time: 0 hr 33 min 46 sec) 
select_counter is 916
Heartbeat CPU 0 instructions: 60000000 cycles: 77453584 heartbeat IPC: 0.765128 cumulative IPC: 0.693503 (Simulation time: 0 hr 34 min 23 sec) 
select_counter is 967
Heartbeat CPU 0 instructions: 61000000 cycles: 78823854 heartbeat IPC: 0.729783 cumulative IPC: 0.69418 (Simulation time: 0 hr 35 min 1 sec) 
select_counter is 1019
Heartbeat CPU 0 instructions: 62000002 cycles: 80217976 heartbeat IPC: 0.717299 cumulative IPC: 0.694611 (Simulation time: 0 hr 35 min 34 sec) 
select_counter is 999
Heartbeat CPU 0 instructions: 63000003 cycles: 81465182 heartbeat IPC: 0.801793 cumulative IPC: 0.696367 (Simulation time: 0 hr 36 min 9 sec) 
select_counter is 977
Heartbeat CPU 0 instructions: 64000000 cycles: 82728022 heartbeat IPC: 0.791864 cumulative IPC: 0.697926 (Simulation time: 0 hr 36 min 47 sec) 
select_counter is 995
Heartbeat CPU 0 instructions: 65000001 cycles: 84188679 heartbeat IPC: 0.684624 cumulative IPC: 0.697679 (Simulation time: 0 hr 37 min 22 sec) 
select_counter is 1014
Heartbeat CPU 0 instructions: 66000000 cycles: 85411148 heartbeat IPC: 0.818016 cumulative IPC: 0.699517 (Simulation time: 0 hr 37 min 57 sec) 
select_counter is 980
Heartbeat CPU 0 instructions: 67000001 cycles: 86647945 heartbeat IPC: 0.808541 cumulative IPC: 0.701176 (Simulation time: 0 hr 38 min 34 sec) 
select_counter is 965
Heartbeat CPU 0 instructions: 68000000 cycles: 88055404 heartbeat IPC: 0.7105 cumulative IPC: 0.701334 (Simulation time: 0 hr 39 min 9 sec) 
select_counter is 1004
Heartbeat CPU 0 instructions: 69000002 cycles: 89334155 heartbeat IPC: 0.782015 cumulative IPC: 0.702563 (Simulation time: 0 hr 39 min 45 sec) 
select_counter is 995
Heartbeat CPU 0 instructions: 70000000 cycles: 90544305 heartbeat IPC: 0.826342 cumulative IPC: 0.704321 (Simulation time: 0 hr 40 min 21 sec) 
select_counter is 978
Heartbeat CPU 0 instructions: 71000002 cycles: 91772963 heartbeat IPC: 0.813898 cumulative IPC: 0.705879 (Simulation time: 0 hr 40 min 56 sec) 
select_counter is 963
Heartbeat CPU 0 instructions: 72000000 cycles: 93177766 heartbeat IPC: 0.711842 cumulative IPC: 0.705974 (Simulation time: 0 hr 41 min 31 sec) 
select_counter is 936
Heartbeat CPU 0 instructions: 73000000 cycles: 94402263 heartbeat IPC: 0.816662 cumulative IPC: 0.707497 (Simulation time: 0 hr 42 min 6 sec) 
select_counter is 914
Heartbeat CPU 0 instructions: 74000000 cycles: 95619667 heartbeat IPC: 0.82142 cumulative IPC: 0.709033 (Simulation time: 0 hr 42 min 42 sec) 
select_counter is 888
Heartbeat CPU 0 instructions: 75000002 cycles: 97039049 heartbeat IPC: 0.704533 cumulative IPC: 0.708963 (Simulation time: 0 hr 43 min 16 sec) 
select_counter is 853
Heartbeat CPU 0 instructions: 76000000 cycles: 98253502 heartbeat IPC: 0.823414 cumulative IPC: 0.71046 (Simulation time: 0 hr 43 min 51 sec) 
select_counter is 830
Heartbeat CPU 0 instructions: 77000001 cycles: 99455586 heartbeat IPC: 0.831889 cumulative IPC: 0.712011 (Simulation time: 0 hr 44 min 25 sec) 
select_counter is 803
Heartbeat CPU 0 instructions: 78000000 cycles: 100757356 heartbeat IPC: 0.768184 cumulative IPC: 0.712777 (Simulation time: 0 hr 44 min 56 sec) 
select_counter is 755
Heartbeat CPU 0 instructions: 79000001 cycles: 102072172 heartbeat IPC: 0.760563 cumulative IPC: 0.713427 (Simulation time: 0 hr 45 min 29 sec) 
select_counter is 729
Heartbeat CPU 0 instructions: 80000000 cycles: 103284877 heartbeat IPC: 0.824602 cumulative IPC: 0.714804 (Simulation time: 0 hr 46 min 2 sec) 
select_counter is 702
Heartbeat CPU 0 instructions: 81000003 cycles: 104492768 heartbeat IPC: 0.827892 cumulative IPC: 0.716182 (Simulation time: 0 hr 46 min 36 sec) 
select_counter is 697
Heartbeat CPU 0 instructions: 82000000 cycles: 105893594 heartbeat IPC: 0.713862 cumulative IPC: 0.716149 (Simulation time: 0 hr 47 min 9 sec) 
select_counter is 661
Heartbeat CPU 0 instructions: 83000001 cycles: 107098330 heartbeat IPC: 0.830058 cumulative IPC: 0.717498 (Simulation time: 0 hr 47 min 42 sec) 
select_counter is 643
Heartbeat CPU 0 instructions: 84000000 cycles: 108311417 heartbeat IPC: 0.824342 cumulative IPC: 0.718757 (Simulation time: 0 hr 48 min 13 sec) 
select_counter is 621
Heartbeat CPU 0 instructions: 85000003 cycles: 109696350 heartbeat IPC: 0.722059 cumulative IPC: 0.718801 (Simulation time: 0 hr 48 min 42 sec) 
select_counter is 591
Heartbeat CPU 0 instructions: 86000002 cycles: 110915563 heartbeat IPC: 0.8202 cumulative IPC: 0.719972 (Simulation time: 0 hr 49 min 10 sec) 
select_counter is 588
Heartbeat CPU 0 instructions: 87000001 cycles: 112120007 heartbeat IPC: 0.830258 cumulative IPC: 0.721216 (Simulation time: 0 hr 49 min 34 sec) 
select_counter is 577
Heartbeat CPU 0 instructions: 88000000 cycles: 113347999 heartbeat IPC: 0.814337 cumulative IPC: 0.722275 (Simulation time: 0 hr 49 min 57 sec) 
select_counter is 563
Heartbeat CPU 0 instructions: 89000001 cycles: 114742361 heartbeat IPC: 0.717175 cumulative IPC: 0.72221 (Simulation time: 0 hr 50 min 21 sec) 
select_counter is 516
Heartbeat CPU 0 instructions: 90000003 cycles: 115967918 heartbeat IPC: 0.815957 cumulative IPC: 0.723249 (Simulation time: 0 hr 50 min 45 sec) 
select_counter is 500
Heartbeat CPU 0 instructions: 91000000 cycles: 117200299 heartbeat IPC: 0.811435 cumulative IPC: 0.72422 (Simulation time: 0 hr 51 min 6 sec) 
select_counter is 482
Heartbeat CPU 0 instructions: 92000000 cycles: 118719872 heartbeat IPC: 0.65808 cumulative IPC: 0.723334 (Simulation time: 0 hr 51 min 25 sec) 
select_counter is 448
Heartbeat CPU 0 instructions: 93000002 cycles: 119942198 heartbeat IPC: 0.818114 cumulative IPC: 0.724345 (Simulation time: 0 hr 51 min 45 sec) 
select_counter is 400
Heartbeat CPU 0 instructions: 94000000 cycles: 121161880 heartbeat IPC: 0.819884 cumulative IPC: 0.725351 (Simulation time: 0 hr 52 min 6 sec) 
select_counter is 374
Heartbeat CPU 0 instructions: 95000003 cycles: 122534141 heartbeat IPC: 0.728727 cumulative IPC: 0.725391 (Simulation time: 0 hr 52 min 24 sec) 
select_counter is 344
Heartbeat CPU 0 instructions: 96000000 cycles: 123891150 heartbeat IPC: 0.736913 cumulative IPC: 0.725523 (Simulation time: 0 hr 52 min 43 sec) 
select_counter is 291
Heartbeat CPU 0 instructions: 97000000 cycles: 125092010 heartbeat IPC: 0.832737 cumulative IPC: 0.726598 (Simulation time: 0 hr 53 min 2 sec) 
select_counter is 261
Heartbeat CPU 0 instructions: 98000000 cycles: 126313242 heartbeat IPC: 0.818845 cumulative IPC: 0.727529 (Simulation time: 0 hr 53 min 19 sec) 
select_counter is 242
Heartbeat CPU 0 instructions: 99000003 cycles: 127774637 heartbeat IPC: 0.68428 cumulative IPC: 0.727013 (Simulation time: 0 hr 53 min 36 sec) 
select_counter is 239
Heartbeat CPU 0 instructions: 100000000 cycles: 128996799 heartbeat IPC: 0.81822 cumulative IPC: 0.727914 (Simulation time: 0 hr 53 min 54 sec) 
select_counter is 205
Heartbeat CPU 0 instructions: 101000001 cycles: 130209056 heartbeat IPC: 0.824908 cumulative IPC: 0.728856 (Simulation time: 0 hr 54 min 11 sec) 
select_counter is 183
Heartbeat CPU 0 instructions: 102000003 cycles: 131655948 heartbeat IPC: 0.691138 cumulative IPC: 0.728424 (Simulation time: 0 hr 54 min 27 sec) 
select_counter is 172
Heartbeat CPU 0 instructions: 103000002 cycles: 132886025 heartbeat IPC: 0.812956 cumulative IPC: 0.729239 (Simulation time: 0 hr 54 min 42 sec) 
select_counter is 124
Heartbeat CPU 0 instructions: 104000000 cycles: 134111048 heartbeat IPC: 0.81631 cumulative IPC: 0.730068 (Simulation time: 0 hr 54 min 57 sec) 
select_counter is 106
Heartbeat CPU 0 instructions: 105000000 cycles: 135357578 heartbeat IPC: 0.802227 cumulative IPC: 0.73076 (Simulation time: 0 hr 55 min 11 sec) 
select_counter is 71
Heartbeat CPU 0 instructions: 106000003 cycles: 137247883 heartbeat IPC: 0.529017 cumulative IPC: 0.727868 (Simulation time: 0 hr 55 min 24 sec) 
select_counter is 1021
Heartbeat CPU 0 instructions: 107000002 cycles: 139244449 heartbeat IPC: 0.500859 cumulative IPC: 0.724483 (Simulation time: 0 hr 55 min 38 sec) 
select_counter is 1020
Heartbeat CPU 0 instructions: 108000000 cycles: 141314211 heartbeat IPC: 0.483146 cumulative IPC: 0.720809 (Simulation time: 0 hr 55 min 52 sec) 
select_counter is 1019
Heartbeat CPU 0 instructions: 109000003 cycles: 143357397 heartbeat IPC: 0.489433 cumulative IPC: 0.717383 (Simulation time: 0 hr 56 min 6 sec) 
select_counter is 991
Heartbeat CPU 0 instructions: 110000003 cycles: 145323085 heartbeat IPC: 0.508728 cumulative IPC: 0.714453 (Simulation time: 0 hr 56 min 20 sec) 
select_counter is 931
Finished CPU 0 instructions: 100000001 cycles: 139967196 cummulative IPC: 0.714453 (Simulation time: 0 hr 56 min 20 sec) 

ChampSim completed all CPUs

Region of Interest Statistics

CPU 0 cummulative IPC: 0.714453 instructions: 100000001 cycles: 139967196
LLC TOTAL     ACCESS:    3584074  HIT:     787156  MISS:    2796918
LLC LOAD      ACCESS:     297224  HIT:      42313  MISS:     254911
LLC RFO       ACCESS:     622469  HIT:     117291  MISS:     505178
LLC PREFETCH  ACCESS:    1901070  HIT:     195126  MISS:    1705944
LLC WRITEBACK ACCESS:     763311  HIT:     432426  MISS:     330885
Ship samples: 
14, 63, 93, 98, 154, 172, 195, 255, 287, 319, 342, 364, 410, 444, 458, 501, 528, 571, 595, 620, 651, 694, 721, 764, 776, 801, 838, 870, 917, 956, 976, 1015, 1030, 1069, 1104, 1127, 1169, 1194, 1234, 1268, 1282, 1337, 1346, 1385, 1409, 1462, 1495, 1522, 1536, 1591, 1625, 1645, 1691, 1710, 1758, 1768, 1815, 1832, 1856, 1904, 1943, 1971, 2003, 2028, 
Lime duel samples: 
26, 34, 67, 126, 159, 174, 200, 249, 269, 306, 336, 363, 391, 424, 475, 494, 536, 565, 589, 637, 653, 696, 718, 757, 785, 827, 862, 877, 897, 930, 991, 1009, 1024, 1075, 1113, 1145, 1180, 1213, 1219, 1254, 1306, 1333, 1352, 1407, 1431, 1445, 1490, 1517, 1565, 1568, 1617, 1662, 1675, 1719, 1741, 1762, 1792, 1825, 1881, 1906, 1921, 1958, 1998, 2022, 
Lime samples: 
26, 159, 269, 391, 536, 653, 785, 897, 1024, 1180, 1306, 1431, 1565, 1675, 1792, 
Insertion Distribution: 
	LOAD 5894 0 0 0 0 0 3129 45490 
	RFO 187 0 0 0 0 0 3979 65745 
	PREF 0 7388 0 0 0 0 39685 461211 
	WRITEBACK 0 0 0 0 0 0 0 103615 
Total Prefetch Downgrades: 11634
