
*** ChampSim Multicore Out-of-Order Simulator ***

Warmup Instructions: 10000000
Simulation Instructions: 100000000
Configuration: 2
Number of CPUs: 1
LLC sets: 2048
LLC ways: 16
Off-chip DRAM Channels: 1 Width: 64-bit Data Rate: 1600 MT/s

CPU 0 runs /datasets/cs240c-wi22-a00-public/data/Assignment2-gz/bzip2_183B.trace.gz
CPU 0 L1D next line prefetcher
CPU 0 L2C IP-based stride prefetcher
Heartbeat CPU 0 instructions: 1000000 cycles: 447973 heartbeat IPC: 2.23228 cumulative IPC: 2.23228 (Simulation time: 0 hr 0 min 29 sec) 
select_counter is 431
Heartbeat CPU 0 instructions: 2000001 cycles: 951246 heartbeat IPC: 1.987 cumulative IPC: 2.10251 (Simulation time: 0 hr 0 min 58 sec) 
select_counter is 427
Heartbeat CPU 0 instructions: 3000001 cycles: 1457931 heartbeat IPC: 1.97361 cumulative IPC: 2.05771 (Simulation time: 0 hr 1 min 28 sec) 
select_counter is 414
Heartbeat CPU 0 instructions: 4000000 cycles: 1928613 heartbeat IPC: 2.12457 cumulative IPC: 2.07403 (Simulation time: 0 hr 1 min 57 sec) 
select_counter is 331
Heartbeat CPU 0 instructions: 5000000 cycles: 2425920 heartbeat IPC: 2.01083 cumulative IPC: 2.06107 (Simulation time: 0 hr 2 min 27 sec) 
select_counter is 304
Heartbeat CPU 0 instructions: 6000001 cycles: 2887518 heartbeat IPC: 2.16639 cumulative IPC: 2.07791 (Simulation time: 0 hr 2 min 56 sec) 
select_counter is 270
Heartbeat CPU 0 instructions: 7000002 cycles: 3343379 heartbeat IPC: 2.19365 cumulative IPC: 2.09369 (Simulation time: 0 hr 3 min 24 sec) 
select_counter is 154
Heartbeat CPU 0 instructions: 8000000 cycles: 3812971 heartbeat IPC: 2.1295 cumulative IPC: 2.0981 (Simulation time: 0 hr 3 min 52 sec) 
select_counter is 134
Heartbeat CPU 0 instructions: 9000003 cycles: 4278215 heartbeat IPC: 2.14942 cumulative IPC: 2.10368 (Simulation time: 0 hr 4 min 22 sec) 
select_counter is 84
Heartbeat CPU 0 instructions: 10000000 cycles: 4746650 heartbeat IPC: 2.13476 cumulative IPC: 2.10675 (Simulation time: 0 hr 4 min 51 sec) 
select_counter is 40

Warmup complete CPU 0 instructions: 10000001 cycles: 4746651 (Simulation time: 0 hr 4 min 51 sec) 

Heartbeat CPU 0 instructions: 11000000 cycles: 6258422 heartbeat IPC: 0.661475 cumulative IPC: 0.661475 (Simulation time: 0 hr 5 min 17 sec) 
select_counter is 4
Heartbeat CPU 0 instructions: 12000000 cycles: 7715381 heartbeat IPC: 0.686361 cumulative IPC: 0.673688 (Simulation time: 0 hr 5 min 45 sec) 
select_counter is 994
Heartbeat CPU 0 instructions: 13000000 cycles: 8935997 heartbeat IPC: 0.819258 cumulative IPC: 0.716102 (Simulation time: 0 hr 6 min 12 sec) 
select_counter is 980
Heartbeat CPU 0 instructions: 14000003 cycles: 9986751 heartbeat IPC: 0.9517 cumulative IPC: 0.763345 (Simulation time: 0 hr 6 min 40 sec) 
select_counter is 946
Heartbeat CPU 0 instructions: 15000000 cycles: 11378214 heartbeat IPC: 0.718666 cumulative IPC: 0.75397 (Simulation time: 0 hr 7 min 8 sec) 
select_counter is 897
Heartbeat CPU 0 instructions: 16000000 cycles: 12354737 heartbeat IPC: 1.02404 cumulative IPC: 0.788634 (Simulation time: 0 hr 7 min 33 sec) 
select_counter is 887
Heartbeat CPU 0 instructions: 17000003 cycles: 13256848 heartbeat IPC: 1.10851 cumulative IPC: 0.822543 (Simulation time: 0 hr 7 min 58 sec) 
select_counter is 879
Heartbeat CPU 0 instructions: 18000001 cycles: 14179086 heartbeat IPC: 1.08432 cumulative IPC: 0.848137 (Simulation time: 0 hr 8 min 23 sec) 
select_counter is 879
Heartbeat CPU 0 instructions: 19000002 cycles: 15136337 heartbeat IPC: 1.04466 cumulative IPC: 0.866244 (Simulation time: 0 hr 8 min 51 sec) 
select_counter is 852
Heartbeat CPU 0 instructions: 20000000 cycles: 16339336 heartbeat IPC: 0.831254 cumulative IPC: 0.862613 (Simulation time: 0 hr 9 min 17 sec) 
select_counter is 844
Heartbeat CPU 0 instructions: 21000000 cycles: 17846701 heartbeat IPC: 0.663409 cumulative IPC: 0.839691 (Simulation time: 0 hr 9 min 44 sec) 
select_counter is 832
Heartbeat CPU 0 instructions: 22000000 cycles: 19263985 heartbeat IPC: 0.705575 cumulative IPC: 0.826598 (Simulation time: 0 hr 10 min 11 sec) 
select_counter is 808
Heartbeat CPU 0 instructions: 23000000 cycles: 20416586 heartbeat IPC: 0.867603 cumulative IPC: 0.829614 (Simulation time: 0 hr 10 min 39 sec) 
select_counter is 755
Heartbeat CPU 0 instructions: 24000000 cycles: 21680951 heartbeat IPC: 0.790911 cumulative IPC: 0.826724 (Simulation time: 0 hr 11 min 5 sec) 
select_counter is 746
Heartbeat CPU 0 instructions: 25000001 cycles: 23031248 heartbeat IPC: 0.740579 cumulative IPC: 0.820363 (Simulation time: 0 hr 11 min 33 sec) 
select_counter is 746
Heartbeat CPU 0 instructions: 26000002 cycles: 24014919 heartbeat IPC: 1.0166 cumulative IPC: 0.830381 (Simulation time: 0 hr 11 min 57 sec) 
select_counter is 743
Heartbeat CPU 0 instructions: 27000000 cycles: 25019696 heartbeat IPC: 0.995244 cumulative IPC: 0.838552 (Simulation time: 0 hr 12 min 26 sec) 
select_counter is 737
Heartbeat CPU 0 instructions: 28000000 cycles: 26332354 heartbeat IPC: 0.761813 cumulative IPC: 0.833885 (Simulation time: 0 hr 12 min 54 sec) 
select_counter is 721
Heartbeat CPU 0 instructions: 29000003 cycles: 27406824 heartbeat IPC: 0.930694 cumulative IPC: 0.838476 (Simulation time: 0 hr 13 min 17 sec) 
select_counter is 717
Heartbeat CPU 0 instructions: 30000000 cycles: 28747701 heartbeat IPC: 0.745778 cumulative IPC: 0.833297 (Simulation time: 0 hr 13 min 44 sec) 
select_counter is 711
Heartbeat CPU 0 instructions: 31000000 cycles: 30061109 heartbeat IPC: 0.761378 cumulative IPC: 0.829565 (Simulation time: 0 hr 14 min 13 sec) 
select_counter is 680
Heartbeat CPU 0 instructions: 32000000 cycles: 31695563 heartbeat IPC: 0.611825 cumulative IPC: 0.816359 (Simulation time: 0 hr 14 min 40 sec) 
select_counter is 676
Heartbeat CPU 0 instructions: 33000000 cycles: 32763440 heartbeat IPC: 0.936437 cumulative IPC: 0.820936 (Simulation time: 0 hr 15 min 7 sec) 
select_counter is 632
Heartbeat CPU 0 instructions: 34000001 cycles: 33769707 heartbeat IPC: 0.993773 cumulative IPC: 0.826929 (Simulation time: 0 hr 15 min 31 sec) 
select_counter is 631
Heartbeat CPU 0 instructions: 35000003 cycles: 34789615 heartbeat IPC: 0.980483 cumulative IPC: 0.832142 (Simulation time: 0 hr 15 min 56 sec) 
select_counter is 627
Heartbeat CPU 0 instructions: 36000000 cycles: 35804634 heartbeat IPC: 0.9852 cumulative IPC: 0.837144 (Simulation time: 0 hr 16 min 24 sec) 
select_counter is 607
Heartbeat CPU 0 instructions: 37000003 cycles: 37066853 heartbeat IPC: 0.792258 cumulative IPC: 0.835391 (Simulation time: 0 hr 16 min 50 sec) 
select_counter is 570
Heartbeat CPU 0 instructions: 38000001 cycles: 38615674 heartbeat IPC: 0.645651 cumulative IPC: 0.826714 (Simulation time: 0 hr 17 min 15 sec) 
select_counter is 555
Heartbeat CPU 0 instructions: 39000002 cycles: 39742484 heartbeat IPC: 0.887462 cumulative IPC: 0.82867 (Simulation time: 0 hr 17 min 38 sec) 
select_counter is 540
Heartbeat CPU 0 instructions: 40000000 cycles: 40789803 heartbeat IPC: 0.954817 cumulative IPC: 0.832336 (Simulation time: 0 hr 18 min 3 sec) 
select_counter is 528
Heartbeat CPU 0 instructions: 41000002 cycles: 42286045 heartbeat IPC: 0.668342 cumulative IPC: 0.825799 (Simulation time: 0 hr 18 min 30 sec) 
select_counter is 507
Heartbeat CPU 0 instructions: 42000000 cycles: 43579915 heartbeat IPC: 0.772874 cumulative IPC: 0.824036 (Simulation time: 0 hr 18 min 53 sec) 
select_counter is 502
Heartbeat CPU 0 instructions: 43000001 cycles: 44752188 heartbeat IPC: 0.853044 cumulative IPC: 0.824886 (Simulation time: 0 hr 19 min 19 sec) 
select_counter is 484
Heartbeat CPU 0 instructions: 44000000 cycles: 45910239 heartbeat IPC: 0.863519 cumulative IPC: 0.825973 (Simulation time: 0 hr 19 min 44 sec) 
select_counter is 477
Heartbeat CPU 0 instructions: 45000000 cycles: 46995352 heartbeat IPC: 0.921563 cumulative IPC: 0.828428 (Simulation time: 0 hr 20 min 10 sec) 
select_counter is 460
Heartbeat CPU 0 instructions: 46000000 cycles: 48115690 heartbeat IPC: 0.892588 cumulative IPC: 0.830085 (Simulation time: 0 hr 20 min 36 sec) 
select_counter is 447
Heartbeat CPU 0 instructions: 47000003 cycles: 49121641 heartbeat IPC: 0.994087 cumulative IPC: 0.833803 (Simulation time: 0 hr 21 min 0 sec) 
select_counter is 442
Heartbeat CPU 0 instructions: 48000000 cycles: 50706479 heartbeat IPC: 0.630977 cumulative IPC: 0.826809 (Simulation time: 0 hr 21 min 25 sec) 
select_counter is 429
Heartbeat CPU 0 instructions: 49000003 cycles: 52312894 heartbeat IPC: 0.622506 cumulative IPC: 0.819909 (Simulation time: 0 hr 21 min 49 sec) 
select_counter is 410
Heartbeat CPU 0 instructions: 50000000 cycles: 53452112 heartbeat IPC: 0.877792 cumulative IPC: 0.821263 (Simulation time: 0 hr 22 min 15 sec) 
select_counter is 396
Heartbeat CPU 0 instructions: 51000000 cycles: 54483289 heartbeat IPC: 0.969766 cumulative IPC: 0.824342 (Simulation time: 0 hr 22 min 37 sec) 
select_counter is 396
Heartbeat CPU 0 instructions: 52000000 cycles: 55502631 heartbeat IPC: 0.981025 cumulative IPC: 0.827489 (Simulation time: 0 hr 23 min 1 sec) 
select_counter is 392
Heartbeat CPU 0 instructions: 53000001 cycles: 56479587 heartbeat IPC: 1.02359 cumulative IPC: 0.831192 (Simulation time: 0 hr 23 min 26 sec) 
select_counter is 368
Heartbeat CPU 0 instructions: 54000001 cycles: 57487436 heartbeat IPC: 0.992212 cumulative IPC: 0.834269 (Simulation time: 0 hr 23 min 50 sec) 
select_counter is 362
Heartbeat CPU 0 instructions: 55000001 cycles: 58719836 heartbeat IPC: 0.811425 cumulative IPC: 0.833747 (Simulation time: 0 hr 24 min 15 sec) 
select_counter is 352
Heartbeat CPU 0 instructions: 56000000 cycles: 59911861 heartbeat IPC: 0.838908 cumulative IPC: 0.833859 (Simulation time: 0 hr 24 min 42 sec) 
select_counter is 326
Heartbeat CPU 0 instructions: 57000003 cycles: 61290807 heartbeat IPC: 0.725194 cumulative IPC: 0.831209 (Simulation time: 0 hr 25 min 8 sec) 
select_counter is 298
Heartbeat CPU 0 instructions: 58000001 cycles: 62867012 heartbeat IPC: 0.634434 cumulative IPC: 0.825872 (Simulation time: 0 hr 25 min 31 sec) 
select_counter is 275
Heartbeat CPU 0 instructions: 59000003 cycles: 64173150 heartbeat IPC: 0.765617 cumulative IPC: 0.824548 (Simulation time: 0 hr 25 min 55 sec) 
select_counter is 268
Heartbeat CPU 0 instructions: 60000000 cycles: 65747276 heartbeat IPC: 0.635271 cumulative IPC: 0.819664 (Simulation time: 0 hr 26 min 19 sec) 
select_counter is 239
Heartbeat CPU 0 instructions: 61000003 cycles: 67466184 heartbeat IPC: 0.581766 cumulative IPC: 0.813144 (Simulation time: 0 hr 26 min 43 sec) 
select_counter is 230
Heartbeat CPU 0 instructions: 62000002 cycles: 69008560 heartbeat IPC: 0.64835 cumulative IPC: 0.809189 (Simulation time: 0 hr 27 min 4 sec) 
select_counter is 230
Heartbeat CPU 0 instructions: 63000003 cycles: 70402169 heartbeat IPC: 0.717562 cumulative IPC: 0.807244 (Simulation time: 0 hr 27 min 29 sec) 
select_counter is 216
Heartbeat CPU 0 instructions: 64000000 cycles: 71968632 heartbeat IPC: 0.638379 cumulative IPC: 0.803309 (Simulation time: 0 hr 27 min 54 sec) 
select_counter is 210
Heartbeat CPU 0 instructions: 65000003 cycles: 73217687 heartbeat IPC: 0.800608 cumulative IPC: 0.803259 (Simulation time: 0 hr 28 min 20 sec) 
select_counter is 196
Heartbeat CPU 0 instructions: 66000000 cycles: 74544074 heartbeat IPC: 0.753926 cumulative IPC: 0.802322 (Simulation time: 0 hr 28 min 47 sec) 
select_counter is 190
Heartbeat CPU 0 instructions: 67000000 cycles: 75487821 heartbeat IPC: 1.05961 cumulative IPC: 0.805754 (Simulation time: 0 hr 29 min 12 sec) 
select_counter is 187
Heartbeat CPU 0 instructions: 68000000 cycles: 76887148 heartbeat IPC: 0.714629 cumulative IPC: 0.803987 (Simulation time: 0 hr 29 min 37 sec) 
select_counter is 175
Heartbeat CPU 0 instructions: 69000000 cycles: 78459944 heartbeat IPC: 0.63581 cumulative IPC: 0.800398 (Simulation time: 0 hr 30 min 2 sec) 
select_counter is 181
Heartbeat CPU 0 instructions: 70000002 cycles: 79930900 heartbeat IPC: 0.679831 cumulative IPC: 0.798039 (Simulation time: 0 hr 30 min 30 sec) 
select_counter is 163
Heartbeat CPU 0 instructions: 71000000 cycles: 81490962 heartbeat IPC: 0.640999 cumulative IPC: 0.794847 (Simulation time: 0 hr 30 min 53 sec) 
select_counter is 149
Heartbeat CPU 0 instructions: 72000000 cycles: 82857831 heartbeat IPC: 0.731599 cumulative IPC: 0.79374 (Simulation time: 0 hr 31 min 17 sec) 
select_counter is 140
Heartbeat CPU 0 instructions: 73000001 cycles: 84141534 heartbeat IPC: 0.778997 cumulative IPC: 0.793502 (Simulation time: 0 hr 31 min 40 sec) 
select_counter is 127
Heartbeat CPU 0 instructions: 74000000 cycles: 85292495 heartbeat IPC: 0.868838 cumulative IPC: 0.794579 (Simulation time: 0 hr 32 min 8 sec) 
select_counter is 120
Heartbeat CPU 0 instructions: 75000001 cycles: 86706472 heartbeat IPC: 0.707226 cumulative IPC: 0.793072 (Simulation time: 0 hr 32 min 32 sec) 
select_counter is 99
Heartbeat CPU 0 instructions: 76000000 cycles: 87846166 heartbeat IPC: 0.877428 cumulative IPC: 0.794228 (Simulation time: 0 hr 32 min 56 sec) 
select_counter is 97
Heartbeat CPU 0 instructions: 77000003 cycles: 89023250 heartbeat IPC: 0.84956 cumulative IPC: 0.795001 (Simulation time: 0 hr 33 min 19 sec) 
select_counter is 86
Heartbeat CPU 0 instructions: 78000000 cycles: 90356378 heartbeat IPC: 0.750113 cumulative IPC: 0.794302 (Simulation time: 0 hr 33 min 42 sec) 
select_counter is 74
Heartbeat CPU 0 instructions: 79000000 cycles: 91698041 heartbeat IPC: 0.745344 cumulative IPC: 0.793547 (Simulation time: 0 hr 34 min 8 sec) 
select_counter is 72
Heartbeat CPU 0 instructions: 80000000 cycles: 93085650 heartbeat IPC: 0.720664 cumulative IPC: 0.792402 (Simulation time: 0 hr 34 min 30 sec) 
select_counter is 50
Heartbeat CPU 0 instructions: 81000000 cycles: 94776302 heartbeat IPC: 0.591488 cumulative IPC: 0.788629 (Simulation time: 0 hr 34 min 53 sec) 
select_counter is 37
Heartbeat CPU 0 instructions: 82000002 cycles: 96323437 heartbeat IPC: 0.646357 cumulative IPC: 0.786225 (Simulation time: 0 hr 35 min 16 sec) 
select_counter is 26
Heartbeat CPU 0 instructions: 83000000 cycles: 97476939 heartbeat IPC: 0.866924 cumulative IPC: 0.787229 (Simulation time: 0 hr 35 min 44 sec) 
select_counter is 1015
Heartbeat CPU 0 instructions: 84000000 cycles: 98433370 heartbeat IPC: 1.04555 cumulative IPC: 0.789867 (Simulation time: 0 hr 36 min 9 sec) 
select_counter is 1014
Heartbeat CPU 0 instructions: 85000002 cycles: 99480250 heartbeat IPC: 0.955221 cumulative IPC: 0.791694 (Simulation time: 0 hr 36 min 33 sec) 
select_counter is 1019
Heartbeat CPU 0 instructions: 86000002 cycles: 100458056 heartbeat IPC: 1.0227 cumulative IPC: 0.794054 (Simulation time: 0 hr 36 min 59 sec) 
select_counter is 1014
Heartbeat CPU 0 instructions: 87000001 cycles: 101470630 heartbeat IPC: 0.987581 cumulative IPC: 0.79608 (Simulation time: 0 hr 37 min 27 sec) 
select_counter is 988
Heartbeat CPU 0 instructions: 88000000 cycles: 102766741 heartbeat IPC: 0.771538 cumulative IPC: 0.795755 (Simulation time: 0 hr 37 min 52 sec) 
select_counter is 981
Heartbeat CPU 0 instructions: 89000000 cycles: 104281550 heartbeat IPC: 0.660149 cumulative IPC: 0.793691 (Simulation time: 0 hr 38 min 23 sec) 
select_counter is 970
Heartbeat CPU 0 instructions: 90000002 cycles: 105780361 heartbeat IPC: 0.667197 cumulative IPC: 0.791815 (Simulation time: 0 hr 38 min 48 sec) 
select_counter is 953
Heartbeat CPU 0 instructions: 91000000 cycles: 107488376 heartbeat IPC: 0.585474 cumulative IPC: 0.788385 (Simulation time: 0 hr 39 min 13 sec) 
select_counter is 943
Heartbeat CPU 0 instructions: 92000000 cycles: 108985900 heartbeat IPC: 0.667769 cumulative IPC: 0.786652 (Simulation time: 0 hr 39 min 39 sec) 
select_counter is 934
Heartbeat CPU 0 instructions: 93000001 cycles: 110258718 heartbeat IPC: 0.785659 cumulative IPC: 0.78664 (Simulation time: 0 hr 40 min 8 sec) 
select_counter is 907
Heartbeat CPU 0 instructions: 94000000 cycles: 112013005 heartbeat IPC: 0.570032 cumulative IPC: 0.783097 (Simulation time: 0 hr 40 min 32 sec) 
select_counter is 890
Heartbeat CPU 0 instructions: 95000002 cycles: 113629814 heartbeat IPC: 0.618504 cumulative IPC: 0.780653 (Simulation time: 0 hr 40 min 56 sec) 
select_counter is 880
Heartbeat CPU 0 instructions: 96000000 cycles: 115239265 heartbeat IPC: 0.621329 cumulative IPC: 0.778333 (Simulation time: 0 hr 41 min 21 sec) 
select_counter is 867
Heartbeat CPU 0 instructions: 97000000 cycles: 116650461 heartbeat IPC: 0.708619 cumulative IPC: 0.777453 (Simulation time: 0 hr 41 min 47 sec) 
select_counter is 840
Heartbeat CPU 0 instructions: 98000000 cycles: 117929524 heartbeat IPC: 0.781822 cumulative IPC: 0.777503 (Simulation time: 0 hr 42 min 12 sec) 
select_counter is 832
Heartbeat CPU 0 instructions: 99000003 cycles: 119067363 heartbeat IPC: 0.878862 cumulative IPC: 0.778512 (Simulation time: 0 hr 42 min 40 sec) 
select_counter is 820
Heartbeat CPU 0 instructions: 100000000 cycles: 120570715 heartbeat IPC: 0.665178 cumulative IPC: 0.777041 (Simulation time: 0 hr 43 min 4 sec) 
select_counter is 777
Heartbeat CPU 0 instructions: 101000000 cycles: 122080360 heartbeat IPC: 0.662407 cumulative IPC: 0.775566 (Simulation time: 0 hr 43 min 29 sec) 
select_counter is 774
Heartbeat CPU 0 instructions: 102000001 cycles: 123777714 heartbeat IPC: 0.589153 cumulative IPC: 0.772907 (Simulation time: 0 hr 43 min 52 sec) 
select_counter is 772
Heartbeat CPU 0 instructions: 103000002 cycles: 125102981 heartbeat IPC: 0.754566 cumulative IPC: 0.772705 (Simulation time: 0 hr 44 min 20 sec) 
select_counter is 767
Heartbeat CPU 0 instructions: 104000000 cycles: 126822150 heartbeat IPC: 0.581675 cumulative IPC: 0.770015 (Simulation time: 0 hr 44 min 42 sec) 
select_counter is 749
Heartbeat CPU 0 instructions: 105000002 cycles: 127798924 heartbeat IPC: 1.02378 cumulative IPC: 0.77203 (Simulation time: 0 hr 45 min 5 sec) 
select_counter is 747
Heartbeat CPU 0 instructions: 106000000 cycles: 129333066 heartbeat IPC: 0.651829 cumulative IPC: 0.770549 (Simulation time: 0 hr 45 min 27 sec) 
select_counter is 746
Heartbeat CPU 0 instructions: 107000002 cycles: 130899924 heartbeat IPC: 0.638221 cumulative IPC: 0.768906 (Simulation time: 0 hr 45 min 51 sec) 
select_counter is 735
Heartbeat CPU 0 instructions: 108000000 cycles: 132234811 heartbeat IPC: 0.749126 cumulative IPC: 0.768699 (Simulation time: 0 hr 46 min 18 sec) 
select_counter is 720
Heartbeat CPU 0 instructions: 109000002 cycles: 133940511 heartbeat IPC: 0.586271 cumulative IPC: 0.76629 (Simulation time: 0 hr 46 min 42 sec) 
select_counter is 709
Heartbeat CPU 0 instructions: 110000000 cycles: 135171752 heartbeat IPC: 0.812187 cumulative IPC: 0.766724 (Simulation time: 0 hr 47 min 6 sec) 
select_counter is 696
Finished CPU 0 instructions: 100000003 cycles: 130425102 cummulative IPC: 0.766724 (Simulation time: 0 hr 47 min 6 sec) 

ChampSim completed all CPUs

Region of Interest Statistics

CPU 0 cummulative IPC: 0.766724 instructions: 100000003 cycles: 130425102
LLC TOTAL     ACCESS:    1570966  HIT:    1399353  MISS:     171613
LLC LOAD      ACCESS:     429782  HIT:     401851  MISS:      27931
LLC RFO       ACCESS:     294152  HIT:     236238  MISS:      57914
LLC PREFETCH  ACCESS:     521067  HIT:     452598  MISS:      68469
LLC WRITEBACK ACCESS:     325965  HIT:     308666  MISS:      17299
Ship samples: 
8, 47, 67, 123, 134, 164, 222, 227, 266, 297, 329, 358, 403, 434, 455, 480, 536, 553, 607, 619, 669, 694, 716, 748, 775, 823, 860, 883, 900, 935, 974, 1009, 1032, 1085, 1118, 1132, 1176, 1206, 1245, 1274, 1304, 1333, 1359, 1380, 1421, 1470, 1491, 1505, 1545, 1570, 1608, 1634, 1682, 1701, 1755, 1779, 1809, 1831, 1873, 1907, 1943, 1978, 1984, 2022, 
Lime duel samples: 
23, 63, 95, 127, 148, 185, 209, 252, 272, 301, 321, 359, 386, 422, 472, 489, 518, 544, 599, 612, 645, 687, 731, 762, 790, 821, 849, 893, 911, 933, 971, 1000, 1030, 1082, 1095, 1129, 1179, 1187, 1220, 1250, 1284, 1329, 1364, 1384, 1427, 1451, 1499, 1519, 1563, 1599, 1607, 1647, 1664, 1720, 1743, 1791, 1811, 1833, 1856, 1899, 1951, 1969, 1994, 2044, 
Lime samples: 
23, 148, 272, 386, 518, 645, 790, 911, 1030, 1179, 1284, 1427, 1563, 1664, 1811, 
Insertion Distribution: 
	LOAD 13459 0 0 0 0 0 5485 213 
	RFO 17971 0 0 0 0 0 12695 5641 
	PREF 0 9243 0 0 0 0 13706 13512 
	WRITEBACK 0 0 0 0 0 0 0 5185 
Total Prefetch Downgrades: 14428
