
*** ChampSim Multicore Out-of-Order Simulator ***

Warmup Instructions: 10000000
Simulation Instructions: 100000000
Configuration: 2
Number of CPUs: 1
LLC sets: 2048
LLC ways: 16
Off-chip DRAM Channels: 1 Width: 64-bit Data Rate: 1600 MT/s

CPU 0 runs /datasets/cs240c-wi22-a00-public/data/Assignment2-gz/soplex_217B.trace.gz
CPU 0 L1D next line prefetcher
CPU 0 L2C IP-based stride prefetcher
Heartbeat CPU 0 instructions: 1000002 cycles: 441513 heartbeat IPC: 2.26494 cumulative IPC: 2.26494 (Simulation time: 0 hr 0 min 34 sec) 
select_counter is 154
Heartbeat CPU 0 instructions: 2000003 cycles: 800693 heartbeat IPC: 2.78412 cumulative IPC: 2.49784 (Simulation time: 0 hr 1 min 2 sec) 
select_counter is 534
Heartbeat CPU 0 instructions: 3000002 cycles: 1245828 heartbeat IPC: 2.24651 cumulative IPC: 2.40804 (Simulation time: 0 hr 1 min 32 sec) 
select_counter is 768
Heartbeat CPU 0 instructions: 4000000 cycles: 1673805 heartbeat IPC: 2.33657 cumulative IPC: 2.38976 (Simulation time: 0 hr 2 min 6 sec) 
select_counter is 1021
Heartbeat CPU 0 instructions: 5000001 cycles: 2057855 heartbeat IPC: 2.60383 cumulative IPC: 2.42971 (Simulation time: 0 hr 2 min 30 sec) 
select_counter is 1022
Heartbeat CPU 0 instructions: 6000000 cycles: 2432254 heartbeat IPC: 2.67094 cumulative IPC: 2.46685 (Simulation time: 0 hr 2 min 55 sec) 
select_counter is 984
Heartbeat CPU 0 instructions: 7000003 cycles: 2961424 heartbeat IPC: 1.88976 cumulative IPC: 2.36373 (Simulation time: 0 hr 3 min 23 sec) 
select_counter is 1020
Heartbeat CPU 0 instructions: 8000000 cycles: 3409232 heartbeat IPC: 2.23309 cumulative IPC: 2.34657 (Simulation time: 0 hr 3 min 56 sec) 
select_counter is 429
Heartbeat CPU 0 instructions: 9000001 cycles: 3833646 heartbeat IPC: 2.35619 cumulative IPC: 2.34763 (Simulation time: 0 hr 4 min 26 sec) 
select_counter is 544
Heartbeat CPU 0 instructions: 10000000 cycles: 4246018 heartbeat IPC: 2.42499 cumulative IPC: 2.35515 (Simulation time: 0 hr 4 min 54 sec) 
select_counter is 98

Warmup complete CPU 0 instructions: 10000004 cycles: 4246019 (Simulation time: 0 hr 4 min 54 sec) 

Heartbeat CPU 0 instructions: 11000002 cycles: 8194437 heartbeat IPC: 0.253266 cumulative IPC: 0.253265 (Simulation time: 0 hr 5 min 45 sec) 
select_counter is 697
Heartbeat CPU 0 instructions: 12000000 cycles: 10865134 heartbeat IPC: 0.374433 cumulative IPC: 0.302155 (Simulation time: 0 hr 6 min 20 sec) 
select_counter is 397
Heartbeat CPU 0 instructions: 13000000 cycles: 12229554 heartbeat IPC: 0.732912 cumulative IPC: 0.375773 (Simulation time: 0 hr 6 min 44 sec) 
select_counter is 298
Heartbeat CPU 0 instructions: 14000000 cycles: 14899154 heartbeat IPC: 0.374588 cumulative IPC: 0.375476 (Simulation time: 0 hr 7 min 17 sec) 
select_counter is 140
Heartbeat CPU 0 instructions: 15000000 cycles: 17598939 heartbeat IPC: 0.3704 cumulative IPC: 0.37445 (Simulation time: 0 hr 7 min 56 sec) 
select_counter is 920
Heartbeat CPU 0 instructions: 16000000 cycles: 21238790 heartbeat IPC: 0.274737 cumulative IPC: 0.353091 (Simulation time: 0 hr 8 min 46 sec) 
select_counter is 671
Heartbeat CPU 0 instructions: 17000002 cycles: 23685426 heartbeat IPC: 0.408725 cumulative IPC: 0.360093 (Simulation time: 0 hr 9 min 22 sec) 
select_counter is 411
Heartbeat CPU 0 instructions: 18000002 cycles: 26235874 heartbeat IPC: 0.392088 cumulative IPC: 0.363804 (Simulation time: 0 hr 10 min 4 sec) 
select_counter is 946
Heartbeat CPU 0 instructions: 19000000 cycles: 29643405 heartbeat IPC: 0.293467 cumulative IPC: 0.354367 (Simulation time: 0 hr 10 min 47 sec) 
select_counter is 543
Heartbeat CPU 0 instructions: 20000000 cycles: 30964971 heartbeat IPC: 0.756678 cumulative IPC: 0.374266 (Simulation time: 0 hr 11 min 10 sec) 
select_counter is 520
Heartbeat CPU 0 instructions: 21000000 cycles: 32407999 heartbeat IPC: 0.692987 cumulative IPC: 0.390597 (Simulation time: 0 hr 11 min 35 sec) 
select_counter is 467
Heartbeat CPU 0 instructions: 22000001 cycles: 35616179 heartbeat IPC: 0.311704 cumulative IPC: 0.382529 (Simulation time: 0 hr 12 min 12 sec) 
select_counter is 243
Heartbeat CPU 0 instructions: 23000003 cycles: 38909784 heartbeat IPC: 0.303619 cumulative IPC: 0.375031 (Simulation time: 0 hr 12 min 56 sec) 
select_counter is 749
Heartbeat CPU 0 instructions: 24000000 cycles: 42257059 heartbeat IPC: 0.29875 cumulative IPC: 0.368314 (Simulation time: 0 hr 13 min 42 sec) 
select_counter is 943
Heartbeat CPU 0 instructions: 25000001 cycles: 43875448 heartbeat IPC: 0.617899 cumulative IPC: 0.378507 (Simulation time: 0 hr 14 min 18 sec) 
select_counter is 576
Heartbeat CPU 0 instructions: 26000001 cycles: 47716416 heartbeat IPC: 0.260351 cumulative IPC: 0.368066 (Simulation time: 0 hr 15 min 5 sec) 
select_counter is 994
Heartbeat CPU 0 instructions: 27000002 cycles: 50019771 heartbeat IPC: 0.43415 cumulative IPC: 0.371392 (Simulation time: 0 hr 15 min 33 sec) 
select_counter is 853
Heartbeat CPU 0 instructions: 28000000 cycles: 51312896 heartbeat IPC: 0.773319 cumulative IPC: 0.382434 (Simulation time: 0 hr 15 min 56 sec) 
select_counter is 789
Heartbeat CPU 0 instructions: 29000002 cycles: 54034010 heartbeat IPC: 0.367497 cumulative IPC: 0.381618 (Simulation time: 0 hr 16 min 28 sec) 
select_counter is 703
Heartbeat CPU 0 instructions: 30000002 cycles: 56955169 heartbeat IPC: 0.34233 cumulative IPC: 0.379441 (Simulation time: 0 hr 17 min 9 sec) 
select_counter is 566
Heartbeat CPU 0 instructions: 31000000 cycles: 60316124 heartbeat IPC: 0.297534 cumulative IPC: 0.374531 (Simulation time: 0 hr 17 min 52 sec) 
select_counter is 85
Heartbeat CPU 0 instructions: 32000000 cycles: 62106408 heartbeat IPC: 0.558571 cumulative IPC: 0.380226 (Simulation time: 0 hr 18 min 27 sec) 
select_counter is 776
Heartbeat CPU 0 instructions: 33000001 cycles: 65493248 heartbeat IPC: 0.295261 cumulative IPC: 0.375527 (Simulation time: 0 hr 19 min 8 sec) 
select_counter is 960
Heartbeat CPU 0 instructions: 34000000 cycles: 68192010 heartbeat IPC: 0.37054 cumulative IPC: 0.375317 (Simulation time: 0 hr 19 min 40 sec) 
select_counter is 562
Heartbeat CPU 0 instructions: 35000002 cycles: 69495674 heartbeat IPC: 0.76707 cumulative IPC: 0.383144 (Simulation time: 0 hr 20 min 1 sec) 
select_counter is 500
Heartbeat CPU 0 instructions: 36000000 cycles: 71716405 heartbeat IPC: 0.450301 cumulative IPC: 0.385354 (Simulation time: 0 hr 20 min 31 sec) 
select_counter is 423
Heartbeat CPU 0 instructions: 37000002 cycles: 74396660 heartbeat IPC: 0.3731 cumulative IPC: 0.384886 (Simulation time: 0 hr 21 min 6 sec) 
select_counter is 391
Heartbeat CPU 0 instructions: 38000000 cycles: 77860540 heartbeat IPC: 0.288693 cumulative IPC: 0.38036 (Simulation time: 0 hr 21 min 51 sec) 
select_counter is 90
Heartbeat CPU 0 instructions: 39000001 cycles: 79944621 heartbeat IPC: 0.479828 cumulative IPC: 0.383098 (Simulation time: 0 hr 22 min 23 sec) 
select_counter is 847
Heartbeat CPU 0 instructions: 40000000 cycles: 83013713 heartbeat IPC: 0.325829 cumulative IPC: 0.380867 (Simulation time: 0 hr 23 min 1 sec) 
select_counter is 203
Heartbeat CPU 0 instructions: 41000000 cycles: 85957314 heartbeat IPC: 0.33972 cumulative IPC: 0.379384 (Simulation time: 0 hr 23 min 35 sec) 
select_counter is 714
Heartbeat CPU 0 instructions: 42000002 cycles: 87284151 heartbeat IPC: 0.753674 cumulative IPC: 0.385365 (Simulation time: 0 hr 23 min 57 sec) 
select_counter is 669
Heartbeat CPU 0 instructions: 43000001 cycles: 89072689 heartbeat IPC: 0.559115 cumulative IPC: 0.389029 (Simulation time: 0 hr 24 min 25 sec) 
select_counter is 589
Heartbeat CPU 0 instructions: 44000000 cycles: 91957139 heartbeat IPC: 0.346686 cumulative IPC: 0.387636 (Simulation time: 0 hr 25 min 0 sec) 
select_counter is 420
Heartbeat CPU 0 instructions: 45000003 cycles: 95464114 heartbeat IPC: 0.285147 cumulative IPC: 0.383696 (Simulation time: 0 hr 25 min 43 sec) 
select_counter is 151
Heartbeat CPU 0 instructions: 46000000 cycles: 98619407 heartbeat IPC: 0.316927 cumulative IPC: 0.381463 (Simulation time: 0 hr 26 min 25 sec) 
select_counter is 396
Heartbeat CPU 0 instructions: 47000001 cycles: 100269125 heartbeat IPC: 0.606165 cumulative IPC: 0.385324 (Simulation time: 0 hr 26 min 56 sec) 
select_counter is 30
Heartbeat CPU 0 instructions: 48000000 cycles: 103912440 heartbeat IPC: 0.274475 cumulative IPC: 0.381272 (Simulation time: 0 hr 27 min 39 sec) 
select_counter is 631
Heartbeat CPU 0 instructions: 49000000 cycles: 106594521 heartbeat IPC: 0.372845 cumulative IPC: 0.381051 (Simulation time: 0 hr 28 min 10 sec) 
select_counter is 490
Heartbeat CPU 0 instructions: 50000001 cycles: 107932811 heartbeat IPC: 0.747223 cumulative IPC: 0.385777 (Simulation time: 0 hr 28 min 33 sec) 
select_counter is 439
Heartbeat CPU 0 instructions: 51000000 cycles: 110466507 heartbeat IPC: 0.39468 cumulative IPC: 0.38599 (Simulation time: 0 hr 29 min 0 sec) 
select_counter is 370
Heartbeat CPU 0 instructions: 52000000 cycles: 113179482 heartbeat IPC: 0.368599 cumulative IPC: 0.385556 (Simulation time: 0 hr 29 min 35 sec) 
select_counter is 424
Heartbeat CPU 0 instructions: 53000000 cycles: 116451132 heartbeat IPC: 0.305656 cumulative IPC: 0.383227 (Simulation time: 0 hr 30 min 15 sec) 
select_counter is 189
Heartbeat CPU 0 instructions: 54000000 cycles: 118344949 heartbeat IPC: 0.528034 cumulative IPC: 0.38563 (Simulation time: 0 hr 30 min 46 sec) 
select_counter is 857
Heartbeat CPU 0 instructions: 55000000 cycles: 121656894 heartbeat IPC: 0.301937 cumulative IPC: 0.383269 (Simulation time: 0 hr 31 min 27 sec) 
select_counter is 115
Heartbeat CPU 0 instructions: 56000000 cycles: 124445465 heartbeat IPC: 0.358607 cumulative IPC: 0.382697 (Simulation time: 0 hr 32 min 1 sec) 
select_counter is 809
Heartbeat CPU 0 instructions: 57000003 cycles: 125749232 heartbeat IPC: 0.767011 cumulative IPC: 0.386821 (Simulation time: 0 hr 32 min 23 sec) 
select_counter is 748
Heartbeat CPU 0 instructions: 58000000 cycles: 127929560 heartbeat IPC: 0.458645 cumulative IPC: 0.388087 (Simulation time: 0 hr 32 min 52 sec) 
select_counter is 673
Heartbeat CPU 0 instructions: 59000001 cycles: 130583658 heartbeat IPC: 0.376776 cumulative IPC: 0.38785 (Simulation time: 0 hr 33 min 28 sec) 
select_counter is 575
Heartbeat CPU 0 instructions: 60000000 cycles: 134214140 heartbeat IPC: 0.275445 cumulative IPC: 0.38471 (Simulation time: 0 hr 34 min 13 sec) 
select_counter is 195
Heartbeat CPU 0 instructions: 61000000 cycles: 136499565 heartbeat IPC: 0.437555 cumulative IPC: 0.385623 (Simulation time: 0 hr 34 min 45 sec) 
select_counter is 897
Heartbeat CPU 0 instructions: 62000000 cycles: 139228621 heartbeat IPC: 0.366427 cumulative IPC: 0.385235 (Simulation time: 0 hr 35 min 24 sec) 
select_counter is 342
Heartbeat CPU 0 instructions: 63000001 cycles: 142565873 heartbeat IPC: 0.299648 cumulative IPC: 0.38317 (Simulation time: 0 hr 36 min 2 sec) 
select_counter is 839
Heartbeat CPU 0 instructions: 64000000 cycles: 143879150 heartbeat IPC: 0.761453 cumulative IPC: 0.386728 (Simulation time: 0 hr 36 min 25 sec) 
select_counter is 783
Heartbeat CPU 0 instructions: 65000000 cycles: 145401300 heartbeat IPC: 0.656965 cumulative IPC: 0.389642 (Simulation time: 0 hr 36 min 51 sec) 
select_counter is 702
Heartbeat CPU 0 instructions: 66000002 cycles: 148545697 heartbeat IPC: 0.318027 cumulative IPC: 0.388081 (Simulation time: 0 hr 37 min 28 sec) 
select_counter is 657
Heartbeat CPU 0 instructions: 67000000 cycles: 152055021 heartbeat IPC: 0.284955 cumulative IPC: 0.385633 (Simulation time: 0 hr 38 min 14 sec) 
select_counter is 589
Heartbeat CPU 0 instructions: 68000000 cycles: 158098388 heartbeat IPC: 0.165471 cumulative IPC: 0.376985 (Simulation time: 0 hr 39 min 2 sec) 
select_counter is 825
Heartbeat CPU 0 instructions: 69000001 cycles: 162304178 heartbeat IPC: 0.237768 cumulative IPC: 0.37328 (Simulation time: 0 hr 39 min 44 sec) 
select_counter is 1021
Heartbeat CPU 0 instructions: 70000002 cycles: 166515139 heartbeat IPC: 0.237476 cumulative IPC: 0.369756 (Simulation time: 0 hr 40 min 30 sec) 
select_counter is 1021
Heartbeat CPU 0 instructions: 71000002 cycles: 171047914 heartbeat IPC: 0.220615 cumulative IPC: 0.365703 (Simulation time: 0 hr 41 min 14 sec) 
select_counter is 1013
Heartbeat CPU 0 instructions: 72000000 cycles: 174504356 heartbeat IPC: 0.289314 cumulative IPC: 0.364152 (Simulation time: 0 hr 41 min 54 sec) 
select_counter is 1021
Heartbeat CPU 0 instructions: 73000000 cycles: 177867036 heartbeat IPC: 0.297382 cumulative IPC: 0.362859 (Simulation time: 0 hr 42 min 34 sec) 
select_counter is 933
Heartbeat CPU 0 instructions: 74000000 cycles: 181737590 heartbeat IPC: 0.258361 cumulative IPC: 0.36058 (Simulation time: 0 hr 43 min 9 sec) 
select_counter is 712
Heartbeat CPU 0 instructions: 75000002 cycles: 185700994 heartbeat IPC: 0.252309 cumulative IPC: 0.358216 (Simulation time: 0 hr 43 min 51 sec) 
select_counter is 625
Heartbeat CPU 0 instructions: 76000000 cycles: 188321304 heartbeat IPC: 0.381633 cumulative IPC: 0.358549 (Simulation time: 0 hr 44 min 22 sec) 
select_counter is 600
Heartbeat CPU 0 instructions: 77000000 cycles: 191977714 heartbeat IPC: 0.273492 cumulative IPC: 0.356892 (Simulation time: 0 hr 44 min 58 sec) 
select_counter is 633
Heartbeat CPU 0 instructions: 78000002 cycles: 194175773 heartbeat IPC: 0.454948 cumulative IPC: 0.358027 (Simulation time: 0 hr 45 min 30 sec) 
select_counter is 708
Heartbeat CPU 0 instructions: 79000002 cycles: 196038916 heartbeat IPC: 0.536727 cumulative IPC: 0.359763 (Simulation time: 0 hr 46 min 3 sec) 
select_counter is 981
Heartbeat CPU 0 instructions: 80000000 cycles: 197203179 heartbeat IPC: 0.858911 cumulative IPC: 0.362775 (Simulation time: 0 hr 46 min 30 sec) 
select_counter is 1023
Heartbeat CPU 0 instructions: 81000003 cycles: 199382584 heartbeat IPC: 0.458842 cumulative IPC: 0.363848 (Simulation time: 0 hr 47 min 3 sec) 
select_counter is 1023
Heartbeat CPU 0 instructions: 82000001 cycles: 202390141 heartbeat IPC: 0.332495 cumulative IPC: 0.363372 (Simulation time: 0 hr 47 min 41 sec) 
select_counter is 777
Heartbeat CPU 0 instructions: 83000002 cycles: 205090911 heartbeat IPC: 0.370265 cumulative IPC: 0.363465 (Simulation time: 0 hr 48 min 15 sec) 
select_counter is 586
Heartbeat CPU 0 instructions: 84000000 cycles: 207464032 heartbeat IPC: 0.421385 cumulative IPC: 0.364141 (Simulation time: 0 hr 48 min 46 sec) 
select_counter is 255
Heartbeat CPU 0 instructions: 85000000 cycles: 209027206 heartbeat IPC: 0.639724 cumulative IPC: 0.366245 (Simulation time: 0 hr 49 min 11 sec) 
select_counter is 81
Heartbeat CPU 0 instructions: 86000000 cycles: 212834151 heartbeat IPC: 0.262678 cumulative IPC: 0.364354 (Simulation time: 0 hr 49 min 44 sec) 
select_counter is 969
Heartbeat CPU 0 instructions: 87000000 cycles: 215360072 heartbeat IPC: 0.395895 cumulative IPC: 0.364732 (Simulation time: 0 hr 50 min 5 sec) 
select_counter is 787
Heartbeat CPU 0 instructions: 88000000 cycles: 216676272 heartbeat IPC: 0.759763 cumulative IPC: 0.367179 (Simulation time: 0 hr 50 min 20 sec) 
select_counter is 737
Heartbeat CPU 0 instructions: 89000003 cycles: 219257842 heartbeat IPC: 0.387362 cumulative IPC: 0.367422 (Simulation time: 0 hr 50 min 40 sec) 
select_counter is 635
Heartbeat CPU 0 instructions: 90000002 cycles: 222039879 heartbeat IPC: 0.359448 cumulative IPC: 0.36732 (Simulation time: 0 hr 51 min 3 sec) 
select_counter is 382
Heartbeat CPU 0 instructions: 91000001 cycles: 225316666 heartbeat IPC: 0.305177 cumulative IPC: 0.366399 (Simulation time: 0 hr 51 min 25 sec) 
select_counter is 970
Heartbeat CPU 0 instructions: 92000000 cycles: 227327282 heartbeat IPC: 0.49736 cumulative IPC: 0.367579 (Simulation time: 0 hr 51 min 44 sec) 
select_counter is 665
Heartbeat CPU 0 instructions: 93000000 cycles: 230627528 heartbeat IPC: 0.303008 cumulative IPC: 0.366638 (Simulation time: 0 hr 52 min 8 sec) 
select_counter is 913
Heartbeat CPU 0 instructions: 94000001 cycles: 233382149 heartbeat IPC: 0.363027 cumulative IPC: 0.366594 (Simulation time: 0 hr 52 min 27 sec) 
select_counter is 470
Heartbeat CPU 0 instructions: 95000003 cycles: 234697856 heartbeat IPC: 0.760049 cumulative IPC: 0.368841 (Simulation time: 0 hr 52 min 39 sec) 
select_counter is 408
Heartbeat CPU 0 instructions: 96000000 cycles: 236901484 heartbeat IPC: 0.453796 cumulative IPC: 0.369645 (Simulation time: 0 hr 52 min 54 sec) 
select_counter is 314
Heartbeat CPU 0 instructions: 97000002 cycles: 239426291 heartbeat IPC: 0.396071 cumulative IPC: 0.369929 (Simulation time: 0 hr 53 min 12 sec) 
select_counter is 263
Heartbeat CPU 0 instructions: 98000003 cycles: 243364973 heartbeat IPC: 0.253892 cumulative IPC: 0.368018 (Simulation time: 0 hr 53 min 37 sec) 
select_counter is 162
Heartbeat CPU 0 instructions: 99000000 cycles: 246344040 heartbeat IPC: 0.335675 cumulative IPC: 0.36762 (Simulation time: 0 hr 53 min 56 sec) 
select_counter is 173
Heartbeat CPU 0 instructions: 100000000 cycles: 248227581 heartbeat IPC: 0.530915 cumulative IPC: 0.36888 (Simulation time: 0 hr 54 min 14 sec) 
select_counter is 965
Heartbeat CPU 0 instructions: 101000001 cycles: 252255244 heartbeat IPC: 0.248283 cumulative IPC: 0.366922 (Simulation time: 0 hr 54 min 35 sec) 
select_counter is 861
Heartbeat CPU 0 instructions: 102000000 cycles: 253886995 heartbeat IPC: 0.612838 cumulative IPC: 0.368529 (Simulation time: 0 hr 54 min 45 sec) 
select_counter is 849
Heartbeat CPU 0 instructions: 103000001 cycles: 255203498 heartbeat IPC: 0.759589 cumulative IPC: 0.370581 (Simulation time: 0 hr 54 min 55 sec) 
select_counter is 822
Heartbeat CPU 0 instructions: 104000000 cycles: 258499751 heartbeat IPC: 0.303374 cumulative IPC: 0.369709 (Simulation time: 0 hr 55 min 9 sec) 
select_counter is 794
Heartbeat CPU 0 instructions: 105000001 cycles: 261657999 heartbeat IPC: 0.316632 cumulative IPC: 0.369058 (Simulation time: 0 hr 55 min 24 sec) 
select_counter is 577
Heartbeat CPU 0 instructions: 106000002 cycles: 264494240 heartbeat IPC: 0.35258 cumulative IPC: 0.368879 (Simulation time: 0 hr 55 min 36 sec) 
select_counter is 402
Heartbeat CPU 0 instructions: 107000000 cycles: 266257061 heartbeat IPC: 0.567271 cumulative IPC: 0.370213 (Simulation time: 0 hr 55 min 48 sec) 
select_counter is 32
Heartbeat CPU 0 instructions: 108000000 cycles: 270264158 heartbeat IPC: 0.249557 cumulative IPC: 0.368396 (Simulation time: 0 hr 56 min 4 sec) 
select_counter is 359
Heartbeat CPU 0 instructions: 109000000 cycles: 272222494 heartbeat IPC: 0.510638 cumulative IPC: 0.369435 (Simulation time: 0 hr 56 min 13 sec) 
select_counter is 250
Heartbeat CPU 0 instructions: 110000002 cycles: 273523120 heartbeat IPC: 0.768862 cumulative IPC: 0.371365 (Simulation time: 0 hr 56 min 20 sec) 
select_counter is 164
Finished CPU 0 instructions: 100000000 cycles: 269277105 cummulative IPC: 0.371365 (Simulation time: 0 hr 56 min 20 sec) 

ChampSim completed all CPUs

Region of Interest Statistics

CPU 0 cummulative IPC: 0.371365 instructions: 100000000 cycles: 269277105
LLC TOTAL     ACCESS:    8714486  HIT:    4536238  MISS:    4178248
LLC LOAD      ACCESS:    2237426  HIT:    1028504  MISS:    1208922
LLC RFO       ACCESS:     764928  HIT:     283223  MISS:     481705
LLC PREFETCH  ACCESS:    3551657  HIT:    1515702  MISS:    2035955
LLC WRITEBACK ACCESS:    2160475  HIT:    1708809  MISS:     451666
Ship samples: 
26, 57, 81, 97, 144, 160, 213, 241, 263, 293, 349, 355, 407, 434, 464, 488, 521, 549, 597, 615, 666, 684, 725, 754, 797, 813, 842, 875, 900, 943, 973, 1001, 1036, 1069, 1096, 1144, 1176, 1196, 1243, 1260, 1311, 1330, 1355, 1386, 1435, 1444, 1488, 1535, 1563, 1598, 1601, 1637, 1690, 1702, 1744, 1774, 1805, 1848, 1886, 1895, 1947, 1953, 2008, 2024, 
Lime duel samples: 
29, 36, 76, 109, 148, 161, 220, 240, 267, 298, 334, 361, 401, 435, 462, 496, 532, 564, 598, 633, 662, 675, 714, 759, 799, 800, 858, 881, 897, 957, 980, 1015, 1047, 1070, 1089, 1140, 1154, 1188, 1229, 1278, 1304, 1338, 1353, 1405, 1423, 1465, 1480, 1517, 1564, 1581, 1603, 1654, 1689, 1714, 1749, 1779, 1807, 1824, 1880, 1890, 1945, 1963, 1996, 2017, 
Lime samples: 
29, 148, 267, 401, 532, 662, 799, 897, 1047, 1154, 1304, 1423, 1564, 1689, 1807, 
Insertion Distribution: 
	LOAD 174264 0 0 0 0 0 42001 318760 
	RFO 126156 0 0 0 0 0 29212 93801 
	PREF 0 84345 0 0 0 0 122798 726215 
	WRITEBACK 0 0 0 0 0 0 0 204904 
Total Prefetch Downgrades: 77935
