
*** ChampSim Multicore Out-of-Order Simulator ***

Warmup Instructions: 10000000
Simulation Instructions: 100000000
Configuration: 2
Number of CPUs: 1
LLC sets: 2048
LLC ways: 16
Off-chip DRAM Channels: 1 Width: 64-bit Data Rate: 1600 MT/s

CPU 0 runs /datasets/cs240c-wi22-a00-public/data/Assignment2-gz/lbm_94B.trace.gz
CPU 0 L1D next line prefetcher
CPU 0 L2C IP-based stride prefetcher
Heartbeat CPU 0 instructions: 1000000 cycles: 422068 heartbeat IPC: 2.36929 cumulative IPC: 2.36929 (Simulation time: 0 hr 0 min 28 sec) 
select_counter is 654
Heartbeat CPU 0 instructions: 2000000 cycles: 812399 heartbeat IPC: 2.56193 cumulative IPC: 2.46184 (Simulation time: 0 hr 0 min 53 sec) 
select_counter is 1023
Heartbeat CPU 0 instructions: 3000000 cycles: 1211540 heartbeat IPC: 2.50538 cumulative IPC: 2.47619 (Simulation time: 0 hr 1 min 22 sec) 
select_counter is 1022
Heartbeat CPU 0 instructions: 4000000 cycles: 1631535 heartbeat IPC: 2.38098 cumulative IPC: 2.45168 (Simulation time: 0 hr 1 min 50 sec) 
select_counter is 924
Heartbeat CPU 0 instructions: 5000001 cycles: 2021787 heartbeat IPC: 2.56245 cumulative IPC: 2.47306 (Simulation time: 0 hr 2 min 17 sec) 
select_counter is 1023
Heartbeat CPU 0 instructions: 6000000 cycles: 2422464 heartbeat IPC: 2.49577 cumulative IPC: 2.47682 (Simulation time: 0 hr 2 min 45 sec) 
select_counter is 952
Heartbeat CPU 0 instructions: 7000001 cycles: 2840607 heartbeat IPC: 2.39153 cumulative IPC: 2.46426 (Simulation time: 0 hr 3 min 14 sec) 
select_counter is 606
Heartbeat CPU 0 instructions: 8000000 cycles: 3230837 heartbeat IPC: 2.56259 cumulative IPC: 2.47614 (Simulation time: 0 hr 3 min 40 sec) 
select_counter is 929
Heartbeat CPU 0 instructions: 9000003 cycles: 3631867 heartbeat IPC: 2.49359 cumulative IPC: 2.47807 (Simulation time: 0 hr 4 min 7 sec) 
select_counter is 988
Heartbeat CPU 0 instructions: 10000000 cycles: 4048438 heartbeat IPC: 2.40054 cumulative IPC: 2.47009 (Simulation time: 0 hr 4 min 35 sec) 
select_counter is 964

Warmup complete CPU 0 instructions: 10000004 cycles: 4048439 (Simulation time: 0 hr 4 min 35 sec) 

Heartbeat CPU 0 instructions: 11000003 cycles: 5383075 heartbeat IPC: 0.74927 cumulative IPC: 0.749267 (Simulation time: 0 hr 5 min 7 sec) 
select_counter is 1023
Heartbeat CPU 0 instructions: 12000000 cycles: 6916257 heartbeat IPC: 0.652236 cumulative IPC: 0.697393 (Simulation time: 0 hr 5 min 40 sec) 
select_counter is 1020
Heartbeat CPU 0 instructions: 13000000 cycles: 8535089 heartbeat IPC: 0.617729 cumulative IPC: 0.668649 (Simulation time: 0 hr 6 min 16 sec) 
select_counter is 1021
Heartbeat CPU 0 instructions: 14000000 cycles: 9832053 heartbeat IPC: 0.771031 cumulative IPC: 0.691608 (Simulation time: 0 hr 6 min 47 sec) 
select_counter is 1017
Heartbeat CPU 0 instructions: 15000003 cycles: 11359118 heartbeat IPC: 0.654853 cumulative IPC: 0.683931 (Simulation time: 0 hr 7 min 21 sec) 
select_counter is 988
Heartbeat CPU 0 instructions: 16000000 cycles: 12992592 heartbeat IPC: 0.61219 cumulative IPC: 0.670829 (Simulation time: 0 hr 7 min 55 sec) 
select_counter is 1023
Heartbeat CPU 0 instructions: 17000001 cycles: 14295987 heartbeat IPC: 0.767228 cumulative IPC: 0.68309 (Simulation time: 0 hr 8 min 25 sec) 
select_counter is 1022
Heartbeat CPU 0 instructions: 18000001 cycles: 15809957 heartbeat IPC: 0.660515 cumulative IPC: 0.680184 (Simulation time: 0 hr 9 min 0 sec) 
select_counter is 1003
Heartbeat CPU 0 instructions: 19000000 cycles: 17454716 heartbeat IPC: 0.607991 cumulative IPC: 0.671327 (Simulation time: 0 hr 9 min 35 sec) 
select_counter is 1021
Heartbeat CPU 0 instructions: 20000000 cycles: 18798744 heartbeat IPC: 0.744032 cumulative IPC: 0.677952 (Simulation time: 0 hr 10 min 6 sec) 
select_counter is 1019
Heartbeat CPU 0 instructions: 21000001 cycles: 20249730 heartbeat IPC: 0.689187 cumulative IPC: 0.678958 (Simulation time: 0 hr 10 min 41 sec) 
select_counter is 1012
Heartbeat CPU 0 instructions: 22000000 cycles: 21912913 heartbeat IPC: 0.601256 cumulative IPC: 0.671724 (Simulation time: 0 hr 11 min 16 sec) 
select_counter is 966
Heartbeat CPU 0 instructions: 23000000 cycles: 23275822 heartbeat IPC: 0.733725 cumulative IPC: 0.676119 (Simulation time: 0 hr 11 min 48 sec) 
select_counter is 1020
Heartbeat CPU 0 instructions: 24000000 cycles: 24697721 heartbeat IPC: 0.703285 cumulative IPC: 0.677989 (Simulation time: 0 hr 12 min 20 sec) 
select_counter is 1023
Heartbeat CPU 0 instructions: 25000000 cycles: 26291241 heartbeat IPC: 0.627542 cumulative IPC: 0.674375 (Simulation time: 0 hr 12 min 55 sec) 
select_counter is 1018
Heartbeat CPU 0 instructions: 26000000 cycles: 27631119 heartbeat IPC: 0.746337 cumulative IPC: 0.678464 (Simulation time: 0 hr 13 min 26 sec) 
select_counter is 1008
Heartbeat CPU 0 instructions: 27000002 cycles: 29049195 heartbeat IPC: 0.705182 cumulative IPC: 0.679979 (Simulation time: 0 hr 13 min 57 sec) 
select_counter is 1023
Heartbeat CPU 0 instructions: 28000000 cycles: 30640709 heartbeat IPC: 0.628331 cumulative IPC: 0.676888 (Simulation time: 0 hr 14 min 33 sec) 
select_counter is 1023
Heartbeat CPU 0 instructions: 29000000 cycles: 32011180 heartbeat IPC: 0.729676 cumulative IPC: 0.679475 (Simulation time: 0 hr 15 min 6 sec) 
select_counter is 1021
Heartbeat CPU 0 instructions: 30000000 cycles: 33470568 heartbeat IPC: 0.685219 cumulative IPC: 0.67976 (Simulation time: 0 hr 15 min 36 sec) 
select_counter is 956
Heartbeat CPU 0 instructions: 31000001 cycles: 35028436 heartbeat IPC: 0.641904 cumulative IPC: 0.677857 (Simulation time: 0 hr 16 min 10 sec) 
select_counter is 1020
Heartbeat CPU 0 instructions: 32000000 cycles: 36357631 heartbeat IPC: 0.752334 cumulative IPC: 0.680921 (Simulation time: 0 hr 16 min 43 sec) 
select_counter is 1023
Heartbeat CPU 0 instructions: 33000000 cycles: 37788199 heartbeat IPC: 0.699023 cumulative IPC: 0.681688 (Simulation time: 0 hr 17 min 15 sec) 
select_counter is 953
Heartbeat CPU 0 instructions: 34000003 cycles: 39339878 heartbeat IPC: 0.644465 cumulative IPC: 0.680052 (Simulation time: 0 hr 17 min 46 sec) 
select_counter is 913
Heartbeat CPU 0 instructions: 35000003 cycles: 40668609 heartbeat IPC: 0.752598 cumulative IPC: 0.682684 (Simulation time: 0 hr 18 min 16 sec) 
select_counter is 1023
Heartbeat CPU 0 instructions: 36000000 cycles: 42073974 heartbeat IPC: 0.711557 cumulative IPC: 0.683751 (Simulation time: 0 hr 18 min 46 sec) 
select_counter is 1010
Heartbeat CPU 0 instructions: 37000003 cycles: 43579824 heartbeat IPC: 0.664079 cumulative IPC: 0.683002 (Simulation time: 0 hr 19 min 17 sec) 
select_counter is 1000
Heartbeat CPU 0 instructions: 38000000 cycles: 44962656 heartbeat IPC: 0.723151 cumulative IPC: 0.684359 (Simulation time: 0 hr 19 min 49 sec) 
select_counter is 1018
Heartbeat CPU 0 instructions: 39000002 cycles: 46328543 heartbeat IPC: 0.732126 cumulative IPC: 0.685902 (Simulation time: 0 hr 20 min 20 sec) 
select_counter is 1022
Heartbeat CPU 0 instructions: 40000000 cycles: 47815164 heartbeat IPC: 0.672665 cumulative IPC: 0.685452 (Simulation time: 0 hr 20 min 51 sec) 
select_counter is 1005
Heartbeat CPU 0 instructions: 41000003 cycles: 49241432 heartbeat IPC: 0.701133 cumulative IPC: 0.685947 (Simulation time: 0 hr 21 min 21 sec) 
select_counter is 1021
Heartbeat CPU 0 instructions: 42000000 cycles: 50553830 heartbeat IPC: 0.761962 cumulative IPC: 0.688092 (Simulation time: 0 hr 21 min 50 sec) 
select_counter is 1023
Heartbeat CPU 0 instructions: 43000001 cycles: 51988774 heartbeat IPC: 0.696892 cumulative IPC: 0.688356 (Simulation time: 0 hr 22 min 21 sec) 
select_counter is 1019
Heartbeat CPU 0 instructions: 44000000 cycles: 53479453 heartbeat IPC: 0.670835 cumulative IPC: 0.687827 (Simulation time: 0 hr 22 min 55 sec) 
select_counter is 992
Heartbeat CPU 0 instructions: 45000002 cycles: 54792626 heartbeat IPC: 0.761516 cumulative IPC: 0.689734 (Simulation time: 0 hr 23 min 26 sec) 
select_counter is 1021
Heartbeat CPU 0 instructions: 46000003 cycles: 56235203 heartbeat IPC: 0.693205 cumulative IPC: 0.68983 (Simulation time: 0 hr 23 min 56 sec) 
select_counter is 1013
Heartbeat CPU 0 instructions: 47000001 cycles: 57699080 heartbeat IPC: 0.683116 cumulative IPC: 0.689647 (Simulation time: 0 hr 24 min 30 sec) 
select_counter is 1010
Heartbeat CPU 0 instructions: 48000000 cycles: 59072027 heartbeat IPC: 0.72836 cumulative IPC: 0.690613 (Simulation time: 0 hr 25 min 1 sec) 
select_counter is 1022
Heartbeat CPU 0 instructions: 49000000 cycles: 60436034 heartbeat IPC: 0.733134 cumulative IPC: 0.691641 (Simulation time: 0 hr 25 min 34 sec) 
select_counter is 1022
Heartbeat CPU 0 instructions: 50000003 cycles: 61875257 heartbeat IPC: 0.694821 cumulative IPC: 0.691721 (Simulation time: 0 hr 26 min 7 sec) 
select_counter is 1008
Heartbeat CPU 0 instructions: 51000003 cycles: 63231112 heartbeat IPC: 0.737542 cumulative IPC: 0.69277 (Simulation time: 0 hr 26 min 37 sec) 
select_counter is 1020
Heartbeat CPU 0 instructions: 52000000 cycles: 64603148 heartbeat IPC: 0.728842 cumulative IPC: 0.693588 (Simulation time: 0 hr 27 min 9 sec) 
select_counter is 1022
Heartbeat CPU 0 instructions: 53000001 cycles: 66051567 heartbeat IPC: 0.690409 cumulative IPC: 0.693513 (Simulation time: 0 hr 27 min 44 sec) 
select_counter is 1021
Heartbeat CPU 0 instructions: 54000000 cycles: 67461363 heartbeat IPC: 0.709322 cumulative IPC: 0.693865 (Simulation time: 0 hr 28 min 18 sec) 
select_counter is 1022
Heartbeat CPU 0 instructions: 55000003 cycles: 68835058 heartbeat IPC: 0.727966 cumulative IPC: 0.694588 (Simulation time: 0 hr 28 min 51 sec) 
select_counter is 1016
Heartbeat CPU 0 instructions: 56000000 cycles: 70249411 heartbeat IPC: 0.707035 cumulative IPC: 0.694854 (Simulation time: 0 hr 29 min 24 sec) 
select_counter is 1023
Heartbeat CPU 0 instructions: 57000003 cycles: 71612257 heartbeat IPC: 0.733761 cumulative IPC: 0.695639 (Simulation time: 0 hr 29 min 55 sec) 
select_counter is 1020
Heartbeat CPU 0 instructions: 58000003 cycles: 72986972 heartbeat IPC: 0.727423 cumulative IPC: 0.696272 (Simulation time: 0 hr 30 min 26 sec) 
select_counter is 1020
Heartbeat CPU 0 instructions: 59000002 cycles: 74401403 heartbeat IPC: 0.706997 cumulative IPC: 0.696488 (Simulation time: 0 hr 30 min 58 sec) 
select_counter is 1020
Heartbeat CPU 0 instructions: 60000000 cycles: 75786790 heartbeat IPC: 0.721819 cumulative IPC: 0.696977 (Simulation time: 0 hr 31 min 27 sec) 
select_counter is 1013
Heartbeat CPU 0 instructions: 61000000 cycles: 77148065 heartbeat IPC: 0.734605 cumulative IPC: 0.697678 (Simulation time: 0 hr 31 min 55 sec) 
select_counter is 1023
Heartbeat CPU 0 instructions: 62000000 cycles: 78482980 heartbeat IPC: 0.749111 cumulative IPC: 0.6986 (Simulation time: 0 hr 32 min 23 sec) 
select_counter is 1014
Heartbeat CPU 0 instructions: 63000001 cycles: 79938684 heartbeat IPC: 0.686954 cumulative IPC: 0.698377 (Simulation time: 0 hr 32 min 53 sec) 
select_counter is 1023
Heartbeat CPU 0 instructions: 64000000 cycles: 81302889 heartbeat IPC: 0.733027 cumulative IPC: 0.698989 (Simulation time: 0 hr 33 min 22 sec) 
select_counter is 1022
Heartbeat CPU 0 instructions: 65000003 cycles: 82660793 heartbeat IPC: 0.736431 cumulative IPC: 0.699636 (Simulation time: 0 hr 33 min 50 sec) 
select_counter is 1022
Heartbeat CPU 0 instructions: 66000002 cycles: 84054884 heartbeat IPC: 0.717313 cumulative IPC: 0.699944 (Simulation time: 0 hr 34 min 20 sec) 
select_counter is 1010
Heartbeat CPU 0 instructions: 67000002 cycles: 85409532 heartbeat IPC: 0.738199 cumulative IPC: 0.700581 (Simulation time: 0 hr 34 min 50 sec) 
select_counter is 1021
Heartbeat CPU 0 instructions: 68000000 cycles: 86778260 heartbeat IPC: 0.730604 cumulative IPC: 0.701077 (Simulation time: 0 hr 35 min 20 sec) 
select_counter is 1021
Heartbeat CPU 0 instructions: 69000000 cycles: 88156070 heartbeat IPC: 0.725789 cumulative IPC: 0.701482 (Simulation time: 0 hr 35 min 49 sec) 
select_counter is 1023
Heartbeat CPU 0 instructions: 70000001 cycles: 89634312 heartbeat IPC: 0.67648 cumulative IPC: 0.70105 (Simulation time: 0 hr 36 min 20 sec) 
select_counter is 1022
Heartbeat CPU 0 instructions: 71000001 cycles: 90999032 heartbeat IPC: 0.732751 cumulative IPC: 0.701548 (Simulation time: 0 hr 36 min 51 sec) 
select_counter is 1021
Heartbeat CPU 0 instructions: 72000000 cycles: 92371715 heartbeat IPC: 0.7285 cumulative IPC: 0.701967 (Simulation time: 0 hr 37 min 21 sec) 
select_counter is 1021
Heartbeat CPU 0 instructions: 73000001 cycles: 93798126 heartbeat IPC: 0.701061 cumulative IPC: 0.701952 (Simulation time: 0 hr 37 min 52 sec) 
select_counter is 1011
Heartbeat CPU 0 instructions: 74000001 cycles: 95175802 heartbeat IPC: 0.72586 cumulative IPC: 0.702314 (Simulation time: 0 hr 38 min 22 sec) 
select_counter is 1018
Heartbeat CPU 0 instructions: 75000003 cycles: 96534425 heartbeat IPC: 0.736041 cumulative IPC: 0.702809 (Simulation time: 0 hr 38 min 51 sec) 
select_counter is 1023
Heartbeat CPU 0 instructions: 76000000 cycles: 97933603 heartbeat IPC: 0.714703 cumulative IPC: 0.702986 (Simulation time: 0 hr 39 min 21 sec) 
select_counter is 1021
Heartbeat CPU 0 instructions: 77000002 cycles: 99260590 heartbeat IPC: 0.753588 cumulative IPC: 0.703692 (Simulation time: 0 hr 39 min 50 sec) 
select_counter is 1018
Heartbeat CPU 0 instructions: 78000003 cycles: 100655954 heartbeat IPC: 0.71666 cumulative IPC: 0.703879 (Simulation time: 0 hr 40 min 21 sec) 
select_counter is 1017
Heartbeat CPU 0 instructions: 79000000 cycles: 102037382 heartbeat IPC: 0.723886 cumulative IPC: 0.704161 (Simulation time: 0 hr 40 min 51 sec) 
select_counter is 1018
Heartbeat CPU 0 instructions: 80000000 cycles: 103432221 heartbeat IPC: 0.716929 cumulative IPC: 0.70434 (Simulation time: 0 hr 41 min 22 sec) 
select_counter is 1021
Heartbeat CPU 0 instructions: 81000000 cycles: 104814036 heartbeat IPC: 0.723686 cumulative IPC: 0.704606 (Simulation time: 0 hr 41 min 50 sec) 
select_counter is 1000
Heartbeat CPU 0 instructions: 82000000 cycles: 106212457 heartbeat IPC: 0.715092 cumulative IPC: 0.704749 (Simulation time: 0 hr 42 min 19 sec) 
select_counter is 988
Heartbeat CPU 0 instructions: 83000003 cycles: 107602652 heartbeat IPC: 0.719326 cumulative IPC: 0.704945 (Simulation time: 0 hr 42 min 47 sec) 
select_counter is 1021
Heartbeat CPU 0 instructions: 84000000 cycles: 108950157 heartbeat IPC: 0.74211 cumulative IPC: 0.705422 (Simulation time: 0 hr 43 min 14 sec) 
select_counter is 1023
Heartbeat CPU 0 instructions: 85000001 cycles: 110322770 heartbeat IPC: 0.728538 cumulative IPC: 0.705721 (Simulation time: 0 hr 43 min 42 sec) 
select_counter is 1013
Heartbeat CPU 0 instructions: 86000003 cycles: 111773488 heartbeat IPC: 0.689315 cumulative IPC: 0.7055 (Simulation time: 0 hr 44 min 11 sec) 
select_counter is 984
Heartbeat CPU 0 instructions: 87000000 cycles: 113120172 heartbeat IPC: 0.742562 cumulative IPC: 0.705957 (Simulation time: 0 hr 44 min 36 sec) 
select_counter is 1022
Heartbeat CPU 0 instructions: 88000000 cycles: 114443794 heartbeat IPC: 0.755503 cumulative IPC: 0.706551 (Simulation time: 0 hr 45 min 2 sec) 
select_counter is 1021
Heartbeat CPU 0 instructions: 89000003 cycles: 115789649 heartbeat IPC: 0.743024 cumulative IPC: 0.706991 (Simulation time: 0 hr 45 min 29 sec) 
select_counter is 987
Heartbeat CPU 0 instructions: 90000003 cycles: 117192233 heartbeat IPC: 0.71297 cumulative IPC: 0.707065 (Simulation time: 0 hr 45 min 57 sec) 
select_counter is 1023
Heartbeat CPU 0 instructions: 91000002 cycles: 118539588 heartbeat IPC: 0.742194 cumulative IPC: 0.707478 (Simulation time: 0 hr 46 min 23 sec) 
select_counter is 1022
Heartbeat CPU 0 instructions: 92000000 cycles: 119905962 heartbeat IPC: 0.731863 cumulative IPC: 0.707766 (Simulation time: 0 hr 46 min 51 sec) 
select_counter is 1002
Heartbeat CPU 0 instructions: 93000003 cycles: 121320574 heartbeat IPC: 0.70691 cumulative IPC: 0.707756 (Simulation time: 0 hr 47 min 17 sec) 
select_counter is 987
Heartbeat CPU 0 instructions: 94000001 cycles: 122654597 heartbeat IPC: 0.749611 cumulative IPC: 0.708226 (Simulation time: 0 hr 47 min 43 sec) 
select_counter is 1022
Heartbeat CPU 0 instructions: 95000003 cycles: 123994560 heartbeat IPC: 0.746291 cumulative IPC: 0.708651 (Simulation time: 0 hr 48 min 10 sec) 
select_counter is 1015
Heartbeat CPU 0 instructions: 96000000 cycles: 125386770 heartbeat IPC: 0.71828 cumulative IPC: 0.708762 (Simulation time: 0 hr 48 min 35 sec) 
select_counter is 1021
Heartbeat CPU 0 instructions: 97000000 cycles: 126837749 heartbeat IPC: 0.68919 cumulative IPC: 0.708531 (Simulation time: 0 hr 48 min 59 sec) 
select_counter is 1000
Heartbeat CPU 0 instructions: 98000002 cycles: 128177946 heartbeat IPC: 0.74616 cumulative IPC: 0.708937 (Simulation time: 0 hr 49 min 21 sec) 
select_counter is 1019
Heartbeat CPU 0 instructions: 99000001 cycles: 129560397 heartbeat IPC: 0.723352 cumulative IPC: 0.709096 (Simulation time: 0 hr 49 min 42 sec) 
select_counter is 1023
Heartbeat CPU 0 instructions: 100000000 cycles: 130929036 heartbeat IPC: 0.730652 cumulative IPC: 0.709328 (Simulation time: 0 hr 50 min 2 sec) 
select_counter is 1023
Heartbeat CPU 0 instructions: 101000003 cycles: 132289370 heartbeat IPC: 0.735116 cumulative IPC: 0.709602 (Simulation time: 0 hr 50 min 21 sec) 
select_counter is 1014
Heartbeat CPU 0 instructions: 102000002 cycles: 133638518 heartbeat IPC: 0.741208 cumulative IPC: 0.709931 (Simulation time: 0 hr 50 min 41 sec) 
select_counter is 1020
Heartbeat CPU 0 instructions: 103000000 cycles: 135079104 heartbeat IPC: 0.694161 cumulative IPC: 0.709758 (Simulation time: 0 hr 51 min 0 sec) 
select_counter is 1007
Heartbeat CPU 0 instructions: 104000000 cycles: 136455077 heartbeat IPC: 0.726758 cumulative IPC: 0.709934 (Simulation time: 0 hr 51 min 18 sec) 
select_counter is 1023
Heartbeat CPU 0 instructions: 105000002 cycles: 137818357 heartbeat IPC: 0.733526 cumulative IPC: 0.710175 (Simulation time: 0 hr 51 min 35 sec) 
select_counter is 1021
Heartbeat CPU 0 instructions: 106000001 cycles: 139185817 heartbeat IPC: 0.731282 cumulative IPC: 0.710388 (Simulation time: 0 hr 51 min 52 sec) 
select_counter is 1022
Heartbeat CPU 0 instructions: 107000000 cycles: 140627766 heartbeat IPC: 0.693505 cumulative IPC: 0.71021 (Simulation time: 0 hr 52 min 8 sec) 
select_counter is 1021
Heartbeat CPU 0 instructions: 108000000 cycles: 142032841 heartbeat IPC: 0.711706 cumulative IPC: 0.710225 (Simulation time: 0 hr 52 min 24 sec) 
select_counter is 1015
Heartbeat CPU 0 instructions: 109000002 cycles: 143377867 heartbeat IPC: 0.743482 cumulative IPC: 0.710546 (Simulation time: 0 hr 52 min 39 sec) 
select_counter is 1020
Heartbeat CPU 0 instructions: 110000000 cycles: 144798031 heartbeat IPC: 0.704143 cumulative IPC: 0.710482 (Simulation time: 0 hr 52 min 56 sec) 
select_counter is 1023
Finished CPU 0 instructions: 100000000 cycles: 140749593 cummulative IPC: 0.710482 (Simulation time: 0 hr 52 min 56 sec) 

ChampSim completed all CPUs

Region of Interest Statistics

CPU 0 cummulative IPC: 0.710482 instructions: 100000000 cycles: 140749593
LLC TOTAL     ACCESS:    5489513  HIT:    1536241  MISS:    3953272
LLC LOAD      ACCESS:     390295  HIT:        540  MISS:     389755
LLC RFO       ACCESS:    2345834  HIT:     507052  MISS:    1838782
LLC PREFETCH  ACCESS:     407232  HIT:        553  MISS:     406679
LLC WRITEBACK ACCESS:    2346152  HIT:    1028096  MISS:    1318056
Ship samples: 
17, 47, 77, 119, 147, 179, 209, 235, 263, 309, 338, 352, 385, 447, 450, 497, 543, 549, 581, 633, 654, 687, 718, 765, 797, 808, 848, 887, 899, 946, 966, 1022, 1041, 1068, 1119, 1140, 1160, 1206, 1217, 1257, 1309, 1336, 1360, 1385, 1436, 1453, 1484, 1521, 1567, 1583, 1629, 1646, 1668, 1697, 1750, 1783, 1793, 1855, 1862, 1896, 1938, 1953, 2010, 2021, 
Lime duel samples: 
16, 54, 92, 103, 150, 184, 201, 231, 281, 305, 329, 361, 391, 442, 448, 496, 536, 558, 582, 635, 669, 674, 726, 744, 799, 807, 847, 872, 914, 950, 965, 995, 1030, 1059, 1111, 1126, 1165, 1187, 1228, 1269, 1288, 1337, 1350, 1386, 1414, 1454, 1472, 1523, 1552, 1576, 1605, 1660, 1664, 1708, 1754, 1769, 1807, 1853, 1868, 1893, 1941, 1960, 1989, 2033, 
Lime samples: 
16, 150, 281, 391, 536, 669, 799, 914, 1030, 1165, 1288, 1414, 1552, 1664, 1807, 
Insertion Distribution: 
	LOAD 0 0 0 0 0 0 1176 12665 
	RFO 1991 0 0 0 0 0 19709 59382 
	PREF 0 222 0 0 0 0 3183 12135 
	WRITEBACK 0 0 0 0 0 0 0 56639 
Total Prefetch Downgrades: 482
