
*** ChampSim Multicore Out-of-Order Simulator ***

Warmup Instructions: 10000000
Simulation Instructions: 100000000
Configuration: 2
Number of CPUs: 1
LLC sets: 2048
LLC ways: 16
Off-chip DRAM Channels: 1 Width: 64-bit Data Rate: 1600 MT/s

CPU 0 runs /datasets/cs240c-wi22-a00-public/data/Assignment2-gz/perlbench_135B.trace.gz
CPU 0 L1D next line prefetcher
CPU 0 L2C IP-based stride prefetcher
Heartbeat CPU 0 instructions: 1000000 cycles: 600047 heartbeat IPC: 1.66654 cumulative IPC: 1.66654 (Simulation time: 0 hr 0 min 31 sec) 
select_counter is 510
Heartbeat CPU 0 instructions: 2000000 cycles: 1209334 heartbeat IPC: 1.64126 cumulative IPC: 1.6538 (Simulation time: 0 hr 1 min 3 sec) 
select_counter is 458
Heartbeat CPU 0 instructions: 3000000 cycles: 1832886 heartbeat IPC: 1.60372 cumulative IPC: 1.63676 (Simulation time: 0 hr 1 min 35 sec) 
select_counter is 438
Heartbeat CPU 0 instructions: 4000000 cycles: 2492710 heartbeat IPC: 1.51556 cumulative IPC: 1.60468 (Simulation time: 0 hr 2 min 10 sec) 
select_counter is 364
Heartbeat CPU 0 instructions: 5000001 cycles: 3079381 heartbeat IPC: 1.70453 cumulative IPC: 1.6237 (Simulation time: 0 hr 2 min 42 sec) 
select_counter is 338
Heartbeat CPU 0 instructions: 6000002 cycles: 3681820 heartbeat IPC: 1.65992 cumulative IPC: 1.62963 (Simulation time: 0 hr 3 min 14 sec) 
select_counter is 258
Heartbeat CPU 0 instructions: 7000001 cycles: 4282585 heartbeat IPC: 1.66454 cumulative IPC: 1.63453 (Simulation time: 0 hr 3 min 46 sec) 
select_counter is 158
Heartbeat CPU 0 instructions: 8000000 cycles: 4893078 heartbeat IPC: 1.63802 cumulative IPC: 1.63496 (Simulation time: 0 hr 4 min 20 sec) 
select_counter is 90
Heartbeat CPU 0 instructions: 9000001 cycles: 5534193 heartbeat IPC: 1.55978 cumulative IPC: 1.62625 (Simulation time: 0 hr 4 min 55 sec) 
select_counter is 35
Heartbeat CPU 0 instructions: 10000000 cycles: 6192926 heartbeat IPC: 1.51806 cumulative IPC: 1.61475 (Simulation time: 0 hr 5 min 28 sec) 
select_counter is 946

Warmup complete CPU 0 instructions: 10000004 cycles: 6192927 (Simulation time: 0 hr 5 min 28 sec) 

Heartbeat CPU 0 instructions: 11000003 cycles: 8936563 heartbeat IPC: 0.364481 cumulative IPC: 0.364479 (Simulation time: 0 hr 6 min 10 sec) 
select_counter is 939
Heartbeat CPU 0 instructions: 12000000 cycles: 11274054 heartbeat IPC: 0.427808 cumulative IPC: 0.393613 (Simulation time: 0 hr 6 min 52 sec) 
select_counter is 928
Heartbeat CPU 0 instructions: 13000000 cycles: 13827554 heartbeat IPC: 0.391619 cumulative IPC: 0.392946 (Simulation time: 0 hr 7 min 34 sec) 
select_counter is 895
Heartbeat CPU 0 instructions: 14000000 cycles: 16846417 heartbeat IPC: 0.331251 cumulative IPC: 0.375463 (Simulation time: 0 hr 8 min 12 sec) 
select_counter is 874
Heartbeat CPU 0 instructions: 15000003 cycles: 19540811 heartbeat IPC: 0.371142 cumulative IPC: 0.374591 (Simulation time: 0 hr 8 min 52 sec) 
select_counter is 830
Heartbeat CPU 0 instructions: 16000000 cycles: 22193811 heartbeat IPC: 0.376931 cumulative IPC: 0.374979 (Simulation time: 0 hr 9 min 32 sec) 
select_counter is 785
Heartbeat CPU 0 instructions: 17000000 cycles: 24915693 heartbeat IPC: 0.367393 cumulative IPC: 0.373876 (Simulation time: 0 hr 10 min 13 sec) 
select_counter is 743
Heartbeat CPU 0 instructions: 18000000 cycles: 27614426 heartbeat IPC: 0.370544 cumulative IPC: 0.373456 (Simulation time: 0 hr 10 min 53 sec) 
select_counter is 704
Heartbeat CPU 0 instructions: 19000003 cycles: 30264995 heartbeat IPC: 0.377279 cumulative IPC: 0.373877 (Simulation time: 0 hr 11 min 32 sec) 
select_counter is 668
Heartbeat CPU 0 instructions: 20000000 cycles: 32922743 heartbeat IPC: 0.376257 cumulative IPC: 0.374114 (Simulation time: 0 hr 12 min 11 sec) 
select_counter is 622
Heartbeat CPU 0 instructions: 21000000 cycles: 35562687 heartbeat IPC: 0.378796 cumulative IPC: 0.374535 (Simulation time: 0 hr 12 min 51 sec) 
select_counter is 594
Heartbeat CPU 0 instructions: 22000002 cycles: 38205329 heartbeat IPC: 0.37841 cumulative IPC: 0.374855 (Simulation time: 0 hr 13 min 29 sec) 
select_counter is 570
Heartbeat CPU 0 instructions: 23000003 cycles: 40866822 heartbeat IPC: 0.375729 cumulative IPC: 0.374922 (Simulation time: 0 hr 14 min 11 sec) 
select_counter is 556
Heartbeat CPU 0 instructions: 24000000 cycles: 42967997 heartbeat IPC: 0.475923 cumulative IPC: 0.380693 (Simulation time: 0 hr 14 min 48 sec) 
select_counter is 530
Heartbeat CPU 0 instructions: 25000000 cycles: 45576693 heartbeat IPC: 0.383333 cumulative IPC: 0.380867 (Simulation time: 0 hr 15 min 32 sec) 
select_counter is 513
Heartbeat CPU 0 instructions: 26000001 cycles: 48146642 heartbeat IPC: 0.389113 cumulative IPC: 0.381373 (Simulation time: 0 hr 16 min 11 sec) 
select_counter is 443
Heartbeat CPU 0 instructions: 27000000 cycles: 50821474 heartbeat IPC: 0.373855 cumulative IPC: 0.380922 (Simulation time: 0 hr 16 min 52 sec) 
select_counter is 408
Heartbeat CPU 0 instructions: 28000000 cycles: 53466223 heartbeat IPC: 0.378108 cumulative IPC: 0.380765 (Simulation time: 0 hr 17 min 31 sec) 
select_counter is 373
Heartbeat CPU 0 instructions: 29000000 cycles: 56097992 heartbeat IPC: 0.379973 cumulative IPC: 0.380723 (Simulation time: 0 hr 18 min 8 sec) 
select_counter is 339
Heartbeat CPU 0 instructions: 30000000 cycles: 58821196 heartbeat IPC: 0.367215 cumulative IPC: 0.380024 (Simulation time: 0 hr 18 min 47 sec) 
select_counter is 298
Heartbeat CPU 0 instructions: 31000001 cycles: 61462100 heartbeat IPC: 0.378659 cumulative IPC: 0.379959 (Simulation time: 0 hr 19 min 23 sec) 
select_counter is 268
Heartbeat CPU 0 instructions: 32000000 cycles: 64115388 heartbeat IPC: 0.37689 cumulative IPC: 0.379818 (Simulation time: 0 hr 20 min 0 sec) 
select_counter is 234
Heartbeat CPU 0 instructions: 33000000 cycles: 66744773 heartbeat IPC: 0.380317 cumulative IPC: 0.37984 (Simulation time: 0 hr 20 min 37 sec) 
select_counter is 207
Heartbeat CPU 0 instructions: 34000001 cycles: 69355363 heartbeat IPC: 0.383056 cumulative IPC: 0.379973 (Simulation time: 0 hr 21 min 15 sec) 
select_counter is 186
Heartbeat CPU 0 instructions: 35000003 cycles: 72008638 heartbeat IPC: 0.376893 cumulative IPC: 0.379849 (Simulation time: 0 hr 21 min 55 sec) 
select_counter is 169
Heartbeat CPU 0 instructions: 36000000 cycles: 74312630 heartbeat IPC: 0.434028 cumulative IPC: 0.381681 (Simulation time: 0 hr 22 min 34 sec) 
select_counter is 139
Heartbeat CPU 0 instructions: 37000000 cycles: 76602186 heartbeat IPC: 0.436766 cumulative IPC: 0.383472 (Simulation time: 0 hr 23 min 14 sec) 
select_counter is 130
Heartbeat CPU 0 instructions: 38000000 cycles: 78691046 heartbeat IPC: 0.47873 cumulative IPC: 0.386217 (Simulation time: 0 hr 23 min 50 sec) 
select_counter is 104
Heartbeat CPU 0 instructions: 39000000 cycles: 80987098 heartbeat IPC: 0.43553 cumulative IPC: 0.387731 (Simulation time: 0 hr 24 min 29 sec) 
select_counter is 99
Heartbeat CPU 0 instructions: 40000000 cycles: 82940481 heartbeat IPC: 0.511932 cumulative IPC: 0.390892 (Simulation time: 0 hr 25 min 3 sec) 
select_counter is 100
Heartbeat CPU 0 instructions: 41000001 cycles: 85020473 heartbeat IPC: 0.480772 cumulative IPC: 0.393264 (Simulation time: 0 hr 25 min 40 sec) 
select_counter is 99
Heartbeat CPU 0 instructions: 42000003 cycles: 87632676 heartbeat IPC: 0.382819 cumulative IPC: 0.392929 (Simulation time: 0 hr 26 min 19 sec) 
select_counter is 27
Heartbeat CPU 0 instructions: 43000001 cycles: 90195935 heartbeat IPC: 0.390128 cumulative IPC: 0.392843 (Simulation time: 0 hr 27 min 1 sec) 
select_counter is 14
Heartbeat CPU 0 instructions: 44000000 cycles: 92490591 heartbeat IPC: 0.435795 cumulative IPC: 0.393985 (Simulation time: 0 hr 27 min 44 sec) 
select_counter is 6
Heartbeat CPU 0 instructions: 45000003 cycles: 95143945 heartbeat IPC: 0.376883 cumulative IPC: 0.393475 (Simulation time: 0 hr 28 min 25 sec) 
select_counter is 981
Heartbeat CPU 0 instructions: 46000003 cycles: 97827459 heartbeat IPC: 0.372646 cumulative IPC: 0.392865 (Simulation time: 0 hr 29 min 3 sec) 
select_counter is 942
Heartbeat CPU 0 instructions: 47000000 cycles: 100465928 heartbeat IPC: 0.379007 cumulative IPC: 0.392477 (Simulation time: 0 hr 29 min 42 sec) 
select_counter is 899
Heartbeat CPU 0 instructions: 48000000 cycles: 103088460 heartbeat IPC: 0.381311 cumulative IPC: 0.392175 (Simulation time: 0 hr 30 min 21 sec) 
select_counter is 867
Heartbeat CPU 0 instructions: 49000000 cycles: 105775850 heartbeat IPC: 0.372108 cumulative IPC: 0.391633 (Simulation time: 0 hr 30 min 57 sec) 
select_counter is 823
Heartbeat CPU 0 instructions: 50000001 cycles: 108410368 heartbeat IPC: 0.379576 cumulative IPC: 0.391323 (Simulation time: 0 hr 31 min 34 sec) 
select_counter is 791
Heartbeat CPU 0 instructions: 51000000 cycles: 111037752 heartbeat IPC: 0.380606 cumulative IPC: 0.391054 (Simulation time: 0 hr 32 min 10 sec) 
select_counter is 762
Heartbeat CPU 0 instructions: 52000000 cycles: 113656935 heartbeat IPC: 0.381798 cumulative IPC: 0.390828 (Simulation time: 0 hr 32 min 43 sec) 
select_counter is 736
Heartbeat CPU 0 instructions: 53000000 cycles: 116246672 heartbeat IPC: 0.38614 cumulative IPC: 0.390718 (Simulation time: 0 hr 33 min 16 sec) 
select_counter is 717
Heartbeat CPU 0 instructions: 54000001 cycles: 118895832 heartbeat IPC: 0.377479 cumulative IPC: 0.390407 (Simulation time: 0 hr 33 min 52 sec) 
select_counter is 684
Heartbeat CPU 0 instructions: 55000001 cycles: 121343924 heartbeat IPC: 0.408481 cumulative IPC: 0.390791 (Simulation time: 0 hr 34 min 32 sec) 
select_counter is 673
Heartbeat CPU 0 instructions: 56000000 cycles: 123468228 heartbeat IPC: 0.470742 cumulative IPC: 0.392239 (Simulation time: 0 hr 35 min 6 sec) 
select_counter is 658
Heartbeat CPU 0 instructions: 57000000 cycles: 125669479 heartbeat IPC: 0.454287 cumulative IPC: 0.393383 (Simulation time: 0 hr 35 min 39 sec) 
select_counter is 655
Heartbeat CPU 0 instructions: 58000002 cycles: 127617329 heartbeat IPC: 0.513388 cumulative IPC: 0.395308 (Simulation time: 0 hr 36 min 10 sec) 
select_counter is 655
Heartbeat CPU 0 instructions: 59000003 cycles: 129741278 heartbeat IPC: 0.470822 cumulative IPC: 0.396606 (Simulation time: 0 hr 36 min 44 sec) 
select_counter is 632
Heartbeat CPU 0 instructions: 60000000 cycles: 132680211 heartbeat IPC: 0.340259 cumulative IPC: 0.395297 (Simulation time: 0 hr 37 min 19 sec) 
select_counter is 556
Heartbeat CPU 0 instructions: 61000000 cycles: 135093922 heartbeat IPC: 0.4143 cumulative IPC: 0.395652 (Simulation time: 0 hr 37 min 56 sec) 
select_counter is 519
Heartbeat CPU 0 instructions: 62000001 cycles: 137877050 heartbeat IPC: 0.359308 cumulative IPC: 0.394884 (Simulation time: 0 hr 38 min 29 sec) 
select_counter is 488
Heartbeat CPU 0 instructions: 63000000 cycles: 140790912 heartbeat IPC: 0.343187 cumulative IPC: 0.393765 (Simulation time: 0 hr 39 min 5 sec) 
select_counter is 443
Heartbeat CPU 0 instructions: 64000000 cycles: 143690394 heartbeat IPC: 0.344889 cumulative IPC: 0.392734 (Simulation time: 0 hr 39 min 39 sec) 
select_counter is 357
Heartbeat CPU 0 instructions: 65000001 cycles: 146569527 heartbeat IPC: 0.347327 cumulative IPC: 0.391803 (Simulation time: 0 hr 40 min 19 sec) 
select_counter is 282
Heartbeat CPU 0 instructions: 66000001 cycles: 149431941 heartbeat IPC: 0.349355 cumulative IPC: 0.390955 (Simulation time: 0 hr 40 min 56 sec) 
select_counter is 189
Heartbeat CPU 0 instructions: 67000001 cycles: 152157304 heartbeat IPC: 0.366924 cumulative IPC: 0.390506 (Simulation time: 0 hr 41 min 29 sec) 
select_counter is 122
Heartbeat CPU 0 instructions: 68000000 cycles: 154885317 heartbeat IPC: 0.366567 cumulative IPC: 0.390067 (Simulation time: 0 hr 42 min 6 sec) 
select_counter is 73
Heartbeat CPU 0 instructions: 69000002 cycles: 157834433 heartbeat IPC: 0.339085 cumulative IPC: 0.389076 (Simulation time: 0 hr 42 min 40 sec) 
select_counter is 4
Heartbeat CPU 0 instructions: 70000003 cycles: 159643187 heartbeat IPC: 0.552867 cumulative IPC: 0.391006 (Simulation time: 0 hr 43 min 8 sec) 
select_counter is 999
Heartbeat CPU 0 instructions: 71000000 cycles: 161562932 heartbeat IPC: 0.520901 cumulative IPC: 0.392611 (Simulation time: 0 hr 43 min 37 sec) 
select_counter is 999
Heartbeat CPU 0 instructions: 72000000 cycles: 163551827 heartbeat IPC: 0.502792 cumulative IPC: 0.394004 (Simulation time: 0 hr 44 min 7 sec) 
select_counter is 991
Heartbeat CPU 0 instructions: 73000000 cycles: 165822894 heartbeat IPC: 0.440322 cumulative IPC: 0.394663 (Simulation time: 0 hr 44 min 38 sec) 
select_counter is 937
Heartbeat CPU 0 instructions: 74000000 cycles: 167741440 heartbeat IPC: 0.521228 cumulative IPC: 0.396166 (Simulation time: 0 hr 45 min 5 sec) 
select_counter is 937
Heartbeat CPU 0 instructions: 75000003 cycles: 169984465 heartbeat IPC: 0.445828 cumulative IPC: 0.396846 (Simulation time: 0 hr 45 min 34 sec) 
select_counter is 919
Heartbeat CPU 0 instructions: 76000000 cycles: 172727681 heartbeat IPC: 0.364535 cumulative IPC: 0.396314 (Simulation time: 0 hr 46 min 5 sec) 
select_counter is 843
Heartbeat CPU 0 instructions: 77000000 cycles: 175421455 heartbeat IPC: 0.371226 cumulative IPC: 0.395914 (Simulation time: 0 hr 46 min 37 sec) 
select_counter is 793
Heartbeat CPU 0 instructions: 78000000 cycles: 178373572 heartbeat IPC: 0.33874 cumulative IPC: 0.394934 (Simulation time: 0 hr 47 min 15 sec) 
select_counter is 735
Heartbeat CPU 0 instructions: 79000000 cycles: 180231745 heartbeat IPC: 0.538163 cumulative IPC: 0.396463 (Simulation time: 0 hr 47 min 43 sec) 
select_counter is 710
Heartbeat CPU 0 instructions: 80000000 cycles: 182016468 heartbeat IPC: 0.560311 cumulative IPC: 0.398126 (Simulation time: 0 hr 48 min 9 sec) 
select_counter is 699
Heartbeat CPU 0 instructions: 81000000 cycles: 183937864 heartbeat IPC: 0.520455 cumulative IPC: 0.399449 (Simulation time: 0 hr 48 min 34 sec) 
select_counter is 699
Heartbeat CPU 0 instructions: 82000000 cycles: 185855403 heartbeat IPC: 0.521502 cumulative IPC: 0.400751 (Simulation time: 0 hr 48 min 57 sec) 
select_counter is 698
Heartbeat CPU 0 instructions: 83000000 cycles: 188181138 heartbeat IPC: 0.429972 cumulative IPC: 0.401125 (Simulation time: 0 hr 49 min 22 sec) 
select_counter is 664
Heartbeat CPU 0 instructions: 84000000 cycles: 190133642 heartbeat IPC: 0.512163 cumulative IPC: 0.402304 (Simulation time: 0 hr 49 min 43 sec) 
select_counter is 647
Heartbeat CPU 0 instructions: 85000000 cycles: 192054657 heartbeat IPC: 0.520558 cumulative IPC: 0.403526 (Simulation time: 0 hr 50 min 3 sec) 
select_counter is 645
Heartbeat CPU 0 instructions: 86000002 cycles: 193973186 heartbeat IPC: 0.521234 cumulative IPC: 0.404728 (Simulation time: 0 hr 50 min 23 sec) 
select_counter is 643
Heartbeat CPU 0 instructions: 87000003 cycles: 196140485 heartbeat IPC: 0.461404 cumulative IPC: 0.405375 (Simulation time: 0 hr 50 min 43 sec) 
select_counter is 630
Heartbeat CPU 0 instructions: 88000000 cycles: 198913724 heartbeat IPC: 0.360588 cumulative IPC: 0.404731 (Simulation time: 0 hr 51 min 4 sec) 
select_counter is 548
Heartbeat CPU 0 instructions: 89000003 cycles: 201481763 heartbeat IPC: 0.389403 cumulative IPC: 0.404529 (Simulation time: 0 hr 51 min 24 sec) 
select_counter is 518
Heartbeat CPU 0 instructions: 90000001 cycles: 204359108 heartbeat IPC: 0.347542 cumulative IPC: 0.403702 (Simulation time: 0 hr 51 min 46 sec) 
select_counter is 470
Heartbeat CPU 0 instructions: 91000000 cycles: 206844100 heartbeat IPC: 0.402415 cumulative IPC: 0.403686 (Simulation time: 0 hr 52 min 4 sec) 
select_counter is 428
Heartbeat CPU 0 instructions: 92000000 cycles: 209299899 heartbeat IPC: 0.407199 cumulative IPC: 0.403728 (Simulation time: 0 hr 52 min 23 sec) 
select_counter is 378
Heartbeat CPU 0 instructions: 93000000 cycles: 211998247 heartbeat IPC: 0.370597 cumulative IPC: 0.403294 (Simulation time: 0 hr 52 min 41 sec) 
select_counter is 313
Heartbeat CPU 0 instructions: 94000001 cycles: 214660644 heartbeat IPC: 0.375602 cumulative IPC: 0.40294 (Simulation time: 0 hr 53 min 1 sec) 
select_counter is 266
Heartbeat CPU 0 instructions: 95000000 cycles: 217509564 heartbeat IPC: 0.35101 cumulative IPC: 0.40224 (Simulation time: 0 hr 53 min 20 sec) 
select_counter is 230
Heartbeat CPU 0 instructions: 96000000 cycles: 220550158 heartbeat IPC: 0.328883 cumulative IPC: 0.401199 (Simulation time: 0 hr 53 min 38 sec) 
select_counter is 145
Heartbeat CPU 0 instructions: 97000001 cycles: 223475711 heartbeat IPC: 0.341816 cumulative IPC: 0.4004 (Simulation time: 0 hr 53 min 57 sec) 
select_counter is 103
Heartbeat CPU 0 instructions: 98000000 cycles: 226133825 heartbeat IPC: 0.376206 cumulative IPC: 0.400107 (Simulation time: 0 hr 54 min 14 sec) 
select_counter is 80
Heartbeat CPU 0 instructions: 99000000 cycles: 228735688 heartbeat IPC: 0.38434 cumulative IPC: 0.399923 (Simulation time: 0 hr 54 min 30 sec) 
select_counter is 50
Heartbeat CPU 0 instructions: 100000000 cycles: 231356788 heartbeat IPC: 0.381519 cumulative IPC: 0.399709 (Simulation time: 0 hr 54 min 46 sec) 
select_counter is 21
Heartbeat CPU 0 instructions: 101000001 cycles: 233957813 heartbeat IPC: 0.384464 cumulative IPC: 0.399535 (Simulation time: 0 hr 55 min 1 sec) 
select_counter is 2
Heartbeat CPU 0 instructions: 102000000 cycles: 236584855 heartbeat IPC: 0.380656 cumulative IPC: 0.39932 (Simulation time: 0 hr 55 min 14 sec) 
select_counter is 1000
Heartbeat CPU 0 instructions: 103000000 cycles: 239235668 heartbeat IPC: 0.377243 cumulative IPC: 0.399068 (Simulation time: 0 hr 55 min 29 sec) 
select_counter is 962
Heartbeat CPU 0 instructions: 104000000 cycles: 241965015 heartbeat IPC: 0.366388 cumulative IPC: 0.39869 (Simulation time: 0 hr 55 min 41 sec) 
select_counter is 925
Heartbeat CPU 0 instructions: 105000001 cycles: 244569354 heartbeat IPC: 0.383975 cumulative IPC: 0.398529 (Simulation time: 0 hr 55 min 54 sec) 
select_counter is 908
Heartbeat CPU 0 instructions: 106000001 cycles: 247187886 heartbeat IPC: 0.381893 cumulative IPC: 0.398349 (Simulation time: 0 hr 56 min 7 sec) 
select_counter is 886
Heartbeat CPU 0 instructions: 107000000 cycles: 249803276 heartbeat IPC: 0.382352 cumulative IPC: 0.398177 (Simulation time: 0 hr 56 min 19 sec) 
select_counter is 866
Heartbeat CPU 0 instructions: 108000000 cycles: 252414449 heartbeat IPC: 0.38297 cumulative IPC: 0.398016 (Simulation time: 0 hr 56 min 30 sec) 
select_counter is 854
Heartbeat CPU 0 instructions: 109000001 cycles: 254990005 heartbeat IPC: 0.388266 cumulative IPC: 0.397915 (Simulation time: 0 hr 56 min 39 sec) 
select_counter is 840
Heartbeat CPU 0 instructions: 110000003 cycles: 257145188 heartbeat IPC: 0.463999 cumulative IPC: 0.398482 (Simulation time: 0 hr 56 min 47 sec) 
select_counter is 831
Finished CPU 0 instructions: 100000003 cycles: 250952262 cummulative IPC: 0.398482 (Simulation time: 0 hr 56 min 47 sec) 

ChampSim completed all CPUs

Region of Interest Statistics

CPU 0 cummulative IPC: 0.398482 instructions: 100000003 cycles: 250952262
LLC TOTAL     ACCESS:     635532  HIT:     551141  MISS:      84391
LLC LOAD      ACCESS:     295058  HIT:     285296  MISS:       9762
LLC RFO       ACCESS:      30362  HIT:      26451  MISS:       3911
LLC PREFETCH  ACCESS:     206836  HIT:     138757  MISS:      68079
LLC WRITEBACK ACCESS:     103276  HIT:     100637  MISS:       2639
Ship samples: 
10, 53, 71, 124, 156, 176, 221, 236, 269, 317, 346, 368, 408, 441, 474, 483, 538, 557, 589, 619, 650, 696, 722, 761, 776, 804, 857, 869, 917, 938, 960, 995, 1030, 1084, 1114, 1149, 1155, 1196, 1241, 1268, 1307, 1315, 1358, 1381, 1416, 1459, 1500, 1507, 1543, 1590, 1607, 1638, 1672, 1727, 1751, 1762, 1805, 1830, 1870, 1918, 1946, 1983, 1993, 2041, 
Lime duel samples: 
8, 57, 89, 117, 137, 161, 206, 246, 273, 292, 325, 355, 387, 416, 473, 481, 531, 568, 577, 617, 649, 699, 711, 740, 799, 822, 834, 885, 913, 959, 976, 1005, 1051, 1072, 1107, 1127, 1156, 1205, 1237, 1253, 1281, 1337, 1364, 1385, 1411, 1455, 1480, 1527, 1538, 1568, 1601, 1651, 1674, 1714, 1729, 1780, 1810, 1829, 1883, 1899, 1942, 1970, 2006, 2018, 
Lime samples: 
8, 137, 273, 387, 531, 649, 799, 913, 1051, 1156, 1281, 1411, 1538, 1674, 1810, 
Insertion Distribution: 
	LOAD 2644 0 0 0 0 0 9321 326 
	RFO 95 0 0 0 0 0 2312 39 
	PREF 0 243 0 0 0 0 20007 16433 
	WRITEBACK 0 0 0 0 0 0 0 1248 
Total Prefetch Downgrades: 3370
