
*** ChampSim Multicore Out-of-Order Simulator ***

Warmup Instructions: 10000000
Simulation Instructions: 100000000
Configuration: 2
Number of CPUs: 1
LLC sets: 2048
LLC ways: 16
Off-chip DRAM Channels: 1 Width: 64-bit Data Rate: 1600 MT/s

CPU 0 runs /datasets/cs240c-wi22-a00-public/data/Assignment2-gz/GemsFDTD_712B.trace.gz
CPU 0 L1D next line prefetcher
CPU 0 L2C IP-based stride prefetcher
Heartbeat CPU 0 instructions: 1000003 cycles: 634340 heartbeat IPC: 1.57645 cumulative IPC: 1.57645 (Simulation time: 0 hr 0 min 33 sec) 
select_counter is 210
Heartbeat CPU 0 instructions: 2000000 cycles: 1268273 heartbeat IPC: 1.57745 cumulative IPC: 1.57695 (Simulation time: 0 hr 1 min 8 sec) 
select_counter is 977
Heartbeat CPU 0 instructions: 3000000 cycles: 1902262 heartbeat IPC: 1.57731 cumulative IPC: 1.57707 (Simulation time: 0 hr 1 min 43 sec) 
select_counter is 921
Heartbeat CPU 0 instructions: 4000000 cycles: 2535975 heartbeat IPC: 1.578 cumulative IPC: 1.5773 (Simulation time: 0 hr 2 min 17 sec) 
select_counter is 877
Heartbeat CPU 0 instructions: 5000003 cycles: 3170145 heartbeat IPC: 1.57687 cumulative IPC: 1.57722 (Simulation time: 0 hr 2 min 51 sec) 
select_counter is 864
Heartbeat CPU 0 instructions: 6000002 cycles: 3804038 heartbeat IPC: 1.57755 cumulative IPC: 1.57727 (Simulation time: 0 hr 3 min 26 sec) 
select_counter is 853
Heartbeat CPU 0 instructions: 7000001 cycles: 4438240 heartbeat IPC: 1.57678 cumulative IPC: 1.5772 (Simulation time: 0 hr 4 min 0 sec) 
select_counter is 859
Heartbeat CPU 0 instructions: 8000000 cycles: 5072109 heartbeat IPC: 1.57761 cumulative IPC: 1.57725 (Simulation time: 0 hr 4 min 36 sec) 
select_counter is 825
Heartbeat CPU 0 instructions: 9000001 cycles: 5706241 heartbeat IPC: 1.57696 cumulative IPC: 1.57722 (Simulation time: 0 hr 5 min 12 sec) 
select_counter is 799
Heartbeat CPU 0 instructions: 10000002 cycles: 6340057 heartbeat IPC: 1.57775 cumulative IPC: 1.57727 (Simulation time: 0 hr 5 min 48 sec) 
select_counter is 784

Warmup complete CPU 0 instructions: 10000002 cycles: 6340057 (Simulation time: 0 hr 5 min 48 sec) 

Heartbeat CPU 0 instructions: 11000001 cycles: 7969074 heartbeat IPC: 0.613867 cumulative IPC: 0.613867 (Simulation time: 0 hr 6 min 31 sec) 
select_counter is 779
Heartbeat CPU 0 instructions: 12000000 cycles: 9592667 heartbeat IPC: 0.615917 cumulative IPC: 0.61489 (Simulation time: 0 hr 7 min 10 sec) 
select_counter is 759
Heartbeat CPU 0 instructions: 13000000 cycles: 11207518 heartbeat IPC: 0.619252 cumulative IPC: 0.616337 (Simulation time: 0 hr 7 min 51 sec) 
select_counter is 716
Heartbeat CPU 0 instructions: 14000001 cycles: 12804129 heartbeat IPC: 0.626327 cumulative IPC: 0.618805 (Simulation time: 0 hr 8 min 32 sec) 
select_counter is 685
Heartbeat CPU 0 instructions: 15000001 cycles: 14397259 heartbeat IPC: 0.627695 cumulative IPC: 0.620563 (Simulation time: 0 hr 9 min 11 sec) 
select_counter is 677
Heartbeat CPU 0 instructions: 16000000 cycles: 16025639 heartbeat IPC: 0.614107 cumulative IPC: 0.619477 (Simulation time: 0 hr 9 min 50 sec) 
select_counter is 679
Heartbeat CPU 0 instructions: 17000001 cycles: 17638862 heartbeat IPC: 0.619878 cumulative IPC: 0.619534 (Simulation time: 0 hr 10 min 31 sec) 
select_counter is 693
Heartbeat CPU 0 instructions: 18000001 cycles: 19272283 heartbeat IPC: 0.612212 cumulative IPC: 0.61861 (Simulation time: 0 hr 11 min 9 sec) 
select_counter is 708
Heartbeat CPU 0 instructions: 19000003 cycles: 20879202 heartbeat IPC: 0.62231 cumulative IPC: 0.619019 (Simulation time: 0 hr 11 min 50 sec) 
select_counter is 728
Heartbeat CPU 0 instructions: 20000000 cycles: 22472175 heartbeat IPC: 0.627755 cumulative IPC: 0.619881 (Simulation time: 0 hr 12 min 30 sec) 
select_counter is 718
Heartbeat CPU 0 instructions: 21000002 cycles: 24086391 heartbeat IPC: 0.619497 cumulative IPC: 0.619846 (Simulation time: 0 hr 13 min 10 sec) 
select_counter is 718
Heartbeat CPU 0 instructions: 22000003 cycles: 25711771 heartbeat IPC: 0.615241 cumulative IPC: 0.61946 (Simulation time: 0 hr 13 min 51 sec) 
select_counter is 689
Heartbeat CPU 0 instructions: 23000002 cycles: 27317633 heartbeat IPC: 0.622718 cumulative IPC: 0.619709 (Simulation time: 0 hr 14 min 29 sec) 
select_counter is 696
Heartbeat CPU 0 instructions: 24000000 cycles: 28967660 heartbeat IPC: 0.606049 cumulative IPC: 0.618713 (Simulation time: 0 hr 15 min 9 sec) 
select_counter is 694
Heartbeat CPU 0 instructions: 25000000 cycles: 30590372 heartbeat IPC: 0.616252 cumulative IPC: 0.618549 (Simulation time: 0 hr 15 min 46 sec) 
select_counter is 667
Heartbeat CPU 0 instructions: 26000002 cycles: 32202842 heartbeat IPC: 0.620168 cumulative IPC: 0.61865 (Simulation time: 0 hr 16 min 29 sec) 
select_counter is 673
Heartbeat CPU 0 instructions: 27000002 cycles: 33834272 heartbeat IPC: 0.612959 cumulative IPC: 0.618312 (Simulation time: 0 hr 17 min 10 sec) 
select_counter is 640
Heartbeat CPU 0 instructions: 28000000 cycles: 35445117 heartbeat IPC: 0.620791 cumulative IPC: 0.618449 (Simulation time: 0 hr 17 min 47 sec) 
select_counter is 616
Heartbeat CPU 0 instructions: 29000002 cycles: 37051949 heartbeat IPC: 0.622344 cumulative IPC: 0.618653 (Simulation time: 0 hr 18 min 25 sec) 
select_counter is 609
Heartbeat CPU 0 instructions: 30000003 cycles: 38659332 heartbeat IPC: 0.62213 cumulative IPC: 0.618826 (Simulation time: 0 hr 19 min 3 sec) 
select_counter is 623
Heartbeat CPU 0 instructions: 31000001 cycles: 40287551 heartbeat IPC: 0.614167 cumulative IPC: 0.618602 (Simulation time: 0 hr 19 min 42 sec) 
select_counter is 588
Heartbeat CPU 0 instructions: 32000000 cycles: 41907325 heartbeat IPC: 0.617369 cumulative IPC: 0.618546 (Simulation time: 0 hr 20 min 17 sec) 
select_counter is 553
Heartbeat CPU 0 instructions: 33000000 cycles: 43525990 heartbeat IPC: 0.617793 cumulative IPC: 0.618513 (Simulation time: 0 hr 20 min 55 sec) 
select_counter is 523
Heartbeat CPU 0 instructions: 34000002 cycles: 45113900 heartbeat IPC: 0.62976 cumulative IPC: 0.618974 (Simulation time: 0 hr 21 min 32 sec) 
select_counter is 506
Heartbeat CPU 0 instructions: 35000000 cycles: 46733633 heartbeat IPC: 0.617384 cumulative IPC: 0.61891 (Simulation time: 0 hr 22 min 9 sec) 
select_counter is 492
Heartbeat CPU 0 instructions: 36000000 cycles: 48350717 heartbeat IPC: 0.618397 cumulative IPC: 0.61889 (Simulation time: 0 hr 22 min 49 sec) 
select_counter is 481
Heartbeat CPU 0 instructions: 37000001 cycles: 49946356 heartbeat IPC: 0.626709 cumulative IPC: 0.619177 (Simulation time: 0 hr 23 min 28 sec) 
select_counter is 457
Heartbeat CPU 0 instructions: 38000003 cycles: 51547892 heartbeat IPC: 0.624402 cumulative IPC: 0.619362 (Simulation time: 0 hr 24 min 6 sec) 
select_counter is 445
Heartbeat CPU 0 instructions: 39000000 cycles: 53179390 heartbeat IPC: 0.612932 cumulative IPC: 0.619138 (Simulation time: 0 hr 24 min 48 sec) 
select_counter is 440
Heartbeat CPU 0 instructions: 40000000 cycles: 54757621 heartbeat IPC: 0.633621 cumulative IPC: 0.61961 (Simulation time: 0 hr 25 min 27 sec) 
select_counter is 411
Heartbeat CPU 0 instructions: 41000003 cycles: 56363261 heartbeat IPC: 0.622806 cumulative IPC: 0.619712 (Simulation time: 0 hr 26 min 4 sec) 
select_counter is 417
Heartbeat CPU 0 instructions: 42000000 cycles: 57985501 heartbeat IPC: 0.61643 cumulative IPC: 0.619609 (Simulation time: 0 hr 26 min 43 sec) 
select_counter is 415
Heartbeat CPU 0 instructions: 43000001 cycles: 59607455 heartbeat IPC: 0.616541 cumulative IPC: 0.619516 (Simulation time: 0 hr 27 min 23 sec) 
select_counter is 385
Heartbeat CPU 0 instructions: 44000000 cycles: 61212089 heartbeat IPC: 0.623194 cumulative IPC: 0.619623 (Simulation time: 0 hr 28 min 2 sec) 
select_counter is 401
Heartbeat CPU 0 instructions: 45000002 cycles: 62811437 heartbeat IPC: 0.625256 cumulative IPC: 0.619783 (Simulation time: 0 hr 28 min 42 sec) 
select_counter is 403
Heartbeat CPU 0 instructions: 46000002 cycles: 64396198 heartbeat IPC: 0.63101 cumulative IPC: 0.620089 (Simulation time: 0 hr 29 min 21 sec) 
select_counter is 376
Heartbeat CPU 0 instructions: 47000001 cycles: 66019372 heartbeat IPC: 0.616076 cumulative IPC: 0.61998 (Simulation time: 0 hr 30 min 3 sec) 
select_counter is 348
Heartbeat CPU 0 instructions: 48000000 cycles: 67630154 heartbeat IPC: 0.620816 cumulative IPC: 0.620002 (Simulation time: 0 hr 30 min 42 sec) 
select_counter is 318
Heartbeat CPU 0 instructions: 49000000 cycles: 69230457 heartbeat IPC: 0.624882 cumulative IPC: 0.620126 (Simulation time: 0 hr 31 min 19 sec) 
select_counter is 275
Heartbeat CPU 0 instructions: 50000001 cycles: 70851515 heartbeat IPC: 0.616882 cumulative IPC: 0.620045 (Simulation time: 0 hr 31 min 57 sec) 
select_counter is 218
Heartbeat CPU 0 instructions: 51000002 cycles: 72476218 heartbeat IPC: 0.615498 cumulative IPC: 0.619933 (Simulation time: 0 hr 32 min 33 sec) 
select_counter is 198
Heartbeat CPU 0 instructions: 52000000 cycles: 74090426 heartbeat IPC: 0.619498 cumulative IPC: 0.619923 (Simulation time: 0 hr 33 min 11 sec) 
select_counter is 174
Heartbeat CPU 0 instructions: 53000000 cycles: 75734891 heartbeat IPC: 0.608101 cumulative IPC: 0.619643 (Simulation time: 0 hr 33 min 50 sec) 
select_counter is 165
Heartbeat CPU 0 instructions: 54000000 cycles: 77327129 heartbeat IPC: 0.628047 cumulative IPC: 0.619831 (Simulation time: 0 hr 34 min 25 sec) 
select_counter is 165
Heartbeat CPU 0 instructions: 55000003 cycles: 78913576 heartbeat IPC: 0.630341 cumulative IPC: 0.620061 (Simulation time: 0 hr 35 min 2 sec) 
select_counter is 156
Heartbeat CPU 0 instructions: 56000000 cycles: 80530138 heartbeat IPC: 0.618595 cumulative IPC: 0.620029 (Simulation time: 0 hr 35 min 38 sec) 
select_counter is 144
Heartbeat CPU 0 instructions: 57000000 cycles: 82183920 heartbeat IPC: 0.604675 cumulative IPC: 0.619694 (Simulation time: 0 hr 36 min 16 sec) 
select_counter is 130
Heartbeat CPU 0 instructions: 58000001 cycles: 83801780 heartbeat IPC: 0.618101 cumulative IPC: 0.619661 (Simulation time: 0 hr 36 min 57 sec) 
select_counter is 114
Heartbeat CPU 0 instructions: 59000001 cycles: 85421970 heartbeat IPC: 0.617212 cumulative IPC: 0.619611 (Simulation time: 0 hr 37 min 34 sec) 
select_counter is 157
Heartbeat CPU 0 instructions: 60000000 cycles: 87050470 heartbeat IPC: 0.614061 cumulative IPC: 0.619499 (Simulation time: 0 hr 38 min 13 sec) 
select_counter is 167
Heartbeat CPU 0 instructions: 61000001 cycles: 88633814 heartbeat IPC: 0.631575 cumulative IPC: 0.619731 (Simulation time: 0 hr 38 min 51 sec) 
select_counter is 163
Heartbeat CPU 0 instructions: 62000000 cycles: 90226338 heartbeat IPC: 0.627933 cumulative IPC: 0.619887 (Simulation time: 0 hr 39 min 32 sec) 
select_counter is 142
Heartbeat CPU 0 instructions: 63000003 cycles: 91846485 heartbeat IPC: 0.61723 cumulative IPC: 0.619836 (Simulation time: 0 hr 40 min 11 sec) 
select_counter is 132
Heartbeat CPU 0 instructions: 64000000 cycles: 93467513 heartbeat IPC: 0.616891 cumulative IPC: 0.619782 (Simulation time: 0 hr 40 min 51 sec) 
select_counter is 119
Heartbeat CPU 0 instructions: 65000003 cycles: 95097841 heartbeat IPC: 0.613375 cumulative IPC: 0.619664 (Simulation time: 0 hr 41 min 31 sec) 
select_counter is 100
Heartbeat CPU 0 instructions: 66000000 cycles: 96694479 heartbeat IPC: 0.626314 cumulative IPC: 0.619781 (Simulation time: 0 hr 42 min 10 sec) 
select_counter is 88
Heartbeat CPU 0 instructions: 67000000 cycles: 98297753 heartbeat IPC: 0.623724 cumulative IPC: 0.61985 (Simulation time: 0 hr 42 min 49 sec) 
select_counter is 116
Heartbeat CPU 0 instructions: 68000000 cycles: 99904443 heartbeat IPC: 0.622398 cumulative IPC: 0.619894 (Simulation time: 0 hr 43 min 28 sec) 
select_counter is 58
Heartbeat CPU 0 instructions: 69000000 cycles: 101489616 heartbeat IPC: 0.630846 cumulative IPC: 0.620076 (Simulation time: 0 hr 44 min 5 sec) 
select_counter is 10
Heartbeat CPU 0 instructions: 70000002 cycles: 103102659 heartbeat IPC: 0.619947 cumulative IPC: 0.620074 (Simulation time: 0 hr 44 min 42 sec) 
select_counter is 980
Heartbeat CPU 0 instructions: 71000002 cycles: 104755549 heartbeat IPC: 0.605001 cumulative IPC: 0.619821 (Simulation time: 0 hr 45 min 16 sec) 
select_counter is 935
Heartbeat CPU 0 instructions: 72000000 cycles: 106511029 heartbeat IPC: 0.569644 cumulative IPC: 0.618942 (Simulation time: 0 hr 45 min 55 sec) 
select_counter is 801
Heartbeat CPU 0 instructions: 73000000 cycles: 108235668 heartbeat IPC: 0.579831 cumulative IPC: 0.61828 (Simulation time: 0 hr 46 min 34 sec) 
select_counter is 741
Heartbeat CPU 0 instructions: 74000001 cycles: 109985490 heartbeat IPC: 0.571487 cumulative IPC: 0.61749 (Simulation time: 0 hr 47 min 11 sec) 
select_counter is 746
Heartbeat CPU 0 instructions: 75000003 cycles: 111710768 heartbeat IPC: 0.579618 cumulative IPC: 0.61687 (Simulation time: 0 hr 47 min 48 sec) 
select_counter is 712
Heartbeat CPU 0 instructions: 76000000 cycles: 113430229 heartbeat IPC: 0.581576 cumulative IPC: 0.616303 (Simulation time: 0 hr 48 min 22 sec) 
select_counter is 713
Heartbeat CPU 0 instructions: 77000000 cycles: 115167516 heartbeat IPC: 0.57561 cumulative IPC: 0.615653 (Simulation time: 0 hr 48 min 56 sec) 
select_counter is 682
Heartbeat CPU 0 instructions: 78000001 cycles: 116888994 heartbeat IPC: 0.580897 cumulative IPC: 0.615112 (Simulation time: 0 hr 49 min 25 sec) 
select_counter is 575
Heartbeat CPU 0 instructions: 79000003 cycles: 118631244 heartbeat IPC: 0.573972 cumulative IPC: 0.614474 (Simulation time: 0 hr 49 min 53 sec) 
select_counter is 635
Heartbeat CPU 0 instructions: 80000000 cycles: 120381557 heartbeat IPC: 0.571325 cumulative IPC: 0.613812 (Simulation time: 0 hr 50 min 21 sec) 
select_counter is 670
Heartbeat CPU 0 instructions: 81000001 cycles: 122126547 heartbeat IPC: 0.57307 cumulative IPC: 0.613198 (Simulation time: 0 hr 50 min 48 sec) 
select_counter is 783
Heartbeat CPU 0 instructions: 82000000 cycles: 123877555 heartbeat IPC: 0.571099 cumulative IPC: 0.61257 (Simulation time: 0 hr 51 min 13 sec) 
select_counter is 811
Heartbeat CPU 0 instructions: 83000001 cycles: 125615827 heartbeat IPC: 0.575285 cumulative IPC: 0.612027 (Simulation time: 0 hr 51 min 37 sec) 
select_counter is 813
Heartbeat CPU 0 instructions: 84000000 cycles: 127367472 heartbeat IPC: 0.570891 cumulative IPC: 0.611432 (Simulation time: 0 hr 52 min 2 sec) 
select_counter is 828
Heartbeat CPU 0 instructions: 85000000 cycles: 129110499 heartbeat IPC: 0.573715 cumulative IPC: 0.610896 (Simulation time: 0 hr 52 min 24 sec) 
select_counter is 942
Heartbeat CPU 0 instructions: 86000000 cycles: 130844839 heartbeat IPC: 0.576588 cumulative IPC: 0.610418 (Simulation time: 0 hr 52 min 47 sec) 
select_counter is 1022
Heartbeat CPU 0 instructions: 87000001 cycles: 132593849 heartbeat IPC: 0.571753 cumulative IPC: 0.609883 (Simulation time: 0 hr 53 min 8 sec) 
select_counter is 1008
Heartbeat CPU 0 instructions: 88000000 cycles: 134331928 heartbeat IPC: 0.575347 cumulative IPC: 0.609414 (Simulation time: 0 hr 53 min 29 sec) 
select_counter is 960
Heartbeat CPU 0 instructions: 89000003 cycles: 136083531 heartbeat IPC: 0.570907 cumulative IPC: 0.608894 (Simulation time: 0 hr 53 min 50 sec) 
select_counter is 1010
Heartbeat CPU 0 instructions: 90000000 cycles: 137822570 heartbeat IPC: 0.575028 cumulative IPC: 0.608446 (Simulation time: 0 hr 54 min 8 sec) 
select_counter is 968
Heartbeat CPU 0 instructions: 91000001 cycles: 139562021 heartbeat IPC: 0.574895 cumulative IPC: 0.608008 (Simulation time: 0 hr 54 min 28 sec) 
select_counter is 864
Heartbeat CPU 0 instructions: 92000000 cycles: 141315395 heartbeat IPC: 0.570328 cumulative IPC: 0.607518 (Simulation time: 0 hr 54 min 46 sec) 
select_counter is 733
Heartbeat CPU 0 instructions: 93000003 cycles: 143053214 heartbeat IPC: 0.575436 cumulative IPC: 0.607111 (Simulation time: 0 hr 55 min 3 sec) 
select_counter is 757
Heartbeat CPU 0 instructions: 94000002 cycles: 144795613 heartbeat IPC: 0.573921 cumulative IPC: 0.606693 (Simulation time: 0 hr 55 min 18 sec) 
select_counter is 707
Heartbeat CPU 0 instructions: 95000001 cycles: 146554558 heartbeat IPC: 0.568522 cumulative IPC: 0.606214 (Simulation time: 0 hr 55 min 32 sec) 
select_counter is 670
Heartbeat CPU 0 instructions: 96000000 cycles: 148299076 heartbeat IPC: 0.573224 cumulative IPC: 0.605809 (Simulation time: 0 hr 55 min 47 sec) 
select_counter is 761
Heartbeat CPU 0 instructions: 97000003 cycles: 150049970 heartbeat IPC: 0.571139 cumulative IPC: 0.605386 (Simulation time: 0 hr 56 min 2 sec) 
select_counter is 750
Heartbeat CPU 0 instructions: 98000000 cycles: 151788924 heartbeat IPC: 0.575057 cumulative IPC: 0.605024 (Simulation time: 0 hr 56 min 15 sec) 
select_counter is 665
Heartbeat CPU 0 instructions: 99000001 cycles: 153539465 heartbeat IPC: 0.571253 cumulative IPC: 0.604622 (Simulation time: 0 hr 56 min 28 sec) 
select_counter is 653
Heartbeat CPU 0 instructions: 100000000 cycles: 155286205 heartbeat IPC: 0.572494 cumulative IPC: 0.604245 (Simulation time: 0 hr 56 min 38 sec) 
select_counter is 646
Heartbeat CPU 0 instructions: 101000001 cycles: 157013934 heartbeat IPC: 0.578795 cumulative IPC: 0.603953 (Simulation time: 0 hr 56 min 47 sec) 
select_counter is 622
Heartbeat CPU 0 instructions: 102000002 cycles: 158750961 heartbeat IPC: 0.575697 cumulative IPC: 0.603631 (Simulation time: 0 hr 56 min 53 sec) 
select_counter is 543
Heartbeat CPU 0 instructions: 103000000 cycles: 160483218 heartbeat IPC: 0.57728 cumulative IPC: 0.603335 (Simulation time: 0 hr 57 min 0 sec) 
select_counter is 529
Heartbeat CPU 0 instructions: 104000000 cycles: 162205294 heartbeat IPC: 0.580694 cumulative IPC: 0.603085 (Simulation time: 0 hr 57 min 5 sec) 
select_counter is 446
Heartbeat CPU 0 instructions: 105000000 cycles: 163914733 heartbeat IPC: 0.584987 cumulative IPC: 0.602889 (Simulation time: 0 hr 57 min 10 sec) 
select_counter is 465
Heartbeat CPU 0 instructions: 106000002 cycles: 165621876 heartbeat IPC: 0.585775 cumulative IPC: 0.602705 (Simulation time: 0 hr 57 min 15 sec) 
select_counter is 420
Heartbeat CPU 0 instructions: 107000000 cycles: 167331586 heartbeat IPC: 0.584893 cumulative IPC: 0.602516 (Simulation time: 0 hr 57 min 19 sec) 
select_counter is 354
Heartbeat CPU 0 instructions: 108000000 cycles: 169034099 heartbeat IPC: 0.587367 cumulative IPC: 0.602358 (Simulation time: 0 hr 57 min 24 sec) 
select_counter is 248
Heartbeat CPU 0 instructions: 109000003 cycles: 170746132 heartbeat IPC: 0.584103 cumulative IPC: 0.602168 (Simulation time: 0 hr 57 min 28 sec) 
select_counter is 253
Heartbeat CPU 0 instructions: 110000001 cycles: 172453376 heartbeat IPC: 0.585738 cumulative IPC: 0.601999 (Simulation time: 0 hr 57 min 32 sec) 
select_counter is 212
Finished CPU 0 instructions: 100000003 cycles: 166113320 cummulative IPC: 0.601999 (Simulation time: 0 hr 57 min 32 sec) 

ChampSim completed all CPUs

Region of Interest Statistics

CPU 0 cummulative IPC: 0.601999 instructions: 100000003 cycles: 166113320
LLC TOTAL     ACCESS:    5145119  HIT:     247463  MISS:    4897656
LLC LOAD      ACCESS:     521837  HIT:     113932  MISS:     407905
LLC RFO       ACCESS:         18  HIT:          0  MISS:         18
LLC PREFETCH  ACCESS:    3245961  HIT:      18076  MISS:    3227885
LLC WRITEBACK ACCESS:    1377303  HIT:     115455  MISS:    1261848
Ship samples: 
7, 56, 82, 125, 142, 187, 193, 254, 280, 305, 324, 361, 400, 442, 473, 510, 543, 555, 594, 615, 663, 680, 709, 764, 774, 824, 851, 869, 913, 955, 966, 995, 1038, 1086, 1098, 1134, 1159, 1209, 1244, 1257, 1283, 1324, 1348, 1402, 1425, 1440, 1486, 1533, 1554, 1598, 1600, 1661, 1666, 1716, 1740, 1760, 1823, 1830, 1886, 1913, 1941, 1958, 2013, 2016, 
Lime duel samples: 
12, 63, 86, 121, 144, 186, 219, 226, 259, 288, 347, 358, 410, 431, 471, 487, 536, 565, 600, 635, 653, 674, 728, 742, 797, 813, 842, 866, 899, 959, 971, 1017, 1029, 1070, 1089, 1125, 1153, 1206, 1228, 1269, 1282, 1314, 1366, 1393, 1429, 1461, 1495, 1508, 1565, 1595, 1628, 1644, 1671, 1719, 1758, 1789, 1807, 1836, 1859, 1888, 1935, 1977, 1987, 2019, 
Lime samples: 
12, 144, 259, 410, 536, 653, 797, 899, 1029, 1153, 1282, 1429, 1565, 1671, 1807, 
Insertion Distribution: 
	LOAD 38985 0 0 0 0 0 3995 78312 
	RFO 0 0 0 0 0 0 0 0 
	PREF 0 1471 0 0 0 0 29744 1531773 
	WRITEBACK 0 0 0 0 0 0 0 587785 
Total Prefetch Downgrades: 2518
