
*** ChampSim Multicore Out-of-Order Simulator ***

Warmup Instructions: 10000000
Simulation Instructions: 100000000
Configuration: 2
Number of CPUs: 1
LLC sets: 2048
LLC ways: 16
Off-chip DRAM Channels: 1 Width: 64-bit Data Rate: 1600 MT/s

CPU 0 runs /datasets/cs240c-wi22-a00-public/data/Assignment2-gz/mcf_46B.trace.gz
CPU 0 L1D next line prefetcher
CPU 0 L2C IP-based stride prefetcher
Heartbeat CPU 0 instructions: 1000002 cycles: 492419 heartbeat IPC: 2.03079 cumulative IPC: 2.03079 (Simulation time: 0 hr 0 min 37 sec) 
select_counter is 534
Heartbeat CPU 0 instructions: 2000002 cycles: 987544 heartbeat IPC: 2.01969 cumulative IPC: 2.02523 (Simulation time: 0 hr 1 min 14 sec) 
select_counter is 767
Heartbeat CPU 0 instructions: 3000003 cycles: 1515331 heartbeat IPC: 1.89471 cumulative IPC: 1.97977 (Simulation time: 0 hr 1 min 51 sec) 
select_counter is 942
Heartbeat CPU 0 instructions: 4000000 cycles: 2038617 heartbeat IPC: 1.911 cumulative IPC: 1.96211 (Simulation time: 0 hr 2 min 26 sec) 
select_counter is 507
Heartbeat CPU 0 instructions: 5000000 cycles: 2531869 heartbeat IPC: 2.02736 cumulative IPC: 1.97483 (Simulation time: 0 hr 3 min 5 sec) 
select_counter is 995
Heartbeat CPU 0 instructions: 6000002 cycles: 3034868 heartbeat IPC: 1.98808 cumulative IPC: 1.97702 (Simulation time: 0 hr 3 min 41 sec) 
select_counter is 547
Heartbeat CPU 0 instructions: 7000001 cycles: 3580794 heartbeat IPC: 1.83175 cumulative IPC: 1.95487 (Simulation time: 0 hr 4 min 21 sec) 
select_counter is 894
Heartbeat CPU 0 instructions: 8000000 cycles: 4071064 heartbeat IPC: 2.03969 cumulative IPC: 1.96509 (Simulation time: 0 hr 5 min 0 sec) 
select_counter is 392
Heartbeat CPU 0 instructions: 9000001 cycles: 4554355 heartbeat IPC: 2.06915 cumulative IPC: 1.97613 (Simulation time: 0 hr 5 min 36 sec) 
select_counter is 691
Heartbeat CPU 0 instructions: 10000001 cycles: 5091018 heartbeat IPC: 1.86337 cumulative IPC: 1.96424 (Simulation time: 0 hr 6 min 14 sec) 
select_counter is 773

Warmup complete CPU 0 instructions: 10000001 cycles: 5091018 (Simulation time: 0 hr 6 min 14 sec) 

Heartbeat CPU 0 instructions: 11000002 cycles: 16655965 heartbeat IPC: 0.0864683 cumulative IPC: 0.0864683 (Simulation time: 0 hr 7 min 20 sec) 
select_counter is 846
Heartbeat CPU 0 instructions: 12000000 cycles: 21259024 heartbeat IPC: 0.217246 cumulative IPC: 0.123701 (Simulation time: 0 hr 8 min 9 sec) 
select_counter is 389
Heartbeat CPU 0 instructions: 13000000 cycles: 28731665 heartbeat IPC: 0.133822 cumulative IPC: 0.1269 (Simulation time: 0 hr 9 min 3 sec) 
select_counter is 908
Heartbeat CPU 0 instructions: 14000003 cycles: 43416811 heartbeat IPC: 0.0680962 cumulative IPC: 0.104368 (Simulation time: 0 hr 10 min 21 sec) 
select_counter is 598
Heartbeat CPU 0 instructions: 15000000 cycles: 47873012 heartbeat IPC: 0.224406 cumulative IPC: 0.116872 (Simulation time: 0 hr 11 min 10 sec) 
select_counter is 176
Heartbeat CPU 0 instructions: 16000000 cycles: 52120659 heartbeat IPC: 0.235424 cumulative IPC: 0.127579 (Simulation time: 0 hr 12 min 0 sec) 
select_counter is 778
Heartbeat CPU 0 instructions: 17000002 cycles: 67405440 heartbeat IPC: 0.0654247 cumulative IPC: 0.112334 (Simulation time: 0 hr 13 min 19 sec) 
select_counter is 1003
Heartbeat CPU 0 instructions: 18000001 cycles: 73058181 heartbeat IPC: 0.176905 cumulative IPC: 0.117704 (Simulation time: 0 hr 14 min 11 sec) 
select_counter is 536
Heartbeat CPU 0 instructions: 19000002 cycles: 77721822 heartbeat IPC: 0.214425 cumulative IPC: 0.123914 (Simulation time: 0 hr 15 min 4 sec) 
select_counter is 65
Heartbeat CPU 0 instructions: 20000000 cycles: 91499734 heartbeat IPC: 0.0725798 cumulative IPC: 0.115729 (Simulation time: 0 hr 16 min 20 sec) 
select_counter is 845
Heartbeat CPU 0 instructions: 21000002 cycles: 107100777 heartbeat IPC: 0.0640984 cumulative IPC: 0.107833 (Simulation time: 0 hr 17 min 38 sec) 
select_counter is 671
Heartbeat CPU 0 instructions: 22000002 cycles: 111682293 heartbeat IPC: 0.218268 cumulative IPC: 0.11258 (Simulation time: 0 hr 18 min 25 sec) 
select_counter is 150
Heartbeat CPU 0 instructions: 23000001 cycles: 116099830 heartbeat IPC: 0.22637 cumulative IPC: 0.117108 (Simulation time: 0 hr 19 min 14 sec) 
select_counter is 708
Heartbeat CPU 0 instructions: 24000000 cycles: 129028199 heartbeat IPC: 0.0773492 cumulative IPC: 0.11296 (Simulation time: 0 hr 20 min 23 sec) 
select_counter is 866
Heartbeat CPU 0 instructions: 25000002 cycles: 136796861 heartbeat IPC: 0.128723 cumulative IPC: 0.11389 (Simulation time: 0 hr 21 min 21 sec) 
select_counter is 463
Heartbeat CPU 0 instructions: 26000001 cycles: 140781806 heartbeat IPC: 0.250944 cumulative IPC: 0.117915 (Simulation time: 0 hr 22 min 6 sec) 
select_counter is 925
Heartbeat CPU 0 instructions: 27000000 cycles: 150702560 heartbeat IPC: 0.100799 cumulative IPC: 0.116749 (Simulation time: 0 hr 23 min 9 sec) 
select_counter is 789
Heartbeat CPU 0 instructions: 28000000 cycles: 162022126 heartbeat IPC: 0.0883426 cumulative IPC: 0.1147 (Simulation time: 0 hr 24 min 14 sec) 
select_counter is 683
Heartbeat CPU 0 instructions: 29000001 cycles: 166612150 heartbeat IPC: 0.217864 cumulative IPC: 0.117632 (Simulation time: 0 hr 25 min 2 sec) 
select_counter is 245
Heartbeat CPU 0 instructions: 30000000 cycles: 173912504 heartbeat IPC: 0.13698 cumulative IPC: 0.118468 (Simulation time: 0 hr 25 min 50 sec) 
select_counter is 1017
Heartbeat CPU 0 instructions: 31000002 cycles: 187651529 heartbeat IPC: 0.0727855 cumulative IPC: 0.11503 (Simulation time: 0 hr 26 min 56 sec) 
select_counter is 820
Heartbeat CPU 0 instructions: 32000000 cycles: 192272535 heartbeat IPC: 0.216403 cumulative IPC: 0.117533 (Simulation time: 0 hr 27 min 41 sec) 
select_counter is 313
Heartbeat CPU 0 instructions: 33000000 cycles: 198682063 heartbeat IPC: 0.156018 cumulative IPC: 0.118807 (Simulation time: 0 hr 28 min 31 sec) 
select_counter is 291
Heartbeat CPU 0 instructions: 34000000 cycles: 213681247 heartbeat IPC: 0.0666703 cumulative IPC: 0.115058 (Simulation time: 0 hr 29 min 39 sec) 
select_counter is 710
Heartbeat CPU 0 instructions: 35000000 cycles: 219805946 heartbeat IPC: 0.163273 cumulative IPC: 0.116433 (Simulation time: 0 hr 30 min 28 sec) 
select_counter is 166
Heartbeat CPU 0 instructions: 36000000 cycles: 226232814 heartbeat IPC: 0.155597 cumulative IPC: 0.117572 (Simulation time: 0 hr 31 min 18 sec) 
select_counter is 926
Heartbeat CPU 0 instructions: 37000002 cycles: 236322961 heartbeat IPC: 0.0991068 cumulative IPC: 0.116766 (Simulation time: 0 hr 32 min 21 sec) 
select_counter is 736
Heartbeat CPU 0 instructions: 38000000 cycles: 247177561 heartbeat IPC: 0.0921267 cumulative IPC: 0.115661 (Simulation time: 0 hr 33 min 24 sec) 
select_counter is 487
Heartbeat CPU 0 instructions: 39000000 cycles: 251471777 heartbeat IPC: 0.232871 cumulative IPC: 0.117704 (Simulation time: 0 hr 34 min 9 sec) 
select_counter is 968
Heartbeat CPU 0 instructions: 40000000 cycles: 257829738 heartbeat IPC: 0.157283 cumulative IPC: 0.1187 (Simulation time: 0 hr 35 min 1 sec) 
select_counter is 578
Heartbeat CPU 0 instructions: 41000000 cycles: 272448867 heartbeat IPC: 0.0684035 cumulative IPC: 0.115949 (Simulation time: 0 hr 36 min 14 sec) 
select_counter is 607
Heartbeat CPU 0 instructions: 42000001 cycles: 277286042 heartbeat IPC: 0.206732 cumulative IPC: 0.117563 (Simulation time: 0 hr 37 min 2 sec) 
select_counter is 42
Heartbeat CPU 0 instructions: 43000000 cycles: 282007360 heartbeat IPC: 0.211805 cumulative IPC: 0.11917 (Simulation time: 0 hr 37 min 49 sec) 
select_counter is 627
Heartbeat CPU 0 instructions: 44000000 cycles: 295307272 heartbeat IPC: 0.0751885 cumulative IPC: 0.117154 (Simulation time: 0 hr 39 min 0 sec) 
select_counter is 824
Heartbeat CPU 0 instructions: 45000001 cycles: 302828747 heartbeat IPC: 0.132953 cumulative IPC: 0.117553 (Simulation time: 0 hr 39 min 55 sec) 
select_counter is 334
Heartbeat CPU 0 instructions: 46000001 cycles: 307271995 heartbeat IPC: 0.225061 cumulative IPC: 0.119134 (Simulation time: 0 hr 40 min 39 sec) 
select_counter is 883
Heartbeat CPU 0 instructions: 47000002 cycles: 316957904 heartbeat IPC: 0.103243 cumulative IPC: 0.11864 (Simulation time: 0 hr 41 min 42 sec) 
select_counter is 754
Heartbeat CPU 0 instructions: 48000000 cycles: 328586760 heartbeat IPC: 0.0859928 cumulative IPC: 0.117467 (Simulation time: 0 hr 42 min 48 sec) 
select_counter is 700
Heartbeat CPU 0 instructions: 49000000 cycles: 333436178 heartbeat IPC: 0.20621 cumulative IPC: 0.118777 (Simulation time: 0 hr 43 min 32 sec) 
select_counter is 277
Heartbeat CPU 0 instructions: 50000001 cycles: 339821811 heartbeat IPC: 0.156602 cumulative IPC: 0.119499 (Simulation time: 0 hr 44 min 23 sec) 
select_counter is 970
Heartbeat CPU 0 instructions: 51000001 cycles: 354411385 heartbeat IPC: 0.0685421 cumulative IPC: 0.117371 (Simulation time: 0 hr 45 min 32 sec) 
select_counter is 958
Heartbeat CPU 0 instructions: 52000000 cycles: 359447096 heartbeat IPC: 0.198581 cumulative IPC: 0.118525 (Simulation time: 0 hr 46 min 17 sec) 
select_counter is 511
Heartbeat CPU 0 instructions: 53000000 cycles: 363623155 heartbeat IPC: 0.23946 cumulative IPC: 0.119933 (Simulation time: 0 hr 47 min 2 sec) 
select_counter is 66
Heartbeat CPU 0 instructions: 54000002 cycles: 379384662 heartbeat IPC: 0.0634458 cumulative IPC: 0.117555 (Simulation time: 0 hr 48 min 12 sec) 
select_counter is 124
Heartbeat CPU 0 instructions: 55000002 cycles: 384785726 heartbeat IPC: 0.185149 cumulative IPC: 0.118516 (Simulation time: 0 hr 48 min 52 sec) 
select_counter is 767
Heartbeat CPU 0 instructions: 56000000 cycles: 389284600 heartbeat IPC: 0.222277 cumulative IPC: 0.119731 (Simulation time: 0 hr 49 min 26 sec) 
select_counter is 366
Heartbeat CPU 0 instructions: 57000000 cycles: 402623334 heartbeat IPC: 0.0749696 cumulative IPC: 0.118229 (Simulation time: 0 hr 50 min 12 sec) 
select_counter is 616
Heartbeat CPU 0 instructions: 58000000 cycles: 410116293 heartbeat IPC: 0.133459 cumulative IPC: 0.118511 (Simulation time: 0 hr 50 min 49 sec) 
select_counter is 179
Heartbeat CPU 0 instructions: 59000002 cycles: 414822748 heartbeat IPC: 0.212475 cumulative IPC: 0.11959 (Simulation time: 0 hr 51 min 15 sec) 
select_counter is 660
Heartbeat CPU 0 instructions: 60000000 cycles: 426593998 heartbeat IPC: 0.0849526 cumulative IPC: 0.118623 (Simulation time: 0 hr 51 min 54 sec) 
select_counter is 749
Heartbeat CPU 0 instructions: 61000002 cycles: 436207564 heartbeat IPC: 0.10402 cumulative IPC: 0.118297 (Simulation time: 0 hr 52 min 27 sec) 
select_counter is 615
Heartbeat CPU 0 instructions: 62000000 cycles: 440511201 heartbeat IPC: 0.232361 cumulative IPC: 0.119425 (Simulation time: 0 hr 52 min 52 sec) 
select_counter is 48
Heartbeat CPU 0 instructions: 63000001 cycles: 450859400 heartbeat IPC: 0.0966353 cumulative IPC: 0.118896 (Simulation time: 0 hr 53 min 26 sec) 
select_counter is 885
Heartbeat CPU 0 instructions: 64000000 cycles: 462355113 heartbeat IPC: 0.0869889 cumulative IPC: 0.118094 (Simulation time: 0 hr 53 min 58 sec) 
select_counter is 707
Heartbeat CPU 0 instructions: 65000002 cycles: 467907542 heartbeat IPC: 0.180102 cumulative IPC: 0.118838 (Simulation time: 0 hr 54 min 21 sec) 
select_counter is 465
Heartbeat CPU 0 instructions: 66000000 cycles: 474237392 heartbeat IPC: 0.157981 cumulative IPC: 0.119366 (Simulation time: 0 hr 54 min 43 sec) 
select_counter is 325
Heartbeat CPU 0 instructions: 67000002 cycles: 490187557 heartbeat IPC: 0.0626954 cumulative IPC: 0.117502 (Simulation time: 0 hr 55 min 15 sec) 
select_counter is 505
Heartbeat CPU 0 instructions: 68000000 cycles: 494586235 heartbeat IPC: 0.227341 cumulative IPC: 0.118489 (Simulation time: 0 hr 55 min 31 sec) 
select_counter is 1006
Heartbeat CPU 0 instructions: 69000000 cycles: 499132684 heartbeat IPC: 0.219952 cumulative IPC: 0.119423 (Simulation time: 0 hr 55 min 48 sec) 
select_counter is 445
Heartbeat CPU 0 instructions: 70000001 cycles: 513300956 heartbeat IPC: 0.0705803 cumulative IPC: 0.118061 (Simulation time: 0 hr 56 min 12 sec) 
select_counter is 517
Heartbeat CPU 0 instructions: 71000002 cycles: 521950163 heartbeat IPC: 0.115618 cumulative IPC: 0.118021 (Simulation time: 0 hr 56 min 29 sec) 
select_counter is 359
Heartbeat CPU 0 instructions: 72000000 cycles: 527015535 heartbeat IPC: 0.197418 cumulative IPC: 0.118791 (Simulation time: 0 hr 56 min 41 sec) 
select_counter is 845
Heartbeat CPU 0 instructions: 73000002 cycles: 536334441 heartbeat IPC: 0.107309 cumulative IPC: 0.11859 (Simulation time: 0 hr 56 min 52 sec) 
select_counter is 575
Heartbeat CPU 0 instructions: 74000001 cycles: 548488016 heartbeat IPC: 0.0822802 cumulative IPC: 0.117778 (Simulation time: 0 hr 57 min 2 sec) 
select_counter is 387
Heartbeat CPU 0 instructions: 75000001 cycles: 553372915 heartbeat IPC: 0.204713 cumulative IPC: 0.118552 (Simulation time: 0 hr 57 min 7 sec) 
select_counter is 758
Heartbeat CPU 0 instructions: 76000000 cycles: 559763464 heartbeat IPC: 0.156481 cumulative IPC: 0.118989 (Simulation time: 0 hr 57 min 14 sec) 
select_counter is 495
Heartbeat CPU 0 instructions: 77000001 cycles: 576035665 heartbeat IPC: 0.0614546 cumulative IPC: 0.117349 (Simulation time: 0 hr 57 min 23 sec) 
select_counter is 895
Heartbeat CPU 0 instructions: 78000002 cycles: 581314022 heartbeat IPC: 0.189453 cumulative IPC: 0.11801 (Simulation time: 0 hr 57 min 27 sec) 
select_counter is 339
Heartbeat CPU 0 instructions: 79000001 cycles: 585765680 heartbeat IPC: 0.224635 cumulative IPC: 0.118827 (Simulation time: 0 hr 57 min 32 sec) 
select_counter is 918
Heartbeat CPU 0 instructions: 80000000 cycles: 598985571 heartbeat IPC: 0.0756435 cumulative IPC: 0.117866 (Simulation time: 0 hr 57 min 39 sec) 
select_counter is 997
Heartbeat CPU 0 instructions: 81000000 cycles: 606778490 heartbeat IPC: 0.128322 cumulative IPC: 0.118001 (Simulation time: 0 hr 57 min 44 sec) 
select_counter is 649
Heartbeat CPU 0 instructions: 82000000 cycles: 611799784 heartbeat IPC: 0.199152 cumulative IPC: 0.118673 (Simulation time: 0 hr 57 min 49 sec) 
select_counter is 290
Heartbeat CPU 0 instructions: 83000001 cycles: 621607784 heartbeat IPC: 0.101958 cumulative IPC: 0.118407 (Simulation time: 0 hr 57 min 55 sec) 
select_counter is 350
Heartbeat CPU 0 instructions: 84000000 cycles: 633064064 heartbeat IPC: 0.0872883 cumulative IPC: 0.117839 (Simulation time: 0 hr 58 min 1 sec) 
select_counter is 170
Heartbeat CPU 0 instructions: 85000001 cycles: 637752855 heartbeat IPC: 0.213275 cumulative IPC: 0.118547 (Simulation time: 0 hr 58 min 5 sec) 
select_counter is 660
Heartbeat CPU 0 instructions: 86000000 cycles: 645918597 heartbeat IPC: 0.122463 cumulative IPC: 0.118597 (Simulation time: 0 hr 58 min 11 sec) 
select_counter is 710
Heartbeat CPU 0 instructions: 87000000 cycles: 660198730 heartbeat IPC: 0.0700274 cumulative IPC: 0.117538 (Simulation time: 0 hr 58 min 18 sec) 
select_counter is 933
Heartbeat CPU 0 instructions: 88000000 cycles: 666849661 heartbeat IPC: 0.150355 cumulative IPC: 0.117868 (Simulation time: 0 hr 58 min 23 sec) 
select_counter is 511
Heartbeat CPU 0 instructions: 89000000 cycles: 671089269 heartbeat IPC: 0.235871 cumulative IPC: 0.118619 (Simulation time: 0 hr 58 min 27 sec) 
select_counter is 113
Heartbeat CPU 0 instructions: 90000003 cycles: 683038502 heartbeat IPC: 0.0836876 cumulative IPC: 0.118003 (Simulation time: 0 hr 58 min 33 sec) 
select_counter is 1014
Heartbeat CPU 0 instructions: 91000000 cycles: 692178523 heartbeat IPC: 0.109409 cumulative IPC: 0.117889 (Simulation time: 0 hr 58 min 39 sec) 
select_counter is 796
Heartbeat CPU 0 instructions: 92000000 cycles: 696797712 heartbeat IPC: 0.216488 cumulative IPC: 0.118547 (Simulation time: 0 hr 58 min 44 sec) 
select_counter is 408
Heartbeat CPU 0 instructions: 93000002 cycles: 705762866 heartbeat IPC: 0.111543 cumulative IPC: 0.118458 (Simulation time: 0 hr 58 min 49 sec) 
select_counter is 430
Heartbeat CPU 0 instructions: 94000002 cycles: 717277216 heartbeat IPC: 0.0868481 cumulative IPC: 0.117947 (Simulation time: 0 hr 58 min 56 sec) 
select_counter is 297
Heartbeat CPU 0 instructions: 95000001 cycles: 723256709 heartbeat IPC: 0.167238 cumulative IPC: 0.118357 (Simulation time: 0 hr 59 min 1 sec) 
select_counter is 964
Heartbeat CPU 0 instructions: 96000000 cycles: 729257333 heartbeat IPC: 0.166649 cumulative IPC: 0.118757 (Simulation time: 0 hr 59 min 6 sec) 
select_counter is 503
Heartbeat CPU 0 instructions: 97000000 cycles: 744410041 heartbeat IPC: 0.0659948 cumulative IPC: 0.117676 (Simulation time: 0 hr 59 min 13 sec) 
select_counter is 669
Heartbeat CPU 0 instructions: 98000002 cycles: 749368846 heartbeat IPC: 0.201662 cumulative IPC: 0.118235 (Simulation time: 0 hr 59 min 18 sec) 
select_counter is 344
Heartbeat CPU 0 instructions: 99000002 cycles: 754220982 heartbeat IPC: 0.206095 cumulative IPC: 0.118804 (Simulation time: 0 hr 59 min 22 sec) 
select_counter is 991
Heartbeat CPU 0 instructions: 100000000 cycles: 768483148 heartbeat IPC: 0.0701154 cumulative IPC: 0.117895 (Simulation time: 0 hr 59 min 30 sec) 
select_counter is 936
Heartbeat CPU 0 instructions: 101000000 cycles: 775541208 heartbeat IPC: 0.141682 cumulative IPC: 0.118113 (Simulation time: 0 hr 59 min 35 sec) 
select_counter is 411
Heartbeat CPU 0 instructions: 102000003 cycles: 779930598 heartbeat IPC: 0.227823 cumulative IPC: 0.118734 (Simulation time: 0 hr 59 min 39 sec) 
select_counter is 876
Heartbeat CPU 0 instructions: 103000003 cycles: 792114986 heartbeat IPC: 0.0820722 cumulative IPC: 0.118167 (Simulation time: 0 hr 59 min 46 sec) 
select_counter is 735
Heartbeat CPU 0 instructions: 104000000 cycles: 803882407 heartbeat IPC: 0.0849801 cumulative IPC: 0.117678 (Simulation time: 0 hr 59 min 52 sec) 
select_counter is 443
Heartbeat CPU 0 instructions: 105000000 cycles: 808770638 heartbeat IPC: 0.204573 cumulative IPC: 0.118206 (Simulation time: 0 hr 59 min 57 sec) 
select_counter is 987
Heartbeat CPU 0 instructions: 106000000 cycles: 813645063 heartbeat IPC: 0.205152 cumulative IPC: 0.11873 (Simulation time: 1 hr 0 min 1 sec) 
select_counter is 532
Heartbeat CPU 0 instructions: 107000002 cycles: 829104546 heartbeat IPC: 0.0646853 cumulative IPC: 0.117717 (Simulation time: 1 hr 0 min 9 sec) 
select_counter is 723
Heartbeat CPU 0 instructions: 108000000 cycles: 834589222 heartbeat IPC: 0.182326 cumulative IPC: 0.118144 (Simulation time: 1 hr 0 min 14 sec) 
select_counter is 178
Heartbeat CPU 0 instructions: 109000001 cycles: 839390760 heartbeat IPC: 0.208267 cumulative IPC: 0.118662 (Simulation time: 1 hr 0 min 18 sec) 
select_counter is 698
Heartbeat CPU 0 instructions: 110000002 cycles: 849407328 heartbeat IPC: 0.0998347 cumulative IPC: 0.118439 (Simulation time: 1 hr 0 min 24 sec) 
select_counter is 367
Finished CPU 0 instructions: 100000001 cycles: 844316310 cummulative IPC: 0.118439 (Simulation time: 1 hr 0 min 24 sec) 

ChampSim completed all CPUs

Region of Interest Statistics

CPU 0 cummulative IPC: 0.118439 instructions: 100000001 cycles: 844316310
LLC TOTAL     ACCESS:   18770005  HIT:    7427334  MISS:   11342671
LLC LOAD      ACCESS:    8473852  HIT:    4076219  MISS:    4397633
LLC RFO       ACCESS:     206376  HIT:     103245  MISS:     103131
LLC PREFETCH  ACCESS:    7982028  HIT:    1982877  MISS:    5999151
LLC WRITEBACK ACCESS:    2107749  HIT:    1264993  MISS:     842756
Ship samples: 
10, 42, 76, 109, 150, 183, 215, 238, 278, 291, 332, 366, 396, 419, 475, 495, 535, 563, 596, 608, 645, 694, 734, 749, 794, 829, 837, 874, 916, 940, 970, 1013, 1045, 1060, 1098, 1139, 1180, 1196, 1229, 1264, 1289, 1326, 1368, 1377, 1414, 1469, 1481, 1521, 1563, 1575, 1625, 1653, 1668, 1713, 1755, 1785, 1806, 1843, 1856, 1907, 1922, 1974, 1987, 2025, 
Lime duel samples: 
20, 58, 78, 122, 157, 164, 203, 230, 272, 310, 328, 373, 387, 425, 474, 508, 517, 569, 579, 609, 650, 696, 733, 740, 789, 816, 838, 875, 914, 941, 976, 1019, 1025, 1065, 1097, 1124, 1167, 1193, 1243, 1273, 1288, 1325, 1359, 1400, 1421, 1453, 1488, 1522, 1566, 1589, 1605, 1658, 1686, 1697, 1745, 1761, 1796, 1832, 1862, 1908, 1926, 1968, 1995, 2023, 
Lime samples: 
20, 157, 272, 387, 517, 650, 789, 914, 1025, 1167, 1288, 1421, 1566, 1686, 1796, 
Insertion Distribution: 
	LOAD 185530 0 0 0 0 0 143523 855676 
	RFO 17264 0 0 0 0 0 5794 10976 
	PREF 0 550488 0 0 0 0 392019 1538984 
	WRITEBACK 0 0 0 0 0 0 0 172460 
Total Prefetch Downgrades: 527443
