
*** ChampSim Multicore Out-of-Order Simulator ***

Warmup Instructions: 10000000
Simulation Instructions: 100000000
Configuration: 2
Number of CPUs: 1
LLC sets: 2048
LLC ways: 16
Off-chip DRAM Channels: 1 Width: 64-bit Data Rate: 1600 MT/s

CPU 0 runs /datasets/cs240c-wi22-a00-public/data/Assignment2-gz/leslie3d_94B.trace.gz
CPU 0 L1D next line prefetcher
CPU 0 L2C IP-based stride prefetcher
Heartbeat CPU 0 instructions: 1000003 cycles: 597056 heartbeat IPC: 1.67489 cumulative IPC: 1.67489 (Simulation time: 0 hr 0 min 30 sec) 
select_counter is 386
Heartbeat CPU 0 instructions: 2000002 cycles: 1215907 heartbeat IPC: 1.6159 cumulative IPC: 1.64486 (Simulation time: 0 hr 1 min 7 sec) 
select_counter is 136
Heartbeat CPU 0 instructions: 3000003 cycles: 1867667 heartbeat IPC: 1.53431 cumulative IPC: 1.60628 (Simulation time: 0 hr 1 min 41 sec) 
select_counter is 68
Heartbeat CPU 0 instructions: 4000000 cycles: 2518900 heartbeat IPC: 1.53554 cumulative IPC: 1.58799 (Simulation time: 0 hr 2 min 16 sec) 
select_counter is 937
Heartbeat CPU 0 instructions: 5000002 cycles: 3083909 heartbeat IPC: 1.76989 cumulative IPC: 1.62132 (Simulation time: 0 hr 2 min 50 sec) 
select_counter is 938
Heartbeat CPU 0 instructions: 6000002 cycles: 3734614 heartbeat IPC: 1.53679 cumulative IPC: 1.60659 (Simulation time: 0 hr 3 min 24 sec) 
select_counter is 928
Heartbeat CPU 0 instructions: 7000000 cycles: 4385336 heartbeat IPC: 1.53675 cumulative IPC: 1.59623 (Simulation time: 0 hr 3 min 59 sec) 
select_counter is 894
Heartbeat CPU 0 instructions: 8000000 cycles: 4950339 heartbeat IPC: 1.7699 cumulative IPC: 1.61605 (Simulation time: 0 hr 4 min 33 sec) 
select_counter is 845
Heartbeat CPU 0 instructions: 9000000 cycles: 5601209 heartbeat IPC: 1.53641 cumulative IPC: 1.6068 (Simulation time: 0 hr 5 min 8 sec) 
select_counter is 810
Heartbeat CPU 0 instructions: 10000001 cycles: 6252430 heartbeat IPC: 1.53558 cumulative IPC: 1.59938 (Simulation time: 0 hr 5 min 44 sec) 
select_counter is 764

Warmup complete CPU 0 instructions: 10000001 cycles: 6252430 (Simulation time: 0 hr 5 min 44 sec) 

Heartbeat CPU 0 instructions: 11000000 cycles: 7479955 heartbeat IPC: 0.814647 cumulative IPC: 0.814647 (Simulation time: 0 hr 6 min 22 sec) 
select_counter is 702
Heartbeat CPU 0 instructions: 12000000 cycles: 9309575 heartbeat IPC: 0.546562 cumulative IPC: 0.654205 (Simulation time: 0 hr 7 min 0 sec) 
select_counter is 462
Heartbeat CPU 0 instructions: 13000000 cycles: 11130304 heartbeat IPC: 0.549231 cumulative IPC: 0.615022 (Simulation time: 0 hr 7 min 41 sec) 
select_counter is 144
Heartbeat CPU 0 instructions: 14000001 cycles: 13046572 heartbeat IPC: 0.521848 cumulative IPC: 0.588742 (Simulation time: 0 hr 8 min 19 sec) 
select_counter is 148
Heartbeat CPU 0 instructions: 15000001 cycles: 14943400 heartbeat IPC: 0.527196 cumulative IPC: 0.57531 (Simulation time: 0 hr 8 min 57 sec) 
select_counter is 120
Heartbeat CPU 0 instructions: 16000000 cycles: 16832403 heartbeat IPC: 0.529379 cumulative IPC: 0.567109 (Simulation time: 0 hr 9 min 36 sec) 
select_counter is 834
Heartbeat CPU 0 instructions: 17000000 cycles: 18756365 heartbeat IPC: 0.519761 cumulative IPC: 0.559824 (Simulation time: 0 hr 10 min 14 sec) 
select_counter is 484
Heartbeat CPU 0 instructions: 18000002 cycles: 20696814 heartbeat IPC: 0.515346 cumulative IPC: 0.553849 (Simulation time: 0 hr 10 min 55 sec) 
select_counter is 224
Heartbeat CPU 0 instructions: 19000001 cycles: 22544993 heartbeat IPC: 0.541073 cumulative IPC: 0.552399 (Simulation time: 0 hr 11 min 34 sec) 
select_counter is 878
Heartbeat CPU 0 instructions: 20000000 cycles: 24512222 heartbeat IPC: 0.508329 cumulative IPC: 0.547651 (Simulation time: 0 hr 12 min 16 sec) 
select_counter is 645
Heartbeat CPU 0 instructions: 21000002 cycles: 26405973 heartbeat IPC: 0.528054 cumulative IPC: 0.54581 (Simulation time: 0 hr 12 min 56 sec) 
select_counter is 280
Heartbeat CPU 0 instructions: 22000002 cycles: 28682965 heartbeat IPC: 0.439176 cumulative IPC: 0.534985 (Simulation time: 0 hr 13 min 36 sec) 
select_counter is 796
Heartbeat CPU 0 instructions: 23000000 cycles: 31080991 heartbeat IPC: 0.417009 cumulative IPC: 0.523591 (Simulation time: 0 hr 14 min 20 sec) 
select_counter is 1022
Heartbeat CPU 0 instructions: 24000000 cycles: 33517097 heartbeat IPC: 0.410491 cumulative IPC: 0.513485 (Simulation time: 0 hr 15 min 0 sec) 
select_counter is 1023
Heartbeat CPU 0 instructions: 25000000 cycles: 35923695 heartbeat IPC: 0.415524 cumulative IPC: 0.50554 (Simulation time: 0 hr 15 min 40 sec) 
select_counter is 999
Heartbeat CPU 0 instructions: 26000002 cycles: 38208748 heartbeat IPC: 0.437627 cumulative IPC: 0.500683 (Simulation time: 0 hr 16 min 26 sec) 
select_counter is 1019
Heartbeat CPU 0 instructions: 27000001 cycles: 40548593 heartbeat IPC: 0.427378 cumulative IPC: 0.495682 (Simulation time: 0 hr 17 min 14 sec) 
select_counter is 1021
Heartbeat CPU 0 instructions: 28000000 cycles: 42928380 heartbeat IPC: 0.420205 cumulative IPC: 0.490785 (Simulation time: 0 hr 17 min 57 sec) 
select_counter is 1023
Heartbeat CPU 0 instructions: 29000000 cycles: 45260716 heartbeat IPC: 0.428755 cumulative IPC: 0.487076 (Simulation time: 0 hr 18 min 41 sec) 
select_counter is 992
Heartbeat CPU 0 instructions: 30000000 cycles: 46693154 heartbeat IPC: 0.698111 cumulative IPC: 0.494551 (Simulation time: 0 hr 19 min 16 sec) 
select_counter is 866
Heartbeat CPU 0 instructions: 31000002 cycles: 48031699 heartbeat IPC: 0.747081 cumulative IPC: 0.502642 (Simulation time: 0 hr 19 min 52 sec) 
select_counter is 633
Heartbeat CPU 0 instructions: 32000000 cycles: 49424804 heartbeat IPC: 0.71782 cumulative IPC: 0.509585 (Simulation time: 0 hr 20 min 27 sec) 
select_counter is 385
Heartbeat CPU 0 instructions: 33000001 cycles: 50717003 heartbeat IPC: 0.773875 cumulative IPC: 0.517266 (Simulation time: 0 hr 21 min 2 sec) 
select_counter is 192
Heartbeat CPU 0 instructions: 34000003 cycles: 52028856 heartbeat IPC: 0.762282 cumulative IPC: 0.524287 (Simulation time: 0 hr 21 min 36 sec) 
select_counter is 4
Heartbeat CPU 0 instructions: 35000000 cycles: 53303163 heartbeat IPC: 0.784738 cumulative IPC: 0.531341 (Simulation time: 0 hr 22 min 10 sec) 
select_counter is 809
Heartbeat CPU 0 instructions: 36000000 cycles: 54674603 heartbeat IPC: 0.729161 cumulative IPC: 0.536944 (Simulation time: 0 hr 22 min 46 sec) 
select_counter is 665
Heartbeat CPU 0 instructions: 37000003 cycles: 56045204 heartbeat IPC: 0.729609 cumulative IPC: 0.542247 (Simulation time: 0 hr 23 min 21 sec) 
select_counter is 475
Heartbeat CPU 0 instructions: 38000000 cycles: 57335732 heartbeat IPC: 0.774874 cumulative IPC: 0.548124 (Simulation time: 0 hr 23 min 54 sec) 
select_counter is 261
Heartbeat CPU 0 instructions: 39000002 cycles: 58635383 heartbeat IPC: 0.769439 cumulative IPC: 0.553615 (Simulation time: 0 hr 24 min 28 sec) 
select_counter is 113
Heartbeat CPU 0 instructions: 40000000 cycles: 59891604 heartbeat IPC: 0.796037 cumulative IPC: 0.559293 (Simulation time: 0 hr 25 min 2 sec) 
select_counter is 973
Heartbeat CPU 0 instructions: 41000002 cycles: 61225285 heartbeat IPC: 0.749806 cumulative IPC: 0.563915 (Simulation time: 0 hr 25 min 36 sec) 
select_counter is 780
Heartbeat CPU 0 instructions: 42000002 cycles: 62556245 heartbeat IPC: 0.751337 cumulative IPC: 0.568345 (Simulation time: 0 hr 26 min 13 sec) 
select_counter is 625
Heartbeat CPU 0 instructions: 43000002 cycles: 63936583 heartbeat IPC: 0.72446 cumulative IPC: 0.572081 (Simulation time: 0 hr 26 min 51 sec) 
select_counter is 461
Heartbeat CPU 0 instructions: 44000000 cycles: 65217371 heartbeat IPC: 0.780768 cumulative IPC: 0.576614 (Simulation time: 0 hr 27 min 27 sec) 
select_counter is 265
Heartbeat CPU 0 instructions: 45000003 cycles: 66512308 heartbeat IPC: 0.772241 cumulative IPC: 0.580818 (Simulation time: 0 hr 28 min 4 sec) 
select_counter is 112
Heartbeat CPU 0 instructions: 46000001 cycles: 67832923 heartbeat IPC: 0.757221 cumulative IPC: 0.584601 (Simulation time: 0 hr 28 min 41 sec) 
select_counter is 949
Heartbeat CPU 0 instructions: 47000000 cycles: 69126767 heartbeat IPC: 0.77289 cumulative IPC: 0.588475 (Simulation time: 0 hr 29 min 16 sec) 
select_counter is 853
Heartbeat CPU 0 instructions: 48000000 cycles: 70507097 heartbeat IPC: 0.724464 cumulative IPC: 0.591397 (Simulation time: 0 hr 29 min 53 sec) 
select_counter is 692
Heartbeat CPU 0 instructions: 49000001 cycles: 71836369 heartbeat IPC: 0.752292 cumulative IPC: 0.594658 (Simulation time: 0 hr 30 min 30 sec) 
select_counter is 531
Heartbeat CPU 0 instructions: 50000001 cycles: 73192019 heartbeat IPC: 0.737654 cumulative IPC: 0.597554 (Simulation time: 0 hr 31 min 4 sec) 
select_counter is 414
Heartbeat CPU 0 instructions: 51000003 cycles: 74483700 heartbeat IPC: 0.774186 cumulative IPC: 0.600898 (Simulation time: 0 hr 31 min 37 sec) 
select_counter is 274
Heartbeat CPU 0 instructions: 52000000 cycles: 75756759 heartbeat IPC: 0.785507 cumulative IPC: 0.604279 (Simulation time: 0 hr 32 min 9 sec) 
select_counter is 160
Heartbeat CPU 0 instructions: 53000002 cycles: 77085839 heartbeat IPC: 0.752402 cumulative IPC: 0.607058 (Simulation time: 0 hr 32 min 45 sec) 
select_counter is 1021
Heartbeat CPU 0 instructions: 54000001 cycles: 78364287 heartbeat IPC: 0.782198 cumulative IPC: 0.610163 (Simulation time: 0 hr 33 min 18 sec) 
select_counter is 836
Heartbeat CPU 0 instructions: 55000000 cycles: 79721381 heartbeat IPC: 0.736868 cumulative IPC: 0.612504 (Simulation time: 0 hr 33 min 54 sec) 
select_counter is 689
Heartbeat CPU 0 instructions: 56000000 cycles: 81062548 heartbeat IPC: 0.745619 cumulative IPC: 0.61489 (Simulation time: 0 hr 34 min 28 sec) 
select_counter is 515
Heartbeat CPU 0 instructions: 57000000 cycles: 82404472 heartbeat IPC: 0.745199 cumulative IPC: 0.617186 (Simulation time: 0 hr 35 min 2 sec) 
select_counter is 364
Heartbeat CPU 0 instructions: 58000001 cycles: 83691325 heartbeat IPC: 0.77709 cumulative IPC: 0.619844 (Simulation time: 0 hr 35 min 33 sec) 
select_counter is 225
Heartbeat CPU 0 instructions: 59000000 cycles: 84956813 heartbeat IPC: 0.790208 cumulative IPC: 0.622583 (Simulation time: 0 hr 36 min 3 sec) 
select_counter is 99
Heartbeat CPU 0 instructions: 60000000 cycles: 86259484 heartbeat IPC: 0.767654 cumulative IPC: 0.624945 (Simulation time: 0 hr 36 min 39 sec) 
select_counter is 946
Heartbeat CPU 0 instructions: 61000001 cycles: 87569561 heartbeat IPC: 0.763315 cumulative IPC: 0.627174 (Simulation time: 0 hr 37 min 12 sec) 
select_counter is 784
Heartbeat CPU 0 instructions: 62000000 cycles: 88912308 heartbeat IPC: 0.744741 cumulative IPC: 0.629084 (Simulation time: 0 hr 37 min 47 sec) 
select_counter is 663
Heartbeat CPU 0 instructions: 63000000 cycles: 90242684 heartbeat IPC: 0.751667 cumulative IPC: 0.631026 (Simulation time: 0 hr 38 min 22 sec) 
select_counter is 494
Heartbeat CPU 0 instructions: 64000000 cycles: 91574850 heartbeat IPC: 0.750657 cumulative IPC: 0.632893 (Simulation time: 0 hr 38 min 53 sec) 
select_counter is 305
Heartbeat CPU 0 instructions: 65000000 cycles: 92875384 heartbeat IPC: 0.768915 cumulative IPC: 0.634936 (Simulation time: 0 hr 39 min 25 sec) 
select_counter is 176
Heartbeat CPU 0 instructions: 66000000 cycles: 94170744 heartbeat IPC: 0.771986 cumulative IPC: 0.636955 (Simulation time: 0 hr 40 min 0 sec) 
select_counter is 20
Heartbeat CPU 0 instructions: 67000003 cycles: 95468137 heartbeat IPC: 0.770779 cumulative IPC: 0.638901 (Simulation time: 0 hr 40 min 35 sec) 
select_counter is 847
Heartbeat CPU 0 instructions: 68000000 cycles: 96797308 heartbeat IPC: 0.752346 cumulative IPC: 0.640566 (Simulation time: 0 hr 41 min 8 sec) 
select_counter is 683
Heartbeat CPU 0 instructions: 69000000 cycles: 98139721 heartbeat IPC: 0.744927 cumulative IPC: 0.642091 (Simulation time: 0 hr 41 min 41 sec) 
select_counter is 519
Heartbeat CPU 0 instructions: 70000001 cycles: 99455275 heartbeat IPC: 0.760137 cumulative IPC: 0.643757 (Simulation time: 0 hr 42 min 16 sec) 
select_counter is 338
Heartbeat CPU 0 instructions: 71000002 cycles: 100778988 heartbeat IPC: 0.755452 cumulative IPC: 0.645321 (Simulation time: 0 hr 42 min 46 sec) 
select_counter is 197
Heartbeat CPU 0 instructions: 72000000 cycles: 102051285 heartbeat IPC: 0.785978 cumulative IPC: 0.647189 (Simulation time: 0 hr 43 min 18 sec) 
select_counter is 16
Heartbeat CPU 0 instructions: 73000000 cycles: 103347391 heartbeat IPC: 0.771542 cumulative IPC: 0.648849 (Simulation time: 0 hr 43 min 49 sec) 
select_counter is 901
Heartbeat CPU 0 instructions: 74000000 cycles: 104657003 heartbeat IPC: 0.763585 cumulative IPC: 0.650376 (Simulation time: 0 hr 44 min 18 sec) 
select_counter is 701
Heartbeat CPU 0 instructions: 75000002 cycles: 105978849 heartbeat IPC: 0.756519 cumulative IPC: 0.651783 (Simulation time: 0 hr 44 min 49 sec) 
select_counter is 556
Heartbeat CPU 0 instructions: 76000000 cycles: 107331289 heartbeat IPC: 0.739403 cumulative IPC: 0.652956 (Simulation time: 0 hr 45 min 19 sec) 
select_counter is 416
Heartbeat CPU 0 instructions: 77000000 cycles: 108628379 heartbeat IPC: 0.770957 cumulative IPC: 0.654451 (Simulation time: 0 hr 45 min 49 sec) 
select_counter is 338
Heartbeat CPU 0 instructions: 78000003 cycles: 109980393 heartbeat IPC: 0.73964 cumulative IPC: 0.655561 (Simulation time: 0 hr 46 min 20 sec) 
select_counter is 247
Heartbeat CPU 0 instructions: 79000000 cycles: 111463619 heartbeat IPC: 0.674204 cumulative IPC: 0.655824 (Simulation time: 0 hr 46 min 51 sec) 
select_counter is 227
Heartbeat CPU 0 instructions: 80000000 cycles: 113115835 heartbeat IPC: 0.605248 cumulative IPC: 0.655042 (Simulation time: 0 hr 47 min 19 sec) 
select_counter is 447
Heartbeat CPU 0 instructions: 81000002 cycles: 114711088 heartbeat IPC: 0.626861 cumulative IPC: 0.654627 (Simulation time: 0 hr 47 min 47 sec) 
select_counter is 646
Heartbeat CPU 0 instructions: 82000003 cycles: 116341996 heartbeat IPC: 0.613156 cumulative IPC: 0.654013 (Simulation time: 0 hr 48 min 15 sec) 
select_counter is 836
Heartbeat CPU 0 instructions: 83000003 cycles: 117999718 heartbeat IPC: 0.603237 cumulative IPC: 0.65326 (Simulation time: 0 hr 48 min 43 sec) 
select_counter is 1020
Heartbeat CPU 0 instructions: 84000000 cycles: 119617337 heartbeat IPC: 0.618191 cumulative IPC: 0.652759 (Simulation time: 0 hr 49 min 8 sec) 
select_counter is 1023
Heartbeat CPU 0 instructions: 85000001 cycles: 121258678 heartbeat IPC: 0.609259 cumulative IPC: 0.652138 (Simulation time: 0 hr 49 min 31 sec) 
select_counter is 1020
Heartbeat CPU 0 instructions: 86000002 cycles: 122878286 heartbeat IPC: 0.617434 cumulative IPC: 0.651657 (Simulation time: 0 hr 49 min 54 sec) 
select_counter is 1019
Heartbeat CPU 0 instructions: 87000000 cycles: 124514567 heartbeat IPC: 0.611141 cumulative IPC: 0.651096 (Simulation time: 0 hr 50 min 17 sec) 
select_counter is 1000
Heartbeat CPU 0 instructions: 88000000 cycles: 126178041 heartbeat IPC: 0.601152 cumulative IPC: 0.650403 (Simulation time: 0 hr 50 min 38 sec) 
select_counter is 988
Heartbeat CPU 0 instructions: 89000002 cycles: 127803987 heartbeat IPC: 0.615028 cumulative IPC: 0.64993 (Simulation time: 0 hr 51 min 0 sec) 
select_counter is 962
Heartbeat CPU 0 instructions: 90000001 cycles: 129440040 heartbeat IPC: 0.611227 cumulative IPC: 0.649416 (Simulation time: 0 hr 51 min 18 sec) 
select_counter is 945
Heartbeat CPU 0 instructions: 91000003 cycles: 131066680 heartbeat IPC: 0.614765 cumulative IPC: 0.648964 (Simulation time: 0 hr 51 min 36 sec) 
select_counter is 922
Heartbeat CPU 0 instructions: 92000000 cycles: 132709505 heartbeat IPC: 0.608706 cumulative IPC: 0.648441 (Simulation time: 0 hr 51 min 56 sec) 
select_counter is 918
Heartbeat CPU 0 instructions: 93000001 cycles: 134378460 heartbeat IPC: 0.599178 cumulative IPC: 0.6478 (Simulation time: 0 hr 52 min 15 sec) 
select_counter is 906
Heartbeat CPU 0 instructions: 94000003 cycles: 136021410 heartbeat IPC: 0.608662 cumulative IPC: 0.647304 (Simulation time: 0 hr 52 min 33 sec) 
select_counter is 889
Heartbeat CPU 0 instructions: 95000002 cycles: 137723535 heartbeat IPC: 0.5875 cumulative IPC: 0.64653 (Simulation time: 0 hr 52 min 51 sec) 
select_counter is 861
Heartbeat CPU 0 instructions: 96000000 cycles: 139365502 heartbeat IPC: 0.609024 cumulative IPC: 0.646067 (Simulation time: 0 hr 53 min 9 sec) 
select_counter is 846
Heartbeat CPU 0 instructions: 97000003 cycles: 141369567 heartbeat IPC: 0.498987 cumulative IPC: 0.643886 (Simulation time: 0 hr 53 min 28 sec) 
select_counter is 851
Heartbeat CPU 0 instructions: 98000002 cycles: 147090549 heartbeat IPC: 0.174795 cumulative IPC: 0.624831 (Simulation time: 0 hr 54 min 4 sec) 
select_counter is 1022
Heartbeat CPU 0 instructions: 99000000 cycles: 150246828 heartbeat IPC: 0.316828 cumulative IPC: 0.61808 (Simulation time: 0 hr 54 min 32 sec) 
select_counter is 1022
Heartbeat CPU 0 instructions: 100000000 cycles: 151857978 heartbeat IPC: 0.620675 cumulative IPC: 0.618108 (Simulation time: 0 hr 54 min 46 sec) 
select_counter is 1001
Heartbeat CPU 0 instructions: 101000002 cycles: 153123667 heartbeat IPC: 0.790085 cumulative IPC: 0.61959 (Simulation time: 0 hr 54 min 57 sec) 
select_counter is 960
Heartbeat CPU 0 instructions: 102000003 cycles: 154524588 heartbeat IPC: 0.713817 cumulative IPC: 0.620481 (Simulation time: 0 hr 55 min 8 sec) 
select_counter is 1022
Heartbeat CPU 0 instructions: 103000002 cycles: 155978693 heartbeat IPC: 0.687708 cumulative IPC: 0.621134 (Simulation time: 0 hr 55 min 19 sec) 
select_counter is 1022
Heartbeat CPU 0 instructions: 104000000 cycles: 157466792 heartbeat IPC: 0.671997 cumulative IPC: 0.621634 (Simulation time: 0 hr 55 min 30 sec) 
select_counter is 1021
Heartbeat CPU 0 instructions: 105000001 cycles: 159011681 heartbeat IPC: 0.647296 cumulative IPC: 0.621894 (Simulation time: 0 hr 55 min 40 sec) 
select_counter is 1023
Heartbeat CPU 0 instructions: 106000001 cycles: 160564953 heartbeat IPC: 0.643802 cumulative IPC: 0.622114 (Simulation time: 0 hr 55 min 51 sec) 
select_counter is 1023
Heartbeat CPU 0 instructions: 107000001 cycles: 162105857 heartbeat IPC: 0.64897 cumulative IPC: 0.62238 (Simulation time: 0 hr 56 min 2 sec) 
select_counter is 1021
Heartbeat CPU 0 instructions: 108000000 cycles: 163652823 heartbeat IPC: 0.646426 cumulative IPC: 0.622616 (Simulation time: 0 hr 56 min 12 sec) 
select_counter is 1021
Heartbeat CPU 0 instructions: 109000001 cycles: 165143171 heartbeat IPC: 0.670985 cumulative IPC: 0.62307 (Simulation time: 0 hr 56 min 22 sec) 
select_counter is 1019
Heartbeat CPU 0 instructions: 110000001 cycles: 166629481 heartbeat IPC: 0.672807 cumulative IPC: 0.623531 (Simulation time: 0 hr 56 min 31 sec) 
select_counter is 999
Finished CPU 0 instructions: 100000000 cycles: 160377051 cummulative IPC: 0.623531 (Simulation time: 0 hr 56 min 31 sec) 

ChampSim completed all CPUs

Region of Interest Statistics

CPU 0 cummulative IPC: 0.623531 instructions: 100000000 cycles: 160377051
LLC TOTAL     ACCESS:    4605557  HIT:    1060353  MISS:    3545204
LLC LOAD      ACCESS:     464986  HIT:      83920  MISS:     381066
LLC RFO       ACCESS:     743402  HIT:      93982  MISS:     649420
LLC PREFETCH  ACCESS:    2297391  HIT:     313718  MISS:    1983673
LLC WRITEBACK ACCESS:    1099778  HIT:     568733  MISS:     531045
Ship samples: 
19, 33, 87, 122, 129, 171, 221, 251, 283, 306, 339, 374, 387, 443, 462, 497, 531, 564, 597, 632, 670, 679, 733, 767, 768, 808, 844, 877, 917, 934, 983, 996, 1048, 1087, 1101, 1125, 1180, 1197, 1247, 1279, 1294, 1341, 1344, 1377, 1427, 1440, 1480, 1524, 1567, 1575, 1609, 1661, 1677, 1700, 1744, 1789, 1814, 1834, 1863, 1919, 1935, 1956, 1994, 2040, 
Lime duel samples: 
27, 37, 83, 98, 141, 175, 208, 249, 259, 318, 335, 379, 409, 439, 470, 494, 513, 562, 586, 622, 662, 675, 731, 738, 792, 817, 852, 894, 912, 936, 963, 1015, 1034, 1077, 1095, 1141, 1168, 1184, 1246, 1254, 1296, 1331, 1356, 1389, 1417, 1444, 1482, 1514, 1536, 1587, 1612, 1644, 1669, 1706, 1740, 1763, 1822, 1850, 1878, 1899, 1946, 1983, 2007, 2041, 
Lime samples: 
27, 141, 259, 409, 513, 662, 792, 912, 1034, 1168, 1296, 1417, 1536, 1669, 1822, 
Insertion Distribution: 
	LOAD 24343 0 0 0 0 0 8971 75742 
	RFO 263 0 0 0 0 0 4556 124473 
	PREF 0 42889 0 0 0 0 97763 458148 
	WRITEBACK 0 0 0 0 0 0 0 178375 
Total Prefetch Downgrades: 31916
