
*** ChampSim Multicore Out-of-Order Simulator ***

Warmup Instructions: 10000000
Simulation Instructions: 100000000
Configuration: 2
Number of CPUs: 1
LLC sets: 2048
LLC ways: 16
Off-chip DRAM Channels: 1 Width: 64-bit Data Rate: 1600 MT/s

CPU 0 runs /datasets/cs240c-wi22-a00-public/data/Assignment2-gz/gcc_13B.trace.gz
CPU 0 L1D next line prefetcher
CPU 0 L2C IP-based stride prefetcher
Heartbeat CPU 0 instructions: 1000000 cycles: 633309 heartbeat IPC: 1.57901 cumulative IPC: 1.57901 (Simulation time: 0 hr 0 min 32 sec) 
select_counter is 436
Heartbeat CPU 0 instructions: 2000001 cycles: 1243582 heartbeat IPC: 1.63861 cumulative IPC: 1.60826 (Simulation time: 0 hr 1 min 6 sec) 
select_counter is 628
Heartbeat CPU 0 instructions: 3000001 cycles: 1717246 heartbeat IPC: 2.1112 cumulative IPC: 1.74698 (Simulation time: 0 hr 1 min 36 sec) 
select_counter is 614
Heartbeat CPU 0 instructions: 4000000 cycles: 2190632 heartbeat IPC: 2.11244 cumulative IPC: 1.82596 (Simulation time: 0 hr 2 min 7 sec) 
select_counter is 757
Heartbeat CPU 0 instructions: 5000002 cycles: 2664542 heartbeat IPC: 2.11011 cumulative IPC: 1.8765 (Simulation time: 0 hr 2 min 37 sec) 
select_counter is 883
Heartbeat CPU 0 instructions: 6000002 cycles: 3138324 heartbeat IPC: 2.11068 cumulative IPC: 1.91185 (Simulation time: 0 hr 3 min 8 sec) 
select_counter is 1013
Heartbeat CPU 0 instructions: 7000001 cycles: 3613687 heartbeat IPC: 2.10365 cumulative IPC: 1.93708 (Simulation time: 0 hr 3 min 40 sec) 
select_counter is 1019
Heartbeat CPU 0 instructions: 8000000 cycles: 4090358 heartbeat IPC: 2.09788 cumulative IPC: 1.95582 (Simulation time: 0 hr 4 min 12 sec) 
select_counter is 931
Heartbeat CPU 0 instructions: 9000001 cycles: 4831196 heartbeat IPC: 1.34982 cumulative IPC: 1.86289 (Simulation time: 0 hr 4 min 47 sec) 
select_counter is 1022
Heartbeat CPU 0 instructions: 10000001 cycles: 5535658 heartbeat IPC: 1.41952 cumulative IPC: 1.80647 (Simulation time: 0 hr 5 min 23 sec) 
select_counter is 1016

Warmup complete CPU 0 instructions: 10000001 cycles: 5535658 (Simulation time: 0 hr 5 min 23 sec) 

Heartbeat CPU 0 instructions: 11000000 cycles: 12529577 heartbeat IPC: 0.142981 cumulative IPC: 0.142981 (Simulation time: 0 hr 6 min 14 sec) 
select_counter is 982
Heartbeat CPU 0 instructions: 12000000 cycles: 18929936 heartbeat IPC: 0.156241 cumulative IPC: 0.149317 (Simulation time: 0 hr 7 min 2 sec) 
select_counter is 965
Heartbeat CPU 0 instructions: 13000000 cycles: 24938603 heartbeat IPC: 0.166426 cumulative IPC: 0.154616 (Simulation time: 0 hr 7 min 49 sec) 
select_counter is 931
Heartbeat CPU 0 instructions: 14000000 cycles: 30573535 heartbeat IPC: 0.177464 cumulative IPC: 0.159758 (Simulation time: 0 hr 8 min 37 sec) 
select_counter is 984
Heartbeat CPU 0 instructions: 15000000 cycles: 33336420 heartbeat IPC: 0.361941 cumulative IPC: 0.179851 (Simulation time: 0 hr 9 min 21 sec) 
select_counter is 754
Heartbeat CPU 0 instructions: 16000000 cycles: 35460494 heartbeat IPC: 0.470793 cumulative IPC: 0.200502 (Simulation time: 0 hr 9 min 57 sec) 
select_counter is 942
Heartbeat CPU 0 instructions: 17000000 cycles: 37685319 heartbeat IPC: 0.449474 cumulative IPC: 0.217732 (Simulation time: 0 hr 10 min 35 sec) 
select_counter is 949
Heartbeat CPU 0 instructions: 18000002 cycles: 39938266 heartbeat IPC: 0.443864 cumulative IPC: 0.232541 (Simulation time: 0 hr 11 min 11 sec) 
select_counter is 942
Heartbeat CPU 0 instructions: 19000002 cycles: 42236949 heartbeat IPC: 0.435032 cumulative IPC: 0.245223 (Simulation time: 0 hr 11 min 50 sec) 
select_counter is 967
Heartbeat CPU 0 instructions: 20000000 cycles: 44579698 heartbeat IPC: 0.426848 cumulative IPC: 0.256121 (Simulation time: 0 hr 12 min 27 sec) 
select_counter is 977
Heartbeat CPU 0 instructions: 21000001 cycles: 47155647 heartbeat IPC: 0.388207 cumulative IPC: 0.264296 (Simulation time: 0 hr 13 min 4 sec) 
select_counter is 960
Heartbeat CPU 0 instructions: 22000001 cycles: 51665480 heartbeat IPC: 0.221738 cumulative IPC: 0.260135 (Simulation time: 0 hr 13 min 58 sec) 
select_counter is 208
Heartbeat CPU 0 instructions: 23000002 cycles: 58728660 heartbeat IPC: 0.141579 cumulative IPC: 0.244393 (Simulation time: 0 hr 14 min 55 sec) 
select_counter is 144
Heartbeat CPU 0 instructions: 24000000 cycles: 65520784 heartbeat IPC: 0.147229 cumulative IPC: 0.233391 (Simulation time: 0 hr 15 min 45 sec) 
select_counter is 186
Heartbeat CPU 0 instructions: 25000000 cycles: 71718569 heartbeat IPC: 0.161348 cumulative IPC: 0.226645 (Simulation time: 0 hr 16 min 35 sec) 
select_counter is 210
Heartbeat CPU 0 instructions: 26000001 cycles: 77460544 heartbeat IPC: 0.174156 cumulative IPC: 0.222454 (Simulation time: 0 hr 17 min 20 sec) 
select_counter is 180
Heartbeat CPU 0 instructions: 27000000 cycles: 82787002 heartbeat IPC: 0.187742 cumulative IPC: 0.220061 (Simulation time: 0 hr 18 min 6 sec) 
select_counter is 10
Heartbeat CPU 0 instructions: 28000000 cycles: 85289977 heartbeat IPC: 0.399525 cumulative IPC: 0.225693 (Simulation time: 0 hr 18 min 48 sec) 
select_counter is 664
Heartbeat CPU 0 instructions: 29000000 cycles: 87407066 heartbeat IPC: 0.472347 cumulative IPC: 0.232071 (Simulation time: 0 hr 19 min 26 sec) 
select_counter is 508
Heartbeat CPU 0 instructions: 30000001 cycles: 89588768 heartbeat IPC: 0.458358 cumulative IPC: 0.237945 (Simulation time: 0 hr 20 min 2 sec) 
select_counter is 374
Heartbeat CPU 0 instructions: 31000000 cycles: 91807882 heartbeat IPC: 0.45063 cumulative IPC: 0.243416 (Simulation time: 0 hr 20 min 39 sec) 
select_counter is 254
Heartbeat CPU 0 instructions: 32000000 cycles: 94037176 heartbeat IPC: 0.448573 cumulative IPC: 0.248583 (Simulation time: 0 hr 21 min 15 sec) 
select_counter is 179
Heartbeat CPU 0 instructions: 33000000 cycles: 96249214 heartbeat IPC: 0.452072 cumulative IPC: 0.253545 (Simulation time: 0 hr 21 min 53 sec) 
select_counter is 73
Heartbeat CPU 0 instructions: 34000000 cycles: 99136738 heartbeat IPC: 0.346317 cumulative IPC: 0.256407 (Simulation time: 0 hr 22 min 30 sec) 
select_counter is 838
Heartbeat CPU 0 instructions: 35000000 cycles: 113672039 heartbeat IPC: 0.068798 cumulative IPC: 0.23119 (Simulation time: 0 hr 24 min 6 sec) 
select_counter is 1016
Heartbeat CPU 0 instructions: 36000000 cycles: 117528387 heartbeat IPC: 0.259313 cumulative IPC: 0.232158 (Simulation time: 0 hr 24 min 43 sec) 
select_counter is 1021
Heartbeat CPU 0 instructions: 37000003 cycles: 121369626 heartbeat IPC: 0.260333 cumulative IPC: 0.233092 (Simulation time: 0 hr 25 min 17 sec) 
select_counter is 1008
Heartbeat CPU 0 instructions: 38000000 cycles: 125224835 heartbeat IPC: 0.259389 cumulative IPC: 0.233939 (Simulation time: 0 hr 25 min 51 sec) 
select_counter is 1012
Heartbeat CPU 0 instructions: 39000000 cycles: 128995116 heartbeat IPC: 0.265232 cumulative IPC: 0.234895 (Simulation time: 0 hr 26 min 26 sec) 
select_counter is 1022
Heartbeat CPU 0 instructions: 40000000 cycles: 132669222 heartbeat IPC: 0.272175 cumulative IPC: 0.235972 (Simulation time: 0 hr 26 min 59 sec) 
select_counter is 1009
Heartbeat CPU 0 instructions: 41000000 cycles: 136306557 heartbeat IPC: 0.274927 cumulative IPC: 0.237056 (Simulation time: 0 hr 27 min 31 sec) 
select_counter is 1017
Heartbeat CPU 0 instructions: 42000000 cycles: 139971259 heartbeat IPC: 0.272873 cumulative IPC: 0.238032 (Simulation time: 0 hr 28 min 6 sec) 
select_counter is 1021
Heartbeat CPU 0 instructions: 43000002 cycles: 143639550 heartbeat IPC: 0.272607 cumulative IPC: 0.238951 (Simulation time: 0 hr 28 min 39 sec) 
select_counter is 1022
Heartbeat CPU 0 instructions: 44000000 cycles: 147301175 heartbeat IPC: 0.273102 cumulative IPC: 0.239833 (Simulation time: 0 hr 29 min 11 sec) 
select_counter is 1022
Heartbeat CPU 0 instructions: 45000001 cycles: 150929336 heartbeat IPC: 0.275622 cumulative IPC: 0.240726 (Simulation time: 0 hr 29 min 44 sec) 
select_counter is 1015
Heartbeat CPU 0 instructions: 46000001 cycles: 154536019 heartbeat IPC: 0.277263 cumulative IPC: 0.24161 (Simulation time: 0 hr 30 min 17 sec) 
select_counter is 999
Heartbeat CPU 0 instructions: 47000001 cycles: 158127458 heartbeat IPC: 0.27844 cumulative IPC: 0.242477 (Simulation time: 0 hr 30 min 50 sec) 
select_counter is 1019
Heartbeat CPU 0 instructions: 48000000 cycles: 161693771 heartbeat IPC: 0.280401 cumulative IPC: 0.243343 (Simulation time: 0 hr 31 min 24 sec) 
select_counter is 1010
Heartbeat CPU 0 instructions: 49000000 cycles: 165275954 heartbeat IPC: 0.279159 cumulative IPC: 0.244146 (Simulation time: 0 hr 31 min 58 sec) 
select_counter is 1007
Heartbeat CPU 0 instructions: 50000003 cycles: 168855456 heartbeat IPC: 0.279369 cumulative IPC: 0.244918 (Simulation time: 0 hr 32 min 32 sec) 
select_counter is 1006
Heartbeat CPU 0 instructions: 51000001 cycles: 172434834 heartbeat IPC: 0.279378 cumulative IPC: 0.245657 (Simulation time: 0 hr 33 min 6 sec) 
select_counter is 1017
Heartbeat CPU 0 instructions: 52000000 cycles: 176000108 heartbeat IPC: 0.280483 cumulative IPC: 0.246386 (Simulation time: 0 hr 33 min 41 sec) 
select_counter is 1010
Heartbeat CPU 0 instructions: 53000001 cycles: 179581549 heartbeat IPC: 0.279218 cumulative IPC: 0.247061 (Simulation time: 0 hr 34 min 16 sec) 
select_counter is 990
Heartbeat CPU 0 instructions: 54000000 cycles: 183155681 heartbeat IPC: 0.279788 cumulative IPC: 0.24772 (Simulation time: 0 hr 34 min 51 sec) 
select_counter is 996
Heartbeat CPU 0 instructions: 55000000 cycles: 186739547 heartbeat IPC: 0.279028 cumulative IPC: 0.248339 (Simulation time: 0 hr 35 min 27 sec) 
select_counter is 995
Heartbeat CPU 0 instructions: 56000000 cycles: 190312895 heartbeat IPC: 0.27985 cumulative IPC: 0.248948 (Simulation time: 0 hr 36 min 1 sec) 
select_counter is 986
Heartbeat CPU 0 instructions: 57000002 cycles: 193852596 heartbeat IPC: 0.28251 cumulative IPC: 0.249579 (Simulation time: 0 hr 36 min 35 sec) 
select_counter is 973
Heartbeat CPU 0 instructions: 58000001 cycles: 197398036 heartbeat IPC: 0.282052 cumulative IPC: 0.250179 (Simulation time: 0 hr 37 min 12 sec) 
select_counter is 950
Heartbeat CPU 0 instructions: 59000003 cycles: 200915984 heartbeat IPC: 0.284257 cumulative IPC: 0.250793 (Simulation time: 0 hr 37 min 48 sec) 
select_counter is 943
Heartbeat CPU 0 instructions: 60000000 cycles: 204430851 heartbeat IPC: 0.284505 cumulative IPC: 0.251389 (Simulation time: 0 hr 38 min 24 sec) 
select_counter is 942
Heartbeat CPU 0 instructions: 61000000 cycles: 207942031 heartbeat IPC: 0.284805 cumulative IPC: 0.251968 (Simulation time: 0 hr 38 min 59 sec) 
select_counter is 952
Heartbeat CPU 0 instructions: 62000003 cycles: 211449868 heartbeat IPC: 0.285077 cumulative IPC: 0.252532 (Simulation time: 0 hr 39 min 35 sec) 
select_counter is 953
Heartbeat CPU 0 instructions: 63000001 cycles: 214960151 heartbeat IPC: 0.284877 cumulative IPC: 0.253074 (Simulation time: 0 hr 40 min 12 sec) 
select_counter is 922
Heartbeat CPU 0 instructions: 64000000 cycles: 218490597 heartbeat IPC: 0.28325 cumulative IPC: 0.253575 (Simulation time: 0 hr 40 min 45 sec) 
select_counter is 927
Heartbeat CPU 0 instructions: 65000000 cycles: 222061846 heartbeat IPC: 0.280014 cumulative IPC: 0.254011 (Simulation time: 0 hr 41 min 20 sec) 
select_counter is 933
Heartbeat CPU 0 instructions: 66000000 cycles: 225667436 heartbeat IPC: 0.277347 cumulative IPC: 0.254393 (Simulation time: 0 hr 41 min 55 sec) 
select_counter is 920
Heartbeat CPU 0 instructions: 67000001 cycles: 229431889 heartbeat IPC: 0.265643 cumulative IPC: 0.254582 (Simulation time: 0 hr 42 min 34 sec) 
select_counter is 945
Heartbeat CPU 0 instructions: 68000000 cycles: 233215551 heartbeat IPC: 0.264294 cumulative IPC: 0.254744 (Simulation time: 0 hr 43 min 12 sec) 
select_counter is 968
Heartbeat CPU 0 instructions: 69000003 cycles: 236996299 heartbeat IPC: 0.264499 cumulative IPC: 0.254903 (Simulation time: 0 hr 43 min 52 sec) 
select_counter is 989
Heartbeat CPU 0 instructions: 70000000 cycles: 240819915 heartbeat IPC: 0.261532 cumulative IPC: 0.255011 (Simulation time: 0 hr 44 min 29 sec) 
select_counter is 1004
Heartbeat CPU 0 instructions: 71000002 cycles: 244437092 heartbeat IPC: 0.276459 cumulative IPC: 0.255335 (Simulation time: 0 hr 45 min 5 sec) 
select_counter is 1019
Heartbeat CPU 0 instructions: 72000000 cycles: 248031678 heartbeat IPC: 0.278196 cumulative IPC: 0.255674 (Simulation time: 0 hr 45 min 42 sec) 
select_counter is 1006
Heartbeat CPU 0 instructions: 73000003 cycles: 251622108 heartbeat IPC: 0.278519 cumulative IPC: 0.256008 (Simulation time: 0 hr 46 min 18 sec) 
select_counter is 1014
Heartbeat CPU 0 instructions: 74000000 cycles: 255239533 heartbeat IPC: 0.276439 cumulative IPC: 0.256304 (Simulation time: 0 hr 46 min 54 sec) 
select_counter is 1015
Heartbeat CPU 0 instructions: 75000000 cycles: 258857363 heartbeat IPC: 0.276409 cumulative IPC: 0.256591 (Simulation time: 0 hr 47 min 30 sec) 
select_counter is 1012
Heartbeat CPU 0 instructions: 76000000 cycles: 262488791 heartbeat IPC: 0.275374 cumulative IPC: 0.256856 (Simulation time: 0 hr 48 min 4 sec) 
select_counter is 1022
Heartbeat CPU 0 instructions: 77000000 cycles: 266093686 heartbeat IPC: 0.277401 cumulative IPC: 0.25714 (Simulation time: 0 hr 48 min 37 sec) 
select_counter is 1023
Heartbeat CPU 0 instructions: 78000003 cycles: 269645203 heartbeat IPC: 0.281571 cumulative IPC: 0.257469 (Simulation time: 0 hr 49 min 5 sec) 
select_counter is 1015
Heartbeat CPU 0 instructions: 79000000 cycles: 273223817 heartbeat IPC: 0.279437 cumulative IPC: 0.257763 (Simulation time: 0 hr 49 min 33 sec) 
select_counter is 1003
Heartbeat CPU 0 instructions: 80000000 cycles: 276771346 heartbeat IPC: 0.281886 cumulative IPC: 0.258078 (Simulation time: 0 hr 49 min 58 sec) 
select_counter is 1021
Heartbeat CPU 0 instructions: 81000001 cycles: 280305501 heartbeat IPC: 0.282953 cumulative IPC: 0.258398 (Simulation time: 0 hr 50 min 24 sec) 
select_counter is 1008
Heartbeat CPU 0 instructions: 82000000 cycles: 283842592 heartbeat IPC: 0.282718 cumulative IPC: 0.258707 (Simulation time: 0 hr 50 min 49 sec) 
select_counter is 1012
Heartbeat CPU 0 instructions: 83000003 cycles: 287399608 heartbeat IPC: 0.281135 cumulative IPC: 0.25899 (Simulation time: 0 hr 51 min 11 sec) 
select_counter is 1001
Heartbeat CPU 0 instructions: 84000000 cycles: 290938874 heartbeat IPC: 0.282544 cumulative IPC: 0.259282 (Simulation time: 0 hr 51 min 32 sec) 
select_counter is 1014
Heartbeat CPU 0 instructions: 85000000 cycles: 294473113 heartbeat IPC: 0.282946 cumulative IPC: 0.259572 (Simulation time: 0 hr 51 min 55 sec) 
select_counter is 1020
Heartbeat CPU 0 instructions: 86000001 cycles: 298018584 heartbeat IPC: 0.28205 cumulative IPC: 0.259844 (Simulation time: 0 hr 52 min 15 sec) 
select_counter is 1006
Heartbeat CPU 0 instructions: 87000001 cycles: 301570251 heartbeat IPC: 0.281558 cumulative IPC: 0.260105 (Simulation time: 0 hr 52 min 35 sec) 
select_counter is 1001
Heartbeat CPU 0 instructions: 88000000 cycles: 305111244 heartbeat IPC: 0.282406 cumulative IPC: 0.260368 (Simulation time: 0 hr 52 min 56 sec) 
select_counter is 990
Heartbeat CPU 0 instructions: 89000003 cycles: 308650575 heartbeat IPC: 0.28254 cumulative IPC: 0.260627 (Simulation time: 0 hr 53 min 15 sec) 
select_counter is 988
Heartbeat CPU 0 instructions: 90000000 cycles: 312190512 heartbeat IPC: 0.28249 cumulative IPC: 0.26088 (Simulation time: 0 hr 53 min 36 sec) 
select_counter is 968
Heartbeat CPU 0 instructions: 91000000 cycles: 315718788 heartbeat IPC: 0.283425 cumulative IPC: 0.261136 (Simulation time: 0 hr 53 min 55 sec) 
select_counter is 974
Heartbeat CPU 0 instructions: 92000000 cycles: 319230766 heartbeat IPC: 0.28474 cumulative IPC: 0.2614 (Simulation time: 0 hr 54 min 14 sec) 
select_counter is 961
Heartbeat CPU 0 instructions: 93000001 cycles: 322747465 heartbeat IPC: 0.284358 cumulative IPC: 0.261655 (Simulation time: 0 hr 54 min 33 sec) 
select_counter is 941
Heartbeat CPU 0 instructions: 94000003 cycles: 326253042 heartbeat IPC: 0.28526 cumulative IPC: 0.261913 (Simulation time: 0 hr 54 min 50 sec) 
select_counter is 936
Heartbeat CPU 0 instructions: 95000002 cycles: 329765722 heartbeat IPC: 0.284683 cumulative IPC: 0.26216 (Simulation time: 0 hr 55 min 6 sec) 
select_counter is 934
Heartbeat CPU 0 instructions: 96000000 cycles: 333261179 heartbeat IPC: 0.286085 cumulative IPC: 0.262415 (Simulation time: 0 hr 55 min 20 sec) 
select_counter is 945
Heartbeat CPU 0 instructions: 97000000 cycles: 336752849 heartbeat IPC: 0.286396 cumulative IPC: 0.262668 (Simulation time: 0 hr 55 min 33 sec) 
select_counter is 949
Heartbeat CPU 0 instructions: 98000000 cycles: 340238572 heartbeat IPC: 0.286885 cumulative IPC: 0.26292 (Simulation time: 0 hr 55 min 47 sec) 
select_counter is 922
Heartbeat CPU 0 instructions: 99000000 cycles: 343743401 heartbeat IPC: 0.285321 cumulative IPC: 0.263152 (Simulation time: 0 hr 56 min 1 sec) 
select_counter is 923
Heartbeat CPU 0 instructions: 100000000 cycles: 347282212 heartbeat IPC: 0.282581 cumulative IPC: 0.263353 (Simulation time: 0 hr 56 min 14 sec) 
select_counter is 921
Heartbeat CPU 0 instructions: 101000003 cycles: 350796399 heartbeat IPC: 0.284562 cumulative IPC: 0.263569 (Simulation time: 0 hr 56 min 25 sec) 
select_counter is 926
Heartbeat CPU 0 instructions: 102000000 cycles: 354854014 heartbeat IPC: 0.246449 cumulative IPC: 0.26337 (Simulation time: 0 hr 56 min 36 sec) 
select_counter is 935
Heartbeat CPU 0 instructions: 103000002 cycles: 359195610 heartbeat IPC: 0.230331 cumulative IPC: 0.262964 (Simulation time: 0 hr 56 min 45 sec) 
select_counter is 958
Heartbeat CPU 0 instructions: 104000000 cycles: 363304507 heartbeat IPC: 0.243374 cumulative IPC: 0.262739 (Simulation time: 0 hr 56 min 52 sec) 
select_counter is 983
Heartbeat CPU 0 instructions: 105000000 cycles: 367204210 heartbeat IPC: 0.25643 cumulative IPC: 0.262671 (Simulation time: 0 hr 56 min 57 sec) 
select_counter is 990
Heartbeat CPU 0 instructions: 106000002 cycles: 371094562 heartbeat IPC: 0.257047 cumulative IPC: 0.262612 (Simulation time: 0 hr 57 min 2 sec) 
select_counter is 1014
Heartbeat CPU 0 instructions: 107000001 cycles: 375027776 heartbeat IPC: 0.254245 cumulative IPC: 0.262523 (Simulation time: 0 hr 57 min 7 sec) 
select_counter is 1023
Heartbeat CPU 0 instructions: 108000000 cycles: 378839483 heartbeat IPC: 0.262349 cumulative IPC: 0.262521 (Simulation time: 0 hr 57 min 11 sec) 
select_counter is 1007
Heartbeat CPU 0 instructions: 109000000 cycles: 382568766 heartbeat IPC: 0.268148 cumulative IPC: 0.262576 (Simulation time: 0 hr 57 min 16 sec) 
select_counter is 1021
Heartbeat CPU 0 instructions: 110000002 cycles: 386271615 heartbeat IPC: 0.270063 cumulative IPC: 0.262649 (Simulation time: 0 hr 57 min 20 sec) 
select_counter is 1005
Finished CPU 0 instructions: 100000001 cycles: 380735957 cummulative IPC: 0.262649 (Simulation time: 0 hr 57 min 20 sec) 

ChampSim completed all CPUs

Region of Interest Statistics

CPU 0 cummulative IPC: 0.262649 instructions: 100000001 cycles: 380735957
LLC TOTAL     ACCESS:    2541376  HIT:     334694  MISS:    2206682
LLC LOAD      ACCESS:     647666  HIT:      53793  MISS:     593873
LLC RFO       ACCESS:     277983  HIT:      27028  MISS:     250955
LLC PREFETCH  ACCESS:    1132409  HIT:      67542  MISS:    1064867
LLC WRITEBACK ACCESS:     483318  HIT:     186331  MISS:     296987
Ship samples: 
4, 60, 73, 99, 143, 177, 210, 242, 265, 310, 326, 377, 398, 445, 465, 506, 541, 566, 581, 624, 657, 694, 731, 764, 798, 811, 846, 876, 925, 934, 967, 996, 1048, 1067, 1108, 1138, 1180, 1208, 1220, 1263, 1288, 1316, 1344, 1386, 1415, 1457, 1501, 1504, 1537, 1579, 1616, 1657, 1681, 1724, 1753, 1782, 1815, 1837, 1869, 1888, 1928, 1954, 1993, 2047, 
Lime duel samples: 
16, 63, 64, 110, 137, 183, 194, 250, 281, 309, 327, 379, 391, 440, 458, 510, 534, 567, 582, 633, 660, 673, 707, 745, 772, 818, 836, 869, 924, 937, 974, 993, 1029, 1082, 1117, 1147, 1157, 1192, 1233, 1276, 1302, 1332, 1357, 1377, 1417, 1464, 1480, 1526, 1559, 1598, 1629, 1648, 1688, 1706, 1742, 1779, 1805, 1827, 1880, 1911, 1925, 1960, 2014, 2042, 
Lime samples: 
16, 137, 281, 391, 534, 660, 772, 924, 1029, 1157, 1302, 1417, 1559, 1688, 1805, 
Insertion Distribution: 
	LOAD 6898 0 0 0 0 0 15255 149802 
	RFO 3846 0 0 0 0 0 15959 90958 
	PREF 0 2 0 0 0 0 29357 298362 
	WRITEBACK 0 0 0 0 0 0 0 152399 
Total Prefetch Downgrades: 6907
