
*** ChampSim Multicore Out-of-Order Simulator ***

Warmup Instructions: 10000000
Simulation Instructions: 100000000
Configuration: 2
Number of CPUs: 1
LLC sets: 2048
LLC ways: 16
Off-chip DRAM Channels: 1 Width: 64-bit Data Rate: 1600 MT/s

CPU 0 runs /datasets/cs240c-wi22-a00-public/data/Assignment2-gz/omnetpp_340B.trace.gz
CPU 0 L1D next line prefetcher
CPU 0 L2C IP-based stride prefetcher
Heartbeat CPU 0 instructions: 1000001 cycles: 576949 heartbeat IPC: 1.73326 cumulative IPC: 1.73326 (Simulation time: 0 hr 0 min 32 sec) 
select_counter is 524
Heartbeat CPU 0 instructions: 2000000 cycles: 1160878 heartbeat IPC: 1.71254 cumulative IPC: 1.72283 (Simulation time: 0 hr 1 min 7 sec) 
select_counter is 504
Heartbeat CPU 0 instructions: 3000001 cycles: 1758207 heartbeat IPC: 1.67412 cumulative IPC: 1.70628 (Simulation time: 0 hr 1 min 41 sec) 
select_counter is 438
Heartbeat CPU 0 instructions: 4000000 cycles: 2379221 heartbeat IPC: 1.61027 cumulative IPC: 1.68122 (Simulation time: 0 hr 2 min 16 sec) 
select_counter is 449
Heartbeat CPU 0 instructions: 5000002 cycles: 2954565 heartbeat IPC: 1.73809 cumulative IPC: 1.6923 (Simulation time: 0 hr 2 min 51 sec) 
select_counter is 509
Heartbeat CPU 0 instructions: 6000003 cycles: 3556031 heartbeat IPC: 1.66261 cumulative IPC: 1.68728 (Simulation time: 0 hr 3 min 25 sec) 
select_counter is 582
Heartbeat CPU 0 instructions: 7000003 cycles: 4205507 heartbeat IPC: 1.5397 cumulative IPC: 1.66448 (Simulation time: 0 hr 4 min 0 sec) 
select_counter is 616
Heartbeat CPU 0 instructions: 8000000 cycles: 4800198 heartbeat IPC: 1.68154 cumulative IPC: 1.6666 (Simulation time: 0 hr 4 min 34 sec) 
select_counter is 695
Heartbeat CPU 0 instructions: 9000002 cycles: 5433357 heartbeat IPC: 1.57939 cumulative IPC: 1.65643 (Simulation time: 0 hr 5 min 8 sec) 
select_counter is 851
Heartbeat CPU 0 instructions: 10000002 cycles: 6027996 heartbeat IPC: 1.68169 cumulative IPC: 1.65893 (Simulation time: 0 hr 5 min 42 sec) 
select_counter is 901

Warmup complete CPU 0 instructions: 10000002 cycles: 6027996 (Simulation time: 0 hr 5 min 42 sec) 

Heartbeat CPU 0 instructions: 11000000 cycles: 9610566 heartbeat IPC: 0.279129 cumulative IPC: 0.279129 (Simulation time: 0 hr 6 min 26 sec) 
select_counter is 1005
Heartbeat CPU 0 instructions: 12000000 cycles: 13148498 heartbeat IPC: 0.282651 cumulative IPC: 0.280879 (Simulation time: 0 hr 7 min 10 sec) 
select_counter is 911
Heartbeat CPU 0 instructions: 13000000 cycles: 16920627 heartbeat IPC: 0.265102 cumulative IPC: 0.275415 (Simulation time: 0 hr 7 min 56 sec) 
select_counter is 913
Heartbeat CPU 0 instructions: 14000001 cycles: 20743795 heartbeat IPC: 0.261563 cumulative IPC: 0.271817 (Simulation time: 0 hr 8 min 37 sec) 
select_counter is 870
Heartbeat CPU 0 instructions: 15000003 cycles: 24727836 heartbeat IPC: 0.251002 cumulative IPC: 0.267382 (Simulation time: 0 hr 9 min 27 sec) 
select_counter is 751
Heartbeat CPU 0 instructions: 16000000 cycles: 28903282 heartbeat IPC: 0.239495 cumulative IPC: 0.262292 (Simulation time: 0 hr 10 min 13 sec) 
select_counter is 738
Heartbeat CPU 0 instructions: 17000000 cycles: 32656802 heartbeat IPC: 0.266417 cumulative IPC: 0.262873 (Simulation time: 0 hr 10 min 56 sec) 
select_counter is 832
Heartbeat CPU 0 instructions: 18000000 cycles: 36567583 heartbeat IPC: 0.255703 cumulative IPC: 0.261955 (Simulation time: 0 hr 11 min 43 sec) 
select_counter is 836
Heartbeat CPU 0 instructions: 19000000 cycles: 40845381 heartbeat IPC: 0.233765 cumulative IPC: 0.258491 (Simulation time: 0 hr 12 min 29 sec) 
select_counter is 879
Heartbeat CPU 0 instructions: 20000000 cycles: 44945996 heartbeat IPC: 0.243866 cumulative IPC: 0.25695 (Simulation time: 0 hr 13 min 12 sec) 
select_counter is 868
Heartbeat CPU 0 instructions: 21000000 cycles: 48450341 heartbeat IPC: 0.28536 cumulative IPC: 0.259297 (Simulation time: 0 hr 13 min 55 sec) 
select_counter is 762
Heartbeat CPU 0 instructions: 22000001 cycles: 52367459 heartbeat IPC: 0.25529 cumulative IPC: 0.258959 (Simulation time: 0 hr 14 min 41 sec) 
select_counter is 704
Heartbeat CPU 0 instructions: 23000001 cycles: 56155740 heartbeat IPC: 0.263972 cumulative IPC: 0.259337 (Simulation time: 0 hr 15 min 24 sec) 
select_counter is 707
Heartbeat CPU 0 instructions: 24000000 cycles: 59967011 heartbeat IPC: 0.262379 cumulative IPC: 0.259552 (Simulation time: 0 hr 16 min 8 sec) 
select_counter is 653
Heartbeat CPU 0 instructions: 25000000 cycles: 63912807 heartbeat IPC: 0.253434 cumulative IPC: 0.259135 (Simulation time: 0 hr 16 min 53 sec) 
select_counter is 695
Heartbeat CPU 0 instructions: 26000001 cycles: 67876038 heartbeat IPC: 0.25232 cumulative IPC: 0.258699 (Simulation time: 0 hr 17 min 35 sec) 
select_counter is 860
Heartbeat CPU 0 instructions: 27000000 cycles: 71932556 heartbeat IPC: 0.246517 cumulative IPC: 0.257949 (Simulation time: 0 hr 18 min 18 sec) 
select_counter is 867
Heartbeat CPU 0 instructions: 28000000 cycles: 75987838 heartbeat IPC: 0.246592 cumulative IPC: 0.25729 (Simulation time: 0 hr 19 min 4 sec) 
select_counter is 740
Heartbeat CPU 0 instructions: 29000003 cycles: 80059528 heartbeat IPC: 0.245599 cumulative IPC: 0.256647 (Simulation time: 0 hr 19 min 48 sec) 
select_counter is 721
Heartbeat CPU 0 instructions: 30000000 cycles: 83658855 heartbeat IPC: 0.277829 cumulative IPC: 0.257629 (Simulation time: 0 hr 20 min 27 sec) 
select_counter is 753
Heartbeat CPU 0 instructions: 31000000 cycles: 87514272 heartbeat IPC: 0.259375 cumulative IPC: 0.257712 (Simulation time: 0 hr 21 min 10 sec) 
select_counter is 688
Heartbeat CPU 0 instructions: 32000000 cycles: 91238354 heartbeat IPC: 0.268523 cumulative IPC: 0.258185 (Simulation time: 0 hr 21 min 49 sec) 
select_counter is 651
Heartbeat CPU 0 instructions: 33000003 cycles: 94957315 heartbeat IPC: 0.268893 cumulative IPC: 0.258632 (Simulation time: 0 hr 22 min 32 sec) 
select_counter is 598
Heartbeat CPU 0 instructions: 34000001 cycles: 99120343 heartbeat IPC: 0.240209 cumulative IPC: 0.257809 (Simulation time: 0 hr 23 min 16 sec) 
select_counter is 586
Heartbeat CPU 0 instructions: 35000002 cycles: 102662034 heartbeat IPC: 0.282351 cumulative IPC: 0.258708 (Simulation time: 0 hr 23 min 56 sec) 
select_counter is 666
Heartbeat CPU 0 instructions: 36000000 cycles: 106924737 heartbeat IPC: 0.234592 cumulative IPC: 0.257689 (Simulation time: 0 hr 24 min 41 sec) 
select_counter is 745
Heartbeat CPU 0 instructions: 37000000 cycles: 111216351 heartbeat IPC: 0.233013 cumulative IPC: 0.256682 (Simulation time: 0 hr 25 min 26 sec) 
select_counter is 774
Heartbeat CPU 0 instructions: 38000000 cycles: 115000553 heartbeat IPC: 0.264257 cumulative IPC: 0.256945 (Simulation time: 0 hr 26 min 8 sec) 
select_counter is 839
Heartbeat CPU 0 instructions: 39000001 cycles: 119179615 heartbeat IPC: 0.239288 cumulative IPC: 0.256293 (Simulation time: 0 hr 26 min 50 sec) 
select_counter is 824
Heartbeat CPU 0 instructions: 40000000 cycles: 122687291 heartbeat IPC: 0.285089 cumulative IPC: 0.257159 (Simulation time: 0 hr 27 min 29 sec) 
select_counter is 823
Heartbeat CPU 0 instructions: 41000000 cycles: 126321632 heartbeat IPC: 0.275153 cumulative IPC: 0.257703 (Simulation time: 0 hr 28 min 9 sec) 
select_counter is 951
Heartbeat CPU 0 instructions: 42000001 cycles: 130395492 heartbeat IPC: 0.245468 cumulative IPC: 0.257302 (Simulation time: 0 hr 28 min 48 sec) 
select_counter is 996
Heartbeat CPU 0 instructions: 43000001 cycles: 134392726 heartbeat IPC: 0.250173 cumulative IPC: 0.25708 (Simulation time: 0 hr 29 min 29 sec) 
select_counter is 1018
Heartbeat CPU 0 instructions: 44000000 cycles: 138069742 heartbeat IPC: 0.271959 cumulative IPC: 0.257494 (Simulation time: 0 hr 30 min 8 sec) 
select_counter is 1004
Heartbeat CPU 0 instructions: 45000003 cycles: 141993519 heartbeat IPC: 0.254857 cumulative IPC: 0.257418 (Simulation time: 0 hr 30 min 49 sec) 
select_counter is 988
Heartbeat CPU 0 instructions: 46000003 cycles: 146037847 heartbeat IPC: 0.24726 cumulative IPC: 0.257125 (Simulation time: 0 hr 31 min 32 sec) 
select_counter is 995
Heartbeat CPU 0 instructions: 47000000 cycles: 149179746 heartbeat IPC: 0.318278 cumulative IPC: 0.258467 (Simulation time: 0 hr 32 min 11 sec) 
select_counter is 1022
Heartbeat CPU 0 instructions: 48000000 cycles: 153152840 heartbeat IPC: 0.251693 cumulative IPC: 0.258284 (Simulation time: 0 hr 32 min 53 sec) 
select_counter is 1016
Heartbeat CPU 0 instructions: 49000000 cycles: 156182542 heartbeat IPC: 0.330065 cumulative IPC: 0.259732 (Simulation time: 0 hr 33 min 32 sec) 
select_counter is 983
Heartbeat CPU 0 instructions: 50000001 cycles: 160285297 heartbeat IPC: 0.243739 cumulative IPC: 0.259307 (Simulation time: 0 hr 34 min 16 sec) 
select_counter is 966
Heartbeat CPU 0 instructions: 51000003 cycles: 164051635 heartbeat IPC: 0.26551 cumulative IPC: 0.259455 (Simulation time: 0 hr 35 min 2 sec) 
select_counter is 967
Heartbeat CPU 0 instructions: 52000000 cycles: 168080908 heartbeat IPC: 0.248183 cumulative IPC: 0.259175 (Simulation time: 0 hr 35 min 49 sec) 
select_counter is 1015
Heartbeat CPU 0 instructions: 53000000 cycles: 172597181 heartbeat IPC: 0.221422 cumulative IPC: 0.258151 (Simulation time: 0 hr 36 min 35 sec) 
select_counter is 929
Heartbeat CPU 0 instructions: 54000002 cycles: 176671534 heartbeat IPC: 0.245438 cumulative IPC: 0.257847 (Simulation time: 0 hr 37 min 20 sec) 
select_counter is 1023
Heartbeat CPU 0 instructions: 55000001 cycles: 180566724 heartbeat IPC: 0.256727 cumulative IPC: 0.257822 (Simulation time: 0 hr 38 min 6 sec) 
select_counter is 1023
Heartbeat CPU 0 instructions: 56000000 cycles: 184885206 heartbeat IPC: 0.231563 cumulative IPC: 0.257188 (Simulation time: 0 hr 38 min 55 sec) 
select_counter is 974
Heartbeat CPU 0 instructions: 57000001 cycles: 188992316 heartbeat IPC: 0.24348 cumulative IPC: 0.256881 (Simulation time: 0 hr 39 min 38 sec) 
select_counter is 974
Heartbeat CPU 0 instructions: 58000000 cycles: 192355163 heartbeat IPC: 0.297367 cumulative IPC: 0.257611 (Simulation time: 0 hr 40 min 21 sec) 
select_counter is 962
Heartbeat CPU 0 instructions: 59000003 cycles: 196297087 heartbeat IPC: 0.253684 cumulative IPC: 0.25753 (Simulation time: 0 hr 41 min 6 sec) 
select_counter is 950
Heartbeat CPU 0 instructions: 60000000 cycles: 200754600 heartbeat IPC: 0.22434 cumulative IPC: 0.25677 (Simulation time: 0 hr 41 min 54 sec) 
select_counter is 874
Heartbeat CPU 0 instructions: 61000001 cycles: 205142413 heartbeat IPC: 0.227904 cumulative IPC: 0.256134 (Simulation time: 0 hr 42 min 38 sec) 
select_counter is 764
Heartbeat CPU 0 instructions: 62000000 cycles: 209530144 heartbeat IPC: 0.227908 cumulative IPC: 0.255526 (Simulation time: 0 hr 43 min 20 sec) 
select_counter is 664
Heartbeat CPU 0 instructions: 63000001 cycles: 213272248 heartbeat IPC: 0.26723 cumulative IPC: 0.255737 (Simulation time: 0 hr 44 min 0 sec) 
select_counter is 554
Heartbeat CPU 0 instructions: 64000000 cycles: 217141960 heartbeat IPC: 0.258417 cumulative IPC: 0.255786 (Simulation time: 0 hr 44 min 39 sec) 
select_counter is 476
Heartbeat CPU 0 instructions: 65000001 cycles: 220694604 heartbeat IPC: 0.281481 cumulative IPC: 0.256211 (Simulation time: 0 hr 45 min 17 sec) 
select_counter is 441
Heartbeat CPU 0 instructions: 66000002 cycles: 224919108 heartbeat IPC: 0.236714 cumulative IPC: 0.255835 (Simulation time: 0 hr 45 min 58 sec) 
select_counter is 493
Heartbeat CPU 0 instructions: 67000002 cycles: 228815943 heartbeat IPC: 0.256618 cumulative IPC: 0.255849 (Simulation time: 0 hr 46 min 36 sec) 
select_counter is 698
Heartbeat CPU 0 instructions: 68000000 cycles: 232641172 heartbeat IPC: 0.261422 cumulative IPC: 0.255943 (Simulation time: 0 hr 47 min 14 sec) 
select_counter is 738
Heartbeat CPU 0 instructions: 69000000 cycles: 236599479 heartbeat IPC: 0.252633 cumulative IPC: 0.255886 (Simulation time: 0 hr 47 min 55 sec) 
select_counter is 753
Heartbeat CPU 0 instructions: 70000001 cycles: 240044674 heartbeat IPC: 0.29026 cumulative IPC: 0.256392 (Simulation time: 0 hr 48 min 29 sec) 
select_counter is 839
Heartbeat CPU 0 instructions: 71000003 cycles: 243935087 heartbeat IPC: 0.257043 cumulative IPC: 0.256403 (Simulation time: 0 hr 49 min 4 sec) 
select_counter is 920
Heartbeat CPU 0 instructions: 72000000 cycles: 248374260 heartbeat IPC: 0.225267 cumulative IPC: 0.255832 (Simulation time: 0 hr 49 min 38 sec) 
select_counter is 977
Heartbeat CPU 0 instructions: 73000002 cycles: 252387518 heartbeat IPC: 0.249175 cumulative IPC: 0.255724 (Simulation time: 0 hr 50 min 7 sec) 
select_counter is 1016
Heartbeat CPU 0 instructions: 74000000 cycles: 256209736 heartbeat IPC: 0.261628 cumulative IPC: 0.255814 (Simulation time: 0 hr 50 min 36 sec) 
select_counter is 1017
Heartbeat CPU 0 instructions: 75000003 cycles: 260262495 heartbeat IPC: 0.246746 cumulative IPC: 0.255669 (Simulation time: 0 hr 51 min 4 sec) 
select_counter is 975
Heartbeat CPU 0 instructions: 76000000 cycles: 264094783 heartbeat IPC: 0.26094 cumulative IPC: 0.255748 (Simulation time: 0 hr 51 min 29 sec) 
select_counter is 1010
Heartbeat CPU 0 instructions: 77000002 cycles: 268773012 heartbeat IPC: 0.213757 cumulative IPC: 0.255 (Simulation time: 0 hr 51 min 56 sec) 
select_counter is 846
Heartbeat CPU 0 instructions: 78000003 cycles: 272663735 heartbeat IPC: 0.257022 cumulative IPC: 0.25503 (Simulation time: 0 hr 52 min 20 sec) 
select_counter is 681
Heartbeat CPU 0 instructions: 79000002 cycles: 276574451 heartbeat IPC: 0.255707 cumulative IPC: 0.255039 (Simulation time: 0 hr 52 min 43 sec) 
select_counter is 636
Heartbeat CPU 0 instructions: 80000000 cycles: 280422919 heartbeat IPC: 0.259843 cumulative IPC: 0.255107 (Simulation time: 0 hr 53 min 6 sec) 
select_counter is 640
Heartbeat CPU 0 instructions: 81000002 cycles: 284608019 heartbeat IPC: 0.238943 cumulative IPC: 0.254864 (Simulation time: 0 hr 53 min 29 sec) 
select_counter is 703
Heartbeat CPU 0 instructions: 82000000 cycles: 288930403 heartbeat IPC: 0.231353 cumulative IPC: 0.254505 (Simulation time: 0 hr 53 min 51 sec) 
select_counter is 711
Heartbeat CPU 0 instructions: 83000002 cycles: 292676344 heartbeat IPC: 0.266956 cumulative IPC: 0.254667 (Simulation time: 0 hr 54 min 12 sec) 
select_counter is 846
Heartbeat CPU 0 instructions: 84000000 cycles: 296649629 heartbeat IPC: 0.25168 cumulative IPC: 0.254627 (Simulation time: 0 hr 54 min 31 sec) 
select_counter is 888
Heartbeat CPU 0 instructions: 85000000 cycles: 300357829 heartbeat IPC: 0.269673 cumulative IPC: 0.254816 (Simulation time: 0 hr 54 min 49 sec) 
select_counter is 1023
Heartbeat CPU 0 instructions: 86000000 cycles: 304271591 heartbeat IPC: 0.255509 cumulative IPC: 0.254825 (Simulation time: 0 hr 55 min 6 sec) 
select_counter is 1014
Heartbeat CPU 0 instructions: 87000001 cycles: 308090091 heartbeat IPC: 0.261883 cumulative IPC: 0.254914 (Simulation time: 0 hr 55 min 21 sec) 
select_counter is 1008
Heartbeat CPU 0 instructions: 88000000 cycles: 311892039 heartbeat IPC: 0.263023 cumulative IPC: 0.255015 (Simulation time: 0 hr 55 min 36 sec) 
select_counter is 1017
Heartbeat CPU 0 instructions: 89000003 cycles: 315376792 heartbeat IPC: 0.286965 cumulative IPC: 0.255375 (Simulation time: 0 hr 55 min 51 sec) 
select_counter is 1016
Heartbeat CPU 0 instructions: 90000000 cycles: 319201597 heartbeat IPC: 0.26145 cumulative IPC: 0.255449 (Simulation time: 0 hr 56 min 5 sec) 
select_counter is 1022
Heartbeat CPU 0 instructions: 91000001 cycles: 322687063 heartbeat IPC: 0.286906 cumulative IPC: 0.255796 (Simulation time: 0 hr 56 min 19 sec) 
select_counter is 1023
Heartbeat CPU 0 instructions: 92000000 cycles: 326711232 heartbeat IPC: 0.248498 cumulative IPC: 0.255704 (Simulation time: 0 hr 56 min 31 sec) 
select_counter is 1006
Heartbeat CPU 0 instructions: 93000001 cycles: 331169560 heartbeat IPC: 0.2243 cumulative IPC: 0.255273 (Simulation time: 0 hr 56 min 43 sec) 
select_counter is 941
Heartbeat CPU 0 instructions: 94000001 cycles: 334967680 heartbeat IPC: 0.263288 cumulative IPC: 0.255366 (Simulation time: 0 hr 56 min 51 sec) 
select_counter is 961
Heartbeat CPU 0 instructions: 95000000 cycles: 338947067 heartbeat IPC: 0.251295 cumulative IPC: 0.255317 (Simulation time: 0 hr 56 min 58 sec) 
select_counter is 1009
Heartbeat CPU 0 instructions: 96000000 cycles: 343365376 heartbeat IPC: 0.226331 cumulative IPC: 0.254938 (Simulation time: 0 hr 57 min 4 sec) 
select_counter is 1021
Heartbeat CPU 0 instructions: 97000000 cycles: 347027480 heartbeat IPC: 0.273067 cumulative IPC: 0.255132 (Simulation time: 0 hr 57 min 9 sec) 
select_counter is 1014
Heartbeat CPU 0 instructions: 98000000 cycles: 351288216 heartbeat IPC: 0.234701 cumulative IPC: 0.25488 (Simulation time: 0 hr 57 min 15 sec) 
select_counter is 998
Heartbeat CPU 0 instructions: 99000000 cycles: 355654643 heartbeat IPC: 0.22902 cumulative IPC: 0.254557 (Simulation time: 0 hr 57 min 20 sec) 
select_counter is 964
Heartbeat CPU 0 instructions: 100000000 cycles: 359766986 heartbeat IPC: 0.24317 cumulative IPC: 0.254425 (Simulation time: 0 hr 57 min 24 sec) 
select_counter is 1002
Heartbeat CPU 0 instructions: 101000000 cycles: 363743971 heartbeat IPC: 0.251447 cumulative IPC: 0.254392 (Simulation time: 0 hr 57 min 29 sec) 
select_counter is 1016
Heartbeat CPU 0 instructions: 102000003 cycles: 367792961 heartbeat IPC: 0.246976 cumulative IPC: 0.254309 (Simulation time: 0 hr 57 min 33 sec) 
select_counter is 1023
Heartbeat CPU 0 instructions: 103000000 cycles: 371670195 heartbeat IPC: 0.257915 cumulative IPC: 0.254347 (Simulation time: 0 hr 57 min 37 sec) 
select_counter is 1013
Heartbeat CPU 0 instructions: 104000000 cycles: 375457055 heartbeat IPC: 0.264071 cumulative IPC: 0.254447 (Simulation time: 0 hr 57 min 41 sec) 
select_counter is 1017
Heartbeat CPU 0 instructions: 105000003 cycles: 379415657 heartbeat IPC: 0.252615 cumulative IPC: 0.254427 (Simulation time: 0 hr 57 min 45 sec) 
select_counter is 971
Heartbeat CPU 0 instructions: 106000001 cycles: 382959043 heartbeat IPC: 0.282215 cumulative IPC: 0.254689 (Simulation time: 0 hr 57 min 49 sec) 
select_counter is 1002
Heartbeat CPU 0 instructions: 107000000 cycles: 387117659 heartbeat IPC: 0.240464 cumulative IPC: 0.254533 (Simulation time: 0 hr 57 min 54 sec) 
select_counter is 947
Heartbeat CPU 0 instructions: 108000000 cycles: 391180199 heartbeat IPC: 0.246151 cumulative IPC: 0.254445 (Simulation time: 0 hr 57 min 58 sec) 
select_counter is 863
Heartbeat CPU 0 instructions: 109000000 cycles: 395632144 heartbeat IPC: 0.224621 cumulative IPC: 0.254104 (Simulation time: 0 hr 58 min 3 sec) 
select_counter is 841
Heartbeat CPU 0 instructions: 110000000 cycles: 399328112 heartbeat IPC: 0.270565 cumulative IPC: 0.254259 (Simulation time: 0 hr 58 min 7 sec) 
select_counter is 938
Finished CPU 0 instructions: 100000000 cycles: 393300120 cummulative IPC: 0.254259 (Simulation time: 0 hr 58 min 7 sec) 

ChampSim completed all CPUs

Region of Interest Statistics

CPU 0 cummulative IPC: 0.254259 instructions: 100000000 cycles: 393300120
LLC TOTAL     ACCESS:    4309201  HIT:    1357354  MISS:    2951847
LLC LOAD      ACCESS:    1524184  HIT:     443987  MISS:    1080197
LLC RFO       ACCESS:     249554  HIT:      83131  MISS:     166423
LLC PREFETCH  ACCESS:    1529456  HIT:     139836  MISS:    1389620
LLC WRITEBACK ACCESS:    1006007  HIT:     690400  MISS:     315607
Ship samples: 
8, 34, 78, 111, 143, 175, 216, 239, 263, 308, 332, 356, 397, 443, 458, 498, 522, 549, 595, 635, 659, 678, 720, 751, 779, 808, 838, 885, 927, 954, 968, 1021, 1040, 1087, 1094, 1137, 1179, 1185, 1230, 1256, 1298, 1313, 1365, 1385, 1430, 1467, 1487, 1522, 1563, 1570, 1611, 1659, 1675, 1715, 1740, 1779, 1804, 1847, 1867, 1909, 1923, 1953, 1993, 2033, 
Lime duel samples: 
29, 46, 82, 97, 159, 187, 197, 244, 272, 300, 339, 381, 411, 425, 459, 488, 534, 548, 588, 612, 654, 673, 711, 758, 796, 802, 840, 868, 912, 928, 967, 1004, 1043, 1058, 1091, 1146, 1177, 1208, 1228, 1264, 1305, 1329, 1369, 1398, 1428, 1443, 1503, 1528, 1567, 1585, 1601, 1651, 1671, 1724, 1754, 1787, 1822, 1845, 1857, 1888, 1922, 1968, 2002, 2035, 
Lime samples: 
29, 159, 272, 411, 534, 654, 796, 912, 1043, 1177, 1305, 1428, 1567, 1671, 1822, 
Insertion Distribution: 
	LOAD 9846 0 0 0 0 0 23345 66302 
	RFO 3131 0 0 0 0 0 6250 7733 
	PREF 0 1390 0 0 0 0 20733 108700 
	WRITEBACK 0 0 0 0 0 0 0 34320 
Total Prefetch Downgrades: 2646
