
*** ChampSim Multicore Out-of-Order Simulator ***

Warmup Instructions: 10000000
Simulation Instructions: 100000000
Configuration: 2
Number of CPUs: 1
LLC sets: 2048
LLC ways: 16
Off-chip DRAM Channels: 1 Width: 64-bit Data Rate: 1600 MT/s

CPU 0 runs /datasets/cs240c-wi22-a00-public/data/Assignment2-gz/omnetpp_17B.trace.gz
CPU 0 L1D next line prefetcher
CPU 0 L2C IP-based stride prefetcher
Heartbeat CPU 0 instructions: 1000000 cycles: 559567 heartbeat IPC: 1.7871 cumulative IPC: 1.7871 (Simulation time: 0 hr 0 min 25 sec) 
select_counter is 638
Heartbeat CPU 0 instructions: 2000002 cycles: 1133679 heartbeat IPC: 1.74182 cumulative IPC: 1.76417 (Simulation time: 0 hr 0 min 51 sec) 
select_counter is 516
Heartbeat CPU 0 instructions: 3000001 cycles: 1769067 heartbeat IPC: 1.57384 cumulative IPC: 1.69581 (Simulation time: 0 hr 1 min 13 sec) 
select_counter is 564
Heartbeat CPU 0 instructions: 4000000 cycles: 2333883 heartbeat IPC: 1.77049 cumulative IPC: 1.71388 (Simulation time: 0 hr 1 min 38 sec) 
select_counter is 586
Heartbeat CPU 0 instructions: 5000002 cycles: 2892823 heartbeat IPC: 1.7891 cumulative IPC: 1.72842 (Simulation time: 0 hr 2 min 1 sec) 
select_counter is 621
Heartbeat CPU 0 instructions: 6000000 cycles: 3471318 heartbeat IPC: 1.72862 cumulative IPC: 1.72845 (Simulation time: 0 hr 2 min 27 sec) 
select_counter is 458
Heartbeat CPU 0 instructions: 7000000 cycles: 4035590 heartbeat IPC: 1.77219 cumulative IPC: 1.73457 (Simulation time: 0 hr 2 min 54 sec) 
select_counter is 667
Heartbeat CPU 0 instructions: 8000000 cycles: 4697324 heartbeat IPC: 1.51118 cumulative IPC: 1.7031 (Simulation time: 0 hr 3 min 16 sec) 
select_counter is 668
Heartbeat CPU 0 instructions: 9000000 cycles: 5359129 heartbeat IPC: 1.51102 cumulative IPC: 1.67938 (Simulation time: 0 hr 3 min 37 sec) 
select_counter is 669
Heartbeat CPU 0 instructions: 10000001 cycles: 6020698 heartbeat IPC: 1.51156 cumulative IPC: 1.66094 (Simulation time: 0 hr 3 min 58 sec) 
select_counter is 668

Warmup complete CPU 0 instructions: 10000001 cycles: 6020698 (Simulation time: 0 hr 3 min 58 sec) 

Heartbeat CPU 0 instructions: 11000001 cycles: 7065494 heartbeat IPC: 0.957125 cumulative IPC: 0.957125 (Simulation time: 0 hr 4 min 22 sec) 
select_counter is 672
Heartbeat CPU 0 instructions: 12000000 cycles: 8110037 heartbeat IPC: 0.957355 cumulative IPC: 0.95724 (Simulation time: 0 hr 4 min 44 sec) 
select_counter is 674
Heartbeat CPU 0 instructions: 13000000 cycles: 9179949 heartbeat IPC: 0.934656 cumulative IPC: 0.949592 (Simulation time: 0 hr 5 min 7 sec) 
select_counter is 671
Heartbeat CPU 0 instructions: 14000001 cycles: 10224200 heartbeat IPC: 0.957625 cumulative IPC: 0.951587 (Simulation time: 0 hr 5 min 28 sec) 
select_counter is 670
Heartbeat CPU 0 instructions: 15000000 cycles: 11268408 heartbeat IPC: 0.957663 cumulative IPC: 0.952796 (Simulation time: 0 hr 5 min 49 sec) 
select_counter is 670
Heartbeat CPU 0 instructions: 16000000 cycles: 12312445 heartbeat IPC: 0.95782 cumulative IPC: 0.95363 (Simulation time: 0 hr 6 min 11 sec) 
select_counter is 669
Heartbeat CPU 0 instructions: 17000000 cycles: 13357982 heartbeat IPC: 0.956446 cumulative IPC: 0.954031 (Simulation time: 0 hr 6 min 35 sec) 
select_counter is 669
Heartbeat CPU 0 instructions: 18000001 cycles: 14399326 heartbeat IPC: 0.960298 cumulative IPC: 0.95481 (Simulation time: 0 hr 6 min 56 sec) 
select_counter is 668
Heartbeat CPU 0 instructions: 19000002 cycles: 15434136 heartbeat IPC: 0.966362 cumulative IPC: 0.95608 (Simulation time: 0 hr 7 min 22 sec) 
select_counter is 664
Heartbeat CPU 0 instructions: 20000000 cycles: 18715599 heartbeat IPC: 0.304742 cumulative IPC: 0.787718 (Simulation time: 0 hr 7 min 50 sec) 
select_counter is 618
Heartbeat CPU 0 instructions: 21000000 cycles: 21173886 heartbeat IPC: 0.406787 cumulative IPC: 0.72592 (Simulation time: 0 hr 8 min 17 sec) 
select_counter is 414
Heartbeat CPU 0 instructions: 22000002 cycles: 22982074 heartbeat IPC: 0.553041 cumulative IPC: 0.70749 (Simulation time: 0 hr 8 min 41 sec) 
select_counter is 607
Heartbeat CPU 0 instructions: 23000000 cycles: 26206886 heartbeat IPC: 0.310095 cumulative IPC: 0.644005 (Simulation time: 0 hr 9 min 11 sec) 
select_counter is 611
Heartbeat CPU 0 instructions: 24000000 cycles: 29434334 heartbeat IPC: 0.309842 cumulative IPC: 0.597942 (Simulation time: 0 hr 9 min 43 sec) 
select_counter is 595
Heartbeat CPU 0 instructions: 25000001 cycles: 32042168 heartbeat IPC: 0.38346 cumulative IPC: 0.576447 (Simulation time: 0 hr 10 min 12 sec) 
select_counter is 469
Heartbeat CPU 0 instructions: 26000001 cycles: 33687015 heartbeat IPC: 0.607959 cumulative IPC: 0.578321 (Simulation time: 0 hr 10 min 38 sec) 
select_counter is 574
Heartbeat CPU 0 instructions: 27000000 cycles: 36916481 heartbeat IPC: 0.309648 cumulative IPC: 0.550237 (Simulation time: 0 hr 11 min 7 sec) 
select_counter is 566
Heartbeat CPU 0 instructions: 28000000 cycles: 40152044 heartbeat IPC: 0.309065 cumulative IPC: 0.527374 (Simulation time: 0 hr 11 min 38 sec) 
select_counter is 510
Heartbeat CPU 0 instructions: 29000000 cycles: 42922270 heartbeat IPC: 0.360981 cumulative IPC: 0.514883 (Simulation time: 0 hr 12 min 7 sec) 
select_counter is 431
Heartbeat CPU 0 instructions: 30000000 cycles: 44396212 heartbeat IPC: 0.678453 cumulative IPC: 0.521166 (Simulation time: 0 hr 12 min 31 sec) 
select_counter is 435
Heartbeat CPU 0 instructions: 31000000 cycles: 47589973 heartbeat IPC: 0.31311 cumulative IPC: 0.505181 (Simulation time: 0 hr 13 min 4 sec) 
select_counter is 374
Heartbeat CPU 0 instructions: 32000000 cycles: 50794651 heartbeat IPC: 0.312044 cumulative IPC: 0.491357 (Simulation time: 0 hr 13 min 34 sec) 
select_counter is 310
Heartbeat CPU 0 instructions: 33000001 cycles: 53729784 heartbeat IPC: 0.3407 cumulative IPC: 0.482088 (Simulation time: 0 hr 14 min 4 sec) 
select_counter is 240
Heartbeat CPU 0 instructions: 34000000 cycles: 55019943 heartbeat IPC: 0.775097 cumulative IPC: 0.489803 (Simulation time: 0 hr 14 min 29 sec) 
select_counter is 238
Heartbeat CPU 0 instructions: 35000003 cycles: 58216168 heartbeat IPC: 0.31287 cumulative IPC: 0.478969 (Simulation time: 0 hr 14 min 59 sec) 
select_counter is 169
Heartbeat CPU 0 instructions: 36000000 cycles: 61459715 heartbeat IPC: 0.308304 cumulative IPC: 0.468984 (Simulation time: 0 hr 15 min 29 sec) 
select_counter is 91
Heartbeat CPU 0 instructions: 37000001 cycles: 64300116 heartbeat IPC: 0.352063 cumulative IPC: 0.463285 (Simulation time: 0 hr 15 min 59 sec) 
select_counter is 1019
Heartbeat CPU 0 instructions: 38000000 cycles: 65709151 heartbeat IPC: 0.709705 cumulative IPC: 0.469102 (Simulation time: 0 hr 16 min 25 sec) 
select_counter is 1019
Heartbeat CPU 0 instructions: 39000000 cycles: 68972321 heartbeat IPC: 0.30645 cumulative IPC: 0.460671 (Simulation time: 0 hr 16 min 56 sec) 
select_counter is 974
Heartbeat CPU 0 instructions: 40000000 cycles: 72248348 heartbeat IPC: 0.305248 cumulative IPC: 0.452983 (Simulation time: 0 hr 17 min 27 sec) 
select_counter is 926
Heartbeat CPU 0 instructions: 41000002 cycles: 75048494 heartbeat IPC: 0.357125 cumulative IPC: 0.449094 (Simulation time: 0 hr 17 min 56 sec) 
select_counter is 872
Heartbeat CPU 0 instructions: 42000000 cycles: 76561985 heartbeat IPC: 0.660723 cumulative IPC: 0.453635 (Simulation time: 0 hr 18 min 21 sec) 
select_counter is 869
Heartbeat CPU 0 instructions: 43000003 cycles: 81956866 heartbeat IPC: 0.185361 cumulative IPC: 0.434576 (Simulation time: 0 hr 19 min 0 sec) 
select_counter is 785
Heartbeat CPU 0 instructions: 44000000 cycles: 83003600 heartbeat IPC: 0.95535 cumulative IPC: 0.441657 (Simulation time: 0 hr 19 min 22 sec) 
select_counter is 785
Heartbeat CPU 0 instructions: 45000003 cycles: 84046380 heartbeat IPC: 0.958978 cumulative IPC: 0.44857 (Simulation time: 0 hr 19 min 45 sec) 
select_counter is 789
Heartbeat CPU 0 instructions: 46000001 cycles: 85089447 heartbeat IPC: 0.958709 cumulative IPC: 0.4553 (Simulation time: 0 hr 20 min 7 sec) 
select_counter is 787
Heartbeat CPU 0 instructions: 47000001 cycles: 86133982 heartbeat IPC: 0.957364 cumulative IPC: 0.461846 (Simulation time: 0 hr 20 min 30 sec) 
select_counter is 788
Heartbeat CPU 0 instructions: 48000000 cycles: 87177180 heartbeat IPC: 0.95859 cumulative IPC: 0.468231 (Simulation time: 0 hr 20 min 53 sec) 
select_counter is 788
Heartbeat CPU 0 instructions: 49000000 cycles: 88218986 heartbeat IPC: 0.959872 cumulative IPC: 0.474462 (Simulation time: 0 hr 21 min 16 sec) 
select_counter is 790
Heartbeat CPU 0 instructions: 50000000 cycles: 89261774 heartbeat IPC: 0.958968 cumulative IPC: 0.480532 (Simulation time: 0 hr 21 min 39 sec) 
select_counter is 789
Heartbeat CPU 0 instructions: 51000002 cycles: 90304902 heartbeat IPC: 0.958657 cumulative IPC: 0.486449 (Simulation time: 0 hr 22 min 1 sec) 
select_counter is 790
Heartbeat CPU 0 instructions: 52000000 cycles: 91349141 heartbeat IPC: 0.957633 cumulative IPC: 0.492216 (Simulation time: 0 hr 22 min 23 sec) 
select_counter is 790
Heartbeat CPU 0 instructions: 53000001 cycles: 92391613 heartbeat IPC: 0.959259 cumulative IPC: 0.497853 (Simulation time: 0 hr 22 min 46 sec) 
select_counter is 791
Heartbeat CPU 0 instructions: 54000002 cycles: 93459758 heartbeat IPC: 0.936203 cumulative IPC: 0.503208 (Simulation time: 0 hr 23 min 10 sec) 
select_counter is 793
Heartbeat CPU 0 instructions: 55000003 cycles: 94500033 heartbeat IPC: 0.961285 cumulative IPC: 0.508593 (Simulation time: 0 hr 23 min 31 sec) 
select_counter is 791
Heartbeat CPU 0 instructions: 56000000 cycles: 96766952 heartbeat IPC: 0.441126 cumulative IPC: 0.506908 (Simulation time: 0 hr 23 min 56 sec) 
select_counter is 707
Heartbeat CPU 0 instructions: 57000003 cycles: 98812021 heartbeat IPC: 0.488983 cumulative IPC: 0.506513 (Simulation time: 0 hr 24 min 24 sec) 
select_counter is 729
Heartbeat CPU 0 instructions: 58000000 cycles: 102126177 heartbeat IPC: 0.301735 cumulative IPC: 0.499451 (Simulation time: 0 hr 24 min 56 sec) 
select_counter is 659
Heartbeat CPU 0 instructions: 59000003 cycles: 105433349 heartbeat IPC: 0.302374 cumulative IPC: 0.492895 (Simulation time: 0 hr 25 min 26 sec) 
select_counter is 570
Heartbeat CPU 0 instructions: 60000000 cycles: 107848942 heartbeat IPC: 0.413976 cumulative IPC: 0.491023 (Simulation time: 0 hr 25 min 53 sec) 
select_counter is 469
Heartbeat CPU 0 instructions: 61000001 cycles: 109687647 heartbeat IPC: 0.543862 cumulative IPC: 0.49196 (Simulation time: 0 hr 26 min 16 sec) 
select_counter is 493
Heartbeat CPU 0 instructions: 62000001 cycles: 112899262 heartbeat IPC: 0.31137 cumulative IPC: 0.486533 (Simulation time: 0 hr 26 min 44 sec) 
select_counter is 419
Heartbeat CPU 0 instructions: 63000000 cycles: 116114920 heartbeat IPC: 0.310978 cumulative IPC: 0.481406 (Simulation time: 0 hr 27 min 11 sec) 
select_counter is 342
Heartbeat CPU 0 instructions: 64000000 cycles: 118666418 heartbeat IPC: 0.391927 cumulative IPC: 0.479379 (Simulation time: 0 hr 27 min 38 sec) 
select_counter is 240
Heartbeat CPU 0 instructions: 65000000 cycles: 120345139 heartbeat IPC: 0.595692 cumulative IPC: 0.481087 (Simulation time: 0 hr 28 min 1 sec) 
select_counter is 266
Heartbeat CPU 0 instructions: 66000000 cycles: 123552743 heartbeat IPC: 0.311759 cumulative IPC: 0.476466 (Simulation time: 0 hr 28 min 30 sec) 
select_counter is 196
Heartbeat CPU 0 instructions: 67000001 cycles: 126764190 heartbeat IPC: 0.311386 cumulative IPC: 0.472075 (Simulation time: 0 hr 28 min 58 sec) 
select_counter is 133
Heartbeat CPU 0 instructions: 68000000 cycles: 129486615 heartbeat IPC: 0.367319 cumulative IPC: 0.469765 (Simulation time: 0 hr 29 min 24 sec) 
select_counter is 72
Heartbeat CPU 0 instructions: 69000001 cycles: 130994131 heartbeat IPC: 0.663344 cumulative IPC: 0.4721 (Simulation time: 0 hr 29 min 46 sec) 
select_counter is 62
Heartbeat CPU 0 instructions: 70000001 cycles: 134233436 heartbeat IPC: 0.308708 cumulative IPC: 0.467972 (Simulation time: 0 hr 30 min 14 sec) 
select_counter is 1011
Heartbeat CPU 0 instructions: 71000001 cycles: 137526052 heartbeat IPC: 0.30371 cumulative IPC: 0.463859 (Simulation time: 0 hr 30 min 45 sec) 
select_counter is 936
Heartbeat CPU 0 instructions: 72000000 cycles: 140330996 heartbeat IPC: 0.356513 cumulative IPC: 0.461618 (Simulation time: 0 hr 31 min 14 sec) 
select_counter is 866
Heartbeat CPU 0 instructions: 73000000 cycles: 141867685 heartbeat IPC: 0.65075 cumulative IPC: 0.463757 (Simulation time: 0 hr 31 min 37 sec) 
select_counter is 870
Heartbeat CPU 0 instructions: 74000003 cycles: 145163128 heartbeat IPC: 0.30345 cumulative IPC: 0.45996 (Simulation time: 0 hr 32 min 7 sec) 
select_counter is 820
Heartbeat CPU 0 instructions: 75000001 cycles: 148452068 heartbeat IPC: 0.304049 cumulative IPC: 0.45636 (Simulation time: 0 hr 32 min 36 sec) 
select_counter is 754
Heartbeat CPU 0 instructions: 76000000 cycles: 151132329 heartbeat IPC: 0.373098 cumulative IPC: 0.454822 (Simulation time: 0 hr 33 min 5 sec) 
select_counter is 684
Heartbeat CPU 0 instructions: 77000001 cycles: 152765776 heartbeat IPC: 0.612203 cumulative IPC: 0.456574 (Simulation time: 0 hr 33 min 29 sec) 
select_counter is 700
Heartbeat CPU 0 instructions: 78000000 cycles: 156049360 heartbeat IPC: 0.304545 cumulative IPC: 0.453247 (Simulation time: 0 hr 34 min 0 sec) 
select_counter is 662
Heartbeat CPU 0 instructions: 79000000 cycles: 159503687 heartbeat IPC: 0.289492 cumulative IPC: 0.449561 (Simulation time: 0 hr 34 min 32 sec) 
select_counter is 602
Heartbeat CPU 0 instructions: 80000000 cycles: 161363671 heartbeat IPC: 0.537639 cumulative IPC: 0.450616 (Simulation time: 0 hr 34 min 58 sec) 
select_counter is 519
Heartbeat CPU 0 instructions: 81000001 cycles: 163794652 heartbeat IPC: 0.411357 cumulative IPC: 0.450011 (Simulation time: 0 hr 35 min 25 sec) 
select_counter is 550
Heartbeat CPU 0 instructions: 82000000 cycles: 167000026 heartbeat IPC: 0.311976 cumulative IPC: 0.447262 (Simulation time: 0 hr 35 min 54 sec) 
select_counter is 513
Heartbeat CPU 0 instructions: 83000000 cycles: 170204878 heartbeat IPC: 0.312027 cumulative IPC: 0.444623 (Simulation time: 0 hr 36 min 23 sec) 
select_counter is 481
Heartbeat CPU 0 instructions: 84000000 cycles: 172000569 heartbeat IPC: 0.556889 cumulative IPC: 0.445837 (Simulation time: 0 hr 36 min 49 sec) 
select_counter is 413
Heartbeat CPU 0 instructions: 85000003 cycles: 174427870 heartbeat IPC: 0.411981 cumulative IPC: 0.445349 (Simulation time: 0 hr 37 min 16 sec) 
select_counter is 447
Heartbeat CPU 0 instructions: 86000001 cycles: 177643351 heartbeat IPC: 0.310995 cumulative IPC: 0.442832 (Simulation time: 0 hr 37 min 46 sec) 
select_counter is 408
Heartbeat CPU 0 instructions: 87000000 cycles: 180850684 heartbeat IPC: 0.311785 cumulative IPC: 0.440428 (Simulation time: 0 hr 38 min 13 sec) 
select_counter is 378
Heartbeat CPU 0 instructions: 88000000 cycles: 182505252 heartbeat IPC: 0.604387 cumulative IPC: 0.441965 (Simulation time: 0 hr 38 min 41 sec) 
select_counter is 306
Heartbeat CPU 0 instructions: 89000000 cycles: 187138805 heartbeat IPC: 0.215817 cumulative IPC: 0.436179 (Simulation time: 0 hr 39 min 16 sec) 
select_counter is 335
Heartbeat CPU 0 instructions: 90000002 cycles: 188182249 heartbeat IPC: 0.958367 cumulative IPC: 0.439171 (Simulation time: 0 hr 39 min 40 sec) 
select_counter is 339
Heartbeat CPU 0 instructions: 91000001 cycles: 189226457 heartbeat IPC: 0.957663 cumulative IPC: 0.442126 (Simulation time: 0 hr 40 min 3 sec) 
select_counter is 338
Heartbeat CPU 0 instructions: 92000000 cycles: 190270028 heartbeat IPC: 0.958247 cumulative IPC: 0.445049 (Simulation time: 0 hr 40 min 27 sec) 
select_counter is 341
Heartbeat CPU 0 instructions: 93000002 cycles: 191314293 heartbeat IPC: 0.957613 cumulative IPC: 0.447938 (Simulation time: 0 hr 40 min 49 sec) 
select_counter is 340
Heartbeat CPU 0 instructions: 94000001 cycles: 192358121 heartbeat IPC: 0.958011 cumulative IPC: 0.450795 (Simulation time: 0 hr 41 min 11 sec) 
select_counter is 341
Heartbeat CPU 0 instructions: 95000000 cycles: 193402385 heartbeat IPC: 0.957611 cumulative IPC: 0.45362 (Simulation time: 0 hr 41 min 36 sec) 
select_counter is 342
Heartbeat CPU 0 instructions: 96000000 cycles: 194447180 heartbeat IPC: 0.957126 cumulative IPC: 0.456411 (Simulation time: 0 hr 41 min 57 sec) 
select_counter is 342
Heartbeat CPU 0 instructions: 97000002 cycles: 195518032 heartbeat IPC: 0.933838 cumulative IPC: 0.459109 (Simulation time: 0 hr 42 min 20 sec) 
select_counter is 339
Heartbeat CPU 0 instructions: 98000000 cycles: 196563677 heartbeat IPC: 0.956346 cumulative IPC: 0.461838 (Simulation time: 0 hr 42 min 42 sec) 
select_counter is 340
Heartbeat CPU 0 instructions: 99000003 cycles: 197601994 heartbeat IPC: 0.9631 cumulative IPC: 0.464555 (Simulation time: 0 hr 43 min 6 sec) 
select_counter is 340
Heartbeat CPU 0 instructions: 100000000 cycles: 198638448 heartbeat IPC: 0.964825 cumulative IPC: 0.467247 (Simulation time: 0 hr 43 min 28 sec) 
select_counter is 341
Heartbeat CPU 0 instructions: 101000001 cycles: 199679591 heartbeat IPC: 0.960484 cumulative IPC: 0.469898 (Simulation time: 0 hr 43 min 51 sec) 
select_counter is 339
Heartbeat CPU 0 instructions: 102000001 cycles: 202830818 heartbeat IPC: 0.317337 cumulative IPC: 0.467456 (Simulation time: 0 hr 44 min 20 sec) 
select_counter is 278
Heartbeat CPU 0 instructions: 103000001 cycles: 204218015 heartbeat IPC: 0.720878 cumulative IPC: 0.469229 (Simulation time: 0 hr 44 min 43 sec) 
select_counter is 224
Heartbeat CPU 0 instructions: 104000000 cycles: 207119068 heartbeat IPC: 0.344702 cumulative IPC: 0.467433 (Simulation time: 0 hr 45 min 9 sec) 
select_counter is 229
Heartbeat CPU 0 instructions: 105000000 cycles: 210317253 heartbeat IPC: 0.312677 cumulative IPC: 0.46501 (Simulation time: 0 hr 45 min 38 sec) 
select_counter is 183
Heartbeat CPU 0 instructions: 106000000 cycles: 213460527 heartbeat IPC: 0.31814 cumulative IPC: 0.462785 (Simulation time: 0 hr 46 min 7 sec) 
select_counter is 118
Heartbeat CPU 0 instructions: 107000001 cycles: 215001961 heartbeat IPC: 0.648747 cumulative IPC: 0.464156 (Simulation time: 0 hr 46 min 29 sec) 
select_counter is 61
Heartbeat CPU 0 instructions: 108000000 cycles: 217739572 heartbeat IPC: 0.365282 cumulative IPC: 0.462878 (Simulation time: 0 hr 46 min 55 sec) 
select_counter is 66
Heartbeat CPU 0 instructions: 109000000 cycles: 220964726 heartbeat IPC: 0.310063 cumulative IPC: 0.460585 (Simulation time: 0 hr 47 min 23 sec) 
select_counter is 1016
Heartbeat CPU 0 instructions: 110000000 cycles: 224248834 heartbeat IPC: 0.304497 cumulative IPC: 0.458236 (Simulation time: 0 hr 47 min 51 sec) 
select_counter is 959
Finished CPU 0 instructions: 100000003 cycles: 218228141 cummulative IPC: 0.458236 (Simulation time: 0 hr 47 min 51 sec) 

ChampSim completed all CPUs

Region of Interest Statistics

CPU 0 cummulative IPC: 0.458236 instructions: 100000003 cycles: 218228141
LLC TOTAL     ACCESS:    3282859  HIT:    1443810  MISS:    1839049
LLC LOAD      ACCESS:    1560796  HIT:    1294184  MISS:     266612
LLC RFO       ACCESS:       5220  HIT:       2222  MISS:       2998
LLC PREFETCH  ACCESS:    1699995  HIT:     140608  MISS:    1559387
LLC WRITEBACK ACCESS:      16848  HIT:       6796  MISS:      10052
Ship samples: 
13, 47, 68, 102, 133, 185, 210, 244, 285, 307, 322, 374, 388, 429, 462, 494, 518, 572, 603, 608, 664, 672, 716, 764, 780, 818, 840, 883, 925, 955, 972, 994, 1043, 1061, 1101, 1134, 1157, 1203, 1238, 1253, 1295, 1335, 1351, 1376, 1439, 1458, 1503, 1513, 1537, 1593, 1613, 1644, 1683, 1725, 1739, 1790, 1815, 1826, 1882, 1892, 1920, 1968, 2002, 2028, 
Lime duel samples: 
3, 38, 65, 125, 149, 181, 223, 243, 273, 312, 329, 382, 385, 420, 459, 511, 539, 573, 586, 611, 640, 697, 715, 756, 777, 816, 846, 879, 909, 958, 988, 1014, 1034, 1069, 1110, 1125, 1158, 1209, 1241, 1276, 1286, 1332, 1347, 1380, 1413, 1469, 1494, 1532, 1548, 1599, 1606, 1632, 1671, 1701, 1743, 1763, 1823, 1846, 1887, 1891, 1946, 1974, 2015, 2041, 
Lime samples: 
3, 149, 273, 385, 539, 640, 777, 909, 1034, 1158, 1286, 1413, 1548, 1671, 1823, 
Insertion Distribution: 
	LOAD 10485 0 0 0 0 0 18419 115987 
	RFO 0 0 0 0 0 0 329 1068 
	PREF 0 0 0 0 0 0 24971 962747 
	WRITEBACK 0 0 0 0 0 0 0 4035 
Total Prefetch Downgrades: 5115
