
*** ChampSim Multicore Out-of-Order Simulator ***

Warmup Instructions: 10000000
Simulation Instructions: 100000000
Configuration: 2
Number of CPUs: 1
LLC sets: 2048
LLC ways: 16
Off-chip DRAM Channels: 1 Width: 64-bit Data Rate: 1600 MT/s

CPU 0 runs /datasets/cs240c-wi22-a00-public/data/Assignment2-gz/mcf_158B.trace.gz
CPU 0 L1D next line prefetcher
CPU 0 L2C IP-based stride prefetcher
Heartbeat CPU 0 instructions: 1000002 cycles: 512530 heartbeat IPC: 1.95111 cumulative IPC: 1.95111 (Simulation time: 0 hr 0 min 42 sec) 
select_counter is 335
Heartbeat CPU 0 instructions: 2000002 cycles: 1023588 heartbeat IPC: 1.95673 cumulative IPC: 1.95391 (Simulation time: 0 hr 1 min 24 sec) 
select_counter is 933
Heartbeat CPU 0 instructions: 3000000 cycles: 1536002 heartbeat IPC: 1.95154 cumulative IPC: 1.95312 (Simulation time: 0 hr 2 min 5 sec) 
select_counter is 303
Heartbeat CPU 0 instructions: 4000000 cycles: 2047019 heartbeat IPC: 1.95688 cumulative IPC: 1.95406 (Simulation time: 0 hr 2 min 46 sec) 
select_counter is 655
Heartbeat CPU 0 instructions: 5000002 cycles: 2554460 heartbeat IPC: 1.97068 cumulative IPC: 1.95736 (Simulation time: 0 hr 3 min 28 sec) 
select_counter is 879
Heartbeat CPU 0 instructions: 6000001 cycles: 3066982 heartbeat IPC: 1.95113 cumulative IPC: 1.95632 (Simulation time: 0 hr 4 min 9 sec) 
select_counter is 37
Heartbeat CPU 0 instructions: 7000001 cycles: 3576100 heartbeat IPC: 1.96418 cumulative IPC: 1.95744 (Simulation time: 0 hr 4 min 50 sec) 
select_counter is 109
Heartbeat CPU 0 instructions: 8000000 cycles: 4086690 heartbeat IPC: 1.95852 cumulative IPC: 1.95757 (Simulation time: 0 hr 5 min 34 sec) 
select_counter is 141
Heartbeat CPU 0 instructions: 9000000 cycles: 4605825 heartbeat IPC: 1.92628 cumulative IPC: 1.95405 (Simulation time: 0 hr 6 min 16 sec) 
select_counter is 795
Heartbeat CPU 0 instructions: 10000001 cycles: 5145339 heartbeat IPC: 1.85352 cumulative IPC: 1.94351 (Simulation time: 0 hr 6 min 54 sec) 
select_counter is 517

Warmup complete CPU 0 instructions: 10000001 cycles: 5145339 (Simulation time: 0 hr 6 min 54 sec) 

Heartbeat CPU 0 instructions: 11000001 cycles: 14919954 heartbeat IPC: 0.102306 cumulative IPC: 0.102306 (Simulation time: 0 hr 7 min 54 sec) 
select_counter is 734
Heartbeat CPU 0 instructions: 12000000 cycles: 24040159 heartbeat IPC: 0.109647 cumulative IPC: 0.105849 (Simulation time: 0 hr 8 min 47 sec) 
select_counter is 351
Heartbeat CPU 0 instructions: 13000001 cycles: 32651712 heartbeat IPC: 0.116123 cumulative IPC: 0.109066 (Simulation time: 0 hr 9 min 43 sec) 
select_counter is 721
Heartbeat CPU 0 instructions: 14000001 cycles: 40478770 heartbeat IPC: 0.127762 cumulative IPC: 0.113207 (Simulation time: 0 hr 10 min 36 sec) 
select_counter is 193
Heartbeat CPU 0 instructions: 15000000 cycles: 49560456 heartbeat IPC: 0.110112 cumulative IPC: 0.112574 (Simulation time: 0 hr 11 min 32 sec) 
select_counter is 726
Heartbeat CPU 0 instructions: 16000000 cycles: 65831254 heartbeat IPC: 0.0614598 cumulative IPC: 0.0988697 (Simulation time: 0 hr 12 min 54 sec) 
select_counter is 619
Heartbeat CPU 0 instructions: 17000001 cycles: 77409646 heartbeat IPC: 0.0863679 cumulative IPC: 0.0968666 (Simulation time: 0 hr 13 min 57 sec) 
select_counter is 783
Heartbeat CPU 0 instructions: 18000000 cycles: 86229917 heartbeat IPC: 0.113375 cumulative IPC: 0.0986624 (Simulation time: 0 hr 14 min 55 sec) 
select_counter is 95
Heartbeat CPU 0 instructions: 19000001 cycles: 96114479 heartbeat IPC: 0.101168 cumulative IPC: 0.0989347 (Simulation time: 0 hr 15 min 54 sec) 
select_counter is 507
Heartbeat CPU 0 instructions: 20000000 cycles: 104525409 heartbeat IPC: 0.118893 cumulative IPC: 0.100624 (Simulation time: 0 hr 16 min 52 sec) 
select_counter is 142
Heartbeat CPU 0 instructions: 21000000 cycles: 113851476 heartbeat IPC: 0.107226 cumulative IPC: 0.10119 (Simulation time: 0 hr 17 min 43 sec) 
select_counter is 944
Heartbeat CPU 0 instructions: 22000002 cycles: 123280898 heartbeat IPC: 0.106051 cumulative IPC: 0.101578 (Simulation time: 0 hr 18 min 36 sec) 
select_counter is 446
Heartbeat CPU 0 instructions: 23000002 cycles: 133196615 heartbeat IPC: 0.10085 cumulative IPC: 0.101522 (Simulation time: 0 hr 19 min 32 sec) 
select_counter is 959
Heartbeat CPU 0 instructions: 24000000 cycles: 149031947 heartbeat IPC: 0.0631498 cumulative IPC: 0.0972988 (Simulation time: 0 hr 20 min 44 sec) 
select_counter is 870
Heartbeat CPU 0 instructions: 25000000 cycles: 158185300 heartbeat IPC: 0.10925 cumulative IPC: 0.0980136 (Simulation time: 0 hr 21 min 37 sec) 
select_counter is 453
Heartbeat CPU 0 instructions: 26000000 cycles: 165300328 heartbeat IPC: 0.140548 cumulative IPC: 0.0999032 (Simulation time: 0 hr 22 min 25 sec) 
select_counter is 891
Heartbeat CPU 0 instructions: 27000002 cycles: 173061293 heartbeat IPC: 0.12885 cumulative IPC: 0.101241 (Simulation time: 0 hr 23 min 14 sec) 
select_counter is 355
Heartbeat CPU 0 instructions: 28000000 cycles: 188247605 heartbeat IPC: 0.0658486 cumulative IPC: 0.0983057 (Simulation time: 0 hr 24 min 27 sec) 
select_counter is 323
Heartbeat CPU 0 instructions: 29000003 cycles: 196904706 heartbeat IPC: 0.115512 cumulative IPC: 0.0990825 (Simulation time: 0 hr 25 min 19 sec) 
select_counter is 963
Heartbeat CPU 0 instructions: 30000003 cycles: 204436971 heartbeat IPC: 0.132762 cumulative IPC: 0.100355 (Simulation time: 0 hr 26 min 6 sec) 
select_counter is 536
Heartbeat CPU 0 instructions: 31000003 cycles: 212101587 heartbeat IPC: 0.13047 cumulative IPC: 0.101471 (Simulation time: 0 hr 26 min 55 sec) 
select_counter is 205
Heartbeat CPU 0 instructions: 32000000 cycles: 227154213 heartbeat IPC: 0.0664334 cumulative IPC: 0.0990951 (Simulation time: 0 hr 28 min 4 sec) 
select_counter is 451
Heartbeat CPU 0 instructions: 33000000 cycles: 233991314 heartbeat IPC: 0.146261 cumulative IPC: 0.100504 (Simulation time: 0 hr 28 min 50 sec) 
select_counter is 998
Heartbeat CPU 0 instructions: 34000000 cycles: 242345781 heartbeat IPC: 0.119696 cumulative IPC: 0.10118 (Simulation time: 0 hr 29 min 38 sec) 
select_counter is 757
Heartbeat CPU 0 instructions: 35000001 cycles: 250450871 heartbeat IPC: 0.123379 cumulative IPC: 0.101914 (Simulation time: 0 hr 30 min 29 sec) 
select_counter is 97
Heartbeat CPU 0 instructions: 36000000 cycles: 266374400 heartbeat IPC: 0.0628001 cumulative IPC: 0.0995295 (Simulation time: 0 hr 31 min 40 sec) 
select_counter is 293
Heartbeat CPU 0 instructions: 37000001 cycles: 274754872 heartbeat IPC: 0.119325 cumulative IPC: 0.100145 (Simulation time: 0 hr 32 min 32 sec) 
select_counter is 671
Heartbeat CPU 0 instructions: 38000000 cycles: 282295350 heartbeat IPC: 0.132617 cumulative IPC: 0.101028 (Simulation time: 0 hr 33 min 22 sec) 
select_counter is 162
Heartbeat CPU 0 instructions: 39000000 cycles: 289561538 heartbeat IPC: 0.137624 cumulative IPC: 0.101963 (Simulation time: 0 hr 34 min 10 sec) 
select_counter is 807
Heartbeat CPU 0 instructions: 40000000 cycles: 304298126 heartbeat IPC: 0.0678583 cumulative IPC: 0.100283 (Simulation time: 0 hr 35 min 22 sec) 
select_counter is 766
Heartbeat CPU 0 instructions: 41000003 cycles: 314009344 heartbeat IPC: 0.102974 cumulative IPC: 0.100368 (Simulation time: 0 hr 36 min 20 sec) 
select_counter is 442
Heartbeat CPU 0 instructions: 42000000 cycles: 321032673 heartbeat IPC: 0.142382 cumulative IPC: 0.101302 (Simulation time: 0 hr 37 min 9 sec) 
select_counter is 819
Heartbeat CPU 0 instructions: 43000001 cycles: 332173021 heartbeat IPC: 0.0897639 cumulative IPC: 0.100909 (Simulation time: 0 hr 38 min 8 sec) 
select_counter is 573
Heartbeat CPU 0 instructions: 44000000 cycles: 344526126 heartbeat IPC: 0.0809512 cumulative IPC: 0.100182 (Simulation time: 0 hr 39 min 14 sec) 
select_counter is 580
Heartbeat CPU 0 instructions: 45000000 cycles: 350544082 heartbeat IPC: 0.166169 cumulative IPC: 0.101332 (Simulation time: 0 hr 39 min 59 sec) 
select_counter is 947
Heartbeat CPU 0 instructions: 46000002 cycles: 361181444 heartbeat IPC: 0.0940085 cumulative IPC: 0.101113 (Simulation time: 0 hr 40 min 57 sec) 
select_counter is 442
Heartbeat CPU 0 instructions: 47000002 cycles: 373370916 heartbeat IPC: 0.082038 cumulative IPC: 0.100482 (Simulation time: 0 hr 42 min 3 sec) 
select_counter is 388
Heartbeat CPU 0 instructions: 48000000 cycles: 379663857 heartbeat IPC: 0.158908 cumulative IPC: 0.101464 (Simulation time: 0 hr 42 min 47 sec) 
select_counter is 880
Heartbeat CPU 0 instructions: 49000003 cycles: 390272243 heartbeat IPC: 0.0942653 cumulative IPC: 0.101265 (Simulation time: 0 hr 43 min 44 sec) 
select_counter is 490
Heartbeat CPU 0 instructions: 50000000 cycles: 403029253 heartbeat IPC: 0.078388 cumulative IPC: 0.100532 (Simulation time: 0 hr 44 min 48 sec) 
select_counter is 604
Heartbeat CPU 0 instructions: 51000000 cycles: 408878849 heartbeat IPC: 0.170952 cumulative IPC: 0.101552 (Simulation time: 0 hr 45 min 29 sec) 
select_counter is 76
Heartbeat CPU 0 instructions: 52000000 cycles: 418715061 heartbeat IPC: 0.101665 cumulative IPC: 0.101555 (Simulation time: 0 hr 46 min 18 sec) 
select_counter is 878
Heartbeat CPU 0 instructions: 53000000 cycles: 432221622 heartbeat IPC: 0.0740381 cumulative IPC: 0.100685 (Simulation time: 0 hr 47 min 23 sec) 
select_counter is 931
Heartbeat CPU 0 instructions: 54000000 cycles: 438895362 heartbeat IPC: 0.149841 cumulative IPC: 0.101441 (Simulation time: 0 hr 48 min 6 sec) 
select_counter is 431
Heartbeat CPU 0 instructions: 55000000 cycles: 446321009 heartbeat IPC: 0.134668 cumulative IPC: 0.102 (Simulation time: 0 hr 48 min 49 sec) 
select_counter is 974
Heartbeat CPU 0 instructions: 56000000 cycles: 461226041 heartbeat IPC: 0.0670914 cumulative IPC: 0.100859 (Simulation time: 0 hr 49 min 41 sec) 
select_counter is 1010
Heartbeat CPU 0 instructions: 57000001 cycles: 468146147 heartbeat IPC: 0.144507 cumulative IPC: 0.101512 (Simulation time: 0 hr 50 min 13 sec) 
select_counter is 563
Heartbeat CPU 0 instructions: 58000001 cycles: 473955446 heartbeat IPC: 0.172138 cumulative IPC: 0.102387 (Simulation time: 0 hr 50 min 44 sec) 
select_counter is 64
Heartbeat CPU 0 instructions: 59000000 cycles: 490065883 heartbeat IPC: 0.0620715 cumulative IPC: 0.101047 (Simulation time: 0 hr 51 min 28 sec) 
select_counter is 1017
Heartbeat CPU 0 instructions: 60000000 cycles: 497335864 heartbeat IPC: 0.137552 cumulative IPC: 0.101587 (Simulation time: 0 hr 51 min 57 sec) 
select_counter is 509
Heartbeat CPU 0 instructions: 61000000 cycles: 503713594 heartbeat IPC: 0.156796 cumulative IPC: 0.102293 (Simulation time: 0 hr 52 min 23 sec) 
select_counter is 194
Heartbeat CPU 0 instructions: 62000001 cycles: 516172090 heartbeat IPC: 0.0802666 cumulative IPC: 0.101756 (Simulation time: 0 hr 52 min 58 sec) 
select_counter is 1016
Heartbeat CPU 0 instructions: 63000001 cycles: 526771468 heartbeat IPC: 0.0943452 cumulative IPC: 0.101605 (Simulation time: 0 hr 53 min 27 sec) 
select_counter is 592
Heartbeat CPU 0 instructions: 64000000 cycles: 532656643 heartbeat IPC: 0.169918 cumulative IPC: 0.102367 (Simulation time: 0 hr 53 min 51 sec) 
select_counter is 132
Heartbeat CPU 0 instructions: 65000000 cycles: 540371975 heartbeat IPC: 0.129612 cumulative IPC: 0.10276 (Simulation time: 0 hr 54 min 14 sec) 
select_counter is 803
Heartbeat CPU 0 instructions: 66000000 cycles: 555414590 heartbeat IPC: 0.0664778 cumulative IPC: 0.101768 (Simulation time: 0 hr 54 min 47 sec) 
select_counter is 927
Heartbeat CPU 0 instructions: 67000002 cycles: 561858151 heartbeat IPC: 0.155194 cumulative IPC: 0.102387 (Simulation time: 0 hr 55 min 7 sec) 
select_counter is 439
Heartbeat CPU 0 instructions: 68000000 cycles: 567359270 heartbeat IPC: 0.181781 cumulative IPC: 0.103164 (Simulation time: 0 hr 55 min 24 sec) 
select_counter is 1023
Heartbeat CPU 0 instructions: 69000000 cycles: 580903538 heartbeat IPC: 0.073832 cumulative IPC: 0.102474 (Simulation time: 0 hr 55 min 48 sec) 
select_counter is 1014
Heartbeat CPU 0 instructions: 70000000 cycles: 590424771 heartbeat IPC: 0.105028 cumulative IPC: 0.102515 (Simulation time: 0 hr 56 min 8 sec) 
select_counter is 577
Heartbeat CPU 0 instructions: 71000002 cycles: 596060463 heartbeat IPC: 0.177441 cumulative IPC: 0.10323 (Simulation time: 0 hr 56 min 23 sec) 
select_counter is 61
Heartbeat CPU 0 instructions: 72000000 cycles: 604422475 heartbeat IPC: 0.119588 cumulative IPC: 0.103458 (Simulation time: 0 hr 56 min 37 sec) 
select_counter is 543
Heartbeat CPU 0 instructions: 73000000 cycles: 618902062 heartbeat IPC: 0.0690627 cumulative IPC: 0.102647 (Simulation time: 0 hr 56 min 51 sec) 
select_counter is 823
Heartbeat CPU 0 instructions: 74000000 cycles: 625116168 heartbeat IPC: 0.160924 cumulative IPC: 0.103231 (Simulation time: 0 hr 56 min 58 sec) 
select_counter is 124
Heartbeat CPU 0 instructions: 75000001 cycles: 631999772 heartbeat IPC: 0.145273 cumulative IPC: 0.103692 (Simulation time: 0 hr 57 min 4 sec) 
select_counter is 430
Heartbeat CPU 0 instructions: 76000000 cycles: 644110345 heartbeat IPC: 0.0825724 cumulative IPC: 0.103292 (Simulation time: 0 hr 57 min 12 sec) 
select_counter is 254
Heartbeat CPU 0 instructions: 77000000 cycles: 654390357 heartbeat IPC: 0.0972762 cumulative IPC: 0.103197 (Simulation time: 0 hr 57 min 19 sec) 
select_counter is 952
Heartbeat CPU 0 instructions: 78000000 cycles: 661484551 heartbeat IPC: 0.14096 cumulative IPC: 0.103605 (Simulation time: 0 hr 57 min 24 sec) 
select_counter is 382
Heartbeat CPU 0 instructions: 79000003 cycles: 668443514 heartbeat IPC: 0.1437 cumulative IPC: 0.104026 (Simulation time: 0 hr 57 min 29 sec) 
select_counter is 959
Heartbeat CPU 0 instructions: 80000000 cycles: 684195114 heartbeat IPC: 0.0634854 cumulative IPC: 0.103085 (Simulation time: 0 hr 57 min 36 sec) 
select_counter is 930
Heartbeat CPU 0 instructions: 81000001 cycles: 691713908 heartbeat IPC: 0.133 cumulative IPC: 0.103413 (Simulation time: 0 hr 57 min 41 sec) 
select_counter is 266
Heartbeat CPU 0 instructions: 82000001 cycles: 699073587 heartbeat IPC: 0.135875 cumulative IPC: 0.103757 (Simulation time: 0 hr 57 min 46 sec) 
select_counter is 649
Heartbeat CPU 0 instructions: 83000001 cycles: 712006154 heartbeat IPC: 0.0773242 cumulative IPC: 0.103274 (Simulation time: 0 hr 57 min 52 sec) 
select_counter is 412
Heartbeat CPU 0 instructions: 84000000 cycles: 723184969 heartbeat IPC: 0.0894548 cumulative IPC: 0.103058 (Simulation time: 0 hr 57 min 58 sec) 
select_counter is 446
Heartbeat CPU 0 instructions: 85000000 cycles: 729302654 heartbeat IPC: 0.163461 cumulative IPC: 0.103569 (Simulation time: 0 hr 58 min 3 sec) 
select_counter is 934
Heartbeat CPU 0 instructions: 86000000 cycles: 737731756 heartbeat IPC: 0.118637 cumulative IPC: 0.103742 (Simulation time: 0 hr 58 min 8 sec) 
select_counter is 585
Heartbeat CPU 0 instructions: 87000000 cycles: 752952370 heartbeat IPC: 0.0657004 cumulative IPC: 0.102968 (Simulation time: 0 hr 58 min 15 sec) 
select_counter is 860
Heartbeat CPU 0 instructions: 88000000 cycles: 760079448 heartbeat IPC: 0.14031 cumulative IPC: 0.10332 (Simulation time: 0 hr 58 min 20 sec) 
select_counter is 181
Heartbeat CPU 0 instructions: 89000000 cycles: 767585329 heartbeat IPC: 0.133229 cumulative IPC: 0.103615 (Simulation time: 0 hr 58 min 24 sec) 
select_counter is 867
Heartbeat CPU 0 instructions: 90000002 cycles: 781743078 heartbeat IPC: 0.0706328 cumulative IPC: 0.103013 (Simulation time: 0 hr 58 min 31 sec) 
select_counter is 757
Heartbeat CPU 0 instructions: 91000000 cycles: 791332797 heartbeat IPC: 0.104278 cumulative IPC: 0.103029 (Simulation time: 0 hr 58 min 37 sec) 
select_counter is 646
Heartbeat CPU 0 instructions: 92000000 cycles: 797869812 heartbeat IPC: 0.152975 cumulative IPC: 0.103441 (Simulation time: 0 hr 58 min 41 sec) 
select_counter is 61
Heartbeat CPU 0 instructions: 93000003 cycles: 809434794 heartbeat IPC: 0.0864682 cumulative IPC: 0.103197 (Simulation time: 0 hr 58 min 47 sec) 
select_counter is 743
Heartbeat CPU 0 instructions: 94000000 cycles: 821566772 heartbeat IPC: 0.0824265 cumulative IPC: 0.102888 (Simulation time: 0 hr 58 min 53 sec) 
select_counter is 746
Heartbeat CPU 0 instructions: 95000000 cycles: 828159773 heartbeat IPC: 0.151676 cumulative IPC: 0.103279 (Simulation time: 0 hr 58 min 58 sec) 
select_counter is 211
Heartbeat CPU 0 instructions: 96000000 cycles: 836023809 heartbeat IPC: 0.127161 cumulative IPC: 0.103505 (Simulation time: 0 hr 59 min 3 sec) 
select_counter is 782
Heartbeat CPU 0 instructions: 97000003 cycles: 851959121 heartbeat IPC: 0.0627539 cumulative IPC: 0.102738 (Simulation time: 0 hr 59 min 10 sec) 
select_counter is 954
Heartbeat CPU 0 instructions: 98000002 cycles: 859702546 heartbeat IPC: 0.129142 cumulative IPC: 0.102977 (Simulation time: 0 hr 59 min 15 sec) 
select_counter is 421
Heartbeat CPU 0 instructions: 99000000 cycles: 866611876 heartbeat IPC: 0.144732 cumulative IPC: 0.103312 (Simulation time: 0 hr 59 min 20 sec) 
select_counter is 782
Heartbeat CPU 0 instructions: 100000000 cycles: 880432569 heartbeat IPC: 0.0723553 cumulative IPC: 0.102823 (Simulation time: 0 hr 59 min 26 sec) 
select_counter is 557
Heartbeat CPU 0 instructions: 101000000 cycles: 891037372 heartbeat IPC: 0.0942969 cumulative IPC: 0.102721 (Simulation time: 0 hr 59 min 32 sec) 
select_counter is 367
Heartbeat CPU 0 instructions: 102000000 cycles: 898593317 heartbeat IPC: 0.132346 cumulative IPC: 0.102972 (Simulation time: 0 hr 59 min 37 sec) 
select_counter is 636
Heartbeat CPU 0 instructions: 103000001 cycles: 905122089 heartbeat IPC: 0.153168 cumulative IPC: 0.103336 (Simulation time: 0 hr 59 min 42 sec) 
select_counter is 48
Heartbeat CPU 0 instructions: 104000000 cycles: 921570199 heartbeat IPC: 0.0607972 cumulative IPC: 0.102573 (Simulation time: 0 hr 59 min 49 sec) 
select_counter is 993
Heartbeat CPU 0 instructions: 105000000 cycles: 930016026 heartbeat IPC: 0.118402 cumulative IPC: 0.102717 (Simulation time: 0 hr 59 min 54 sec) 
select_counter is 157
Heartbeat CPU 0 instructions: 106000000 cycles: 937774629 heartbeat IPC: 0.128889 cumulative IPC: 0.102935 (Simulation time: 0 hr 59 min 59 sec) 
select_counter is 553
Heartbeat CPU 0 instructions: 107000000 cycles: 947512236 heartbeat IPC: 0.102695 cumulative IPC: 0.102932 (Simulation time: 1 hr 0 min 5 sec) 
select_counter is 129
Heartbeat CPU 0 instructions: 108000000 cycles: 961322468 heartbeat IPC: 0.0724101 cumulative IPC: 0.102491 (Simulation time: 1 hr 0 min 11 sec) 
select_counter is 340
Heartbeat CPU 0 instructions: 109000000 cycles: 968328073 heartbeat IPC: 0.142743 cumulative IPC: 0.102784 (Simulation time: 1 hr 0 min 16 sec) 
select_counter is 840
Heartbeat CPU 0 instructions: 110000000 cycles: 976026040 heartbeat IPC: 0.129904 cumulative IPC: 0.102999 (Simulation time: 1 hr 0 min 21 sec) 
select_counter is 174
Finished CPU 0 instructions: 100000002 cycles: 970880703 cummulative IPC: 0.102999 (Simulation time: 1 hr 0 min 21 sec) 

ChampSim completed all CPUs

Region of Interest Statistics

CPU 0 cummulative IPC: 0.102999 instructions: 100000002 cycles: 970880703
LLC TOTAL     ACCESS:   21079053  HIT:    8704049  MISS:   12375004
LLC LOAD      ACCESS:    9506911  HIT:    5333449  MISS:    4173462
LLC RFO       ACCESS:     164438  HIT:      78445  MISS:      85993
LLC PREFETCH  ACCESS:    9645041  HIT:    2157159  MISS:    7487882
LLC WRITEBACK ACCESS:    1762663  HIT:    1134996  MISS:     627667
Ship samples: 
10, 46, 82, 121, 146, 191, 203, 232, 278, 314, 351, 372, 384, 432, 454, 505, 531, 565, 588, 639, 655, 672, 718, 756, 774, 822, 839, 878, 911, 957, 976, 999, 1026, 1083, 1094, 1127, 1172, 1197, 1219, 1258, 1290, 1327, 1351, 1407, 1414, 1465, 1488, 1522, 1560, 1569, 1601, 1660, 1665, 1717, 1739, 1774, 1792, 1831, 1883, 1919, 1924, 1975, 2009, 2022, 
Lime duel samples: 
17, 42, 69, 100, 138, 190, 217, 233, 280, 299, 326, 379, 395, 446, 456, 489, 528, 552, 581, 623, 653, 696, 721, 747, 779, 809, 838, 870, 909, 936, 962, 1011, 1052, 1079, 1103, 1139, 1182, 1208, 1247, 1249, 1289, 1313, 1362, 1406, 1431, 1469, 1494, 1505, 1554, 1582, 1630, 1640, 1685, 1705, 1732, 1791, 1813, 1853, 1864, 1895, 1921, 1976, 2004, 2026, 
Lime samples: 
17, 138, 280, 395, 528, 653, 779, 909, 1052, 1182, 1289, 1431, 1554, 1685, 1813, 
Insertion Distribution: 
	LOAD 188935 0 0 0 0 0 221145 950011 
	RFO 12889 0 0 0 0 0 8181 10715 
	PREF 0 591411 0 0 0 0 813263 2418425 
	WRITEBACK 0 0 0 0 0 0 0 165393 
Total Prefetch Downgrades: 725345
