
*** ChampSim Multicore Out-of-Order Simulator ***

Warmup Instructions: 10000000
Simulation Instructions: 100000000
Configuration: 2
Number of CPUs: 1
LLC sets: 2048
LLC ways: 16
Off-chip DRAM Channels: 1 Width: 64-bit Data Rate: 1600 MT/s

CPU 0 runs /datasets/cs240c-wi22-a00-public/data/Assignment2-gz/lbm_564B.trace.gz
CPU 0 L1D next line prefetcher
CPU 0 L2C IP-based stride prefetcher
Heartbeat CPU 0 instructions: 1000000 cycles: 390168 heartbeat IPC: 2.563 cumulative IPC: 2.563 (Simulation time: 0 hr 0 min 25 sec) 
select_counter is 568
Heartbeat CPU 0 instructions: 2000003 cycles: 785204 heartbeat IPC: 2.53142 cumulative IPC: 2.54711 (Simulation time: 0 hr 0 min 53 sec) 
select_counter is 979
Heartbeat CPU 0 instructions: 3000002 cycles: 1175399 heartbeat IPC: 2.56282 cumulative IPC: 2.55233 (Simulation time: 0 hr 1 min 19 sec) 
select_counter is 1023
Heartbeat CPU 0 instructions: 4000000 cycles: 1565585 heartbeat IPC: 2.56288 cumulative IPC: 2.55496 (Simulation time: 0 hr 1 min 46 sec) 
select_counter is 1008
Heartbeat CPU 0 instructions: 5000000 cycles: 1960702 heartbeat IPC: 2.5309 cumulative IPC: 2.55011 (Simulation time: 0 hr 2 min 13 sec) 
select_counter is 951
Heartbeat CPU 0 instructions: 6000002 cycles: 2350859 heartbeat IPC: 2.56308 cumulative IPC: 2.55226 (Simulation time: 0 hr 2 min 39 sec) 
select_counter is 967
Heartbeat CPU 0 instructions: 7000001 cycles: 2741120 heartbeat IPC: 2.56239 cumulative IPC: 2.5537 (Simulation time: 0 hr 3 min 5 sec) 
select_counter is 973
Heartbeat CPU 0 instructions: 8000000 cycles: 3136118 heartbeat IPC: 2.53166 cumulative IPC: 2.55092 (Simulation time: 0 hr 3 min 32 sec) 
select_counter is 639
Heartbeat CPU 0 instructions: 9000000 cycles: 3526367 heartbeat IPC: 2.56247 cumulative IPC: 2.5522 (Simulation time: 0 hr 3 min 58 sec) 
select_counter is 770
Heartbeat CPU 0 instructions: 10000002 cycles: 3916513 heartbeat IPC: 2.56315 cumulative IPC: 2.55329 (Simulation time: 0 hr 4 min 25 sec) 
select_counter is 863

Warmup complete CPU 0 instructions: 10000002 cycles: 3916513 (Simulation time: 0 hr 4 min 25 sec) 

Heartbeat CPU 0 instructions: 11000000 cycles: 5310387 heartbeat IPC: 0.717423 cumulative IPC: 0.717423 (Simulation time: 0 hr 5 min 0 sec) 
select_counter is 931
Heartbeat CPU 0 instructions: 12000000 cycles: 6700906 heartbeat IPC: 0.719156 cumulative IPC: 0.718289 (Simulation time: 0 hr 5 min 33 sec) 
select_counter is 1019
Heartbeat CPU 0 instructions: 13000001 cycles: 8088221 heartbeat IPC: 0.720818 cumulative IPC: 0.71913 (Simulation time: 0 hr 6 min 4 sec) 
select_counter is 1023
Heartbeat CPU 0 instructions: 14000001 cycles: 9569935 heartbeat IPC: 0.674894 cumulative IPC: 0.707536 (Simulation time: 0 hr 6 min 36 sec) 
select_counter is 1021
Heartbeat CPU 0 instructions: 15000000 cycles: 10967570 heartbeat IPC: 0.715494 cumulative IPC: 0.709113 (Simulation time: 0 hr 7 min 8 sec) 
select_counter is 1022
Heartbeat CPU 0 instructions: 16000000 cycles: 12326634 heartbeat IPC: 0.735801 cumulative IPC: 0.713426 (Simulation time: 0 hr 7 min 40 sec) 
select_counter is 1021
Heartbeat CPU 0 instructions: 17000000 cycles: 13751556 heartbeat IPC: 0.701793 cumulative IPC: 0.71174 (Simulation time: 0 hr 8 min 11 sec) 
select_counter is 1005
Heartbeat CPU 0 instructions: 18000000 cycles: 15163912 heartbeat IPC: 0.708037 cumulative IPC: 0.711275 (Simulation time: 0 hr 8 min 43 sec) 
select_counter is 1022
Heartbeat CPU 0 instructions: 19000003 cycles: 16454085 heartbeat IPC: 0.775092 cumulative IPC: 0.717842 (Simulation time: 0 hr 9 min 14 sec) 
select_counter is 1019
Heartbeat CPU 0 instructions: 20000000 cycles: 17832274 heartbeat IPC: 0.725588 cumulative IPC: 0.71861 (Simulation time: 0 hr 9 min 46 sec) 
select_counter is 1021
Heartbeat CPU 0 instructions: 21000003 cycles: 19237728 heartbeat IPC: 0.711516 cumulative IPC: 0.717959 (Simulation time: 0 hr 10 min 19 sec) 
select_counter is 1010
Heartbeat CPU 0 instructions: 22000003 cycles: 21160756 heartbeat IPC: 0.520013 cumulative IPC: 0.695884 (Simulation time: 0 hr 10 min 57 sec) 
select_counter is 1008
Heartbeat CPU 0 instructions: 23000001 cycles: 23308317 heartbeat IPC: 0.465644 cumulative IPC: 0.670386 (Simulation time: 0 hr 11 min 37 sec) 
select_counter is 1013
Heartbeat CPU 0 instructions: 24000000 cycles: 30133295 heartbeat IPC: 0.14652 cumulative IPC: 0.534009 (Simulation time: 0 hr 13 min 7 sec) 
select_counter is 1020
Heartbeat CPU 0 instructions: 25000003 cycles: 32639298 heartbeat IPC: 0.399043 cumulative IPC: 0.522234 (Simulation time: 0 hr 13 min 52 sec) 
select_counter is 1021
Heartbeat CPU 0 instructions: 26000002 cycles: 34707282 heartbeat IPC: 0.483562 cumulative IPC: 0.519636 (Simulation time: 0 hr 14 min 33 sec) 
select_counter is 1022
Heartbeat CPU 0 instructions: 27000001 cycles: 36106126 heartbeat IPC: 0.714875 cumulative IPC: 0.528121 (Simulation time: 0 hr 15 min 5 sec) 
select_counter is 671
Heartbeat CPU 0 instructions: 28000000 cycles: 37553787 heartbeat IPC: 0.690769 cumulative IPC: 0.535121 (Simulation time: 0 hr 15 min 36 sec) 
select_counter is 351
Heartbeat CPU 0 instructions: 29000003 cycles: 39030550 heartbeat IPC: 0.677159 cumulative IPC: 0.541094 (Simulation time: 0 hr 16 min 10 sec) 
select_counter is 428
Heartbeat CPU 0 instructions: 30000000 cycles: 40460977 heartbeat IPC: 0.69909 cumulative IPC: 0.547278 (Simulation time: 0 hr 16 min 43 sec) 
select_counter is 560
Heartbeat CPU 0 instructions: 31000000 cycles: 41728120 heartbeat IPC: 0.789177 cumulative IPC: 0.555385 (Simulation time: 0 hr 17 min 11 sec) 
select_counter is 496
Heartbeat CPU 0 instructions: 32000000 cycles: 43095125 heartbeat IPC: 0.731526 cumulative IPC: 0.561531 (Simulation time: 0 hr 17 min 41 sec) 
select_counter is 600
Heartbeat CPU 0 instructions: 33000001 cycles: 44587925 heartbeat IPC: 0.669883 cumulative IPC: 0.565508 (Simulation time: 0 hr 18 min 12 sec) 
select_counter is 567
Heartbeat CPU 0 instructions: 34000001 cycles: 45862606 heartbeat IPC: 0.78451 cumulative IPC: 0.572163 (Simulation time: 0 hr 18 min 41 sec) 
select_counter is 893
Heartbeat CPU 0 instructions: 35000002 cycles: 47276111 heartbeat IPC: 0.707462 cumulative IPC: 0.576574 (Simulation time: 0 hr 19 min 11 sec) 
select_counter is 1023
Heartbeat CPU 0 instructions: 36000000 cycles: 48664581 heartbeat IPC: 0.720216 cumulative IPC: 0.581031 (Simulation time: 0 hr 19 min 44 sec) 
select_counter is 1011
Heartbeat CPU 0 instructions: 37000000 cycles: 50126915 heartbeat IPC: 0.683838 cumulative IPC: 0.584284 (Simulation time: 0 hr 20 min 14 sec) 
select_counter is 1020
Heartbeat CPU 0 instructions: 38000003 cycles: 51465188 heartbeat IPC: 0.747234 cumulative IPC: 0.58887 (Simulation time: 0 hr 20 min 43 sec) 
select_counter is 1023
Heartbeat CPU 0 instructions: 39000002 cycles: 52785185 heartbeat IPC: 0.757577 cumulative IPC: 0.593427 (Simulation time: 0 hr 21 min 12 sec) 
select_counter is 1023
Heartbeat CPU 0 instructions: 40000000 cycles: 54269670 heartbeat IPC: 0.673633 cumulative IPC: 0.595792 (Simulation time: 0 hr 21 min 43 sec) 
select_counter is 980
Heartbeat CPU 0 instructions: 41000000 cycles: 55612394 heartbeat IPC: 0.744755 cumulative IPC: 0.599661 (Simulation time: 0 hr 22 min 13 sec) 
select_counter is 1008
Heartbeat CPU 0 instructions: 42000002 cycles: 56911512 heartbeat IPC: 0.769755 cumulative IPC: 0.603831 (Simulation time: 0 hr 22 min 42 sec) 
select_counter is 1021
Heartbeat CPU 0 instructions: 43000001 cycles: 58332866 heartbeat IPC: 0.703554 cumulative IPC: 0.606435 (Simulation time: 0 hr 23 min 15 sec) 
select_counter is 964
Heartbeat CPU 0 instructions: 44000000 cycles: 59746974 heartbeat IPC: 0.707159 cumulative IPC: 0.608986 (Simulation time: 0 hr 23 min 45 sec) 
select_counter is 1023
Heartbeat CPU 0 instructions: 45000001 cycles: 61087825 heartbeat IPC: 0.745796 cumulative IPC: 0.612195 (Simulation time: 0 hr 24 min 15 sec) 
select_counter is 1020
Heartbeat CPU 0 instructions: 46000002 cycles: 62398936 heartbeat IPC: 0.762713 cumulative IPC: 0.61557 (Simulation time: 0 hr 24 min 47 sec) 
select_counter is 1007
Heartbeat CPU 0 instructions: 47000001 cycles: 63883639 heartbeat IPC: 0.673535 cumulative IPC: 0.617005 (Simulation time: 0 hr 25 min 20 sec) 
select_counter is 979
Heartbeat CPU 0 instructions: 48000000 cycles: 65254342 heartbeat IPC: 0.729552 cumulative IPC: 0.61952 (Simulation time: 0 hr 25 min 50 sec) 
select_counter is 1019
Heartbeat CPU 0 instructions: 49000001 cycles: 66580632 heartbeat IPC: 0.753984 cumulative IPC: 0.622366 (Simulation time: 0 hr 26 min 22 sec) 
select_counter is 1017
Heartbeat CPU 0 instructions: 50000001 cycles: 68009557 heartbeat IPC: 0.699827 cumulative IPC: 0.624093 (Simulation time: 0 hr 26 min 54 sec) 
select_counter is 1012
Heartbeat CPU 0 instructions: 51000002 cycles: 69395350 heartbeat IPC: 0.721609 cumulative IPC: 0.626157 (Simulation time: 0 hr 27 min 26 sec) 
select_counter is 1016
Heartbeat CPU 0 instructions: 52000000 cycles: 70754712 heartbeat IPC: 0.735638 cumulative IPC: 0.628383 (Simulation time: 0 hr 27 min 57 sec) 
select_counter is 1022
Heartbeat CPU 0 instructions: 53000001 cycles: 72134988 heartbeat IPC: 0.724494 cumulative IPC: 0.630328 (Simulation time: 0 hr 28 min 30 sec) 
select_counter is 1021
Heartbeat CPU 0 instructions: 54000001 cycles: 73563977 heartbeat IPC: 0.699795 cumulative IPC: 0.631753 (Simulation time: 0 hr 29 min 3 sec) 
select_counter is 1001
Heartbeat CPU 0 instructions: 55000003 cycles: 74941700 heartbeat IPC: 0.725837 cumulative IPC: 0.633578 (Simulation time: 0 hr 29 min 35 sec) 
select_counter is 1012
Heartbeat CPU 0 instructions: 56000000 cycles: 76295413 heartbeat IPC: 0.738707 cumulative IPC: 0.635544 (Simulation time: 0 hr 30 min 7 sec) 
select_counter is 1022
Heartbeat CPU 0 instructions: 57000001 cycles: 77666160 heartbeat IPC: 0.72953 cumulative IPC: 0.637291 (Simulation time: 0 hr 30 min 37 sec) 
select_counter is 1019
Heartbeat CPU 0 instructions: 58000002 cycles: 79102834 heartbeat IPC: 0.696053 cumulative IPC: 0.638414 (Simulation time: 0 hr 31 min 8 sec) 
select_counter is 997
Heartbeat CPU 0 instructions: 59000001 cycles: 80472292 heartbeat IPC: 0.730215 cumulative IPC: 0.640056 (Simulation time: 0 hr 31 min 39 sec) 
select_counter is 1022
Heartbeat CPU 0 instructions: 60000000 cycles: 81869006 heartbeat IPC: 0.715965 cumulative IPC: 0.641416 (Simulation time: 0 hr 32 min 7 sec) 
select_counter is 1022
Heartbeat CPU 0 instructions: 61000003 cycles: 83318804 heartbeat IPC: 0.689753 cumulative IPC: 0.642299 (Simulation time: 0 hr 32 min 37 sec) 
select_counter is 1016
Heartbeat CPU 0 instructions: 62000003 cycles: 84720493 heartbeat IPC: 0.713425 cumulative IPC: 0.643533 (Simulation time: 0 hr 33 min 8 sec) 
select_counter is 1014
Heartbeat CPU 0 instructions: 63000000 cycles: 86186338 heartbeat IPC: 0.682198 cumulative IPC: 0.644222 (Simulation time: 0 hr 33 min 37 sec) 
select_counter is 1022
Heartbeat CPU 0 instructions: 64000000 cycles: 87619852 heartbeat IPC: 0.697586 cumulative IPC: 0.645136 (Simulation time: 0 hr 34 min 6 sec) 
select_counter is 1013
Heartbeat CPU 0 instructions: 65000003 cycles: 89040091 heartbeat IPC: 0.704109 cumulative IPC: 0.646119 (Simulation time: 0 hr 34 min 36 sec) 
select_counter is 1005
Heartbeat CPU 0 instructions: 66000001 cycles: 90390350 heartbeat IPC: 0.740597 cumulative IPC: 0.647595 (Simulation time: 0 hr 35 min 3 sec) 
select_counter is 1016
Heartbeat CPU 0 instructions: 67000001 cycles: 91842306 heartbeat IPC: 0.688726 cumulative IPC: 0.648274 (Simulation time: 0 hr 35 min 36 sec) 
select_counter is 1023
Heartbeat CPU 0 instructions: 68000000 cycles: 93342748 heartbeat IPC: 0.66647 cumulative IPC: 0.648579 (Simulation time: 0 hr 36 min 7 sec) 
select_counter is 1015
Heartbeat CPU 0 instructions: 69000003 cycles: 94687202 heartbeat IPC: 0.743799 cumulative IPC: 0.64999 (Simulation time: 0 hr 36 min 36 sec) 
select_counter is 992
Heartbeat CPU 0 instructions: 70000003 cycles: 96096122 heartbeat IPC: 0.709764 cumulative IPC: 0.650903 (Simulation time: 0 hr 37 min 6 sec) 
select_counter is 1021
Heartbeat CPU 0 instructions: 71000000 cycles: 97632011 heartbeat IPC: 0.651087 cumulative IPC: 0.650906 (Simulation time: 0 hr 37 min 36 sec) 
select_counter is 1023
Heartbeat CPU 0 instructions: 72000000 cycles: 98999010 heartbeat IPC: 0.731529 cumulative IPC: 0.652065 (Simulation time: 0 hr 38 min 6 sec) 
select_counter is 1022
Heartbeat CPU 0 instructions: 73000003 cycles: 100415728 heartbeat IPC: 0.705859 cumulative IPC: 0.652855 (Simulation time: 0 hr 38 min 37 sec) 
select_counter is 1016
Heartbeat CPU 0 instructions: 74000002 cycles: 101951797 heartbeat IPC: 0.651012 cumulative IPC: 0.652826 (Simulation time: 0 hr 39 min 10 sec) 
select_counter is 1023
Heartbeat CPU 0 instructions: 75000002 cycles: 103349736 heartbeat IPC: 0.715339 cumulative IPC: 0.653705 (Simulation time: 0 hr 39 min 38 sec) 
select_counter is 1023
Heartbeat CPU 0 instructions: 76000000 cycles: 104845112 heartbeat IPC: 0.668727 cumulative IPC: 0.653928 (Simulation time: 0 hr 40 min 8 sec) 
select_counter is 1019
Heartbeat CPU 0 instructions: 77000001 cycles: 106385526 heartbeat IPC: 0.649177 cumulative IPC: 0.653856 (Simulation time: 0 hr 40 min 39 sec) 
select_counter is 1022
Heartbeat CPU 0 instructions: 78000002 cycles: 107757012 heartbeat IPC: 0.729137 cumulative IPC: 0.65485 (Simulation time: 0 hr 41 min 8 sec) 
select_counter is 1017
Heartbeat CPU 0 instructions: 79000000 cycles: 109198207 heartbeat IPC: 0.693867 cumulative IPC: 0.655385 (Simulation time: 0 hr 41 min 38 sec) 
select_counter is 1023
Heartbeat CPU 0 instructions: 80000000 cycles: 110797348 heartbeat IPC: 0.625336 cumulative IPC: 0.654935 (Simulation time: 0 hr 42 min 9 sec) 
select_counter is 1017
Heartbeat CPU 0 instructions: 81000003 cycles: 112162937 heartbeat IPC: 0.732287 cumulative IPC: 0.655911 (Simulation time: 0 hr 42 min 41 sec) 
select_counter is 1018
Heartbeat CPU 0 instructions: 82000001 cycles: 113602645 heartbeat IPC: 0.694584 cumulative IPC: 0.656418 (Simulation time: 0 hr 43 min 10 sec) 
select_counter is 1019
Heartbeat CPU 0 instructions: 83000001 cycles: 115163311 heartbeat IPC: 0.640752 cumulative IPC: 0.656199 (Simulation time: 0 hr 43 min 38 sec) 
select_counter is 1021
Heartbeat CPU 0 instructions: 84000000 cycles: 116624610 heartbeat IPC: 0.684322 cumulative IPC: 0.656563 (Simulation time: 0 hr 44 min 7 sec) 
select_counter is 1021
Heartbeat CPU 0 instructions: 85000002 cycles: 117989834 heartbeat IPC: 0.732482 cumulative IPC: 0.657472 (Simulation time: 0 hr 44 min 34 sec) 
select_counter is 1020
Heartbeat CPU 0 instructions: 86000001 cycles: 119617014 heartbeat IPC: 0.61456 cumulative IPC: 0.656868 (Simulation time: 0 hr 45 min 3 sec) 
select_counter is 1022
Heartbeat CPU 0 instructions: 87000003 cycles: 121062723 heartbeat IPC: 0.691703 cumulative IPC: 0.657298 (Simulation time: 0 hr 45 min 29 sec) 
select_counter is 1020
Heartbeat CPU 0 instructions: 88000000 cycles: 122399846 heartbeat IPC: 0.747872 cumulative IPC: 0.65832 (Simulation time: 0 hr 45 min 55 sec) 
select_counter is 1022
Heartbeat CPU 0 instructions: 89000003 cycles: 123981441 heartbeat IPC: 0.632275 cumulative IPC: 0.657977 (Simulation time: 0 hr 46 min 23 sec) 
select_counter is 1023
Heartbeat CPU 0 instructions: 90000001 cycles: 125474432 heartbeat IPC: 0.669795 cumulative IPC: 0.658122 (Simulation time: 0 hr 46 min 51 sec) 
select_counter is 1009
Heartbeat CPU 0 instructions: 91000000 cycles: 126810711 heartbeat IPC: 0.748346 cumulative IPC: 0.659104 (Simulation time: 0 hr 47 min 17 sec) 
select_counter is 1023
Heartbeat CPU 0 instructions: 92000000 cycles: 128426445 heartbeat IPC: 0.618914 cumulative IPC: 0.658582 (Simulation time: 0 hr 47 min 46 sec) 
select_counter is 1020
Heartbeat CPU 0 instructions: 93000003 cycles: 129955898 heartbeat IPC: 0.65383 cumulative IPC: 0.658524 (Simulation time: 0 hr 48 min 11 sec) 
select_counter is 1022
Heartbeat CPU 0 instructions: 94000002 cycles: 131273301 heartbeat IPC: 0.759068 cumulative IPC: 0.659564 (Simulation time: 0 hr 48 min 35 sec) 
select_counter is 1021
Heartbeat CPU 0 instructions: 95000001 cycles: 132847100 heartbeat IPC: 0.635405 cumulative IPC: 0.659269 (Simulation time: 0 hr 49 min 0 sec) 
select_counter is 1019
Heartbeat CPU 0 instructions: 96000000 cycles: 134397365 heartbeat IPC: 0.64505 cumulative IPC: 0.659101 (Simulation time: 0 hr 49 min 21 sec) 
select_counter is 1018
Heartbeat CPU 0 instructions: 97000002 cycles: 135736966 heartbeat IPC: 0.746492 cumulative IPC: 0.659989 (Simulation time: 0 hr 49 min 42 sec) 
select_counter is 1022
Heartbeat CPU 0 instructions: 98000000 cycles: 137334622 heartbeat IPC: 0.625916 cumulative IPC: 0.659581 (Simulation time: 0 hr 50 min 2 sec) 
select_counter is 1022
Heartbeat CPU 0 instructions: 99000001 cycles: 138872747 heartbeat IPC: 0.650143 cumulative IPC: 0.659473 (Simulation time: 0 hr 50 min 21 sec) 
select_counter is 1020
Heartbeat CPU 0 instructions: 100000000 cycles: 140235489 heartbeat IPC: 0.733814 cumulative IPC: 0.660216 (Simulation time: 0 hr 50 min 38 sec) 
select_counter is 1023
Heartbeat CPU 0 instructions: 101000002 cycles: 141829450 heartbeat IPC: 0.627369 cumulative IPC: 0.659837 (Simulation time: 0 hr 50 min 58 sec) 
select_counter is 1021
Heartbeat CPU 0 instructions: 102000002 cycles: 143343333 heartbeat IPC: 0.660553 cumulative IPC: 0.659844 (Simulation time: 0 hr 51 min 16 sec) 
select_counter is 1016
Heartbeat CPU 0 instructions: 103000001 cycles: 144705888 heartbeat IPC: 0.733915 cumulative IPC: 0.660561 (Simulation time: 0 hr 51 min 33 sec) 
select_counter is 980
Heartbeat CPU 0 instructions: 104000000 cycles: 146327962 heartbeat IPC: 0.616494 cumulative IPC: 0.660059 (Simulation time: 0 hr 51 min 51 sec) 
select_counter is 1020
Heartbeat CPU 0 instructions: 105000001 cycles: 147834214 heartbeat IPC: 0.6639 cumulative IPC: 0.660099 (Simulation time: 0 hr 52 min 7 sec) 
select_counter is 1018
Heartbeat CPU 0 instructions: 106000001 cycles: 149209526 heartbeat IPC: 0.727108 cumulative IPC: 0.660734 (Simulation time: 0 hr 52 min 24 sec) 
select_counter is 960
Heartbeat CPU 0 instructions: 107000001 cycles: 150853162 heartbeat IPC: 0.608407 cumulative IPC: 0.660148 (Simulation time: 0 hr 52 min 42 sec) 
select_counter is 1023
Heartbeat CPU 0 instructions: 108000000 cycles: 152381890 heartbeat IPC: 0.654138 cumulative IPC: 0.660087 (Simulation time: 0 hr 52 min 59 sec) 
select_counter is 1014
Heartbeat CPU 0 instructions: 109000003 cycles: 153723358 heartbeat IPC: 0.745454 cumulative IPC: 0.660851 (Simulation time: 0 hr 53 min 13 sec) 
select_counter is 1017
Heartbeat CPU 0 instructions: 110000001 cycles: 155427644 heartbeat IPC: 0.586755 cumulative IPC: 0.660017 (Simulation time: 0 hr 53 min 29 sec) 
select_counter is 1006
Finished CPU 0 instructions: 100000003 cycles: 151511132 cummulative IPC: 0.660017 (Simulation time: 0 hr 53 min 29 sec) 

ChampSim completed all CPUs

Region of Interest Statistics

CPU 0 cummulative IPC: 0.660017 instructions: 100000003 cycles: 151511132
LLC TOTAL     ACCESS:    6069733  HIT:    1686813  MISS:    4382920
LLC LOAD      ACCESS:     445796  HIT:       1077  MISS:     444719
LLC RFO       ACCESS:    2591738  HIT:     540489  MISS:    2051249
LLC PREFETCH  ACCESS:     440237  HIT:       1254  MISS:     438983
LLC WRITEBACK ACCESS:    2591962  HIT:    1143993  MISS:    1447969
Ship samples: 
11, 40, 87, 122, 128, 162, 219, 231, 286, 317, 325, 352, 395, 418, 471, 503, 522, 548, 604, 628, 661, 690, 729, 762, 778, 817, 859, 875, 896, 951, 964, 1012, 1054, 1056, 1097, 1138, 1167, 1209, 1245, 1267, 1282, 1328, 1358, 1395, 1411, 1446, 1476, 1515, 1552, 1568, 1609, 1657, 1686, 1698, 1731, 1768, 1815, 1829, 1867, 1905, 1927, 1978, 1988, 2033, 
Lime duel samples: 
16, 45, 66, 125, 147, 183, 213, 227, 265, 304, 345, 355, 412, 431, 455, 509, 514, 575, 577, 638, 669, 694, 721, 761, 792, 823, 847, 881, 902, 941, 970, 1018, 1028, 1077, 1117, 1149, 1183, 1187, 1225, 1265, 1301, 1314, 1363, 1398, 1435, 1450, 1479, 1530, 1539, 1580, 1625, 1650, 1689, 1714, 1747, 1781, 1797, 1848, 1870, 1889, 1941, 1977, 1985, 2045, 
Lime samples: 
16, 147, 265, 412, 514, 669, 792, 902, 1028, 1183, 1301, 1435, 1539, 1689, 1797, 
Insertion Distribution: 
	LOAD 0 0 0 0 0 0 925 24890 
	RFO 8562 0 0 0 0 0 28118 102098 
	PREF 0 1036 0 0 0 0 4513 20900 
	WRITEBACK 0 0 0 0 0 0 0 95566 
Total Prefetch Downgrades: 1295
