
*** ChampSim Multicore Out-of-Order Simulator ***

Warmup Instructions: 10000000
Simulation Instructions: 100000000
Configuration: 2
Number of CPUs: 1
LLC sets: 2048
LLC ways: 16
Off-chip DRAM Channels: 1 Width: 64-bit Data Rate: 1600 MT/s

CPU 0 runs /datasets/cs240c-wi22-a00-public/data/Assignment2-gz/GemsFDTD_716B.trace.gz
CPU 0 L1D next line prefetcher
CPU 0 L2C IP-based stride prefetcher
Heartbeat CPU 0 instructions: 1000000 cycles: 415045 heartbeat IPC: 2.40938 cumulative IPC: 2.40938 (Simulation time: 0 hr 0 min 25 sec) 
select_counter is 512
Heartbeat CPU 0 instructions: 2000003 cycles: 829979 heartbeat IPC: 2.41003 cumulative IPC: 2.4097 (Simulation time: 0 hr 0 min 53 sec) 
select_counter is 511
Heartbeat CPU 0 instructions: 3000000 cycles: 1280245 heartbeat IPC: 2.2209 cumulative IPC: 2.3433 (Simulation time: 0 hr 1 min 20 sec) 
select_counter is 235
Heartbeat CPU 0 instructions: 4000000 cycles: 1737276 heartbeat IPC: 2.18804 cumulative IPC: 2.30246 (Simulation time: 0 hr 1 min 48 sec) 
select_counter is 193
Heartbeat CPU 0 instructions: 5000000 cycles: 2152258 heartbeat IPC: 2.40974 cumulative IPC: 2.32314 (Simulation time: 0 hr 2 min 15 sec) 
select_counter is 196
Heartbeat CPU 0 instructions: 6000000 cycles: 2567277 heartbeat IPC: 2.40953 cumulative IPC: 2.33711 (Simulation time: 0 hr 2 min 42 sec) 
select_counter is 208
Heartbeat CPU 0 instructions: 7000000 cycles: 2982280 heartbeat IPC: 2.40962 cumulative IPC: 2.3472 (Simulation time: 0 hr 3 min 11 sec) 
select_counter is 223
Heartbeat CPU 0 instructions: 8000000 cycles: 3395206 heartbeat IPC: 2.42174 cumulative IPC: 2.35626 (Simulation time: 0 hr 3 min 40 sec) 
select_counter is 243
Heartbeat CPU 0 instructions: 9000001 cycles: 3840445 heartbeat IPC: 2.24599 cumulative IPC: 2.34348 (Simulation time: 0 hr 4 min 14 sec) 
select_counter is 533
Heartbeat CPU 0 instructions: 10000002 cycles: 4355213 heartbeat IPC: 1.94262 cumulative IPC: 2.2961 (Simulation time: 0 hr 4 min 53 sec) 
select_counter is 119

Warmup complete CPU 0 instructions: 10000002 cycles: 4355213 (Simulation time: 0 hr 4 min 53 sec) 

Heartbeat CPU 0 instructions: 11000000 cycles: 7871066 heartbeat IPC: 0.284425 cumulative IPC: 0.284425 (Simulation time: 0 hr 5 min 49 sec) 
select_counter is 906
Heartbeat CPU 0 instructions: 12000000 cycles: 11390165 heartbeat IPC: 0.284164 cumulative IPC: 0.284294 (Simulation time: 0 hr 6 min 48 sec) 
select_counter is 488
Heartbeat CPU 0 instructions: 13000000 cycles: 14916425 heartbeat IPC: 0.283587 cumulative IPC: 0.284058 (Simulation time: 0 hr 7 min 45 sec) 
select_counter is 975
Heartbeat CPU 0 instructions: 14000000 cycles: 18608102 heartbeat IPC: 0.27088 cumulative IPC: 0.280645 (Simulation time: 0 hr 8 min 38 sec) 
select_counter is 904
Heartbeat CPU 0 instructions: 15000000 cycles: 22522441 heartbeat IPC: 0.255471 cumulative IPC: 0.275221 (Simulation time: 0 hr 9 min 37 sec) 
select_counter is 861
Heartbeat CPU 0 instructions: 16000000 cycles: 26321282 heartbeat IPC: 0.263238 cumulative IPC: 0.273148 (Simulation time: 0 hr 10 min 34 sec) 
select_counter is 407
Heartbeat CPU 0 instructions: 17000002 cycles: 30079976 heartbeat IPC: 0.26605 cumulative IPC: 0.272111 (Simulation time: 0 hr 11 min 32 sec) 
select_counter is 762
Heartbeat CPU 0 instructions: 18000003 cycles: 33846954 heartbeat IPC: 0.265465 cumulative IPC: 0.271262 (Simulation time: 0 hr 12 min 28 sec) 
select_counter is 629
Heartbeat CPU 0 instructions: 19000000 cycles: 37661667 heartbeat IPC: 0.262142 cumulative IPC: 0.270218 (Simulation time: 0 hr 13 min 26 sec) 
select_counter is 229
Heartbeat CPU 0 instructions: 20000000 cycles: 40553698 heartbeat IPC: 0.345778 cumulative IPC: 0.276255 (Simulation time: 0 hr 14 min 14 sec) 
select_counter is 742
Heartbeat CPU 0 instructions: 21000000 cycles: 43064134 heartbeat IPC: 0.398337 cumulative IPC: 0.284172 (Simulation time: 0 hr 15 min 1 sec) 
select_counter is 640
Heartbeat CPU 0 instructions: 22000003 cycles: 45531300 heartbeat IPC: 0.405325 cumulative IPC: 0.291431 (Simulation time: 0 hr 15 min 48 sec) 
select_counter is 466
Heartbeat CPU 0 instructions: 23000002 cycles: 48030650 heartbeat IPC: 0.400104 cumulative IPC: 0.29765 (Simulation time: 0 hr 16 min 39 sec) 
select_counter is 417
Heartbeat CPU 0 instructions: 24000000 cycles: 50518906 heartbeat IPC: 0.401887 cumulative IPC: 0.303269 (Simulation time: 0 hr 17 min 26 sec) 
select_counter is 368
Heartbeat CPU 0 instructions: 25000002 cycles: 53042653 heartbeat IPC: 0.396237 cumulative IPC: 0.308088 (Simulation time: 0 hr 18 min 12 sec) 
select_counter is 670
Heartbeat CPU 0 instructions: 26000002 cycles: 55293863 heartbeat IPC: 0.444206 cumulative IPC: 0.314103 (Simulation time: 0 hr 18 min 58 sec) 
select_counter is 818
Heartbeat CPU 0 instructions: 27000002 cycles: 57465853 heartbeat IPC: 0.460407 cumulative IPC: 0.320087 (Simulation time: 0 hr 19 min 42 sec) 
select_counter is 761
Heartbeat CPU 0 instructions: 28000000 cycles: 59606891 heartbeat IPC: 0.467062 cumulative IPC: 0.325782 (Simulation time: 0 hr 20 min 29 sec) 
select_counter is 914
Heartbeat CPU 0 instructions: 29000003 cycles: 61743003 heartbeat IPC: 0.468142 cumulative IPC: 0.331081 (Simulation time: 0 hr 21 min 15 sec) 
select_counter is 1011
Heartbeat CPU 0 instructions: 30000001 cycles: 63938045 heartbeat IPC: 0.455571 cumulative IPC: 0.335667 (Simulation time: 0 hr 22 min 1 sec) 
select_counter is 770
Heartbeat CPU 0 instructions: 31000001 cycles: 65587523 heartbeat IPC: 0.606252 cumulative IPC: 0.342956 (Simulation time: 0 hr 22 min 43 sec) 
select_counter is 770
Heartbeat CPU 0 instructions: 32000000 cycles: 67161767 heartbeat IPC: 0.635225 cumulative IPC: 0.350282 (Simulation time: 0 hr 23 min 25 sec) 
select_counter is 568
Heartbeat CPU 0 instructions: 33000000 cycles: 68738336 heartbeat IPC: 0.634289 cumulative IPC: 0.357236 (Simulation time: 0 hr 24 min 10 sec) 
select_counter is 206
Heartbeat CPU 0 instructions: 34000001 cycles: 70274064 heartbeat IPC: 0.651158 cumulative IPC: 0.364084 (Simulation time: 0 hr 24 min 53 sec) 
select_counter is 812
Heartbeat CPU 0 instructions: 35000001 cycles: 71923054 heartbeat IPC: 0.606432 cumulative IPC: 0.369998 (Simulation time: 0 hr 25 min 34 sec) 
select_counter is 320
Heartbeat CPU 0 instructions: 36000000 cycles: 73581057 heartbeat IPC: 0.603135 cumulative IPC: 0.375582 (Simulation time: 0 hr 26 min 18 sec) 
select_counter is 228
Heartbeat CPU 0 instructions: 37000002 cycles: 75455186 heartbeat IPC: 0.533582 cumulative IPC: 0.379747 (Simulation time: 0 hr 27 min 2 sec) 
select_counter is 546
Heartbeat CPU 0 instructions: 38000002 cycles: 77138576 heartbeat IPC: 0.594039 cumulative IPC: 0.384703 (Simulation time: 0 hr 27 min 45 sec) 
select_counter is 380
Heartbeat CPU 0 instructions: 39000000 cycles: 78739146 heartbeat IPC: 0.624776 cumulative IPC: 0.389869 (Simulation time: 0 hr 28 min 31 sec) 
select_counter is 960
Heartbeat CPU 0 instructions: 40000000 cycles: 80291321 heartbeat IPC: 0.644257 cumulative IPC: 0.395069 (Simulation time: 0 hr 29 min 14 sec) 
select_counter is 735
Heartbeat CPU 0 instructions: 41000000 cycles: 81914692 heartbeat IPC: 0.616002 cumulative IPC: 0.399693 (Simulation time: 0 hr 30 min 0 sec) 
select_counter is 700
Heartbeat CPU 0 instructions: 42000001 cycles: 83549396 heartbeat IPC: 0.611732 cumulative IPC: 0.40407 (Simulation time: 0 hr 30 min 42 sec) 
select_counter is 551
Heartbeat CPU 0 instructions: 43000002 cycles: 86571908 heartbeat IPC: 0.330851 cumulative IPC: 0.401378 (Simulation time: 0 hr 31 min 31 sec) 
select_counter is 120
Heartbeat CPU 0 instructions: 44000000 cycles: 90073521 heartbeat IPC: 0.285582 cumulative IPC: 0.396648 (Simulation time: 0 hr 32 min 23 sec) 
select_counter is 921
Heartbeat CPU 0 instructions: 45000003 cycles: 93583769 heartbeat IPC: 0.284881 cumulative IPC: 0.392251 (Simulation time: 0 hr 33 min 18 sec) 
select_counter is 493
Heartbeat CPU 0 instructions: 46000000 cycles: 97103928 heartbeat IPC: 0.284077 cumulative IPC: 0.388146 (Simulation time: 0 hr 34 min 10 sec) 
select_counter is 101
Heartbeat CPU 0 instructions: 47000000 cycles: 100627426 heartbeat IPC: 0.283809 cumulative IPC: 0.384327 (Simulation time: 0 hr 35 min 2 sec) 
select_counter is 812
Heartbeat CPU 0 instructions: 48000000 cycles: 104315903 heartbeat IPC: 0.271115 cumulative IPC: 0.380149 (Simulation time: 0 hr 35 min 53 sec) 
select_counter is 356
Heartbeat CPU 0 instructions: 49000000 cycles: 108051352 heartbeat IPC: 0.267705 cumulative IPC: 0.376099 (Simulation time: 0 hr 36 min 45 sec) 
select_counter is 873
Heartbeat CPU 0 instructions: 50000001 cycles: 111797566 heartbeat IPC: 0.266936 cumulative IPC: 0.372293 (Simulation time: 0 hr 37 min 39 sec) 
select_counter is 683
Heartbeat CPU 0 instructions: 51000002 cycles: 115595314 heartbeat IPC: 0.263314 cumulative IPC: 0.368572 (Simulation time: 0 hr 38 min 31 sec) 
select_counter is 234
Heartbeat CPU 0 instructions: 52000000 cycles: 119397649 heartbeat IPC: 0.262996 cumulative IPC: 0.365083 (Simulation time: 0 hr 39 min 22 sec) 
select_counter is 895
Heartbeat CPU 0 instructions: 53000000 cycles: 123278717 heartbeat IPC: 0.257661 cumulative IPC: 0.361577 (Simulation time: 0 hr 40 min 17 sec) 
select_counter is 743
Heartbeat CPU 0 instructions: 54000001 cycles: 125670559 heartbeat IPC: 0.418088 cumulative IPC: 0.362691 (Simulation time: 0 hr 41 min 6 sec) 
select_counter is 80
Heartbeat CPU 0 instructions: 55000000 cycles: 127797142 heartbeat IPC: 0.470237 cumulative IPC: 0.364544 (Simulation time: 0 hr 41 min 50 sec) 
select_counter is 370
Heartbeat CPU 0 instructions: 56000000 cycles: 129924913 heartbeat IPC: 0.469975 cumulative IPC: 0.36633 (Simulation time: 0 hr 42 min 36 sec) 
select_counter is 421
Heartbeat CPU 0 instructions: 57000002 cycles: 132027741 heartbeat IPC: 0.475551 cumulative IPC: 0.368129 (Simulation time: 0 hr 43 min 21 sec) 
select_counter is 556
Heartbeat CPU 0 instructions: 58000000 cycles: 134082137 heartbeat IPC: 0.48676 cumulative IPC: 0.370008 (Simulation time: 0 hr 44 min 6 sec) 
select_counter is 541
Heartbeat CPU 0 instructions: 59000002 cycles: 136219602 heartbeat IPC: 0.467845 cumulative IPC: 0.371594 (Simulation time: 0 hr 44 min 49 sec) 
select_counter is 648
Heartbeat CPU 0 instructions: 60000000 cycles: 138110908 heartbeat IPC: 0.528734 cumulative IPC: 0.373816 (Simulation time: 0 hr 45 min 33 sec) 
select_counter is 860
Heartbeat CPU 0 instructions: 61000002 cycles: 140013693 heartbeat IPC: 0.525546 cumulative IPC: 0.375944 (Simulation time: 0 hr 46 min 15 sec) 
select_counter is 296
Heartbeat CPU 0 instructions: 62000000 cycles: 141880061 heartbeat IPC: 0.535799 cumulative IPC: 0.378113 (Simulation time: 0 hr 46 min 57 sec) 
select_counter is 335
Heartbeat CPU 0 instructions: 63000000 cycles: 143734407 heartbeat IPC: 0.539274 cumulative IPC: 0.380258 (Simulation time: 0 hr 47 min 38 sec) 
select_counter is 589
Heartbeat CPU 0 instructions: 64000000 cycles: 145883537 heartbeat IPC: 0.465305 cumulative IPC: 0.381549 (Simulation time: 0 hr 48 min 18 sec) 
select_counter is 22
Heartbeat CPU 0 instructions: 65000001 cycles: 147474238 heartbeat IPC: 0.628654 cumulative IPC: 0.384296 (Simulation time: 0 hr 48 min 53 sec) 
select_counter is 784
Heartbeat CPU 0 instructions: 66000001 cycles: 149070837 heartbeat IPC: 0.626331 cumulative IPC: 0.386966 (Simulation time: 0 hr 49 min 24 sec) 
select_counter is 590
Heartbeat CPU 0 instructions: 67000003 cycles: 150662540 heartbeat IPC: 0.628259 cumulative IPC: 0.389591 (Simulation time: 0 hr 49 min 54 sec) 
select_counter is 102
Heartbeat CPU 0 instructions: 68000000 cycles: 152240986 heartbeat IPC: 0.633533 cumulative IPC: 0.392195 (Simulation time: 0 hr 50 min 22 sec) 
select_counter is 771
Heartbeat CPU 0 instructions: 69000002 cycles: 153883697 heartbeat IPC: 0.608751 cumulative IPC: 0.394574 (Simulation time: 0 hr 50 min 51 sec) 
select_counter is 273
Heartbeat CPU 0 instructions: 70000000 cycles: 155591307 heartbeat IPC: 0.585613 cumulative IPC: 0.396731 (Simulation time: 0 hr 51 min 14 sec) 
select_counter is 949
Heartbeat CPU 0 instructions: 71000000 cycles: 157162286 heartbeat IPC: 0.636546 cumulative IPC: 0.399196 (Simulation time: 0 hr 51 min 41 sec) 
select_counter is 553
Heartbeat CPU 0 instructions: 72000000 cycles: 158797084 heartbeat IPC: 0.611696 cumulative IPC: 0.401446 (Simulation time: 0 hr 52 min 5 sec) 
select_counter is 340
Heartbeat CPU 0 instructions: 73000002 cycles: 160384584 heartbeat IPC: 0.629923 cumulative IPC: 0.40377 (Simulation time: 0 hr 52 min 30 sec) 
select_counter is 112
Heartbeat CPU 0 instructions: 74000000 cycles: 161961912 heartbeat IPC: 0.633982 cumulative IPC: 0.406074 (Simulation time: 0 hr 52 min 52 sec) 
select_counter is 787
Heartbeat CPU 0 instructions: 75000000 cycles: 163622798 heartbeat IPC: 0.602088 cumulative IPC: 0.408118 (Simulation time: 0 hr 53 min 14 sec) 
select_counter is 362
Heartbeat CPU 0 instructions: 76000000 cycles: 165204914 heartbeat IPC: 0.632065 cumulative IPC: 0.410321 (Simulation time: 0 hr 53 min 35 sec) 
select_counter is 50
Heartbeat CPU 0 instructions: 77000001 cycles: 168698453 heartbeat IPC: 0.286243 cumulative IPC: 0.407683 (Simulation time: 0 hr 54 min 1 sec) 
select_counter is 742
Heartbeat CPU 0 instructions: 78000000 cycles: 172294087 heartbeat IPC: 0.278115 cumulative IPC: 0.404909 (Simulation time: 0 hr 54 min 27 sec) 
select_counter is 481
Heartbeat CPU 0 instructions: 79000002 cycles: 175864106 heartbeat IPC: 0.280111 cumulative IPC: 0.402312 (Simulation time: 0 hr 54 min 51 sec) 
select_counter is 29
Heartbeat CPU 0 instructions: 80000000 cycles: 179409949 heartbeat IPC: 0.28202 cumulative IPC: 0.399875 (Simulation time: 0 hr 55 min 11 sec) 
select_counter is 900
Heartbeat CPU 0 instructions: 81000000 cycles: 182997952 heartbeat IPC: 0.278707 cumulative IPC: 0.397441 (Simulation time: 0 hr 55 min 29 sec) 
select_counter is 538
Heartbeat CPU 0 instructions: 82000002 cycles: 186782810 heartbeat IPC: 0.264211 cumulative IPC: 0.394677 (Simulation time: 0 hr 55 min 48 sec) 
select_counter is 392
Heartbeat CPU 0 instructions: 83000002 cycles: 190560320 heartbeat IPC: 0.264725 cumulative IPC: 0.392041 (Simulation time: 0 hr 56 min 6 sec) 
select_counter is 156
Heartbeat CPU 0 instructions: 84000000 cycles: 194329831 heartbeat IPC: 0.265286 cumulative IPC: 0.389526 (Simulation time: 0 hr 56 min 24 sec) 
select_counter is 839
Heartbeat CPU 0 instructions: 85000000 cycles: 198138729 heartbeat IPC: 0.262543 cumulative IPC: 0.38703 (Simulation time: 0 hr 56 min 38 sec) 
select_counter is 348
Heartbeat CPU 0 instructions: 86000000 cycles: 201919311 heartbeat IPC: 0.26451 cumulative IPC: 0.384685 (Simulation time: 0 hr 56 min 50 sec) 
select_counter is 908
Heartbeat CPU 0 instructions: 87000000 cycles: 205331617 heartbeat IPC: 0.293057 cumulative IPC: 0.38313 (Simulation time: 0 hr 56 min 58 sec) 
select_counter is 864
Heartbeat CPU 0 instructions: 88000000 cycles: 207350552 heartbeat IPC: 0.495311 cumulative IPC: 0.384245 (Simulation time: 0 hr 57 min 4 sec) 
select_counter is 242
Heartbeat CPU 0 instructions: 89000001 cycles: 209243777 heartbeat IPC: 0.5282 cumulative IPC: 0.385575 (Simulation time: 0 hr 57 min 10 sec) 
select_counter is 564
Heartbeat CPU 0 instructions: 90000001 cycles: 211172365 heartbeat IPC: 0.518514 cumulative IPC: 0.386815 (Simulation time: 0 hr 57 min 15 sec) 
select_counter is 864
Heartbeat CPU 0 instructions: 91000001 cycles: 213133539 heartbeat IPC: 0.509899 cumulative IPC: 0.387971 (Simulation time: 0 hr 57 min 21 sec) 
select_counter is 1
Heartbeat CPU 0 instructions: 92000000 cycles: 215037589 heartbeat IPC: 0.525196 cumulative IPC: 0.389211 (Simulation time: 0 hr 57 min 26 sec) 
select_counter is 176
Heartbeat CPU 0 instructions: 93000002 cycles: 217002393 heartbeat IPC: 0.508958 cumulative IPC: 0.390318 (Simulation time: 0 hr 57 min 31 sec) 
select_counter is 414
Heartbeat CPU 0 instructions: 94000001 cycles: 218727696 heartbeat IPC: 0.579608 cumulative IPC: 0.391841 (Simulation time: 0 hr 57 min 35 sec) 
select_counter is 857
Heartbeat CPU 0 instructions: 95000000 cycles: 220583898 heartbeat IPC: 0.538734 cumulative IPC: 0.393102 (Simulation time: 0 hr 57 min 40 sec) 
select_counter is 290
Heartbeat CPU 0 instructions: 96000000 cycles: 222301492 heartbeat IPC: 0.58221 cumulative IPC: 0.394593 (Simulation time: 0 hr 57 min 44 sec) 
select_counter is 610
Heartbeat CPU 0 instructions: 97000000 cycles: 224058413 heartbeat IPC: 0.569178 cumulative IPC: 0.395989 (Simulation time: 0 hr 57 min 49 sec) 
select_counter is 685
Heartbeat CPU 0 instructions: 98000000 cycles: 225841684 heartbeat IPC: 0.560767 cumulative IPC: 0.397315 (Simulation time: 0 hr 57 min 53 sec) 
select_counter is 427
Heartbeat CPU 0 instructions: 99000001 cycles: 227407611 heartbeat IPC: 0.6386 cumulative IPC: 0.399009 (Simulation time: 0 hr 57 min 57 sec) 
select_counter is 66
Heartbeat CPU 0 instructions: 100000000 cycles: 228971935 heartbeat IPC: 0.639253 cumulative IPC: 0.400683 (Simulation time: 0 hr 58 min 1 sec) 
select_counter is 822
Heartbeat CPU 0 instructions: 101000002 cycles: 230586827 heartbeat IPC: 0.619238 cumulative IPC: 0.402243 (Simulation time: 0 hr 58 min 5 sec) 
select_counter is 185
Heartbeat CPU 0 instructions: 102000002 cycles: 232153552 heartbeat IPC: 0.638274 cumulative IPC: 0.403866 (Simulation time: 0 hr 58 min 9 sec) 
select_counter is 744
Heartbeat CPU 0 instructions: 103000000 cycles: 233769936 heartbeat IPC: 0.618664 cumulative IPC: 0.405379 (Simulation time: 0 hr 58 min 14 sec) 
select_counter is 732
Heartbeat CPU 0 instructions: 104000000 cycles: 235554895 heartbeat IPC: 0.560237 cumulative IPC: 0.406575 (Simulation time: 0 hr 58 min 18 sec) 
select_counter is 711
Heartbeat CPU 0 instructions: 105000003 cycles: 237226267 heartbeat IPC: 0.598313 cumulative IPC: 0.407951 (Simulation time: 0 hr 58 min 22 sec) 
select_counter is 454
Heartbeat CPU 0 instructions: 106000001 cycles: 238855257 heartbeat IPC: 0.613876 cumulative IPC: 0.409382 (Simulation time: 0 hr 58 min 26 sec) 
select_counter is 220
Heartbeat CPU 0 instructions: 107000001 cycles: 240449025 heartbeat IPC: 0.627444 cumulative IPC: 0.410854 (Simulation time: 0 hr 58 min 31 sec) 
select_counter is 882
Heartbeat CPU 0 instructions: 108000000 cycles: 242049434 heartbeat IPC: 0.62484 cumulative IPC: 0.412294 (Simulation time: 0 hr 58 min 35 sec) 
select_counter is 618
Heartbeat CPU 0 instructions: 109000000 cycles: 243721627 heartbeat IPC: 0.598017 cumulative IPC: 0.413592 (Simulation time: 0 hr 58 min 39 sec) 
select_counter is 251
Heartbeat CPU 0 instructions: 110000002 cycles: 245610438 heartbeat IPC: 0.529435 cumulative IPC: 0.414499 (Simulation time: 0 hr 58 min 43 sec) 
select_counter is 99
Finished CPU 0 instructions: 100000000 cycles: 241255225 cummulative IPC: 0.414499 (Simulation time: 0 hr 58 min 43 sec) 

ChampSim completed all CPUs

Region of Interest Statistics

CPU 0 cummulative IPC: 0.414499 instructions: 100000000 cycles: 241255225
LLC TOTAL     ACCESS:   12983771  HIT:    9275192  MISS:    3708579
LLC LOAD      ACCESS:    5288125  HIT:    4253806  MISS:    1034319
LLC RFO       ACCESS:          0  HIT:          0  MISS:          0
LLC PREFETCH  ACCESS:    6783972  HIT:    4122109  MISS:    2661863
LLC WRITEBACK ACCESS:     911674  HIT:     899277  MISS:      12397
Ship samples: 
4, 42, 77, 104, 159, 188, 207, 237, 273, 303, 321, 377, 392, 442, 473, 503, 521, 548, 587, 614, 669, 696, 734, 767, 782, 816, 835, 887, 904, 941, 961, 1008, 1032, 1070, 1098, 1137, 1169, 1195, 1244, 1253, 1284, 1338, 1347, 1403, 1436, 1458, 1485, 1504, 1542, 1577, 1607, 1661, 1687, 1710, 1730, 1790, 1801, 1837, 1867, 1912, 1938, 1957, 1997, 2036, 
Lime duel samples: 
5, 61, 74, 106, 147, 177, 206, 251, 275, 297, 346, 353, 414, 433, 467, 511, 534, 545, 595, 620, 650, 675, 716, 741, 783, 809, 847, 878, 916, 938, 967, 996, 1026, 1059, 1108, 1144, 1165, 1213, 1238, 1274, 1291, 1333, 1351, 1394, 1419, 1449, 1502, 1506, 1557, 1582, 1616, 1658, 1688, 1704, 1747, 1780, 1798, 1849, 1869, 1897, 1927, 1963, 2015, 2022, 
Lime samples: 
5, 147, 275, 414, 534, 650, 783, 916, 1026, 1165, 1291, 1419, 1557, 1688, 1798, 
Insertion Distribution: 
	LOAD 140306 0 0 0 0 0 28273 394479 
	RFO 22 0 0 0 0 0 15573 0 
	PREF 0 465354 0 0 0 0 67662 398734 
	WRITEBACK 0 0 0 0 0 0 0 6020 
Total Prefetch Downgrades: 366802
