
*** ChampSim Multicore Out-of-Order Simulator ***

Warmup Instructions: 10000000
Simulation Instructions: 100000000
Configuration: 2
Number of CPUs: 1
LLC sets: 2048
LLC ways: 16
Off-chip DRAM Channels: 1 Width: 64-bit Data Rate: 1600 MT/s

CPU 0 runs /datasets/cs240c-wi22-a00-public/data/Assignment2-gz/bzip2_281B.trace.gz
CPU 0 L1D next line prefetcher
CPU 0 L2C IP-based stride prefetcher
Heartbeat CPU 0 instructions: 1000000 cycles: 445878 heartbeat IPC: 2.24277 cumulative IPC: 2.24277 (Simulation time: 0 hr 0 min 26 sec) 
select_counter is 470
Heartbeat CPU 0 instructions: 2000003 cycles: 900175 heartbeat IPC: 2.20121 cumulative IPC: 2.22179 (Simulation time: 0 hr 0 min 55 sec) 
select_counter is 383
Heartbeat CPU 0 instructions: 3000002 cycles: 1315001 heartbeat IPC: 2.41065 cumulative IPC: 2.28137 (Simulation time: 0 hr 1 min 23 sec) 
select_counter is 127
Heartbeat CPU 0 instructions: 4000000 cycles: 1753479 heartbeat IPC: 2.28061 cumulative IPC: 2.28118 (Simulation time: 0 hr 1 min 51 sec) 
select_counter is 121
Heartbeat CPU 0 instructions: 5000002 cycles: 2175479 heartbeat IPC: 2.36967 cumulative IPC: 2.29835 (Simulation time: 0 hr 2 min 17 sec) 
select_counter is 776
Heartbeat CPU 0 instructions: 6000000 cycles: 2666173 heartbeat IPC: 2.03793 cumulative IPC: 2.25042 (Simulation time: 0 hr 2 min 46 sec) 
select_counter is 593
Heartbeat CPU 0 instructions: 7000001 cycles: 3193499 heartbeat IPC: 1.89636 cumulative IPC: 2.19195 (Simulation time: 0 hr 3 min 19 sec) 
select_counter is 525
Heartbeat CPU 0 instructions: 8000000 cycles: 3726205 heartbeat IPC: 1.87721 cumulative IPC: 2.14696 (Simulation time: 0 hr 3 min 51 sec) 
select_counter is 475
Heartbeat CPU 0 instructions: 9000000 cycles: 4232556 heartbeat IPC: 1.97491 cumulative IPC: 2.12637 (Simulation time: 0 hr 4 min 22 sec) 
select_counter is 363
Heartbeat CPU 0 instructions: 10000002 cycles: 4685501 heartbeat IPC: 2.20778 cumulative IPC: 2.13424 (Simulation time: 0 hr 4 min 50 sec) 
select_counter is 343

Warmup complete CPU 0 instructions: 10000002 cycles: 4685501 (Simulation time: 0 hr 4 min 50 sec) 

Heartbeat CPU 0 instructions: 11000000 cycles: 6188825 heartbeat IPC: 0.665191 cumulative IPC: 0.665191 (Simulation time: 0 hr 5 min 16 sec) 
select_counter is 298
Heartbeat CPU 0 instructions: 12000000 cycles: 7429151 heartbeat IPC: 0.80624 cumulative IPC: 0.728955 (Simulation time: 0 hr 5 min 45 sec) 
select_counter is 202
Heartbeat CPU 0 instructions: 13000001 cycles: 8727716 heartbeat IPC: 0.770082 cumulative IPC: 0.742167 (Simulation time: 0 hr 6 min 16 sec) 
select_counter is 242
Heartbeat CPU 0 instructions: 14000000 cycles: 10161628 heartbeat IPC: 0.697392 cumulative IPC: 0.730443 (Simulation time: 0 hr 6 min 43 sec) 
select_counter is 193
Heartbeat CPU 0 instructions: 15000000 cycles: 11501806 heartbeat IPC: 0.74617 cumulative IPC: 0.733535 (Simulation time: 0 hr 7 min 12 sec) 
select_counter is 42
Heartbeat CPU 0 instructions: 16000000 cycles: 12960831 heartbeat IPC: 0.685389 cumulative IPC: 0.725046 (Simulation time: 0 hr 7 min 42 sec) 
select_counter is 77
Heartbeat CPU 0 instructions: 17000000 cycles: 14556252 heartbeat IPC: 0.626794 cumulative IPC: 0.709166 (Simulation time: 0 hr 8 min 11 sec) 
select_counter is 257
Heartbeat CPU 0 instructions: 18000002 cycles: 16154609 heartbeat IPC: 0.625644 cumulative IPC: 0.697526 (Simulation time: 0 hr 8 min 38 sec) 
select_counter is 188
Heartbeat CPU 0 instructions: 19000003 cycles: 17607371 heartbeat IPC: 0.688345 cumulative IPC: 0.696494 (Simulation time: 0 hr 9 min 3 sec) 
select_counter is 142
Heartbeat CPU 0 instructions: 20000000 cycles: 19136531 heartbeat IPC: 0.653952 cumulative IPC: 0.691992 (Simulation time: 0 hr 9 min 31 sec) 
select_counter is 86
Heartbeat CPU 0 instructions: 21000001 cycles: 20704649 heartbeat IPC: 0.637708 cumulative IPC: 0.686678 (Simulation time: 0 hr 10 min 1 sec) 
select_counter is 89
Heartbeat CPU 0 instructions: 22000000 cycles: 22548955 heartbeat IPC: 0.542209 cumulative IPC: 0.671762 (Simulation time: 0 hr 10 min 35 sec) 
select_counter is 60
Heartbeat CPU 0 instructions: 23000001 cycles: 24168205 heartbeat IPC: 0.61757 cumulative IPC: 0.667258 (Simulation time: 0 hr 11 min 0 sec) 
select_counter is 28
Heartbeat CPU 0 instructions: 24000000 cycles: 25709590 heartbeat IPC: 0.648767 cumulative IPC: 0.665903 (Simulation time: 0 hr 11 min 33 sec) 
select_counter is 786
Heartbeat CPU 0 instructions: 25000002 cycles: 27369104 heartbeat IPC: 0.602587 cumulative IPC: 0.661271 (Simulation time: 0 hr 12 min 10 sec) 
select_counter is 675
Heartbeat CPU 0 instructions: 26000003 cycles: 28673973 heartbeat IPC: 0.766361 cumulative IPC: 0.666987 (Simulation time: 0 hr 12 min 47 sec) 
select_counter is 476
Heartbeat CPU 0 instructions: 27000002 cycles: 30016365 heartbeat IPC: 0.744938 cumulative IPC: 0.671118 (Simulation time: 0 hr 13 min 24 sec) 
select_counter is 387
Heartbeat CPU 0 instructions: 28000000 cycles: 31006153 heartbeat IPC: 1.01032 cumulative IPC: 0.683874 (Simulation time: 0 hr 13 min 55 sec) 
select_counter is 356
Heartbeat CPU 0 instructions: 29000001 cycles: 31909404 heartbeat IPC: 1.10711 cumulative IPC: 0.697916 (Simulation time: 0 hr 14 min 23 sec) 
select_counter is 353
Heartbeat CPU 0 instructions: 30000000 cycles: 32826819 heartbeat IPC: 1.09002 cumulative IPC: 0.710699 (Simulation time: 0 hr 14 min 51 sec) 
select_counter is 350
Heartbeat CPU 0 instructions: 31000003 cycles: 33825277 heartbeat IPC: 1.00155 cumulative IPC: 0.720664 (Simulation time: 0 hr 15 min 18 sec) 
select_counter is 329
Heartbeat CPU 0 instructions: 32000000 cycles: 34747323 heartbeat IPC: 1.08454 cumulative IPC: 0.731825 (Simulation time: 0 hr 15 min 46 sec) 
select_counter is 319
Heartbeat CPU 0 instructions: 33000002 cycles: 35738161 heartbeat IPC: 1.00925 cumulative IPC: 0.740677 (Simulation time: 0 hr 16 min 19 sec) 
select_counter is 292
Heartbeat CPU 0 instructions: 34000000 cycles: 36684286 heartbeat IPC: 1.05694 cumulative IPC: 0.750028 (Simulation time: 0 hr 16 min 47 sec) 
select_counter is 289
Heartbeat CPU 0 instructions: 35000000 cycles: 37541936 heartbeat IPC: 1.16598 cumulative IPC: 0.760886 (Simulation time: 0 hr 17 min 11 sec) 
select_counter is 287
Heartbeat CPU 0 instructions: 36000000 cycles: 38384547 heartbeat IPC: 1.18679 cumulative IPC: 0.771535 (Simulation time: 0 hr 17 min 33 sec) 
select_counter is 280
Heartbeat CPU 0 instructions: 37000000 cycles: 39236130 heartbeat IPC: 1.17428 cumulative IPC: 0.781462 (Simulation time: 0 hr 17 min 57 sec) 
select_counter is 278
Heartbeat CPU 0 instructions: 38000002 cycles: 40028544 heartbeat IPC: 1.26197 cumulative IPC: 0.792235 (Simulation time: 0 hr 18 min 22 sec) 
select_counter is 273
Heartbeat CPU 0 instructions: 39000001 cycles: 40934015 heartbeat IPC: 1.1044 cumulative IPC: 0.800033 (Simulation time: 0 hr 18 min 45 sec) 
select_counter is 270
Heartbeat CPU 0 instructions: 40000000 cycles: 41869441 heartbeat IPC: 1.06903 cumulative IPC: 0.8068 (Simulation time: 0 hr 19 min 10 sec) 
select_counter is 259
Heartbeat CPU 0 instructions: 41000002 cycles: 42830495 heartbeat IPC: 1.04053 cumulative IPC: 0.812689 (Simulation time: 0 hr 19 min 35 sec) 
select_counter is 251
Heartbeat CPU 0 instructions: 42000001 cycles: 43786358 heartbeat IPC: 1.04617 cumulative IPC: 0.818396 (Simulation time: 0 hr 20 min 1 sec) 
select_counter is 239
Heartbeat CPU 0 instructions: 43000001 cycles: 44735741 heartbeat IPC: 1.05332 cumulative IPC: 0.823965 (Simulation time: 0 hr 20 min 24 sec) 
select_counter is 231
Heartbeat CPU 0 instructions: 44000000 cycles: 45711575 heartbeat IPC: 1.02476 cumulative IPC: 0.828741 (Simulation time: 0 hr 20 min 49 sec) 
select_counter is 212
Heartbeat CPU 0 instructions: 45000001 cycles: 46637534 heartbeat IPC: 1.07996 cumulative IPC: 0.834286 (Simulation time: 0 hr 21 min 13 sec) 
select_counter is 195
Heartbeat CPU 0 instructions: 46000000 cycles: 47540250 heartbeat IPC: 1.10777 cumulative IPC: 0.840047 (Simulation time: 0 hr 21 min 41 sec) 
select_counter is 186
Heartbeat CPU 0 instructions: 47000000 cycles: 48419550 heartbeat IPC: 1.13727 cumulative IPC: 0.846023 (Simulation time: 0 hr 22 min 8 sec) 
select_counter is 180
Heartbeat CPU 0 instructions: 48000000 cycles: 49326656 heartbeat IPC: 1.10241 cumulative IPC: 0.851232 (Simulation time: 0 hr 22 min 36 sec) 
select_counter is 167
Heartbeat CPU 0 instructions: 49000001 cycles: 50267339 heartbeat IPC: 1.06306 cumulative IPC: 0.855604 (Simulation time: 0 hr 23 min 0 sec) 
select_counter is 157
Heartbeat CPU 0 instructions: 50000003 cycles: 51248929 heartbeat IPC: 1.01876 cumulative IPC: 0.859043 (Simulation time: 0 hr 23 min 25 sec) 
select_counter is 127
Heartbeat CPU 0 instructions: 51000002 cycles: 52206169 heartbeat IPC: 1.04467 cumulative IPC: 0.862782 (Simulation time: 0 hr 23 min 50 sec) 
select_counter is 109
Heartbeat CPU 0 instructions: 52000000 cycles: 53171196 heartbeat IPC: 1.03624 cumulative IPC: 0.866235 (Simulation time: 0 hr 24 min 20 sec) 
select_counter is 93
Heartbeat CPU 0 instructions: 53000001 cycles: 54149230 heartbeat IPC: 1.02246 cumulative IPC: 0.869324 (Simulation time: 0 hr 24 min 47 sec) 
select_counter is 74
Heartbeat CPU 0 instructions: 54000003 cycles: 55130611 heartbeat IPC: 1.01897 cumulative IPC: 0.872235 (Simulation time: 0 hr 25 min 13 sec) 
select_counter is 62
Heartbeat CPU 0 instructions: 55000000 cycles: 56095127 heartbeat IPC: 1.03679 cumulative IPC: 0.875322 (Simulation time: 0 hr 25 min 39 sec) 
select_counter is 56
Heartbeat CPU 0 instructions: 56000000 cycles: 57071262 heartbeat IPC: 1.02445 cumulative IPC: 0.878101 (Simulation time: 0 hr 26 min 3 sec) 
select_counter is 49
Heartbeat CPU 0 instructions: 57000002 cycles: 58039002 heartbeat IPC: 1.03334 cumulative IPC: 0.880917 (Simulation time: 0 hr 26 min 26 sec) 
select_counter is 36
Heartbeat CPU 0 instructions: 58000003 cycles: 59012071 heartbeat IPC: 1.02768 cumulative IPC: 0.883546 (Simulation time: 0 hr 26 min 50 sec) 
select_counter is 23
Heartbeat CPU 0 instructions: 59000003 cycles: 60040486 heartbeat IPC: 0.97237 cumulative IPC: 0.885196 (Simulation time: 0 hr 27 min 18 sec) 
select_counter is 18
Heartbeat CPU 0 instructions: 60000000 cycles: 61248144 heartbeat IPC: 0.828047 cumulative IPC: 0.883976 (Simulation time: 0 hr 27 min 48 sec) 
select_counter is 63
Heartbeat CPU 0 instructions: 61000000 cycles: 62455191 heartbeat IPC: 0.828468 cumulative IPC: 0.882816 (Simulation time: 0 hr 28 min 16 sec) 
select_counter is 85
Heartbeat CPU 0 instructions: 62000003 cycles: 63679078 heartbeat IPC: 0.817071 cumulative IPC: 0.881452 (Simulation time: 0 hr 28 min 44 sec) 
select_counter is 51
Heartbeat CPU 0 instructions: 63000001 cycles: 64910412 heartbeat IPC: 0.812126 cumulative IPC: 0.880035 (Simulation time: 0 hr 29 min 12 sec) 
select_counter is 88
Heartbeat CPU 0 instructions: 64000000 cycles: 66231866 heartbeat IPC: 0.756741 cumulative IPC: 0.877387 (Simulation time: 0 hr 29 min 38 sec) 
select_counter is 86
Heartbeat CPU 0 instructions: 65000001 cycles: 67436132 heartbeat IPC: 0.830382 cumulative IPC: 0.876485 (Simulation time: 0 hr 30 min 8 sec) 
select_counter is 100
Heartbeat CPU 0 instructions: 66000003 cycles: 68638036 heartbeat IPC: 0.832015 cumulative IPC: 0.875649 (Simulation time: 0 hr 30 min 38 sec) 
select_counter is 89
Heartbeat CPU 0 instructions: 67000000 cycles: 69849315 heartbeat IPC: 0.825571 cumulative IPC: 0.874719 (Simulation time: 0 hr 31 min 9 sec) 
select_counter is 69
Heartbeat CPU 0 instructions: 68000000 cycles: 71163363 heartbeat IPC: 0.761007 cumulative IPC: 0.872471 (Simulation time: 0 hr 31 min 37 sec) 
select_counter is 91
Heartbeat CPU 0 instructions: 69000000 cycles: 72360055 heartbeat IPC: 0.835637 cumulative IPC: 0.87182 (Simulation time: 0 hr 32 min 8 sec) 
select_counter is 90
Heartbeat CPU 0 instructions: 70000002 cycles: 73562337 heartbeat IPC: 0.831753 cumulative IPC: 0.87112 (Simulation time: 0 hr 32 min 42 sec) 
select_counter is 97
Heartbeat CPU 0 instructions: 71000003 cycles: 74769109 heartbeat IPC: 0.828658 cumulative IPC: 0.870389 (Simulation time: 0 hr 33 min 13 sec) 
select_counter is 72
Heartbeat CPU 0 instructions: 72000000 cycles: 75977475 heartbeat IPC: 0.827561 cumulative IPC: 0.869663 (Simulation time: 0 hr 33 min 43 sec) 
select_counter is 75
Heartbeat CPU 0 instructions: 73000002 cycles: 77281241 heartbeat IPC: 0.76701 cumulative IPC: 0.867819 (Simulation time: 0 hr 34 min 12 sec) 
select_counter is 82
Heartbeat CPU 0 instructions: 74000000 cycles: 78480940 heartbeat IPC: 0.833541 cumulative IPC: 0.867262 (Simulation time: 0 hr 34 min 44 sec) 
select_counter is 90
Heartbeat CPU 0 instructions: 75000001 cycles: 79682455 heartbeat IPC: 0.832283 cumulative IPC: 0.866702 (Simulation time: 0 hr 35 min 15 sec) 
select_counter is 91
Heartbeat CPU 0 instructions: 76000000 cycles: 80891850 heartbeat IPC: 0.826859 cumulative IPC: 0.86607 (Simulation time: 0 hr 35 min 47 sec) 
select_counter is 59
Heartbeat CPU 0 instructions: 77000001 cycles: 82149107 heartbeat IPC: 0.795383 cumulative IPC: 0.864922 (Simulation time: 0 hr 36 min 16 sec) 
select_counter is 85
Heartbeat CPU 0 instructions: 78000003 cycles: 83315512 heartbeat IPC: 0.857337 cumulative IPC: 0.86481 (Simulation time: 0 hr 36 min 40 sec) 
select_counter is 80
Heartbeat CPU 0 instructions: 79000000 cycles: 84234570 heartbeat IPC: 1.08807 cumulative IPC: 0.867389 (Simulation time: 0 hr 37 min 3 sec) 
select_counter is 79
Heartbeat CPU 0 instructions: 80000000 cycles: 85138022 heartbeat IPC: 1.10687 cumulative IPC: 0.870078 (Simulation time: 0 hr 37 min 26 sec) 
select_counter is 86
Heartbeat CPU 0 instructions: 81000000 cycles: 85983764 heartbeat IPC: 1.18239 cumulative IPC: 0.873327 (Simulation time: 0 hr 37 min 49 sec) 
select_counter is 90
Heartbeat CPU 0 instructions: 82000001 cycles: 86875596 heartbeat IPC: 1.12129 cumulative IPC: 0.876018 (Simulation time: 0 hr 38 min 12 sec) 
select_counter is 81
Heartbeat CPU 0 instructions: 83000000 cycles: 87799482 heartbeat IPC: 1.08238 cumulative IPC: 0.878312 (Simulation time: 0 hr 38 min 37 sec) 
select_counter is 63
Heartbeat CPU 0 instructions: 84000000 cycles: 88716516 heartbeat IPC: 1.09047 cumulative IPC: 0.880627 (Simulation time: 0 hr 39 min 0 sec) 
select_counter is 81
Heartbeat CPU 0 instructions: 85000002 cycles: 89652586 heartbeat IPC: 1.0683 cumulative IPC: 0.882695 (Simulation time: 0 hr 39 min 29 sec) 
select_counter is 92
Heartbeat CPU 0 instructions: 86000002 cycles: 90582354 heartbeat IPC: 1.07554 cumulative IPC: 0.884782 (Simulation time: 0 hr 40 min 2 sec) 
select_counter is 94
Heartbeat CPU 0 instructions: 87000002 cycles: 91511906 heartbeat IPC: 1.07579 cumulative IPC: 0.886827 (Simulation time: 0 hr 40 min 32 sec) 
select_counter is 98
Heartbeat CPU 0 instructions: 88000000 cycles: 92561790 heartbeat IPC: 0.952484 cumulative IPC: 0.887611 (Simulation time: 0 hr 41 min 2 sec) 
select_counter is 100
Heartbeat CPU 0 instructions: 89000002 cycles: 93655428 heartbeat IPC: 0.914381 cumulative IPC: 0.88794 (Simulation time: 0 hr 41 min 32 sec) 
select_counter is 101
Heartbeat CPU 0 instructions: 90000001 cycles: 94744041 heartbeat IPC: 0.918599 cumulative IPC: 0.888311 (Simulation time: 0 hr 42 min 1 sec) 
select_counter is 102
Heartbeat CPU 0 instructions: 91000001 cycles: 95844258 heartbeat IPC: 0.908912 cumulative IPC: 0.88856 (Simulation time: 0 hr 42 min 31 sec) 
select_counter is 110
Heartbeat CPU 0 instructions: 92000000 cycles: 96929515 heartbeat IPC: 0.92144 cumulative IPC: 0.888947 (Simulation time: 0 hr 43 min 1 sec) 
select_counter is 115
Heartbeat CPU 0 instructions: 93000001 cycles: 98018266 heartbeat IPC: 0.918485 cumulative IPC: 0.889291 (Simulation time: 0 hr 43 min 32 sec) 
select_counter is 120
Heartbeat CPU 0 instructions: 94000001 cycles: 99102057 heartbeat IPC: 0.922687 cumulative IPC: 0.889674 (Simulation time: 0 hr 44 min 1 sec) 
select_counter is 121
Heartbeat CPU 0 instructions: 95000000 cycles: 100189137 heartbeat IPC: 0.919895 cumulative IPC: 0.890018 (Simulation time: 0 hr 44 min 28 sec) 
select_counter is 121
Heartbeat CPU 0 instructions: 96000000 cycles: 101272230 heartbeat IPC: 0.923282 cumulative IPC: 0.890391 (Simulation time: 0 hr 44 min 57 sec) 
select_counter is 124
Heartbeat CPU 0 instructions: 97000002 cycles: 102356469 heartbeat IPC: 0.922308 cumulative IPC: 0.890746 (Simulation time: 0 hr 45 min 27 sec) 
select_counter is 123
Heartbeat CPU 0 instructions: 98000002 cycles: 103439844 heartbeat IPC: 0.923041 cumulative IPC: 0.8911 (Simulation time: 0 hr 45 min 56 sec) 
select_counter is 123
Heartbeat CPU 0 instructions: 99000000 cycles: 104524769 heartbeat IPC: 0.921721 cumulative IPC: 0.891433 (Simulation time: 0 hr 46 min 24 sec) 
select_counter is 123
Heartbeat CPU 0 instructions: 100000000 cycles: 105610324 heartbeat IPC: 0.921188 cumulative IPC: 0.891753 (Simulation time: 0 hr 46 min 52 sec) 
select_counter is 123
Heartbeat CPU 0 instructions: 101000000 cycles: 106697304 heartbeat IPC: 0.91998 cumulative IPC: 0.892054 (Simulation time: 0 hr 47 min 19 sec) 
select_counter is 122
Heartbeat CPU 0 instructions: 102000000 cycles: 107788102 heartbeat IPC: 0.91676 cumulative IPC: 0.892315 (Simulation time: 0 hr 47 min 47 sec) 
select_counter is 122
Heartbeat CPU 0 instructions: 103000002 cycles: 108876599 heartbeat IPC: 0.9187 cumulative IPC: 0.892591 (Simulation time: 0 hr 48 min 14 sec) 
select_counter is 122
Heartbeat CPU 0 instructions: 104000000 cycles: 109965962 heartbeat IPC: 0.917966 cumulative IPC: 0.892853 (Simulation time: 0 hr 48 min 39 sec) 
select_counter is 123
Heartbeat CPU 0 instructions: 105000003 cycles: 111059886 heartbeat IPC: 0.914143 cumulative IPC: 0.893072 (Simulation time: 0 hr 49 min 3 sec) 
select_counter is 123
Heartbeat CPU 0 instructions: 106000002 cycles: 112156073 heartbeat IPC: 0.912252 cumulative IPC: 0.893268 (Simulation time: 0 hr 49 min 24 sec) 
select_counter is 124
Heartbeat CPU 0 instructions: 107000001 cycles: 113240325 heartbeat IPC: 0.922294 cumulative IPC: 0.893558 (Simulation time: 0 hr 49 min 46 sec) 
select_counter is 123
Heartbeat CPU 0 instructions: 108000000 cycles: 114334480 heartbeat IPC: 0.913946 cumulative IPC: 0.893761 (Simulation time: 0 hr 50 min 6 sec) 
select_counter is 123
Heartbeat CPU 0 instructions: 109000001 cycles: 115429329 heartbeat IPC: 0.913369 cumulative IPC: 0.893955 (Simulation time: 0 hr 50 min 27 sec) 
select_counter is 123
Heartbeat CPU 0 instructions: 110000002 cycles: 116529774 heartbeat IPC: 0.908724 cumulative IPC: 0.8941 (Simulation time: 0 hr 50 min 46 sec) 
select_counter is 122
Finished CPU 0 instructions: 100000000 cycles: 111844273 cummulative IPC: 0.8941 (Simulation time: 0 hr 50 min 46 sec) 

ChampSim completed all CPUs

Region of Interest Statistics

CPU 0 cummulative IPC: 0.8941 instructions: 100000000 cycles: 111844273
LLC TOTAL     ACCESS:    2346689  HIT:    2057230  MISS:     289459
LLC LOAD      ACCESS:     882584  HIT:     857605  MISS:      24979
LLC RFO       ACCESS:     180702  HIT:     106513  MISS:      74189
LLC PREFETCH  ACCESS:    1098593  HIT:     936426  MISS:     162167
LLC WRITEBACK ACCESS:     184810  HIT:     156686  MISS:      28124
Ship samples: 
20, 59, 84, 101, 143, 188, 208, 251, 279, 313, 345, 372, 384, 417, 469, 499, 519, 544, 578, 632, 643, 675, 711, 752, 778, 826, 835, 872, 916, 936, 979, 1013, 1048, 1059, 1116, 1133, 1159, 1208, 1217, 1263, 1303, 1331, 1372, 1379, 1411, 1465, 1478, 1521, 1540, 1592, 1615, 1632, 1688, 1720, 1747, 1783, 1815, 1848, 1876, 1910, 1921, 1957, 2015, 2036, 
Lime duel samples: 
13, 55, 74, 97, 134, 176, 212, 245, 270, 314, 351, 382, 409, 422, 479, 492, 524, 573, 584, 614, 659, 684, 728, 753, 769, 815, 840, 883, 905, 935, 969, 1019, 1050, 1078, 1114, 1147, 1183, 1200, 1230, 1256, 1291, 1321, 1370, 1404, 1424, 1451, 1495, 1518, 1566, 1588, 1601, 1638, 1686, 1700, 1728, 1763, 1820, 1841, 1875, 1896, 1951, 1965, 2000, 2019, 
Lime samples: 
13, 134, 270, 409, 524, 659, 769, 905, 1050, 1183, 1291, 1424, 1566, 1686, 1820, 
Insertion Distribution: 
	LOAD 14778 0 0 0 0 0 9477 2600 
	RFO 14498 0 0 0 0 0 30988 29618 
	PREF 0 11235 0 0 0 0 26288 119901 
	WRITEBACK 0 0 0 0 0 0 0 25091 
Total Prefetch Downgrades: 18239
