
*** ChampSim Multicore Out-of-Order Simulator ***

Warmup Instructions: 10000000
Simulation Instructions: 100000000
Configuration: 2
Number of CPUs: 1
LLC sets: 2048
LLC ways: 16
Off-chip DRAM Channels: 1 Width: 64-bit Data Rate: 1600 MT/s

CPU 0 runs /datasets/cs240c-wi22-a00-public/data/Assignment2-gz/libquantum_964B.trace.gz
CPU 0 L1D next line prefetcher
CPU 0 L2C IP-based stride prefetcher
Heartbeat CPU 0 instructions: 1000002 cycles: 333341 heartbeat IPC: 2.99994 cumulative IPC: 2.99994 (Simulation time: 0 hr 0 min 17 sec) 
select_counter is 513
Heartbeat CPU 0 instructions: 2000001 cycles: 666674 heartbeat IPC: 3 cumulative IPC: 2.99997 (Simulation time: 0 hr 0 min 32 sec) 
select_counter is 512
Heartbeat CPU 0 instructions: 3000000 cycles: 1000007 heartbeat IPC: 3 cumulative IPC: 2.99998 (Simulation time: 0 hr 0 min 48 sec) 
select_counter is 512
Heartbeat CPU 0 instructions: 4000000 cycles: 1333341 heartbeat IPC: 2.99999 cumulative IPC: 2.99998 (Simulation time: 0 hr 1 min 5 sec) 
select_counter is 512
Heartbeat CPU 0 instructions: 5000000 cycles: 1666674 heartbeat IPC: 3 cumulative IPC: 2.99999 (Simulation time: 0 hr 1 min 22 sec) 
select_counter is 512
Heartbeat CPU 0 instructions: 6000002 cycles: 2000008 heartbeat IPC: 3 cumulative IPC: 2.99999 (Simulation time: 0 hr 1 min 38 sec) 
select_counter is 512
Heartbeat CPU 0 instructions: 7000001 cycles: 2331518 heartbeat IPC: 3.0165 cumulative IPC: 3.00234 (Simulation time: 0 hr 1 min 54 sec) 
select_counter is 493
Heartbeat CPU 0 instructions: 8000000 cycles: 2662240 heartbeat IPC: 3.02368 cumulative IPC: 3.00499 (Simulation time: 0 hr 2 min 10 sec) 
select_counter is 460
Heartbeat CPU 0 instructions: 9000001 cycles: 2992962 heartbeat IPC: 3.02369 cumulative IPC: 3.00705 (Simulation time: 0 hr 2 min 26 sec) 
select_counter is 451
Heartbeat CPU 0 instructions: 10000001 cycles: 3323684 heartbeat IPC: 3.02369 cumulative IPC: 3.00871 (Simulation time: 0 hr 2 min 43 sec) 
select_counter is 439

Warmup complete CPU 0 instructions: 10000001 cycles: 3323684 (Simulation time: 0 hr 2 min 43 sec) 

Heartbeat CPU 0 instructions: 11000000 cycles: 5047891 heartbeat IPC: 0.579976 cumulative IPC: 0.579976 (Simulation time: 0 hr 3 min 11 sec) 
select_counter is 428
Heartbeat CPU 0 instructions: 12000000 cycles: 6786007 heartbeat IPC: 0.575336 cumulative IPC: 0.577647 (Simulation time: 0 hr 3 min 38 sec) 
select_counter is 421
Heartbeat CPU 0 instructions: 13000001 cycles: 8525195 heartbeat IPC: 0.574982 cumulative IPC: 0.576755 (Simulation time: 0 hr 4 min 8 sec) 
select_counter is 408
Heartbeat CPU 0 instructions: 14000000 cycles: 10268248 heartbeat IPC: 0.573705 cumulative IPC: 0.57599 (Simulation time: 0 hr 4 min 37 sec) 
select_counter is 445
Heartbeat CPU 0 instructions: 15000003 cycles: 12012408 heartbeat IPC: 0.573344 cumulative IPC: 0.575459 (Simulation time: 0 hr 5 min 6 sec) 
select_counter is 466
Heartbeat CPU 0 instructions: 16000000 cycles: 13749304 heartbeat IPC: 0.575738 cumulative IPC: 0.575505 (Simulation time: 0 hr 5 min 31 sec) 
select_counter is 488
Heartbeat CPU 0 instructions: 17000000 cycles: 15500254 heartbeat IPC: 0.571119 cumulative IPC: 0.574874 (Simulation time: 0 hr 5 min 59 sec) 
select_counter is 482
Heartbeat CPU 0 instructions: 18000003 cycles: 17237981 heartbeat IPC: 0.575466 cumulative IPC: 0.574948 (Simulation time: 0 hr 6 min 27 sec) 
select_counter is 504
Heartbeat CPU 0 instructions: 19000002 cycles: 18984032 heartbeat IPC: 0.57272 cumulative IPC: 0.5747 (Simulation time: 0 hr 6 min 54 sec) 
select_counter is 497
Heartbeat CPU 0 instructions: 20000000 cycles: 20642626 heartbeat IPC: 0.602919 cumulative IPC: 0.577402 (Simulation time: 0 hr 7 min 21 sec) 
select_counter is 1003
Heartbeat CPU 0 instructions: 21000003 cycles: 22359879 heartbeat IPC: 0.582327 cumulative IPC: 0.577847 (Simulation time: 0 hr 7 min 46 sec) 
select_counter is 989
Heartbeat CPU 0 instructions: 22000002 cycles: 24091096 heartbeat IPC: 0.577628 cumulative IPC: 0.577828 (Simulation time: 0 hr 8 min 11 sec) 
select_counter is 1017
Heartbeat CPU 0 instructions: 23000000 cycles: 25815885 heartbeat IPC: 0.57978 cumulative IPC: 0.577978 (Simulation time: 0 hr 8 min 40 sec) 
select_counter is 1022
Heartbeat CPU 0 instructions: 24000000 cycles: 27559888 heartbeat IPC: 0.573394 cumulative IPC: 0.577648 (Simulation time: 0 hr 9 min 7 sec) 
select_counter is 1007
Heartbeat CPU 0 instructions: 25000000 cycles: 29295450 heartbeat IPC: 0.576182 cumulative IPC: 0.57755 (Simulation time: 0 hr 9 min 34 sec) 
select_counter is 1022
Heartbeat CPU 0 instructions: 26000002 cycles: 31314624 heartbeat IPC: 0.495253 cumulative IPC: 0.571614 (Simulation time: 0 hr 10 min 7 sec) 
select_counter is 1022
Heartbeat CPU 0 instructions: 27000002 cycles: 33809942 heartbeat IPC: 0.400751 cumulative IPC: 0.557628 (Simulation time: 0 hr 10 min 43 sec) 
select_counter is 1023
Heartbeat CPU 0 instructions: 28000000 cycles: 36323297 heartbeat IPC: 0.397874 cumulative IPC: 0.545461 (Simulation time: 0 hr 11 min 19 sec) 
select_counter is 1017
Heartbeat CPU 0 instructions: 29000002 cycles: 38855266 heartbeat IPC: 0.39495 cumulative IPC: 0.534736 (Simulation time: 0 hr 11 min 57 sec) 
select_counter is 1022
Heartbeat CPU 0 instructions: 30000002 cycles: 41222923 heartbeat IPC: 0.422358 cumulative IPC: 0.527715 (Simulation time: 0 hr 12 min 35 sec) 
select_counter is 1014
Heartbeat CPU 0 instructions: 31000002 cycles: 43459679 heartbeat IPC: 0.447076 cumulative IPC: 0.523221 (Simulation time: 0 hr 13 min 12 sec) 
select_counter is 1001
Heartbeat CPU 0 instructions: 32000000 cycles: 45694434 heartbeat IPC: 0.447475 cumulative IPC: 0.519226 (Simulation time: 0 hr 13 min 49 sec) 
select_counter is 973
Heartbeat CPU 0 instructions: 33000002 cycles: 47954120 heartbeat IPC: 0.44254 cumulative IPC: 0.515343 (Simulation time: 0 hr 14 min 25 sec) 
select_counter is 162
Heartbeat CPU 0 instructions: 34000002 cycles: 50326032 heartbeat IPC: 0.421601 cumulative IPC: 0.510613 (Simulation time: 0 hr 15 min 3 sec) 
select_counter is 182
Heartbeat CPU 0 instructions: 35000002 cycles: 52702138 heartbeat IPC: 0.420857 cumulative IPC: 0.506294 (Simulation time: 0 hr 15 min 40 sec) 
select_counter is 262
Heartbeat CPU 0 instructions: 36000000 cycles: 55063769 heartbeat IPC: 0.423435 cumulative IPC: 0.502512 (Simulation time: 0 hr 16 min 19 sec) 
select_counter is 181
Heartbeat CPU 0 instructions: 37000001 cycles: 56940397 heartbeat IPC: 0.532871 cumulative IPC: 0.503574 (Simulation time: 0 hr 16 min 52 sec) 
select_counter is 64
Heartbeat CPU 0 instructions: 38000000 cycles: 58411545 heartbeat IPC: 0.679741 cumulative IPC: 0.508279 (Simulation time: 0 hr 17 min 22 sec) 
select_counter is 93
Heartbeat CPU 0 instructions: 39000003 cycles: 59877539 heartbeat IPC: 0.682133 cumulative IPC: 0.512786 (Simulation time: 0 hr 17 min 50 sec) 
select_counter is 128
Heartbeat CPU 0 instructions: 40000000 cycles: 61343256 heartbeat IPC: 0.682258 cumulative IPC: 0.517067 (Simulation time: 0 hr 18 min 20 sec) 
select_counter is 129
Heartbeat CPU 0 instructions: 41000001 cycles: 62809305 heartbeat IPC: 0.682106 cumulative IPC: 0.521134 (Simulation time: 0 hr 18 min 49 sec) 
select_counter is 40
Heartbeat CPU 0 instructions: 42000000 cycles: 64273119 heartbeat IPC: 0.683146 cumulative IPC: 0.525025 (Simulation time: 0 hr 19 min 17 sec) 
select_counter is 111
Heartbeat CPU 0 instructions: 43000001 cycles: 65713373 heartbeat IPC: 0.694323 cumulative IPC: 0.528934 (Simulation time: 0 hr 19 min 46 sec) 
select_counter is 388
Heartbeat CPU 0 instructions: 44000000 cycles: 67166157 heartbeat IPC: 0.688333 cumulative IPC: 0.532561 (Simulation time: 0 hr 20 min 14 sec) 
select_counter is 444
Heartbeat CPU 0 instructions: 45000002 cycles: 68632264 heartbeat IPC: 0.68208 cumulative IPC: 0.535917 (Simulation time: 0 hr 20 min 42 sec) 
select_counter is 444
Heartbeat CPU 0 instructions: 46000001 cycles: 70098445 heartbeat IPC: 0.682043 cumulative IPC: 0.539126 (Simulation time: 0 hr 21 min 11 sec) 
select_counter is 444
Heartbeat CPU 0 instructions: 47000000 cycles: 71564535 heartbeat IPC: 0.682086 cumulative IPC: 0.542197 (Simulation time: 0 hr 21 min 40 sec) 
select_counter is 444
Heartbeat CPU 0 instructions: 48000000 cycles: 73030699 heartbeat IPC: 0.682052 cumulative IPC: 0.545139 (Simulation time: 0 hr 22 min 7 sec) 
select_counter is 445
Heartbeat CPU 0 instructions: 49000002 cycles: 74490330 heartbeat IPC: 0.685106 cumulative IPC: 0.54801 (Simulation time: 0 hr 22 min 35 sec) 
select_counter is 407
Heartbeat CPU 0 instructions: 50000001 cycles: 75962277 heartbeat IPC: 0.679372 cumulative IPC: 0.550671 (Simulation time: 0 hr 23 min 3 sec) 
select_counter is 339
Heartbeat CPU 0 instructions: 51000000 cycles: 77434365 heartbeat IPC: 0.679307 cumulative IPC: 0.553227 (Simulation time: 0 hr 23 min 31 sec) 
select_counter is 349
Heartbeat CPU 0 instructions: 52000000 cycles: 78907825 heartbeat IPC: 0.678675 cumulative IPC: 0.555672 (Simulation time: 0 hr 23 min 58 sec) 
select_counter is 362
Heartbeat CPU 0 instructions: 53000000 cycles: 80379300 heartbeat IPC: 0.67959 cumulative IPC: 0.558038 (Simulation time: 0 hr 24 min 26 sec) 
select_counter is 378
Heartbeat CPU 0 instructions: 54000002 cycles: 81853964 heartbeat IPC: 0.678122 cumulative IPC: 0.560293 (Simulation time: 0 hr 24 min 56 sec) 
select_counter is 399
Heartbeat CPU 0 instructions: 55000002 cycles: 83239446 heartbeat IPC: 0.72177 cumulative IPC: 0.563093 (Simulation time: 0 hr 25 min 23 sec) 
select_counter is 227
Heartbeat CPU 0 instructions: 56000000 cycles: 84747047 heartbeat IPC: 0.663304 cumulative IPC: 0.564948 (Simulation time: 0 hr 25 min 49 sec) 
select_counter is 846
Heartbeat CPU 0 instructions: 57000001 cycles: 86484150 heartbeat IPC: 0.575672 cumulative IPC: 0.565172 (Simulation time: 0 hr 26 min 16 sec) 
select_counter is 841
Heartbeat CPU 0 instructions: 58000000 cycles: 88215934 heartbeat IPC: 0.577439 cumulative IPC: 0.565423 (Simulation time: 0 hr 26 min 43 sec) 
select_counter is 855
Heartbeat CPU 0 instructions: 59000003 cycles: 89953699 heartbeat IPC: 0.575454 cumulative IPC: 0.565624 (Simulation time: 0 hr 27 min 9 sec) 
select_counter is 852
Heartbeat CPU 0 instructions: 60000000 cycles: 91690125 heartbeat IPC: 0.575894 cumulative IPC: 0.565826 (Simulation time: 0 hr 27 min 36 sec) 
select_counter is 741
Heartbeat CPU 0 instructions: 61000002 cycles: 93422553 heartbeat IPC: 0.577226 cumulative IPC: 0.566045 (Simulation time: 0 hr 28 min 4 sec) 
select_counter is 844
Heartbeat CPU 0 instructions: 62000001 cycles: 95128756 heartbeat IPC: 0.586096 cumulative IPC: 0.566418 (Simulation time: 0 hr 28 min 30 sec) 
select_counter is 1023
Heartbeat CPU 0 instructions: 63000001 cycles: 96847979 heartbeat IPC: 0.581658 cumulative IPC: 0.566698 (Simulation time: 0 hr 28 min 56 sec) 
select_counter is 1016
Heartbeat CPU 0 instructions: 64000000 cycles: 98589167 heartbeat IPC: 0.57432 cumulative IPC: 0.566837 (Simulation time: 0 hr 29 min 22 sec) 
select_counter is 1019
Heartbeat CPU 0 instructions: 65000002 cycles: 100323205 heartbeat IPC: 0.57669 cumulative IPC: 0.567013 (Simulation time: 0 hr 29 min 49 sec) 
select_counter is 989
Heartbeat CPU 0 instructions: 66000002 cycles: 102059115 heartbeat IPC: 0.576067 cumulative IPC: 0.567172 (Simulation time: 0 hr 30 min 15 sec) 
select_counter is 975
Heartbeat CPU 0 instructions: 67000000 cycles: 103796858 heartbeat IPC: 0.575458 cumulative IPC: 0.567316 (Simulation time: 0 hr 30 min 41 sec) 
select_counter is 956
Heartbeat CPU 0 instructions: 68000000 cycles: 105519642 heartbeat IPC: 0.580456 cumulative IPC: 0.567537 (Simulation time: 0 hr 31 min 6 sec) 
select_counter is 893
Heartbeat CPU 0 instructions: 69000000 cycles: 107241448 heartbeat IPC: 0.580786 cumulative IPC: 0.567757 (Simulation time: 0 hr 31 min 32 sec) 
select_counter is 800
Heartbeat CPU 0 instructions: 70000002 cycles: 108983255 heartbeat IPC: 0.574118 cumulative IPC: 0.567861 (Simulation time: 0 hr 31 min 59 sec) 
select_counter is 785
Heartbeat CPU 0 instructions: 71000001 cycles: 110735846 heartbeat IPC: 0.570583 cumulative IPC: 0.567906 (Simulation time: 0 hr 32 min 24 sec) 
select_counter is 799
Heartbeat CPU 0 instructions: 72000000 cycles: 112492171 heartbeat IPC: 0.56937 cumulative IPC: 0.567929 (Simulation time: 0 hr 32 min 48 sec) 
select_counter is 812
Heartbeat CPU 0 instructions: 73000000 cycles: 114247439 heartbeat IPC: 0.569714 cumulative IPC: 0.567958 (Simulation time: 0 hr 33 min 13 sec) 
select_counter is 824
Heartbeat CPU 0 instructions: 74000000 cycles: 116039380 heartbeat IPC: 0.558054 cumulative IPC: 0.5678 (Simulation time: 0 hr 33 min 40 sec) 
select_counter is 240
Heartbeat CPU 0 instructions: 75000000 cycles: 118229606 heartbeat IPC: 0.456574 cumulative IPC: 0.56568 (Simulation time: 0 hr 34 min 12 sec) 
select_counter is 730
Heartbeat CPU 0 instructions: 76000000 cycles: 120446937 heartbeat IPC: 0.450993 cumulative IPC: 0.563509 (Simulation time: 0 hr 34 min 45 sec) 
select_counter is 786
Heartbeat CPU 0 instructions: 77000000 cycles: 122657630 heartbeat IPC: 0.452347 cumulative IPC: 0.56145 (Simulation time: 0 hr 35 min 21 sec) 
select_counter is 547
Heartbeat CPU 0 instructions: 78000000 cycles: 124892166 heartbeat IPC: 0.44752 cumulative IPC: 0.559355 (Simulation time: 0 hr 35 min 56 sec) 
select_counter is 1021
Heartbeat CPU 0 instructions: 79000000 cycles: 127095828 heartbeat IPC: 0.45379 cumulative IPC: 0.557476 (Simulation time: 0 hr 36 min 34 sec) 
select_counter is 1013
Heartbeat CPU 0 instructions: 80000000 cycles: 129314330 heartbeat IPC: 0.450755 cumulative IPC: 0.555597 (Simulation time: 0 hr 37 min 9 sec) 
select_counter is 1000
Heartbeat CPU 0 instructions: 81000000 cycles: 131527091 heartbeat IPC: 0.451924 cumulative IPC: 0.553807 (Simulation time: 0 hr 37 min 41 sec) 
select_counter is 984
Heartbeat CPU 0 instructions: 82000000 cycles: 133756552 heartbeat IPC: 0.448539 cumulative IPC: 0.552008 (Simulation time: 0 hr 38 min 16 sec) 
select_counter is 851
Heartbeat CPU 0 instructions: 83000000 cycles: 135998422 heartbeat IPC: 0.446056 cumulative IPC: 0.550218 (Simulation time: 0 hr 38 min 51 sec) 
select_counter is 1022
Heartbeat CPU 0 instructions: 84000000 cycles: 138201933 heartbeat IPC: 0.453821 cumulative IPC: 0.548643 (Simulation time: 0 hr 39 min 22 sec) 
select_counter is 1021
Heartbeat CPU 0 instructions: 85000001 cycles: 139797398 heartbeat IPC: 0.626777 cumulative IPC: 0.549556 (Simulation time: 0 hr 39 min 52 sec) 
select_counter is 522
Heartbeat CPU 0 instructions: 86000000 cycles: 141392473 heartbeat IPC: 0.626929 cumulative IPC: 0.55045 (Simulation time: 0 hr 40 min 21 sec) 
select_counter is 495
Heartbeat CPU 0 instructions: 87000003 cycles: 142902413 heartbeat IPC: 0.66228 cumulative IPC: 0.55166 (Simulation time: 0 hr 40 min 50 sec) 
select_counter is 514
Heartbeat CPU 0 instructions: 88000000 cycles: 144412256 heartbeat IPC: 0.662319 cumulative IPC: 0.552844 (Simulation time: 0 hr 41 min 19 sec) 
select_counter is 534
Heartbeat CPU 0 instructions: 89000001 cycles: 145923359 heartbeat IPC: 0.661769 cumulative IPC: 0.553998 (Simulation time: 0 hr 41 min 46 sec) 
select_counter is 474
Heartbeat CPU 0 instructions: 90000000 cycles: 147433005 heartbeat IPC: 0.662406 cumulative IPC: 0.555134 (Simulation time: 0 hr 42 min 13 sec) 
select_counter is 427
Heartbeat CPU 0 instructions: 91000001 cycles: 148943657 heartbeat IPC: 0.661967 cumulative IPC: 0.556242 (Simulation time: 0 hr 42 min 44 sec) 
select_counter is 591
Heartbeat CPU 0 instructions: 92000000 cycles: 150453706 heartbeat IPC: 0.662229 cumulative IPC: 0.55733 (Simulation time: 0 hr 43 min 10 sec) 
select_counter is 808
Heartbeat CPU 0 instructions: 93000002 cycles: 151963017 heartbeat IPC: 0.662555 cumulative IPC: 0.558399 (Simulation time: 0 hr 43 min 38 sec) 
select_counter is 812
Heartbeat CPU 0 instructions: 94000001 cycles: 153472937 heartbeat IPC: 0.662286 cumulative IPC: 0.559443 (Simulation time: 0 hr 44 min 3 sec) 
select_counter is 812
Heartbeat CPU 0 instructions: 95000000 cycles: 154982861 heartbeat IPC: 0.662284 cumulative IPC: 0.560467 (Simulation time: 0 hr 44 min 28 sec) 
select_counter is 813
Heartbeat CPU 0 instructions: 96000000 cycles: 156492192 heartbeat IPC: 0.662545 cumulative IPC: 0.561473 (Simulation time: 0 hr 44 min 53 sec) 
select_counter is 842
Heartbeat CPU 0 instructions: 97000002 cycles: 158001245 heartbeat IPC: 0.662669 cumulative IPC: 0.56246 (Simulation time: 0 hr 45 min 19 sec) 
select_counter is 845
Heartbeat CPU 0 instructions: 98000001 cycles: 159506085 heartbeat IPC: 0.664522 cumulative IPC: 0.563444 (Simulation time: 0 hr 45 min 44 sec) 
select_counter is 793
Heartbeat CPU 0 instructions: 99000000 cycles: 161015603 heartbeat IPC: 0.662462 cumulative IPC: 0.564392 (Simulation time: 0 hr 46 min 10 sec) 
select_counter is 797
Heartbeat CPU 0 instructions: 100000000 cycles: 162525644 heartbeat IPC: 0.662234 cumulative IPC: 0.56532 (Simulation time: 0 hr 46 min 35 sec) 
select_counter is 824
Heartbeat CPU 0 instructions: 101000000 cycles: 164011869 heartbeat IPC: 0.672846 cumulative IPC: 0.566314 (Simulation time: 0 hr 46 min 59 sec) 
select_counter is 914
Heartbeat CPU 0 instructions: 102000002 cycles: 165502112 heartbeat IPC: 0.671033 cumulative IPC: 0.567276 (Simulation time: 0 hr 47 min 25 sec) 
select_counter is 991
Heartbeat CPU 0 instructions: 103000001 cycles: 166982983 heartbeat IPC: 0.675278 cumulative IPC: 0.568254 (Simulation time: 0 hr 47 min 49 sec) 
select_counter is 1023
Heartbeat CPU 0 instructions: 104000000 cycles: 168986011 heartbeat IPC: 0.499244 cumulative IPC: 0.567419 (Simulation time: 0 hr 48 min 15 sec) 
select_counter is 844
Heartbeat CPU 0 instructions: 105000000 cycles: 171231761 heartbeat IPC: 0.445286 cumulative IPC: 0.565786 (Simulation time: 0 hr 48 min 45 sec) 
select_counter is 905
Heartbeat CPU 0 instructions: 106000000 cycles: 173480085 heartbeat IPC: 0.444776 cumulative IPC: 0.564187 (Simulation time: 0 hr 49 min 11 sec) 
select_counter is 686
Heartbeat CPU 0 instructions: 107000000 cycles: 175717101 heartbeat IPC: 0.447024 cumulative IPC: 0.562666 (Simulation time: 0 hr 49 min 35 sec) 
select_counter is 1021
Heartbeat CPU 0 instructions: 108000000 cycles: 177954943 heartbeat IPC: 0.446859 cumulative IPC: 0.561182 (Simulation time: 0 hr 49 min 58 sec) 
select_counter is 1021
Heartbeat CPU 0 instructions: 109000000 cycles: 180208124 heartbeat IPC: 0.443817 cumulative IPC: 0.559687 (Simulation time: 0 hr 50 min 19 sec) 
select_counter is 998
Heartbeat CPU 0 instructions: 110000000 cycles: 182457507 heartbeat IPC: 0.444566 cumulative IPC: 0.558242 (Simulation time: 0 hr 50 min 42 sec) 
select_counter is 1021
Finished CPU 0 instructions: 100000003 cycles: 179133824 cummulative IPC: 0.558242 (Simulation time: 0 hr 50 min 42 sec) 

ChampSim completed all CPUs

Region of Interest Statistics

CPU 0 cummulative IPC: 0.558242 instructions: 100000003 cycles: 179133824
LLC TOTAL     ACCESS:    4917133  HIT:     306917  MISS:    4610216
LLC LOAD      ACCESS:    1163356  HIT:      40540  MISS:    1122816
LLC RFO       ACCESS:         24  HIT:         12  MISS:         12
LLC PREFETCH  ACCESS:    2227055  HIT:      84885  MISS:    2142170
LLC WRITEBACK ACCESS:    1526698  HIT:     181480  MISS:    1345218
Ship samples: 
22, 35, 73, 119, 155, 191, 216, 242, 265, 302, 349, 379, 410, 418, 476, 507, 515, 569, 601, 613, 662, 681, 715, 761, 770, 800, 852, 875, 897, 952, 990, 1008, 1041, 1070, 1113, 1151, 1175, 1213, 1239, 1254, 1303, 1331, 1361, 1396, 1434, 1469, 1473, 1535, 1548, 1571, 1609, 1655, 1680, 1717, 1745, 1766, 1793, 1851, 1882, 1906, 1921, 1954, 1997, 2029, 
Lime duel samples: 
17, 51, 70, 123, 152, 166, 212, 231, 267, 295, 331, 364, 395, 422, 458, 496, 530, 574, 588, 624, 660, 676, 718, 763, 788, 808, 832, 891, 910, 941, 989, 1011, 1025, 1065, 1099, 1139, 1167, 1192, 1219, 1271, 1311, 1318, 1362, 1377, 1439, 1457, 1485, 1534, 1546, 1578, 1631, 1650, 1682, 1722, 1735, 1787, 1801, 1849, 1875, 1903, 1940, 1967, 1986, 2017, 
Lime samples: 
17, 152, 267, 395, 530, 660, 788, 910, 1025, 1167, 1311, 1439, 1546, 1682, 1801, 
Insertion Distribution: 
	LOAD 8510 0 0 0 0 0 15884 300586 
	RFO 0 0 0 0 0 0 4 0 
	PREF 0 15233 0 0 0 0 23576 850445 
	WRITEBACK 0 0 0 0 0 0 0 233531 
Total Prefetch Downgrades: 7572
