
*** ChampSim Multicore Out-of-Order Simulator ***

Warmup Instructions: 10000000
Simulation Instructions: 100000000
Configuration: 2
Number of CPUs: 1
LLC sets: 2048
LLC ways: 16
Off-chip DRAM Channels: 1 Width: 64-bit Data Rate: 1600 MT/s

CPU 0 runs /datasets/cs240c-wi22-a00-public/data/Assignment2-gz/sphinx3_2520B.trace.gz
CPU 0 L1D next line prefetcher
CPU 0 L2C IP-based stride prefetcher
Heartbeat CPU 0 instructions: 1000003 cycles: 338965 heartbeat IPC: 2.95017 cumulative IPC: 2.95017 (Simulation time: 0 hr 0 min 19 sec) 
select_counter is 767
Heartbeat CPU 0 instructions: 2000000 cycles: 737250 heartbeat IPC: 2.51076 cumulative IPC: 2.71278 (Simulation time: 0 hr 0 min 41 sec) 
select_counter is 1022
Heartbeat CPU 0 instructions: 3000003 cycles: 1185268 heartbeat IPC: 2.23206 cumulative IPC: 2.53108 (Simulation time: 0 hr 1 min 0 sec) 
select_counter is 1023
Heartbeat CPU 0 instructions: 4000000 cycles: 1524300 heartbeat IPC: 2.94957 cumulative IPC: 2.62416 (Simulation time: 0 hr 1 min 18 sec) 
select_counter is 1023
Heartbeat CPU 0 instructions: 5000001 cycles: 1902483 heartbeat IPC: 2.64423 cumulative IPC: 2.62814 (Simulation time: 0 hr 1 min 38 sec) 
select_counter is 1001
Heartbeat CPU 0 instructions: 6000001 cycles: 2368257 heartbeat IPC: 2.14696 cumulative IPC: 2.53351 (Simulation time: 0 hr 1 min 57 sec) 
select_counter is 970
Heartbeat CPU 0 instructions: 7000001 cycles: 2707198 heartbeat IPC: 2.95037 cumulative IPC: 2.5857 (Simulation time: 0 hr 2 min 16 sec) 
select_counter is 1020
Heartbeat CPU 0 instructions: 8000000 cycles: 3056212 heartbeat IPC: 2.86521 cumulative IPC: 2.61762 (Simulation time: 0 hr 2 min 34 sec) 
select_counter is 1014
Heartbeat CPU 0 instructions: 9000000 cycles: 3509849 heartbeat IPC: 2.20441 cumulative IPC: 2.56421 (Simulation time: 0 hr 2 min 52 sec) 
select_counter is 977
Heartbeat CPU 0 instructions: 10000000 cycles: 3860010 heartbeat IPC: 2.85583 cumulative IPC: 2.59067 (Simulation time: 0 hr 3 min 13 sec) 
select_counter is 1020

Warmup complete CPU 0 instructions: 10000004 cycles: 3860011 (Simulation time: 0 hr 3 min 13 sec) 

Heartbeat CPU 0 instructions: 11000000 cycles: 4731132 heartbeat IPC: 1.14794 cumulative IPC: 1.14794 (Simulation time: 0 hr 3 min 39 sec) 
select_counter is 1022
Heartbeat CPU 0 instructions: 12000000 cycles: 5673214 heartbeat IPC: 1.06148 cumulative IPC: 1.10302 (Simulation time: 0 hr 4 min 5 sec) 
select_counter is 971
Heartbeat CPU 0 instructions: 13000002 cycles: 6530452 heartbeat IPC: 1.16654 cumulative IPC: 1.12341 (Simulation time: 0 hr 4 min 28 sec) 
select_counter is 1023
Heartbeat CPU 0 instructions: 14000002 cycles: 7369412 heartbeat IPC: 1.19195 cumulative IPC: 1.1398 (Simulation time: 0 hr 4 min 52 sec) 
select_counter is 1023
Heartbeat CPU 0 instructions: 15000003 cycles: 8301247 heartbeat IPC: 1.07315 cumulative IPC: 1.12581 (Simulation time: 0 hr 5 min 14 sec) 
select_counter is 980
Heartbeat CPU 0 instructions: 16000000 cycles: 9147469 heartbeat IPC: 1.18172 cumulative IPC: 1.13476 (Simulation time: 0 hr 5 min 36 sec) 
select_counter is 1022
Heartbeat CPU 0 instructions: 17000000 cycles: 9970226 heartbeat IPC: 1.21543 cumulative IPC: 1.14562 (Simulation time: 0 hr 6 min 1 sec) 
select_counter is 1020
Heartbeat CPU 0 instructions: 18000002 cycles: 10882758 heartbeat IPC: 1.09585 cumulative IPC: 1.13916 (Simulation time: 0 hr 6 min 22 sec) 
select_counter is 978
Heartbeat CPU 0 instructions: 19000001 cycles: 11722103 heartbeat IPC: 1.1914 cumulative IPC: 1.14473 (Simulation time: 0 hr 6 min 44 sec) 
select_counter is 1023
Heartbeat CPU 0 instructions: 20000000 cycles: 12540742 heartbeat IPC: 1.22154 cumulative IPC: 1.15198 (Simulation time: 0 hr 7 min 6 sec) 
select_counter is 1021
Heartbeat CPU 0 instructions: 21000001 cycles: 13721615 heartbeat IPC: 0.846832 cumulative IPC: 1.11544 (Simulation time: 0 hr 7 min 31 sec) 
select_counter is 1023
Heartbeat CPU 0 instructions: 22000002 cycles: 14705845 heartbeat IPC: 1.01602 cumulative IPC: 1.10642 (Simulation time: 0 hr 7 min 53 sec) 
select_counter is 991
Heartbeat CPU 0 instructions: 23000001 cycles: 15536518 heartbeat IPC: 1.20384 cumulative IPC: 1.11335 (Simulation time: 0 hr 8 min 19 sec) 
select_counter is 1023
Heartbeat CPU 0 instructions: 24000000 cycles: 16362883 heartbeat IPC: 1.21012 cumulative IPC: 1.11974 (Simulation time: 0 hr 8 min 42 sec) 
select_counter is 1023
Heartbeat CPU 0 instructions: 25000003 cycles: 17225374 heartbeat IPC: 1.15944 cumulative IPC: 1.1223 (Simulation time: 0 hr 9 min 5 sec) 
select_counter is 984
Heartbeat CPU 0 instructions: 26000000 cycles: 18044249 heartbeat IPC: 1.22118 cumulative IPC: 1.12801 (Simulation time: 0 hr 9 min 28 sec) 
select_counter is 1022
Heartbeat CPU 0 instructions: 27000002 cycles: 18874424 heartbeat IPC: 1.20457 cumulative IPC: 1.13225 (Simulation time: 0 hr 9 min 52 sec) 
select_counter is 1021
Heartbeat CPU 0 instructions: 28000000 cycles: 19741082 heartbeat IPC: 1.15386 cumulative IPC: 1.13342 (Simulation time: 0 hr 10 min 14 sec) 
select_counter is 984
Heartbeat CPU 0 instructions: 29000003 cycles: 20567115 heartbeat IPC: 1.21061 cumulative IPC: 1.13724 (Simulation time: 0 hr 10 min 36 sec) 
select_counter is 1021
Heartbeat CPU 0 instructions: 30000003 cycles: 21394617 heartbeat IPC: 1.20846 cumulative IPC: 1.1406 (Simulation time: 0 hr 10 min 59 sec) 
select_counter is 1022
Heartbeat CPU 0 instructions: 31000001 cycles: 22248254 heartbeat IPC: 1.17146 cumulative IPC: 1.14203 (Simulation time: 0 hr 11 min 21 sec) 
select_counter is 987
Heartbeat CPU 0 instructions: 32000000 cycles: 23066786 heartbeat IPC: 1.2217 cumulative IPC: 1.14543 (Simulation time: 0 hr 11 min 45 sec) 
select_counter is 1023
Heartbeat CPU 0 instructions: 33000000 cycles: 23896042 heartbeat IPC: 1.2059 cumulative IPC: 1.14793 (Simulation time: 0 hr 12 min 10 sec) 
select_counter is 1022
Heartbeat CPU 0 instructions: 34000000 cycles: 24743407 heartbeat IPC: 1.18013 cumulative IPC: 1.14924 (Simulation time: 0 hr 12 min 32 sec) 
select_counter is 990
Heartbeat CPU 0 instructions: 35000002 cycles: 25571498 heartbeat IPC: 1.2076 cumulative IPC: 1.15146 (Simulation time: 0 hr 12 min 53 sec) 
select_counter is 1023
Heartbeat CPU 0 instructions: 36000000 cycles: 26378557 heartbeat IPC: 1.23906 cumulative IPC: 1.1546 (Simulation time: 0 hr 13 min 15 sec) 
select_counter is 1022
Heartbeat CPU 0 instructions: 37000000 cycles: 27234259 heartbeat IPC: 1.16863 cumulative IPC: 1.15512 (Simulation time: 0 hr 13 min 36 sec) 
select_counter is 988
Heartbeat CPU 0 instructions: 38000002 cycles: 28069143 heartbeat IPC: 1.19777 cumulative IPC: 1.15659 (Simulation time: 0 hr 14 min 0 sec) 
select_counter is 1023
Heartbeat CPU 0 instructions: 39000000 cycles: 28920159 heartbeat IPC: 1.17506 cumulative IPC: 1.15722 (Simulation time: 0 hr 14 min 23 sec) 
select_counter is 1023
Heartbeat CPU 0 instructions: 40000000 cycles: 29779529 heartbeat IPC: 1.16364 cumulative IPC: 1.15743 (Simulation time: 0 hr 14 min 46 sec) 
select_counter is 1005
Heartbeat CPU 0 instructions: 41000001 cycles: 30604398 heartbeat IPC: 1.21231 cumulative IPC: 1.15912 (Simulation time: 0 hr 15 min 9 sec) 
select_counter is 1023
Heartbeat CPU 0 instructions: 42000002 cycles: 31445660 heartbeat IPC: 1.18869 cumulative IPC: 1.16002 (Simulation time: 0 hr 15 min 30 sec) 
select_counter is 1021
Heartbeat CPU 0 instructions: 43000001 cycles: 32277276 heartbeat IPC: 1.20248 cumulative IPC: 1.16127 (Simulation time: 0 hr 15 min 51 sec) 
select_counter is 1014
Heartbeat CPU 0 instructions: 44000000 cycles: 33102185 heartbeat IPC: 1.21225 cumulative IPC: 1.1627 (Simulation time: 0 hr 16 min 13 sec) 
select_counter is 1023
Heartbeat CPU 0 instructions: 45000001 cycles: 33933690 heartbeat IPC: 1.20264 cumulative IPC: 1.16381 (Simulation time: 0 hr 16 min 35 sec) 
select_counter is 1022
Heartbeat CPU 0 instructions: 46000001 cycles: 34791238 heartbeat IPC: 1.16612 cumulative IPC: 1.16387 (Simulation time: 0 hr 16 min 56 sec) 
select_counter is 1023
Heartbeat CPU 0 instructions: 47000003 cycles: 35612680 heartbeat IPC: 1.21737 cumulative IPC: 1.16526 (Simulation time: 0 hr 17 min 17 sec) 
select_counter is 1022
Heartbeat CPU 0 instructions: 48000000 cycles: 36456307 heartbeat IPC: 1.18535 cumulative IPC: 1.16578 (Simulation time: 0 hr 17 min 38 sec) 
select_counter is 1016
Heartbeat CPU 0 instructions: 49000002 cycles: 37279209 heartbeat IPC: 1.21521 cumulative IPC: 1.16699 (Simulation time: 0 hr 18 min 0 sec) 
select_counter is 1022
Heartbeat CPU 0 instructions: 50000003 cycles: 38096612 heartbeat IPC: 1.22339 cumulative IPC: 1.16834 (Simulation time: 0 hr 18 min 22 sec) 
select_counter is 1021
Heartbeat CPU 0 instructions: 51000001 cycles: 38936661 heartbeat IPC: 1.1904 cumulative IPC: 1.16887 (Simulation time: 0 hr 18 min 44 sec) 
select_counter is 1017
Heartbeat CPU 0 instructions: 52000000 cycles: 39751866 heartbeat IPC: 1.22668 cumulative IPC: 1.17018 (Simulation time: 0 hr 19 min 7 sec) 
select_counter is 1023
Heartbeat CPU 0 instructions: 53000001 cycles: 40573570 heartbeat IPC: 1.21698 cumulative IPC: 1.17123 (Simulation time: 0 hr 19 min 29 sec) 
select_counter is 1021
Heartbeat CPU 0 instructions: 54000001 cycles: 41394648 heartbeat IPC: 1.21791 cumulative IPC: 1.17225 (Simulation time: 0 hr 19 min 52 sec) 
select_counter is 1014
Heartbeat CPU 0 instructions: 55000000 cycles: 42188029 heartbeat IPC: 1.26043 cumulative IPC: 1.17408 (Simulation time: 0 hr 20 min 12 sec) 
select_counter is 1023
Heartbeat CPU 0 instructions: 56000000 cycles: 43000983 heartbeat IPC: 1.23008 cumulative IPC: 1.17524 (Simulation time: 0 hr 20 min 33 sec) 
select_counter is 1023
Heartbeat CPU 0 instructions: 57000000 cycles: 43917782 heartbeat IPC: 1.09075 cumulative IPC: 1.17331 (Simulation time: 0 hr 20 min 56 sec) 
select_counter is 1020
Heartbeat CPU 0 instructions: 58000002 cycles: 45046842 heartbeat IPC: 0.885694 cumulative IPC: 1.16542 (Simulation time: 0 hr 21 min 17 sec) 
select_counter is 1020
Heartbeat CPU 0 instructions: 59000001 cycles: 45883106 heartbeat IPC: 1.19579 cumulative IPC: 1.16603 (Simulation time: 0 hr 21 min 38 sec) 
select_counter is 1015
Heartbeat CPU 0 instructions: 60000000 cycles: 46698628 heartbeat IPC: 1.22621 cumulative IPC: 1.16717 (Simulation time: 0 hr 21 min 58 sec) 
select_counter is 1023
Heartbeat CPU 0 instructions: 61000001 cycles: 47504051 heartbeat IPC: 1.24158 cumulative IPC: 1.16854 (Simulation time: 0 hr 22 min 19 sec) 
select_counter is 1018
Heartbeat CPU 0 instructions: 62000000 cycles: 48320056 heartbeat IPC: 1.22548 cumulative IPC: 1.16959 (Simulation time: 0 hr 22 min 40 sec) 
select_counter is 1023
Heartbeat CPU 0 instructions: 63000002 cycles: 49130796 heartbeat IPC: 1.23344 cumulative IPC: 1.17073 (Simulation time: 0 hr 23 min 3 sec) 
select_counter is 1020
Heartbeat CPU 0 instructions: 64000000 cycles: 49955865 heartbeat IPC: 1.21202 cumulative IPC: 1.17147 (Simulation time: 0 hr 23 min 24 sec) 
select_counter is 1016
Heartbeat CPU 0 instructions: 65000003 cycles: 50761165 heartbeat IPC: 1.24178 cumulative IPC: 1.17268 (Simulation time: 0 hr 23 min 45 sec) 
select_counter is 1023
Heartbeat CPU 0 instructions: 66000003 cycles: 51577689 heartbeat IPC: 1.2247 cumulative IPC: 1.17357 (Simulation time: 0 hr 24 min 6 sec) 
select_counter is 1022
Heartbeat CPU 0 instructions: 67000003 cycles: 52441198 heartbeat IPC: 1.15807 cumulative IPC: 1.17329 (Simulation time: 0 hr 24 min 29 sec) 
select_counter is 1012
Heartbeat CPU 0 instructions: 68000000 cycles: 53246486 heartbeat IPC: 1.24179 cumulative IPC: 1.17441 (Simulation time: 0 hr 24 min 50 sec) 
select_counter is 1023
Heartbeat CPU 0 instructions: 69000003 cycles: 54065565 heartbeat IPC: 1.22089 cumulative IPC: 1.17517 (Simulation time: 0 hr 25 min 12 sec) 
select_counter is 1023
Heartbeat CPU 0 instructions: 70000000 cycles: 54917110 heartbeat IPC: 1.17433 cumulative IPC: 1.17515 (Simulation time: 0 hr 25 min 36 sec) 
select_counter is 1014
Heartbeat CPU 0 instructions: 71000002 cycles: 55727471 heartbeat IPC: 1.23402 cumulative IPC: 1.17607 (Simulation time: 0 hr 25 min 58 sec) 
select_counter is 1022
Heartbeat CPU 0 instructions: 72000000 cycles: 56543057 heartbeat IPC: 1.22611 cumulative IPC: 1.17685 (Simulation time: 0 hr 26 min 19 sec) 
select_counter is 1021
Heartbeat CPU 0 instructions: 73000003 cycles: 57381095 heartbeat IPC: 1.19327 cumulative IPC: 1.17711 (Simulation time: 0 hr 26 min 39 sec) 
select_counter is 1008
Heartbeat CPU 0 instructions: 74000003 cycles: 58187565 heartbeat IPC: 1.23997 cumulative IPC: 1.17804 (Simulation time: 0 hr 27 min 1 sec) 
select_counter is 1023
Heartbeat CPU 0 instructions: 75000002 cycles: 59008390 heartbeat IPC: 1.21829 cumulative IPC: 1.17864 (Simulation time: 0 hr 27 min 22 sec) 
select_counter is 1021
Heartbeat CPU 0 instructions: 76000000 cycles: 59843143 heartbeat IPC: 1.19796 cumulative IPC: 1.17893 (Simulation time: 0 hr 27 min 44 sec) 
select_counter is 999
Heartbeat CPU 0 instructions: 77000003 cycles: 60675057 heartbeat IPC: 1.20205 cumulative IPC: 1.17927 (Simulation time: 0 hr 28 min 8 sec) 
select_counter is 1020
Heartbeat CPU 0 instructions: 78000003 cycles: 61487638 heartbeat IPC: 1.23065 cumulative IPC: 1.17999 (Simulation time: 0 hr 28 min 33 sec) 
select_counter is 1023
Heartbeat CPU 0 instructions: 79000003 cycles: 62321517 heartbeat IPC: 1.19921 cumulative IPC: 1.18026 (Simulation time: 0 hr 28 min 59 sec) 
select_counter is 999
Heartbeat CPU 0 instructions: 80000000 cycles: 63139248 heartbeat IPC: 1.22289 cumulative IPC: 1.18085 (Simulation time: 0 hr 29 min 21 sec) 
select_counter is 1023
Heartbeat CPU 0 instructions: 81000001 cycles: 63952796 heartbeat IPC: 1.22918 cumulative IPC: 1.18151 (Simulation time: 0 hr 29 min 42 sec) 
select_counter is 1022
Heartbeat CPU 0 instructions: 82000002 cycles: 64787565 heartbeat IPC: 1.19794 cumulative IPC: 1.18173 (Simulation time: 0 hr 30 min 3 sec) 
select_counter is 987
Heartbeat CPU 0 instructions: 83000003 cycles: 65618544 heartbeat IPC: 1.2034 cumulative IPC: 1.18202 (Simulation time: 0 hr 30 min 24 sec) 
select_counter is 1023
Heartbeat CPU 0 instructions: 84000000 cycles: 66428473 heartbeat IPC: 1.23467 cumulative IPC: 1.1827 (Simulation time: 0 hr 30 min 44 sec) 
select_counter is 1023
Heartbeat CPU 0 instructions: 85000001 cycles: 67258944 heartbeat IPC: 1.20414 cumulative IPC: 1.18299 (Simulation time: 0 hr 31 min 11 sec) 
select_counter is 986
Heartbeat CPU 0 instructions: 86000000 cycles: 68062806 heartbeat IPC: 1.24399 cumulative IPC: 1.18375 (Simulation time: 0 hr 31 min 33 sec) 
select_counter is 1023
Heartbeat CPU 0 instructions: 87000003 cycles: 68880712 heartbeat IPC: 1.22264 cumulative IPC: 1.18424 (Simulation time: 0 hr 31 min 54 sec) 
select_counter is 1022
Heartbeat CPU 0 instructions: 88000000 cycles: 69710836 heartbeat IPC: 1.20464 cumulative IPC: 1.1845 (Simulation time: 0 hr 32 min 15 sec) 
select_counter is 986
Heartbeat CPU 0 instructions: 89000000 cycles: 70508860 heartbeat IPC: 1.2531 cumulative IPC: 1.18532 (Simulation time: 0 hr 32 min 36 sec) 
select_counter is 1022
Heartbeat CPU 0 instructions: 90000000 cycles: 71310917 heartbeat IPC: 1.24679 cumulative IPC: 1.18605 (Simulation time: 0 hr 32 min 56 sec) 
select_counter is 1021
Heartbeat CPU 0 instructions: 91000001 cycles: 72137226 heartbeat IPC: 1.2102 cumulative IPC: 1.18634 (Simulation time: 0 hr 33 min 15 sec) 
select_counter is 986
Heartbeat CPU 0 instructions: 92000000 cycles: 72948085 heartbeat IPC: 1.23326 cumulative IPC: 1.18689 (Simulation time: 0 hr 33 min 35 sec) 
select_counter is 1022
Heartbeat CPU 0 instructions: 93000002 cycles: 73733798 heartbeat IPC: 1.27273 cumulative IPC: 1.18786 (Simulation time: 0 hr 33 min 54 sec) 
select_counter is 1022
Heartbeat CPU 0 instructions: 94000000 cycles: 74577159 heartbeat IPC: 1.18573 cumulative IPC: 1.18783 (Simulation time: 0 hr 34 min 12 sec) 
select_counter is 986
Heartbeat CPU 0 instructions: 95000000 cycles: 75387617 heartbeat IPC: 1.23387 cumulative IPC: 1.18835 (Simulation time: 0 hr 34 min 32 sec) 
select_counter is 1022
Heartbeat CPU 0 instructions: 96000000 cycles: 76192102 heartbeat IPC: 1.24303 cumulative IPC: 1.18896 (Simulation time: 0 hr 34 min 50 sec) 
select_counter is 1023
Heartbeat CPU 0 instructions: 97000002 cycles: 77368410 heartbeat IPC: 0.850119 cumulative IPC: 1.18354 (Simulation time: 0 hr 35 min 12 sec) 
select_counter is 1023
Heartbeat CPU 0 instructions: 98000003 cycles: 78328544 heartbeat IPC: 1.04152 cumulative IPC: 1.18171 (Simulation time: 0 hr 35 min 31 sec) 
select_counter is 991
Heartbeat CPU 0 instructions: 99000000 cycles: 79152546 heartbeat IPC: 1.21359 cumulative IPC: 1.18206 (Simulation time: 0 hr 35 min 52 sec) 
select_counter is 1021
Heartbeat CPU 0 instructions: 100000000 cycles: 79969994 heartbeat IPC: 1.22332 cumulative IPC: 1.1825 (Simulation time: 0 hr 36 min 12 sec) 
select_counter is 1022
Heartbeat CPU 0 instructions: 101000001 cycles: 81325024 heartbeat IPC: 0.737992 cumulative IPC: 1.17472 (Simulation time: 0 hr 36 min 32 sec) 
select_counter is 1020
Heartbeat CPU 0 instructions: 102000002 cycles: 82170826 heartbeat IPC: 1.18231 cumulative IPC: 1.17481 (Simulation time: 0 hr 36 min 52 sec) 
select_counter is 1023
Heartbeat CPU 0 instructions: 103000001 cycles: 83005953 heartbeat IPC: 1.19742 cumulative IPC: 1.17504 (Simulation time: 0 hr 37 min 12 sec) 
select_counter is 1021
Heartbeat CPU 0 instructions: 104000000 cycles: 84259584 heartbeat IPC: 0.797682 cumulative IPC: 1.16916 (Simulation time: 0 hr 37 min 31 sec) 
select_counter is 1023
Heartbeat CPU 0 instructions: 105000002 cycles: 85110219 heartbeat IPC: 1.17559 cumulative IPC: 1.16923 (Simulation time: 0 hr 37 min 51 sec) 
select_counter is 1023
Heartbeat CPU 0 instructions: 106000000 cycles: 85936062 heartbeat IPC: 1.21088 cumulative IPC: 1.16965 (Simulation time: 0 hr 38 min 10 sec) 
select_counter is 1023
Heartbeat CPU 0 instructions: 107000000 cycles: 87031352 heartbeat IPC: 0.913 cumulative IPC: 1.16627 (Simulation time: 0 hr 38 min 31 sec) 
select_counter is 1019
Heartbeat CPU 0 instructions: 108000000 cycles: 88031081 heartbeat IPC: 1.00027 cumulative IPC: 1.1643 (Simulation time: 0 hr 38 min 49 sec) 
select_counter is 1012
Heartbeat CPU 0 instructions: 109000003 cycles: 88861546 heartbeat IPC: 1.20415 cumulative IPC: 1.16468 (Simulation time: 0 hr 39 min 8 sec) 
select_counter is 1023
Heartbeat CPU 0 instructions: 110000000 cycles: 89738266 heartbeat IPC: 1.14061 cumulative IPC: 1.16444 (Simulation time: 0 hr 39 min 26 sec) 
select_counter is 1021
Finished CPU 0 instructions: 100000003 cycles: 85878259 cummulative IPC: 1.16444 (Simulation time: 0 hr 39 min 26 sec) 

ChampSim completed all CPUs

Region of Interest Statistics

CPU 0 cummulative IPC: 1.16444 instructions: 100000003 cycles: 85878259
LLC TOTAL     ACCESS:    1445973  HIT:     480479  MISS:     965494
LLC LOAD      ACCESS:     119010  HIT:     100263  MISS:      18747
LLC RFO       ACCESS:     121981  HIT:     120917  MISS:       1064
LLC PREFETCH  ACCESS:    1076588  HIT:     131068  MISS:     945520
LLC WRITEBACK ACCESS:     128394  HIT:     128231  MISS:        163
Insertion Distribution: 
	LOAD 146 0 0 0 0 0 298 33 
	RFO 23 0 0 0 0 0 114 0 
	PREF 0 209 0 0 0 0 1510 18134 
	WRITEBACK 0 0 0 0 0 0 0 30 
Total Prefetch Downgrades: 189
