
*** ChampSim Multicore Out-of-Order Simulator ***

Warmup Instructions: 10000000
Simulation Instructions: 100000000
Configuration: 2
Number of CPUs: 1
LLC sets: 2048
LLC ways: 16
Off-chip DRAM Channels: 1 Width: 64-bit Data Rate: 1600 MT/s

CPU 0 runs /datasets/cs240c-wi22-a00-public/data/Assignment2-gz/sphinx3_883B.trace.gz
CPU 0 L1D next line prefetcher
CPU 0 L2C IP-based stride prefetcher
Heartbeat CPU 0 instructions: 1000003 cycles: 414403 heartbeat IPC: 2.41312 cumulative IPC: 2.41312 (Simulation time: 0 hr 0 min 24 sec) 
select_counter is 969
Heartbeat CPU 0 instructions: 2000000 cycles: 823985 heartbeat IPC: 2.44151 cumulative IPC: 2.42723 (Simulation time: 0 hr 0 min 50 sec) 
select_counter is 1020
Heartbeat CPU 0 instructions: 3000003 cycles: 1298903 heartbeat IPC: 2.10563 cumulative IPC: 2.30964 (Simulation time: 0 hr 1 min 14 sec) 
select_counter is 1023
Heartbeat CPU 0 instructions: 4000000 cycles: 1637793 heartbeat IPC: 2.9508 cumulative IPC: 2.44231 (Simulation time: 0 hr 1 min 36 sec) 
select_counter is 1023
Heartbeat CPU 0 instructions: 5000000 cycles: 1992467 heartbeat IPC: 2.81949 cumulative IPC: 2.50945 (Simulation time: 0 hr 2 min 1 sec) 
select_counter is 1022
Heartbeat CPU 0 instructions: 6000003 cycles: 2406858 heartbeat IPC: 2.41319 cumulative IPC: 2.49288 (Simulation time: 0 hr 2 min 33 sec) 
select_counter is 1023
Heartbeat CPU 0 instructions: 7000002 cycles: 2815647 heartbeat IPC: 2.44625 cumulative IPC: 2.48611 (Simulation time: 0 hr 3 min 0 sec) 
select_counter is 1022
Heartbeat CPU 0 instructions: 8000000 cycles: 3292097 heartbeat IPC: 2.09885 cumulative IPC: 2.43006 (Simulation time: 0 hr 3 min 24 sec) 
select_counter is 1016
Heartbeat CPU 0 instructions: 9000001 cycles: 3631099 heartbeat IPC: 2.94984 cumulative IPC: 2.47859 (Simulation time: 0 hr 3 min 48 sec) 
select_counter is 986
Heartbeat CPU 0 instructions: 10000000 cycles: 3985157 heartbeat IPC: 2.82439 cumulative IPC: 2.50931 (Simulation time: 0 hr 4 min 12 sec) 
select_counter is 1023

Warmup complete CPU 0 instructions: 10000004 cycles: 3985158 (Simulation time: 0 hr 4 min 12 sec) 

Heartbeat CPU 0 instructions: 11000002 cycles: 5512658 heartbeat IPC: 0.654665 cumulative IPC: 0.654663 (Simulation time: 0 hr 4 min 44 sec) 
select_counter is 1023
Heartbeat CPU 0 instructions: 12000000 cycles: 7008900 heartbeat IPC: 0.66834 cumulative IPC: 0.661431 (Simulation time: 0 hr 5 min 15 sec) 
select_counter is 1022
Heartbeat CPU 0 instructions: 13000001 cycles: 8175632 heartbeat IPC: 0.857096 cumulative IPC: 0.715909 (Simulation time: 0 hr 5 min 41 sec) 
select_counter is 1017
Heartbeat CPU 0 instructions: 14000002 cycles: 9095617 heartbeat IPC: 1.08698 cumulative IPC: 0.782708 (Simulation time: 0 hr 6 min 7 sec) 
select_counter is 987
Heartbeat CPU 0 instructions: 15000000 cycles: 10052173 heartbeat IPC: 1.04542 cumulative IPC: 0.824128 (Simulation time: 0 hr 6 min 36 sec) 
select_counter is 1023
Heartbeat CPU 0 instructions: 16000000 cycles: 11537188 heartbeat IPC: 0.673394 cumulative IPC: 0.794488 (Simulation time: 0 hr 7 min 7 sec) 
select_counter is 1022
Heartbeat CPU 0 instructions: 17000000 cycles: 12993367 heartbeat IPC: 0.686729 cumulative IPC: 0.777069 (Simulation time: 0 hr 7 min 37 sec) 
select_counter is 1022
Heartbeat CPU 0 instructions: 18000002 cycles: 14247470 heartbeat IPC: 0.797384 cumulative IPC: 0.779551 (Simulation time: 0 hr 8 min 4 sec) 
select_counter is 1016
Heartbeat CPU 0 instructions: 19000003 cycles: 15167839 heartbeat IPC: 1.08652 cumulative IPC: 0.804816 (Simulation time: 0 hr 8 min 30 sec) 
select_counter is 1019
Heartbeat CPU 0 instructions: 20000000 cycles: 16055044 heartbeat IPC: 1.12713 cumulative IPC: 0.828508 (Simulation time: 0 hr 8 min 56 sec) 
select_counter is 1023
Heartbeat CPU 0 instructions: 21000000 cycles: 17544377 heartbeat IPC: 0.671441 cumulative IPC: 0.811256 (Simulation time: 0 hr 9 min 28 sec) 
select_counter is 1023
Heartbeat CPU 0 instructions: 22000002 cycles: 19051275 heartbeat IPC: 0.663616 cumulative IPC: 0.796489 (Simulation time: 0 hr 9 min 59 sec) 
select_counter is 1023
Heartbeat CPU 0 instructions: 23000001 cycles: 20511277 heartbeat IPC: 0.68493 cumulative IPC: 0.786633 (Simulation time: 0 hr 10 min 24 sec) 
select_counter is 1022
Heartbeat CPU 0 instructions: 24000000 cycles: 21443078 heartbeat IPC: 1.07319 cumulative IPC: 0.801928 (Simulation time: 0 hr 10 min 52 sec) 
select_counter is 1017
Heartbeat CPU 0 instructions: 25000003 cycles: 22345387 heartbeat IPC: 1.10827 cumulative IPC: 0.816983 (Simulation time: 0 hr 11 min 20 sec) 
select_counter is 1010
Heartbeat CPU 0 instructions: 26000001 cycles: 23549839 heartbeat IPC: 0.830251 cumulative IPC: 0.8178 (Simulation time: 0 hr 11 min 49 sec) 
select_counter is 1022
Heartbeat CPU 0 instructions: 27000000 cycles: 25043266 heartbeat IPC: 0.6696 cumulative IPC: 0.80729 (Simulation time: 0 hr 12 min 16 sec) 
select_counter is 1023
Heartbeat CPU 0 instructions: 28000000 cycles: 26529253 heartbeat IPC: 0.672953 cumulative IPC: 0.798435 (Simulation time: 0 hr 12 min 41 sec) 
select_counter is 1019
Heartbeat CPU 0 instructions: 29000000 cycles: 27556610 heartbeat IPC: 0.973372 cumulative IPC: 0.80606 (Simulation time: 0 hr 13 min 8 sec) 
select_counter is 1023
Heartbeat CPU 0 instructions: 30000002 cycles: 28459234 heartbeat IPC: 1.10788 cumulative IPC: 0.817191 (Simulation time: 0 hr 13 min 33 sec) 
select_counter is 1008
Heartbeat CPU 0 instructions: 31000003 cycles: 29552344 heartbeat IPC: 0.914822 cumulative IPC: 0.821365 (Simulation time: 0 hr 13 min 59 sec) 
select_counter is 1023
Heartbeat CPU 0 instructions: 32000000 cycles: 31031500 heartbeat IPC: 0.676059 cumulative IPC: 0.813419 (Simulation time: 0 hr 14 min 28 sec) 
select_counter is 1020
Heartbeat CPU 0 instructions: 33000000 cycles: 32463732 heartbeat IPC: 0.698211 cumulative IPC: 0.807625 (Simulation time: 0 hr 14 min 56 sec) 
select_counter is 1023
Heartbeat CPU 0 instructions: 34000000 cycles: 33601051 heartbeat IPC: 0.879261 cumulative IPC: 0.810376 (Simulation time: 0 hr 15 min 21 sec) 
select_counter is 1023
Heartbeat CPU 0 instructions: 35000003 cycles: 34503889 heartbeat IPC: 1.10762 cumulative IPC: 0.819169 (Simulation time: 0 hr 15 min 45 sec) 
select_counter is 1017
Heartbeat CPU 0 instructions: 36000000 cycles: 35557152 heartbeat IPC: 0.949428 cumulative IPC: 0.823515 (Simulation time: 0 hr 16 min 13 sec) 
select_counter is 1023
Heartbeat CPU 0 instructions: 37000001 cycles: 37047420 heartbeat IPC: 0.671021 cumulative IPC: 0.816641 (Simulation time: 0 hr 16 min 40 sec) 
select_counter is 1023
Heartbeat CPU 0 instructions: 38000000 cycles: 38482816 heartbeat IPC: 0.696671 cumulative IPC: 0.811649 (Simulation time: 0 hr 17 min 8 sec) 
select_counter is 1023
Heartbeat CPU 0 instructions: 39000003 cycles: 39597556 heartbeat IPC: 0.897073 cumulative IPC: 0.814323 (Simulation time: 0 hr 17 min 31 sec) 
select_counter is 1022
Heartbeat CPU 0 instructions: 40000000 cycles: 40499404 heartbeat IPC: 1.10883 cumulative IPC: 0.821597 (Simulation time: 0 hr 17 min 56 sec) 
select_counter is 1023
Heartbeat CPU 0 instructions: 41000003 cycles: 41541210 heartbeat IPC: 0.959875 cumulative IPC: 0.825433 (Simulation time: 0 hr 18 min 21 sec) 
select_counter is 1023
Heartbeat CPU 0 instructions: 42000000 cycles: 43037277 heartbeat IPC: 0.668417 cumulative IPC: 0.819418 (Simulation time: 0 hr 18 min 49 sec) 
select_counter is 1022
Heartbeat CPU 0 instructions: 43000003 cycles: 44497035 heartbeat IPC: 0.685047 cumulative IPC: 0.814576 (Simulation time: 0 hr 19 min 12 sec) 
select_counter is 1022
Heartbeat CPU 0 instructions: 44000000 cycles: 45551632 heartbeat IPC: 0.948227 cumulative IPC: 0.817967 (Simulation time: 0 hr 19 min 37 sec) 
select_counter is 1023
Heartbeat CPU 0 instructions: 45000002 cycles: 46452344 heartbeat IPC: 1.11023 cumulative IPC: 0.824166 (Simulation time: 0 hr 20 min 4 sec) 
select_counter is 1023
Heartbeat CPU 0 instructions: 46000001 cycles: 47524900 heartbeat IPC: 0.932351 cumulative IPC: 0.826831 (Simulation time: 0 hr 20 min 30 sec) 
select_counter is 1023
Heartbeat CPU 0 instructions: 47000002 cycles: 49002569 heartbeat IPC: 0.676742 cumulative IPC: 0.821904 (Simulation time: 0 hr 20 min 57 sec) 
select_counter is 1023
Heartbeat CPU 0 instructions: 48000000 cycles: 50468187 heartbeat IPC: 0.682305 cumulative IPC: 0.817503 (Simulation time: 0 hr 21 min 28 sec) 
select_counter is 1019
Heartbeat CPU 0 instructions: 49000001 cycles: 51446515 heartbeat IPC: 1.02215 cumulative IPC: 0.821721 (Simulation time: 0 hr 21 min 52 sec) 
select_counter is 1022
Heartbeat CPU 0 instructions: 50000000 cycles: 52345272 heartbeat IPC: 1.11265 cumulative IPC: 0.827128 (Simulation time: 0 hr 22 min 18 sec) 
select_counter is 1022
Heartbeat CPU 0 instructions: 51000003 cycles: 53450334 heartbeat IPC: 0.904929 cumulative IPC: 0.828866 (Simulation time: 0 hr 22 min 44 sec) 
select_counter is 1019
Heartbeat CPU 0 instructions: 52000000 cycles: 54951946 heartbeat IPC: 0.665949 cumulative IPC: 0.824066 (Simulation time: 0 hr 23 min 11 sec) 
select_counter is 1022
Heartbeat CPU 0 instructions: 53000000 cycles: 56651976 heartbeat IPC: 0.588225 cumulative IPC: 0.816453 (Simulation time: 0 hr 23 min 40 sec) 
select_counter is 1022
Heartbeat CPU 0 instructions: 54000003 cycles: 57971800 heartbeat IPC: 0.757679 cumulative IPC: 0.815016 (Simulation time: 0 hr 24 min 8 sec) 
select_counter is 1023
Heartbeat CPU 0 instructions: 55000003 cycles: 58883985 heartbeat IPC: 1.09627 cumulative IPC: 0.81969 (Simulation time: 0 hr 24 min 32 sec) 
select_counter is 1023
Heartbeat CPU 0 instructions: 56000000 cycles: 59783949 heartbeat IPC: 1.11115 cumulative IPC: 0.824391 (Simulation time: 0 hr 24 min 56 sec) 
select_counter is 1022
Heartbeat CPU 0 instructions: 57000002 cycles: 60914446 heartbeat IPC: 0.884568 cumulative IPC: 0.825586 (Simulation time: 0 hr 25 min 26 sec) 
select_counter is 1023
Heartbeat CPU 0 instructions: 58000001 cycles: 61936590 heartbeat IPC: 0.978335 cumulative IPC: 0.82828 (Simulation time: 0 hr 25 min 49 sec) 
select_counter is 1015
Heartbeat CPU 0 instructions: 59000003 cycles: 62834690 heartbeat IPC: 1.11346 cumulative IPC: 0.832632 (Simulation time: 0 hr 26 min 18 sec) 
select_counter is 1023
Heartbeat CPU 0 instructions: 60000000 cycles: 63741551 heartbeat IPC: 1.1027 cumulative IPC: 0.83673 (Simulation time: 0 hr 26 min 45 sec) 
select_counter is 1022
Heartbeat CPU 0 instructions: 61000001 cycles: 64875100 heartbeat IPC: 0.882186 cumulative IPC: 0.837577 (Simulation time: 0 hr 27 min 10 sec) 
select_counter is 1023
Heartbeat CPU 0 instructions: 62000001 cycles: 65755198 heartbeat IPC: 1.13624 cumulative IPC: 0.841832 (Simulation time: 0 hr 27 min 33 sec) 
select_counter is 1023
Heartbeat CPU 0 instructions: 63000003 cycles: 66619598 heartbeat IPC: 1.15687 cumulative IPC: 0.84618 (Simulation time: 0 hr 27 min 56 sec) 
select_counter is 1022
Heartbeat CPU 0 instructions: 64000000 cycles: 67814855 heartbeat IPC: 0.836638 cumulative IPC: 0.846001 (Simulation time: 0 hr 28 min 24 sec) 
select_counter is 1023
Heartbeat CPU 0 instructions: 65000003 cycles: 68687272 heartbeat IPC: 1.14624 cumulative IPC: 0.850049 (Simulation time: 0 hr 28 min 52 sec) 
select_counter is 1022
Heartbeat CPU 0 instructions: 66000002 cycles: 69564248 heartbeat IPC: 1.14028 cumulative IPC: 0.853931 (Simulation time: 0 hr 29 min 21 sec) 
select_counter is 1022
Heartbeat CPU 0 instructions: 67000000 cycles: 70758263 heartbeat IPC: 0.837509 cumulative IPC: 0.853637 (Simulation time: 0 hr 29 min 46 sec) 
select_counter is 1022
Heartbeat CPU 0 instructions: 68000000 cycles: 72266214 heartbeat IPC: 0.663152 cumulative IPC: 0.84943 (Simulation time: 0 hr 30 min 12 sec) 
select_counter is 1022
Heartbeat CPU 0 instructions: 69000003 cycles: 73132705 heartbeat IPC: 1.15408 cumulative IPC: 0.853248 (Simulation time: 0 hr 30 min 40 sec) 
select_counter is 1022
Heartbeat CPU 0 instructions: 70000000 cycles: 74010100 heartbeat IPC: 1.13973 cumulative IPC: 0.856838 (Simulation time: 0 hr 31 min 7 sec) 
select_counter is 1022
Heartbeat CPU 0 instructions: 71000000 cycles: 75136797 heartbeat IPC: 0.88755 cumulative IPC: 0.857324 (Simulation time: 0 hr 31 min 34 sec) 
select_counter is 1023
Heartbeat CPU 0 instructions: 72000000 cycles: 76533079 heartbeat IPC: 0.716188 cumulative IPC: 0.854607 (Simulation time: 0 hr 32 min 0 sec) 
select_counter is 1023
Heartbeat CPU 0 instructions: 73000000 cycles: 77398909 heartbeat IPC: 1.15496 cumulative IPC: 0.85815 (Simulation time: 0 hr 32 min 22 sec) 
select_counter is 1021
Heartbeat CPU 0 instructions: 74000000 cycles: 78278973 heartbeat IPC: 1.13628 cumulative IPC: 0.861444 (Simulation time: 0 hr 32 min 49 sec) 
select_counter is 1022
Heartbeat CPU 0 instructions: 75000000 cycles: 79445089 heartbeat IPC: 0.857548 cumulative IPC: 0.861384 (Simulation time: 0 hr 33 min 13 sec) 
select_counter is 1023
Heartbeat CPU 0 instructions: 76000000 cycles: 80697049 heartbeat IPC: 0.798748 cumulative IPC: 0.860362 (Simulation time: 0 hr 33 min 36 sec) 
select_counter is 1023
Heartbeat CPU 0 instructions: 77000003 cycles: 81574840 heartbeat IPC: 1.13923 cumulative IPC: 0.863517 (Simulation time: 0 hr 34 min 3 sec) 
select_counter is 1021
Heartbeat CPU 0 instructions: 78000000 cycles: 82448217 heartbeat IPC: 1.14498 cumulative IPC: 0.86665 (Simulation time: 0 hr 34 min 27 sec) 
select_counter is 1023
Heartbeat CPU 0 instructions: 79000001 cycles: 83743971 heartbeat IPC: 0.771752 cumulative IPC: 0.865108 (Simulation time: 0 hr 34 min 49 sec) 
select_counter is 1021
Heartbeat CPU 0 instructions: 80000000 cycles: 84869237 heartbeat IPC: 0.888678 cumulative IPC: 0.865436 (Simulation time: 0 hr 35 min 13 sec) 
select_counter is 1023
Heartbeat CPU 0 instructions: 81000000 cycles: 85748465 heartbeat IPC: 1.13736 cumulative IPC: 0.86836 (Simulation time: 0 hr 35 min 39 sec) 
select_counter is 1022
Heartbeat CPU 0 instructions: 82000000 cycles: 86612532 heartbeat IPC: 1.15732 cumulative IPC: 0.871382 (Simulation time: 0 hr 36 min 4 sec) 
select_counter is 1023
Heartbeat CPU 0 instructions: 83000000 cycles: 88008276 heartbeat IPC: 0.716464 cumulative IPC: 0.868808 (Simulation time: 0 hr 36 min 26 sec) 
select_counter is 1023
Heartbeat CPU 0 instructions: 84000000 cycles: 88922307 heartbeat IPC: 1.09405 cumulative IPC: 0.871232 (Simulation time: 0 hr 36 min 46 sec) 
select_counter is 1023
Heartbeat CPU 0 instructions: 85000001 cycles: 89782805 heartbeat IPC: 1.16212 cumulative IPC: 0.87415 (Simulation time: 0 hr 37 min 6 sec) 
select_counter is 1023
Heartbeat CPU 0 instructions: 86000001 cycles: 90826511 heartbeat IPC: 0.958124 cumulative IPC: 0.875159 (Simulation time: 0 hr 37 min 27 sec) 
select_counter is 1023
Heartbeat CPU 0 instructions: 87000000 cycles: 91993782 heartbeat IPC: 0.856698 cumulative IPC: 0.874914 (Simulation time: 0 hr 37 min 49 sec) 
select_counter is 1023
Heartbeat CPU 0 instructions: 88000000 cycles: 92863501 heartbeat IPC: 1.1498 cumulative IPC: 0.877604 (Simulation time: 0 hr 38 min 9 sec) 
select_counter is 1022
Heartbeat CPU 0 instructions: 89000000 cycles: 93716943 heartbeat IPC: 1.17173 cumulative IPC: 0.880401 (Simulation time: 0 hr 38 min 30 sec) 
select_counter is 1023
Heartbeat CPU 0 instructions: 90000000 cycles: 95004358 heartbeat IPC: 0.77675 cumulative IPC: 0.878935 (Simulation time: 0 hr 38 min 57 sec) 
select_counter is 1023
Heartbeat CPU 0 instructions: 91000003 cycles: 96237403 heartbeat IPC: 0.811003 cumulative IPC: 0.878027 (Simulation time: 0 hr 39 min 20 sec) 
select_counter is 1023
Heartbeat CPU 0 instructions: 92000000 cycles: 97190164 heartbeat IPC: 1.04958 cumulative IPC: 0.879781 (Simulation time: 0 hr 39 min 40 sec) 
select_counter is 1019
Heartbeat CPU 0 instructions: 93000000 cycles: 98047989 heartbeat IPC: 1.16574 cumulative IPC: 0.882389 (Simulation time: 0 hr 39 min 58 sec) 
select_counter is 1023
Heartbeat CPU 0 instructions: 94000002 cycles: 98913926 heartbeat IPC: 1.15482 cumulative IPC: 0.884874 (Simulation time: 0 hr 40 min 17 sec) 
select_counter is 1023
Heartbeat CPU 0 instructions: 95000001 cycles: 100254297 heartbeat IPC: 0.746061 cumulative IPC: 0.882941 (Simulation time: 0 hr 40 min 36 sec) 
select_counter is 1023
Heartbeat CPU 0 instructions: 96000000 cycles: 101119095 heartbeat IPC: 1.15634 cumulative IPC: 0.885375 (Simulation time: 0 hr 40 min 54 sec) 
select_counter is 1023
Heartbeat CPU 0 instructions: 97000000 cycles: 101987804 heartbeat IPC: 1.15113 cumulative IPC: 0.887731 (Simulation time: 0 hr 41 min 12 sec) 
select_counter is 1023
Heartbeat CPU 0 instructions: 98000003 cycles: 103156588 heartbeat IPC: 0.855593 cumulative IPC: 0.887352 (Simulation time: 0 hr 41 min 32 sec) 
select_counter is 1023
Heartbeat CPU 0 instructions: 99000000 cycles: 104204761 heartbeat IPC: 0.954038 cumulative IPC: 0.88805 (Simulation time: 0 hr 41 min 49 sec) 
select_counter is 1020
Heartbeat CPU 0 instructions: 100000000 cycles: 105065162 heartbeat IPC: 1.16225 cumulative IPC: 0.890384 (Simulation time: 0 hr 42 min 8 sec) 
select_counter is 1023
Heartbeat CPU 0 instructions: 101000000 cycles: 105931998 heartbeat IPC: 1.15362 cumulative IPC: 0.892622 (Simulation time: 0 hr 42 min 26 sec) 
select_counter is 1023
Heartbeat CPU 0 instructions: 102000003 cycles: 107358438 heartbeat IPC: 0.701048 cumulative IPC: 0.889979 (Simulation time: 0 hr 42 min 46 sec) 
select_counter is 1023
Heartbeat CPU 0 instructions: 103000001 cycles: 108288545 heartbeat IPC: 1.07514 cumulative IPC: 0.89163 (Simulation time: 0 hr 43 min 4 sec) 
select_counter is 1022
Heartbeat CPU 0 instructions: 104000000 cycles: 109144707 heartbeat IPC: 1.168 cumulative IPC: 0.89388 (Simulation time: 0 hr 43 min 21 sec) 
select_counter is 1022
Heartbeat CPU 0 instructions: 105000002 cycles: 110226174 heartbeat IPC: 0.924672 cumulative IPC: 0.894193 (Simulation time: 0 hr 43 min 37 sec) 
select_counter is 1021
Heartbeat CPU 0 instructions: 106000003 cycles: 111644451 heartbeat IPC: 0.705082 cumulative IPC: 0.891702 (Simulation time: 0 hr 43 min 50 sec) 
select_counter is 1022
Heartbeat CPU 0 instructions: 107000001 cycles: 112515381 heartbeat IPC: 1.1482 cumulative IPC: 0.89376 (Simulation time: 0 hr 44 min 4 sec) 
select_counter is 1023
Heartbeat CPU 0 instructions: 108000000 cycles: 113380169 heartbeat IPC: 1.15635 cumulative IPC: 0.895836 (Simulation time: 0 hr 44 min 18 sec) 
select_counter is 1022
Heartbeat CPU 0 instructions: 109000001 cycles: 114519196 heartbeat IPC: 0.877943 cumulative IPC: 0.895652 (Simulation time: 0 hr 44 min 32 sec) 
select_counter is 1023
Heartbeat CPU 0 instructions: 110000000 cycles: 115858567 heartbeat IPC: 0.746618 cumulative IPC: 0.893867 (Simulation time: 0 hr 44 min 45 sec) 
select_counter is 1023
Finished CPU 0 instructions: 100000000 cycles: 111873410 cummulative IPC: 0.893867 (Simulation time: 0 hr 44 min 45 sec) 

ChampSim completed all CPUs

Region of Interest Statistics

CPU 0 cummulative IPC: 0.893867 instructions: 100000000 cycles: 111873410
LLC TOTAL     ACCESS:    1795849  HIT:     628814  MISS:    1167035
LLC LOAD      ACCESS:     314448  HIT:     267885  MISS:      46563
LLC RFO       ACCESS:      99583  HIT:      87649  MISS:      11934
LLC PREFETCH  ACCESS:    1240404  HIT:     143791  MISS:    1096613
LLC WRITEBACK ACCESS:     141414  HIT:     129489  MISS:      11925
Insertion Distribution: 
	LOAD 232 0 0 0 0 0 824 4563 
	RFO 323 0 0 0 0 0 138 273 
	PREF 0 156 0 0 0 0 2732 29359 
	WRITEBACK 0 0 0 0 0 0 0 308 
Total Prefetch Downgrades: 253
