
*** ChampSim Multicore Out-of-Order Simulator ***

Warmup Instructions: 10000000
Simulation Instructions: 100000000
Configuration: 2
Number of CPUs: 1
LLC sets: 2048
LLC ways: 16
Off-chip DRAM Channels: 1 Width: 64-bit Data Rate: 1600 MT/s

CPU 0 runs /datasets/cs240c-wi22-a00-public/data/Assignment2-gz/libquantum_964B.trace.gz
CPU 0 L1D next line prefetcher
CPU 0 L2C IP-based stride prefetcher
Heartbeat CPU 0 instructions: 1000002 cycles: 333341 heartbeat IPC: 2.99994 cumulative IPC: 2.99994 (Simulation time: 0 hr 0 min 14 sec) 
select_counter is 1023
Heartbeat CPU 0 instructions: 2000001 cycles: 666674 heartbeat IPC: 3 cumulative IPC: 2.99997 (Simulation time: 0 hr 0 min 28 sec) 
select_counter is 1023
Heartbeat CPU 0 instructions: 3000000 cycles: 1000007 heartbeat IPC: 3 cumulative IPC: 2.99998 (Simulation time: 0 hr 0 min 43 sec) 
select_counter is 1022
Heartbeat CPU 0 instructions: 4000000 cycles: 1333341 heartbeat IPC: 2.99999 cumulative IPC: 2.99998 (Simulation time: 0 hr 1 min 0 sec) 
select_counter is 1022
Heartbeat CPU 0 instructions: 5000000 cycles: 1666674 heartbeat IPC: 3 cumulative IPC: 2.99999 (Simulation time: 0 hr 1 min 14 sec) 
select_counter is 1022
Heartbeat CPU 0 instructions: 6000002 cycles: 2000008 heartbeat IPC: 3 cumulative IPC: 2.99999 (Simulation time: 0 hr 1 min 28 sec) 
select_counter is 1023
Heartbeat CPU 0 instructions: 7000001 cycles: 2331518 heartbeat IPC: 3.0165 cumulative IPC: 3.00234 (Simulation time: 0 hr 1 min 42 sec) 
select_counter is 1023
Heartbeat CPU 0 instructions: 8000000 cycles: 2662240 heartbeat IPC: 3.02368 cumulative IPC: 3.00499 (Simulation time: 0 hr 1 min 58 sec) 
select_counter is 1023
Heartbeat CPU 0 instructions: 9000001 cycles: 2992962 heartbeat IPC: 3.02369 cumulative IPC: 3.00705 (Simulation time: 0 hr 2 min 13 sec) 
select_counter is 1023
Heartbeat CPU 0 instructions: 10000001 cycles: 3323684 heartbeat IPC: 3.02369 cumulative IPC: 3.00871 (Simulation time: 0 hr 2 min 29 sec) 
select_counter is 1023

Warmup complete CPU 0 instructions: 10000001 cycles: 3323684 (Simulation time: 0 hr 2 min 29 sec) 

Heartbeat CPU 0 instructions: 11000000 cycles: 5048823 heartbeat IPC: 0.579663 cumulative IPC: 0.579663 (Simulation time: 0 hr 2 min 53 sec) 
select_counter is 1021
Heartbeat CPU 0 instructions: 12000000 cycles: 6783021 heartbeat IPC: 0.576635 cumulative IPC: 0.578145 (Simulation time: 0 hr 3 min 21 sec) 
select_counter is 1023
Heartbeat CPU 0 instructions: 13000001 cycles: 8509036 heartbeat IPC: 0.57937 cumulative IPC: 0.578553 (Simulation time: 0 hr 3 min 50 sec) 
select_counter is 1023
Heartbeat CPU 0 instructions: 14000000 cycles: 10238258 heartbeat IPC: 0.578294 cumulative IPC: 0.578488 (Simulation time: 0 hr 4 min 15 sec) 
select_counter is 1023
Heartbeat CPU 0 instructions: 15000003 cycles: 11970903 heartbeat IPC: 0.577154 cumulative IPC: 0.578221 (Simulation time: 0 hr 4 min 42 sec) 
select_counter is 1023
Heartbeat CPU 0 instructions: 16000000 cycles: 13698674 heartbeat IPC: 0.578779 cumulative IPC: 0.578314 (Simulation time: 0 hr 5 min 6 sec) 
select_counter is 1023
Heartbeat CPU 0 instructions: 17000000 cycles: 15432513 heartbeat IPC: 0.576755 cumulative IPC: 0.57809 (Simulation time: 0 hr 5 min 33 sec) 
select_counter is 1021
Heartbeat CPU 0 instructions: 18000003 cycles: 17155403 heartbeat IPC: 0.580422 cumulative IPC: 0.578381 (Simulation time: 0 hr 5 min 58 sec) 
select_counter is 1022
Heartbeat CPU 0 instructions: 19000002 cycles: 18883724 heartbeat IPC: 0.578596 cumulative IPC: 0.578405 (Simulation time: 0 hr 6 min 22 sec) 
select_counter is 1020
Heartbeat CPU 0 instructions: 20000000 cycles: 20612856 heartbeat IPC: 0.578324 cumulative IPC: 0.578397 (Simulation time: 0 hr 6 min 47 sec) 
select_counter is 970
Heartbeat CPU 0 instructions: 21000003 cycles: 22343698 heartbeat IPC: 0.577755 cumulative IPC: 0.578338 (Simulation time: 0 hr 7 min 9 sec) 
select_counter is 1020
Heartbeat CPU 0 instructions: 22000002 cycles: 24075347 heartbeat IPC: 0.577484 cumulative IPC: 0.578267 (Simulation time: 0 hr 7 min 35 sec) 
select_counter is 1023
Heartbeat CPU 0 instructions: 23000000 cycles: 25800446 heartbeat IPC: 0.579676 cumulative IPC: 0.578375 (Simulation time: 0 hr 8 min 1 sec) 
select_counter is 1022
Heartbeat CPU 0 instructions: 24000000 cycles: 27539787 heartbeat IPC: 0.57493 cumulative IPC: 0.578128 (Simulation time: 0 hr 8 min 26 sec) 
select_counter is 1023
Heartbeat CPU 0 instructions: 25000000 cycles: 29264398 heartbeat IPC: 0.579841 cumulative IPC: 0.578242 (Simulation time: 0 hr 8 min 50 sec) 
select_counter is 1022
Heartbeat CPU 0 instructions: 26000002 cycles: 31213855 heartbeat IPC: 0.512964 cumulative IPC: 0.573679 (Simulation time: 0 hr 9 min 22 sec) 
select_counter is 1022
Heartbeat CPU 0 instructions: 27000002 cycles: 33667388 heartbeat IPC: 0.407576 cumulative IPC: 0.560248 (Simulation time: 0 hr 10 min 2 sec) 
select_counter is 1023
Heartbeat CPU 0 instructions: 28000000 cycles: 36169722 heartbeat IPC: 0.399626 cumulative IPC: 0.548011 (Simulation time: 0 hr 10 min 37 sec) 
select_counter is 1023
Heartbeat CPU 0 instructions: 29000002 cycles: 38703798 heartbeat IPC: 0.394622 cumulative IPC: 0.537025 (Simulation time: 0 hr 11 min 13 sec) 
select_counter is 1022
Heartbeat CPU 0 instructions: 30000002 cycles: 41273279 heartbeat IPC: 0.389184 cumulative IPC: 0.527015 (Simulation time: 0 hr 11 min 49 sec) 
select_counter is 1023
Heartbeat CPU 0 instructions: 31000002 cycles: 43597431 heartbeat IPC: 0.430264 cumulative IPC: 0.521432 (Simulation time: 0 hr 12 min 23 sec) 
select_counter is 1023
Heartbeat CPU 0 instructions: 32000000 cycles: 45832772 heartbeat IPC: 0.447358 cumulative IPC: 0.517536 (Simulation time: 0 hr 12 min 51 sec) 
select_counter is 1023
Heartbeat CPU 0 instructions: 33000002 cycles: 48056577 heartbeat IPC: 0.449681 cumulative IPC: 0.514163 (Simulation time: 0 hr 13 min 20 sec) 
select_counter is 1011
Heartbeat CPU 0 instructions: 34000002 cycles: 50296893 heartbeat IPC: 0.446366 cumulative IPC: 0.51093 (Simulation time: 0 hr 13 min 48 sec) 
select_counter is 1022
Heartbeat CPU 0 instructions: 35000002 cycles: 52524419 heartbeat IPC: 0.448929 cumulative IPC: 0.508123 (Simulation time: 0 hr 14 min 16 sec) 
select_counter is 1023
Heartbeat CPU 0 instructions: 36000000 cycles: 54682483 heartbeat IPC: 0.463377 cumulative IPC: 0.506242 (Simulation time: 0 hr 14 min 43 sec) 
select_counter is 1023
Heartbeat CPU 0 instructions: 37000001 cycles: 56255274 heartbeat IPC: 0.635813 cumulative IPC: 0.510092 (Simulation time: 0 hr 15 min 10 sec) 
select_counter is 1021
Heartbeat CPU 0 instructions: 38000000 cycles: 57734530 heartbeat IPC: 0.676015 cumulative IPC: 0.514603 (Simulation time: 0 hr 15 min 33 sec) 
select_counter is 1023
Heartbeat CPU 0 instructions: 39000003 cycles: 59196081 heartbeat IPC: 0.684207 cumulative IPC: 0.51904 (Simulation time: 0 hr 15 min 57 sec) 
select_counter is 1023
Heartbeat CPU 0 instructions: 40000000 cycles: 60659963 heartbeat IPC: 0.683113 cumulative IPC: 0.523229 (Simulation time: 0 hr 16 min 20 sec) 
select_counter is 1023
Heartbeat CPU 0 instructions: 41000001 cycles: 62115219 heartbeat IPC: 0.687165 cumulative IPC: 0.527287 (Simulation time: 0 hr 16 min 42 sec) 
select_counter is 1022
Heartbeat CPU 0 instructions: 42000000 cycles: 63568007 heartbeat IPC: 0.688331 cumulative IPC: 0.53117 (Simulation time: 0 hr 17 min 5 sec) 
select_counter is 1023
Heartbeat CPU 0 instructions: 43000001 cycles: 65016256 heartbeat IPC: 0.69049 cumulative IPC: 0.53491 (Simulation time: 0 hr 17 min 29 sec) 
select_counter is 1023
Heartbeat CPU 0 instructions: 44000000 cycles: 66452376 heartbeat IPC: 0.69632 cumulative IPC: 0.538582 (Simulation time: 0 hr 17 min 52 sec) 
select_counter is 1023
Heartbeat CPU 0 instructions: 45000002 cycles: 67889169 heartbeat IPC: 0.695996 cumulative IPC: 0.542085 (Simulation time: 0 hr 18 min 14 sec) 
select_counter is 1023
Heartbeat CPU 0 instructions: 46000001 cycles: 69355350 heartbeat IPC: 0.682043 cumulative IPC: 0.545193 (Simulation time: 0 hr 18 min 37 sec) 
select_counter is 1023
Heartbeat CPU 0 instructions: 47000000 cycles: 70821440 heartbeat IPC: 0.682086 cumulative IPC: 0.548166 (Simulation time: 0 hr 18 min 59 sec) 
select_counter is 1023
Heartbeat CPU 0 instructions: 48000000 cycles: 72287604 heartbeat IPC: 0.682052 cumulative IPC: 0.551013 (Simulation time: 0 hr 19 min 23 sec) 
select_counter is 1023
Heartbeat CPU 0 instructions: 49000002 cycles: 73754057 heartbeat IPC: 0.681919 cumulative IPC: 0.553738 (Simulation time: 0 hr 19 min 47 sec) 
select_counter is 1021
Heartbeat CPU 0 instructions: 50000001 cycles: 75219825 heartbeat IPC: 0.682236 cumulative IPC: 0.556358 (Simulation time: 0 hr 20 min 12 sec) 
select_counter is 1022
Heartbeat CPU 0 instructions: 51000000 cycles: 76685915 heartbeat IPC: 0.682086 cumulative IPC: 0.558871 (Simulation time: 0 hr 20 min 34 sec) 
select_counter is 1023
Heartbeat CPU 0 instructions: 52000000 cycles: 78152180 heartbeat IPC: 0.682005 cumulative IPC: 0.561283 (Simulation time: 0 hr 20 min 56 sec) 
select_counter is 1023
Heartbeat CPU 0 instructions: 53000000 cycles: 79618386 heartbeat IPC: 0.682032 cumulative IPC: 0.563604 (Simulation time: 0 hr 21 min 18 sec) 
select_counter is 1022
Heartbeat CPU 0 instructions: 54000002 cycles: 81084472 heartbeat IPC: 0.68209 cumulative IPC: 0.565838 (Simulation time: 0 hr 21 min 40 sec) 
select_counter is 1022
Heartbeat CPU 0 instructions: 55000002 cycles: 82617812 heartbeat IPC: 0.652171 cumulative IPC: 0.567507 (Simulation time: 0 hr 22 min 1 sec) 
select_counter is 1015
Heartbeat CPU 0 instructions: 56000000 cycles: 84345247 heartbeat IPC: 0.578892 cumulative IPC: 0.56775 (Simulation time: 0 hr 22 min 23 sec) 
select_counter is 1023
Heartbeat CPU 0 instructions: 57000001 cycles: 86084600 heartbeat IPC: 0.574927 cumulative IPC: 0.567901 (Simulation time: 0 hr 22 min 47 sec) 
select_counter is 1023
Heartbeat CPU 0 instructions: 58000000 cycles: 87810216 heartbeat IPC: 0.579503 cumulative IPC: 0.568138 (Simulation time: 0 hr 23 min 8 sec) 
select_counter is 1023
Heartbeat CPU 0 instructions: 59000003 cycles: 89543535 heartbeat IPC: 0.57693 cumulative IPC: 0.568315 (Simulation time: 0 hr 23 min 30 sec) 
select_counter is 1022
Heartbeat CPU 0 instructions: 60000000 cycles: 91270634 heartbeat IPC: 0.579004 cumulative IPC: 0.568525 (Simulation time: 0 hr 23 min 50 sec) 
select_counter is 1023
Heartbeat CPU 0 instructions: 61000002 cycles: 92965154 heartbeat IPC: 0.590139 cumulative IPC: 0.568933 (Simulation time: 0 hr 24 min 9 sec) 
select_counter is 1023
Heartbeat CPU 0 instructions: 62000001 cycles: 94662783 heartbeat IPC: 0.589056 cumulative IPC: 0.569307 (Simulation time: 0 hr 24 min 32 sec) 
select_counter is 1023
Heartbeat CPU 0 instructions: 63000001 cycles: 96341369 heartbeat IPC: 0.595739 cumulative IPC: 0.569784 (Simulation time: 0 hr 24 min 53 sec) 
select_counter is 1022
Heartbeat CPU 0 instructions: 64000000 cycles: 98022562 heartbeat IPC: 0.594815 cumulative IPC: 0.570229 (Simulation time: 0 hr 25 min 12 sec) 
select_counter is 1023
Heartbeat CPU 0 instructions: 65000002 cycles: 99761579 heartbeat IPC: 0.575039 cumulative IPC: 0.570315 (Simulation time: 0 hr 25 min 32 sec) 
select_counter is 1023
Heartbeat CPU 0 instructions: 66000002 cycles: 101498488 heartbeat IPC: 0.575735 cumulative IPC: 0.570411 (Simulation time: 0 hr 25 min 55 sec) 
select_counter is 1023
Heartbeat CPU 0 instructions: 67000000 cycles: 103246059 heartbeat IPC: 0.572222 cumulative IPC: 0.570443 (Simulation time: 0 hr 26 min 14 sec) 
select_counter is 1022
Heartbeat CPU 0 instructions: 68000000 cycles: 105006352 heartbeat IPC: 0.568087 cumulative IPC: 0.570402 (Simulation time: 0 hr 26 min 34 sec) 
select_counter is 1022
Heartbeat CPU 0 instructions: 69000000 cycles: 106770113 heartbeat IPC: 0.56697 cumulative IPC: 0.570343 (Simulation time: 0 hr 26 min 54 sec) 
select_counter is 1023
Heartbeat CPU 0 instructions: 70000002 cycles: 108527537 heartbeat IPC: 0.569016 cumulative IPC: 0.570321 (Simulation time: 0 hr 27 min 14 sec) 
select_counter is 1022
Heartbeat CPU 0 instructions: 71000001 cycles: 110289997 heartbeat IPC: 0.567388 cumulative IPC: 0.570273 (Simulation time: 0 hr 27 min 33 sec) 
select_counter is 1023
Heartbeat CPU 0 instructions: 72000000 cycles: 112046122 heartbeat IPC: 0.569435 cumulative IPC: 0.570259 (Simulation time: 0 hr 27 min 53 sec) 
select_counter is 1021
Heartbeat CPU 0 instructions: 73000000 cycles: 113789851 heartbeat IPC: 0.573484 cumulative IPC: 0.57031 (Simulation time: 0 hr 28 min 13 sec) 
select_counter is 1023
Heartbeat CPU 0 instructions: 74000000 cycles: 115645943 heartbeat IPC: 0.538766 cumulative IPC: 0.569789 (Simulation time: 0 hr 28 min 34 sec) 
select_counter is 1007
Heartbeat CPU 0 instructions: 75000000 cycles: 117883566 heartbeat IPC: 0.446903 cumulative IPC: 0.567389 (Simulation time: 0 hr 29 min 0 sec) 
select_counter is 1023
Heartbeat CPU 0 instructions: 76000000 cycles: 120133529 heartbeat IPC: 0.444452 cumulative IPC: 0.565021 (Simulation time: 0 hr 29 min 29 sec) 
select_counter is 1022
Heartbeat CPU 0 instructions: 77000000 cycles: 122355976 heartbeat IPC: 0.449954 cumulative IPC: 0.562872 (Simulation time: 0 hr 29 min 58 sec) 
select_counter is 1021
Heartbeat CPU 0 instructions: 78000000 cycles: 124573725 heartbeat IPC: 0.450908 cumulative IPC: 0.560825 (Simulation time: 0 hr 30 min 26 sec) 
select_counter is 1023
Heartbeat CPU 0 instructions: 79000000 cycles: 126806759 heartbeat IPC: 0.447821 cumulative IPC: 0.558781 (Simulation time: 0 hr 30 min 53 sec) 
select_counter is 1023
Heartbeat CPU 0 instructions: 80000000 cycles: 129028112 heartbeat IPC: 0.450176 cumulative IPC: 0.556862 (Simulation time: 0 hr 31 min 20 sec) 
select_counter is 1023
Heartbeat CPU 0 instructions: 81000000 cycles: 131256876 heartbeat IPC: 0.448679 cumulative IPC: 0.554977 (Simulation time: 0 hr 31 min 52 sec) 
select_counter is 1023
Heartbeat CPU 0 instructions: 82000000 cycles: 133494347 heartbeat IPC: 0.446933 cumulative IPC: 0.55312 (Simulation time: 0 hr 32 min 26 sec) 
select_counter is 1023
Heartbeat CPU 0 instructions: 83000000 cycles: 135708226 heartbeat IPC: 0.451696 cumulative IPC: 0.551424 (Simulation time: 0 hr 32 min 53 sec) 
select_counter is 1022
Heartbeat CPU 0 instructions: 84000000 cycles: 137921470 heartbeat IPC: 0.451825 cumulative IPC: 0.549786 (Simulation time: 0 hr 33 min 21 sec) 
select_counter is 1023
Heartbeat CPU 0 instructions: 85000001 cycles: 139590607 heartbeat IPC: 0.599113 cumulative IPC: 0.55039 (Simulation time: 0 hr 33 min 43 sec) 
select_counter is 1004
Heartbeat CPU 0 instructions: 86000000 cycles: 141081628 heartbeat IPC: 0.670681 cumulative IPC: 0.551692 (Simulation time: 0 hr 34 min 3 sec) 
select_counter is 1023
Heartbeat CPU 0 instructions: 87000003 cycles: 142579288 heartbeat IPC: 0.66771 cumulative IPC: 0.55294 (Simulation time: 0 hr 34 min 23 sec) 
select_counter is 1022
Heartbeat CPU 0 instructions: 88000000 cycles: 144095001 heartbeat IPC: 0.659754 cumulative IPC: 0.55409 (Simulation time: 0 hr 34 min 43 sec) 
select_counter is 1022
Heartbeat CPU 0 instructions: 89000001 cycles: 145599861 heartbeat IPC: 0.664514 cumulative IPC: 0.555258 (Simulation time: 0 hr 35 min 3 sec) 
select_counter is 1023
Heartbeat CPU 0 instructions: 90000000 cycles: 147104206 heartbeat IPC: 0.66474 cumulative IPC: 0.556404 (Simulation time: 0 hr 35 min 24 sec) 
select_counter is 1023
Heartbeat CPU 0 instructions: 91000001 cycles: 148614909 heartbeat IPC: 0.661944 cumulative IPC: 0.557501 (Simulation time: 0 hr 35 min 44 sec) 
select_counter is 1023
Heartbeat CPU 0 instructions: 92000000 cycles: 150119628 heartbeat IPC: 0.664575 cumulative IPC: 0.558599 (Simulation time: 0 hr 36 min 5 sec) 
select_counter is 1023
Heartbeat CPU 0 instructions: 93000002 cycles: 151592547 heartbeat IPC: 0.678925 cumulative IPC: 0.559794 (Simulation time: 0 hr 36 min 25 sec) 
select_counter is 1023
Heartbeat CPU 0 instructions: 94000001 cycles: 153089979 heartbeat IPC: 0.667809 cumulative IPC: 0.560874 (Simulation time: 0 hr 36 min 45 sec) 
select_counter is 1023
Heartbeat CPU 0 instructions: 95000000 cycles: 154599903 heartbeat IPC: 0.662284 cumulative IPC: 0.561886 (Simulation time: 0 hr 37 min 7 sec) 
select_counter is 1022
Heartbeat CPU 0 instructions: 96000000 cycles: 156104673 heartbeat IPC: 0.664553 cumulative IPC: 0.562897 (Simulation time: 0 hr 37 min 27 sec) 
select_counter is 1022
Heartbeat CPU 0 instructions: 97000002 cycles: 157603938 heartbeat IPC: 0.666995 cumulative IPC: 0.563909 (Simulation time: 0 hr 37 min 47 sec) 
select_counter is 1023
Heartbeat CPU 0 instructions: 98000001 cycles: 159105769 heartbeat IPC: 0.665853 cumulative IPC: 0.564892 (Simulation time: 0 hr 38 min 6 sec) 
select_counter is 1023
Heartbeat CPU 0 instructions: 99000000 cycles: 160603875 heartbeat IPC: 0.667509 cumulative IPC: 0.565869 (Simulation time: 0 hr 38 min 27 sec) 
select_counter is 1022
Heartbeat CPU 0 instructions: 100000000 cycles: 162103849 heartbeat IPC: 0.666678 cumulative IPC: 0.566821 (Simulation time: 0 hr 38 min 46 sec) 
select_counter is 1023
Heartbeat CPU 0 instructions: 101000000 cycles: 163592080 heartbeat IPC: 0.671939 cumulative IPC: 0.567798 (Simulation time: 0 hr 39 min 9 sec) 
select_counter is 1023
Heartbeat CPU 0 instructions: 102000002 cycles: 165085064 heartbeat IPC: 0.669801 cumulative IPC: 0.568739 (Simulation time: 0 hr 39 min 27 sec) 
select_counter is 1023
Heartbeat CPU 0 instructions: 103000001 cycles: 166582833 heartbeat IPC: 0.667659 cumulative IPC: 0.569646 (Simulation time: 0 hr 39 min 44 sec) 
select_counter is 1023
Heartbeat CPU 0 instructions: 104000000 cycles: 168676520 heartbeat IPC: 0.477626 cumulative IPC: 0.568481 (Simulation time: 0 hr 40 min 7 sec) 
select_counter is 1022
Heartbeat CPU 0 instructions: 105000000 cycles: 170920379 heartbeat IPC: 0.445661 cumulative IPC: 0.566837 (Simulation time: 0 hr 40 min 30 sec) 
select_counter is 1023
Heartbeat CPU 0 instructions: 106000000 cycles: 173166192 heartbeat IPC: 0.445273 cumulative IPC: 0.56523 (Simulation time: 0 hr 40 min 53 sec) 
select_counter is 1021
Heartbeat CPU 0 instructions: 107000000 cycles: 175404502 heartbeat IPC: 0.446766 cumulative IPC: 0.563689 (Simulation time: 0 hr 41 min 14 sec) 
select_counter is 1023
Heartbeat CPU 0 instructions: 108000000 cycles: 177649360 heartbeat IPC: 0.445462 cumulative IPC: 0.562166 (Simulation time: 0 hr 41 min 35 sec) 
select_counter is 1022
Heartbeat CPU 0 instructions: 109000000 cycles: 179900400 heartbeat IPC: 0.444239 cumulative IPC: 0.560663 (Simulation time: 0 hr 41 min 56 sec) 
select_counter is 1023
Heartbeat CPU 0 instructions: 110000000 cycles: 182130310 heartbeat IPC: 0.448449 cumulative IPC: 0.559263 (Simulation time: 0 hr 42 min 16 sec) 
select_counter is 1023
Finished CPU 0 instructions: 100000001 cycles: 178806627 cummulative IPC: 0.559263 (Simulation time: 0 hr 42 min 16 sec) 

ChampSim completed all CPUs

Region of Interest Statistics

CPU 0 cummulative IPC: 0.559263 instructions: 100000001 cycles: 178806627
LLC TOTAL     ACCESS:    4917136  HIT:     300231  MISS:    4616905
LLC LOAD      ACCESS:    1160506  HIT:      32203  MISS:    1128303
LLC RFO       ACCESS:         24  HIT:         15  MISS:          9
LLC PREFETCH  ACCESS:    2229907  HIT:      86950  MISS:    2142957
LLC WRITEBACK ACCESS:    1526699  HIT:     181063  MISS:    1345636
Insertion Distribution: 
	LOAD 37 0 0 0 0 0 514 38805 
	RFO 0 0 0 0 0 0 0 0 
	PREF 0 460 0 0 0 0 1687 67202 
	WRITEBACK 0 0 0 0 0 0 0 43647 
Total Prefetch Downgrades: 1142
