
*** ChampSim Multicore Out-of-Order Simulator ***

Warmup Instructions: 10000000
Simulation Instructions: 100000000
Configuration: 2
Number of CPUs: 1
LLC sets: 2048
LLC ways: 16
Off-chip DRAM Channels: 1 Width: 64-bit Data Rate: 1600 MT/s

CPU 0 runs /datasets/cs240c-wi22-a00-public/data/Assignment2-gz/mcf_158B.trace.gz
CPU 0 L1D next line prefetcher
CPU 0 L2C IP-based stride prefetcher
Heartbeat CPU 0 instructions: 1000002 cycles: 512492 heartbeat IPC: 1.95125 cumulative IPC: 1.95125 (Simulation time: 0 hr 0 min 37 sec) 
select_counter is 1023
Heartbeat CPU 0 instructions: 2000002 cycles: 1023529 heartbeat IPC: 1.95681 cumulative IPC: 1.95403 (Simulation time: 0 hr 1 min 10 sec) 
select_counter is 1023
Heartbeat CPU 0 instructions: 3000000 cycles: 1535848 heartbeat IPC: 1.95191 cumulative IPC: 1.95332 (Simulation time: 0 hr 1 min 44 sec) 
select_counter is 1022
Heartbeat CPU 0 instructions: 4000000 cycles: 2046397 heartbeat IPC: 1.95868 cumulative IPC: 1.95465 (Simulation time: 0 hr 2 min 17 sec) 
select_counter is 1020
Heartbeat CPU 0 instructions: 5000002 cycles: 2553812 heartbeat IPC: 1.97078 cumulative IPC: 1.95786 (Simulation time: 0 hr 2 min 50 sec) 
select_counter is 1023
Heartbeat CPU 0 instructions: 6000001 cycles: 3066146 heartbeat IPC: 1.95185 cumulative IPC: 1.95685 (Simulation time: 0 hr 3 min 21 sec) 
select_counter is 1023
Heartbeat CPU 0 instructions: 7000001 cycles: 3575043 heartbeat IPC: 1.96503 cumulative IPC: 1.95802 (Simulation time: 0 hr 3 min 56 sec) 
select_counter is 1022
Heartbeat CPU 0 instructions: 8000000 cycles: 4085567 heartbeat IPC: 1.95877 cumulative IPC: 1.95811 (Simulation time: 0 hr 4 min 30 sec) 
select_counter is 1023
Heartbeat CPU 0 instructions: 9000000 cycles: 4604230 heartbeat IPC: 1.92803 cumulative IPC: 1.95472 (Simulation time: 0 hr 5 min 1 sec) 
select_counter is 1023
Heartbeat CPU 0 instructions: 10000001 cycles: 5143830 heartbeat IPC: 1.85323 cumulative IPC: 1.94408 (Simulation time: 0 hr 5 min 31 sec) 
select_counter is 1023

Warmup complete CPU 0 instructions: 10000001 cycles: 5143830 (Simulation time: 0 hr 5 min 31 sec) 

Heartbeat CPU 0 instructions: 11000001 cycles: 15485688 heartbeat IPC: 0.0966944 cumulative IPC: 0.0966944 (Simulation time: 0 hr 6 min 19 sec) 
select_counter is 1023
Heartbeat CPU 0 instructions: 12000000 cycles: 24611488 heartbeat IPC: 0.109579 cumulative IPC: 0.102734 (Simulation time: 0 hr 7 min 3 sec) 
select_counter is 1023
Heartbeat CPU 0 instructions: 13000001 cycles: 33673937 heartbeat IPC: 0.110346 cumulative IPC: 0.105152 (Simulation time: 0 hr 7 min 48 sec) 
select_counter is 1023
Heartbeat CPU 0 instructions: 14000001 cycles: 42112016 heartbeat IPC: 0.11851 cumulative IPC: 0.108201 (Simulation time: 0 hr 8 min 35 sec) 
select_counter is 1023
Heartbeat CPU 0 instructions: 15000000 cycles: 51036356 heartbeat IPC: 0.112053 cumulative IPC: 0.10895 (Simulation time: 0 hr 9 min 22 sec) 
select_counter is 1023
Heartbeat CPU 0 instructions: 16000000 cycles: 67130547 heartbeat IPC: 0.0621342 cumulative IPC: 0.0967949 (Simulation time: 0 hr 10 min 28 sec) 
select_counter is 1023
Heartbeat CPU 0 instructions: 17000001 cycles: 79304203 heartbeat IPC: 0.0821447 cumulative IPC: 0.09439 (Simulation time: 0 hr 11 min 18 sec) 
select_counter is 1022
Heartbeat CPU 0 instructions: 18000000 cycles: 88730884 heartbeat IPC: 0.106082 cumulative IPC: 0.0957086 (Simulation time: 0 hr 12 min 5 sec) 
select_counter is 1023
Heartbeat CPU 0 instructions: 19000001 cycles: 98423813 heartbeat IPC: 0.103168 cumulative IPC: 0.0964837 (Simulation time: 0 hr 12 min 47 sec) 
select_counter is 1023
Heartbeat CPU 0 instructions: 20000000 cycles: 107701256 heartbeat IPC: 0.107788 cumulative IPC: 0.0975063 (Simulation time: 0 hr 13 min 30 sec) 
select_counter is 1023
Heartbeat CPU 0 instructions: 21000000 cycles: 117056064 heartbeat IPC: 0.106897 cumulative IPC: 0.0982913 (Simulation time: 0 hr 14 min 13 sec) 
select_counter is 1023
Heartbeat CPU 0 instructions: 22000002 cycles: 126423573 heartbeat IPC: 0.106752 cumulative IPC: 0.0989448 (Simulation time: 0 hr 14 min 55 sec) 
select_counter is 1023
Heartbeat CPU 0 instructions: 23000002 cycles: 137262449 heartbeat IPC: 0.0922605 cumulative IPC: 0.0983964 (Simulation time: 0 hr 15 min 40 sec) 
select_counter is 1023
Heartbeat CPU 0 instructions: 24000000 cycles: 153682542 heartbeat IPC: 0.0609009 cumulative IPC: 0.0942515 (Simulation time: 0 hr 16 min 42 sec) 
select_counter is 1023
Heartbeat CPU 0 instructions: 25000000 cycles: 163499861 heartbeat IPC: 0.101861 cumulative IPC: 0.0947233 (Simulation time: 0 hr 17 min 26 sec) 
select_counter is 1023
Heartbeat CPU 0 instructions: 26000000 cycles: 171338746 heartbeat IPC: 0.127569 cumulative IPC: 0.0962725 (Simulation time: 0 hr 18 min 7 sec) 
select_counter is 1023
Heartbeat CPU 0 instructions: 27000002 cycles: 179143519 heartbeat IPC: 0.128127 cumulative IPC: 0.0977013 (Simulation time: 0 hr 18 min 45 sec) 
select_counter is 1023
Heartbeat CPU 0 instructions: 28000000 cycles: 194192073 heartbeat IPC: 0.0664514 cumulative IPC: 0.0952138 (Simulation time: 0 hr 19 min 46 sec) 
select_counter is 1023
Heartbeat CPU 0 instructions: 29000003 cycles: 203882331 heartbeat IPC: 0.103197 cumulative IPC: 0.095603 (Simulation time: 0 hr 20 min 33 sec) 
select_counter is 1023
Heartbeat CPU 0 instructions: 30000003 cycles: 211335173 heartbeat IPC: 0.134177 cumulative IPC: 0.0969973 (Simulation time: 0 hr 21 min 10 sec) 
select_counter is 1022
Heartbeat CPU 0 instructions: 31000003 cycles: 219803333 heartbeat IPC: 0.118089 cumulative IPC: 0.0978294 (Simulation time: 0 hr 21 min 51 sec) 
select_counter is 1023
Heartbeat CPU 0 instructions: 32000000 cycles: 234409322 heartbeat IPC: 0.0684649 cumulative IPC: 0.0959586 (Simulation time: 0 hr 22 min 46 sec) 
select_counter is 1023
Heartbeat CPU 0 instructions: 33000000 cycles: 242311737 heartbeat IPC: 0.126544 cumulative IPC: 0.0969777 (Simulation time: 0 hr 23 min 26 sec) 
select_counter is 1021
Heartbeat CPU 0 instructions: 34000000 cycles: 250436579 heartbeat IPC: 0.123079 cumulative IPC: 0.0978423 (Simulation time: 0 hr 24 min 4 sec) 
select_counter is 1022
Heartbeat CPU 0 instructions: 35000001 cycles: 259055273 heartbeat IPC: 0.116027 cumulative IPC: 0.0984595 (Simulation time: 0 hr 24 min 50 sec) 
select_counter is 1022
Heartbeat CPU 0 instructions: 36000000 cycles: 274467763 heartbeat IPC: 0.0648824 cumulative IPC: 0.096538 (Simulation time: 0 hr 25 min 45 sec) 
select_counter is 1023
Heartbeat CPU 0 instructions: 37000001 cycles: 283374511 heartbeat IPC: 0.112275 cumulative IPC: 0.0970418 (Simulation time: 0 hr 26 min 25 sec) 
select_counter is 1023
Heartbeat CPU 0 instructions: 38000000 cycles: 291839899 heartbeat IPC: 0.118128 cumulative IPC: 0.0976644 (Simulation time: 0 hr 27 min 5 sec) 
select_counter is 1022
Heartbeat CPU 0 instructions: 39000000 cycles: 299220298 heartbeat IPC: 0.135494 cumulative IPC: 0.0986138 (Simulation time: 0 hr 27 min 42 sec) 
select_counter is 1023
Heartbeat CPU 0 instructions: 40000000 cycles: 313742219 heartbeat IPC: 0.0688614 cumulative IPC: 0.0972137 (Simulation time: 0 hr 28 min 37 sec) 
select_counter is 1023
Heartbeat CPU 0 instructions: 41000003 cycles: 323444822 heartbeat IPC: 0.103065 cumulative IPC: 0.0973921 (Simulation time: 0 hr 29 min 18 sec) 
select_counter is 1023
Heartbeat CPU 0 instructions: 42000000 cycles: 330908375 heartbeat IPC: 0.133984 cumulative IPC: 0.0982305 (Simulation time: 0 hr 29 min 56 sec) 
select_counter is 1023
Heartbeat CPU 0 instructions: 43000001 cycles: 341754513 heartbeat IPC: 0.0921988 cumulative IPC: 0.0980361 (Simulation time: 0 hr 30 min 37 sec) 
select_counter is 1023
Heartbeat CPU 0 instructions: 44000000 cycles: 353742517 heartbeat IPC: 0.0834166 cumulative IPC: 0.0975334 (Simulation time: 0 hr 31 min 26 sec) 
select_counter is 1023
Heartbeat CPU 0 instructions: 45000000 cycles: 360310757 heartbeat IPC: 0.152248 cumulative IPC: 0.0985452 (Simulation time: 0 hr 32 min 0 sec) 
select_counter is 1023
Heartbeat CPU 0 instructions: 46000002 cycles: 370671336 heartbeat IPC: 0.0965199 cumulative IPC: 0.0984878 (Simulation time: 0 hr 32 min 43 sec) 
select_counter is 1023
Heartbeat CPU 0 instructions: 47000002 cycles: 383044081 heartbeat IPC: 0.0808228 cumulative IPC: 0.0979094 (Simulation time: 0 hr 33 min 31 sec) 
select_counter is 1022
Heartbeat CPU 0 instructions: 48000000 cycles: 389880035 heartbeat IPC: 0.146285 cumulative IPC: 0.098769 (Simulation time: 0 hr 34 min 5 sec) 
select_counter is 1022
Heartbeat CPU 0 instructions: 49000003 cycles: 400168212 heartbeat IPC: 0.0971992 cumulative IPC: 0.0987281 (Simulation time: 0 hr 34 min 44 sec) 
select_counter is 1022
Heartbeat CPU 0 instructions: 50000000 cycles: 412691714 heartbeat IPC: 0.0798496 cumulative IPC: 0.098148 (Simulation time: 0 hr 35 min 32 sec) 
select_counter is 1023
Heartbeat CPU 0 instructions: 51000000 cycles: 419263282 heartbeat IPC: 0.152171 cumulative IPC: 0.0990052 (Simulation time: 0 hr 36 min 3 sec) 
select_counter is 1022
Heartbeat CPU 0 instructions: 52000000 cycles: 428857633 heartbeat IPC: 0.104228 cumulative IPC: 0.0991235 (Simulation time: 0 hr 36 min 41 sec) 
select_counter is 1023
Heartbeat CPU 0 instructions: 53000000 cycles: 442178851 heartbeat IPC: 0.0750682 cumulative IPC: 0.0983903 (Simulation time: 0 hr 37 min 26 sec) 
select_counter is 1023
Heartbeat CPU 0 instructions: 54000000 cycles: 448895483 heartbeat IPC: 0.148884 cumulative IPC: 0.0991546 (Simulation time: 0 hr 37 min 56 sec) 
select_counter is 1022
Heartbeat CPU 0 instructions: 55000000 cycles: 457015122 heartbeat IPC: 0.123158 cumulative IPC: 0.0995859 (Simulation time: 0 hr 38 min 29 sec) 
select_counter is 1023
Heartbeat CPU 0 instructions: 56000000 cycles: 471671888 heartbeat IPC: 0.0682279 cumulative IPC: 0.0986007 (Simulation time: 0 hr 39 min 11 sec) 
select_counter is 1021
Heartbeat CPU 0 instructions: 57000001 cycles: 478508236 heartbeat IPC: 0.146277 cumulative IPC: 0.0992893 (Simulation time: 0 hr 39 min 38 sec) 
select_counter is 1023
Heartbeat CPU 0 instructions: 58000001 cycles: 485167428 heartbeat IPC: 0.150168 cumulative IPC: 0.0999951 (Simulation time: 0 hr 40 min 5 sec) 
select_counter is 1021
Heartbeat CPU 0 instructions: 59000000 cycles: 500777637 heartbeat IPC: 0.0640606 cumulative IPC: 0.0988633 (Simulation time: 0 hr 40 min 47 sec) 
select_counter is 1023
Heartbeat CPU 0 instructions: 60000000 cycles: 507803413 heartbeat IPC: 0.142333 cumulative IPC: 0.0994709 (Simulation time: 0 hr 41 min 15 sec) 
select_counter is 1022
Heartbeat CPU 0 instructions: 61000000 cycles: 515093004 heartbeat IPC: 0.137182 cumulative IPC: 0.10001 (Simulation time: 0 hr 41 min 43 sec) 
select_counter is 1022
Heartbeat CPU 0 instructions: 62000001 cycles: 527572286 heartbeat IPC: 0.0801329 cumulative IPC: 0.0995352 (Simulation time: 0 hr 42 min 20 sec) 
select_counter is 1023
Heartbeat CPU 0 instructions: 63000001 cycles: 538070741 heartbeat IPC: 0.0952521 cumulative IPC: 0.0994508 (Simulation time: 0 hr 42 min 54 sec) 
select_counter is 1022
Heartbeat CPU 0 instructions: 64000000 cycles: 544802843 heartbeat IPC: 0.148542 cumulative IPC: 0.100063 (Simulation time: 0 hr 43 min 19 sec) 
select_counter is 1023
Heartbeat CPU 0 instructions: 65000000 cycles: 552505936 heartbeat IPC: 0.129818 cumulative IPC: 0.100482 (Simulation time: 0 hr 43 min 43 sec) 
select_counter is 1021
Heartbeat CPU 0 instructions: 66000000 cycles: 567357886 heartbeat IPC: 0.0673312 cumulative IPC: 0.0996062 (Simulation time: 0 hr 44 min 16 sec) 
select_counter is 1023
Heartbeat CPU 0 instructions: 67000002 cycles: 573970097 heartbeat IPC: 0.151236 cumulative IPC: 0.100206 (Simulation time: 0 hr 44 min 38 sec) 
select_counter is 1022
Heartbeat CPU 0 instructions: 68000000 cycles: 580492826 heartbeat IPC: 0.15331 cumulative IPC: 0.100808 (Simulation time: 0 hr 44 min 57 sec) 
select_counter is 1023
Heartbeat CPU 0 instructions: 69000000 cycles: 593580500 heartbeat IPC: 0.0764078 cumulative IPC: 0.100266 (Simulation time: 0 hr 45 min 22 sec) 
select_counter is 1023
Heartbeat CPU 0 instructions: 70000000 cycles: 602914655 heartbeat IPC: 0.107133 cumulative IPC: 0.100373 (Simulation time: 0 hr 45 min 43 sec) 
select_counter is 1021
Heartbeat CPU 0 instructions: 71000002 cycles: 609346681 heartbeat IPC: 0.155472 cumulative IPC: 0.100959 (Simulation time: 0 hr 46 min 0 sec) 
select_counter is 1022
Heartbeat CPU 0 instructions: 72000000 cycles: 617431592 heartbeat IPC: 0.123687 cumulative IPC: 0.10126 (Simulation time: 0 hr 46 min 19 sec) 
select_counter is 1023
Heartbeat CPU 0 instructions: 73000000 cycles: 631725984 heartbeat IPC: 0.0699575 cumulative IPC: 0.100545 (Simulation time: 0 hr 46 min 42 sec) 
select_counter is 1023
Heartbeat CPU 0 instructions: 74000000 cycles: 638490863 heartbeat IPC: 0.147822 cumulative IPC: 0.10105 (Simulation time: 0 hr 46 min 57 sec) 
select_counter is 1020
Heartbeat CPU 0 instructions: 75000001 cycles: 645410208 heartbeat IPC: 0.144522 cumulative IPC: 0.10152 (Simulation time: 0 hr 47 min 11 sec) 
select_counter is 1023
Heartbeat CPU 0 instructions: 76000000 cycles: 657682637 heartbeat IPC: 0.0814834 cumulative IPC: 0.101143 (Simulation time: 0 hr 47 min 27 sec) 
select_counter is 1023
Heartbeat CPU 0 instructions: 77000000 cycles: 668448457 heartbeat IPC: 0.0928866 cumulative IPC: 0.101009 (Simulation time: 0 hr 47 min 41 sec) 
select_counter is 1023
Heartbeat CPU 0 instructions: 78000000 cycles: 675847755 heartbeat IPC: 0.135148 cumulative IPC: 0.101386 (Simulation time: 0 hr 47 min 51 sec) 
select_counter is 1023
Heartbeat CPU 0 instructions: 79000003 cycles: 683502722 heartbeat IPC: 0.130635 cumulative IPC: 0.101716 (Simulation time: 0 hr 48 min 0 sec) 
select_counter is 1023
Heartbeat CPU 0 instructions: 80000000 cycles: 698776194 heartbeat IPC: 0.0654728 cumulative IPC: 0.100918 (Simulation time: 0 hr 48 min 12 sec) 
select_counter is 1023
Heartbeat CPU 0 instructions: 81000001 cycles: 706400262 heartbeat IPC: 0.131164 cumulative IPC: 0.101247 (Simulation time: 0 hr 48 min 19 sec) 
select_counter is 1021
Heartbeat CPU 0 instructions: 82000001 cycles: 713772586 heartbeat IPC: 0.135642 cumulative IPC: 0.101605 (Simulation time: 0 hr 48 min 27 sec) 
select_counter is 1023
Heartbeat CPU 0 instructions: 83000001 cycles: 726416046 heartbeat IPC: 0.0790923 cumulative IPC: 0.10121 (Simulation time: 0 hr 48 min 35 sec) 
select_counter is 1023
Heartbeat CPU 0 instructions: 84000000 cycles: 737453970 heartbeat IPC: 0.0905967 cumulative IPC: 0.10105 (Simulation time: 0 hr 48 min 42 sec) 
select_counter is 1021
Heartbeat CPU 0 instructions: 85000000 cycles: 744152708 heartbeat IPC: 0.149282 cumulative IPC: 0.101487 (Simulation time: 0 hr 48 min 47 sec) 
select_counter is 1023
Heartbeat CPU 0 instructions: 86000000 cycles: 752163761 heartbeat IPC: 0.124828 cumulative IPC: 0.101738 (Simulation time: 0 hr 48 min 52 sec) 
select_counter is 1023
Heartbeat CPU 0 instructions: 87000000 cycles: 767131702 heartbeat IPC: 0.0668095 cumulative IPC: 0.101051 (Simulation time: 0 hr 48 min 59 sec) 
select_counter is 1023
Heartbeat CPU 0 instructions: 88000000 cycles: 774500817 heartbeat IPC: 0.135702 cumulative IPC: 0.101383 (Simulation time: 0 hr 49 min 4 sec) 
select_counter is 1023
Heartbeat CPU 0 instructions: 89000000 cycles: 782139572 heartbeat IPC: 0.130911 cumulative IPC: 0.101674 (Simulation time: 0 hr 49 min 8 sec) 
select_counter is 1021
Heartbeat CPU 0 instructions: 90000002 cycles: 795944496 heartbeat IPC: 0.0724381 cumulative IPC: 0.101163 (Simulation time: 0 hr 49 min 15 sec) 
select_counter is 1023
Heartbeat CPU 0 instructions: 91000000 cycles: 805454661 heartbeat IPC: 0.10515 cumulative IPC: 0.101211 (Simulation time: 0 hr 49 min 20 sec) 
select_counter is 1023
Heartbeat CPU 0 instructions: 92000000 cycles: 812674080 heartbeat IPC: 0.138515 cumulative IPC: 0.101544 (Simulation time: 0 hr 49 min 24 sec) 
select_counter is 1019
Heartbeat CPU 0 instructions: 93000003 cycles: 823902724 heartbeat IPC: 0.0890582 cumulative IPC: 0.101373 (Simulation time: 0 hr 49 min 30 sec) 
select_counter is 1023
Heartbeat CPU 0 instructions: 94000000 cycles: 835851037 heartbeat IPC: 0.0836936 cumulative IPC: 0.101119 (Simulation time: 0 hr 49 min 36 sec) 
select_counter is 1022
Heartbeat CPU 0 instructions: 95000000 cycles: 843072776 heartbeat IPC: 0.138471 cumulative IPC: 0.101441 (Simulation time: 0 hr 49 min 40 sec) 
select_counter is 1023
Heartbeat CPU 0 instructions: 96000000 cycles: 850893490 heartbeat IPC: 0.127866 cumulative IPC: 0.101685 (Simulation time: 0 hr 49 min 45 sec) 
select_counter is 1023
Heartbeat CPU 0 instructions: 97000003 cycles: 866380242 heartbeat IPC: 0.0645715 cumulative IPC: 0.101018 (Simulation time: 0 hr 49 min 52 sec) 
select_counter is 1023
Heartbeat CPU 0 instructions: 98000002 cycles: 873977107 heartbeat IPC: 0.131633 cumulative IPC: 0.101285 (Simulation time: 0 hr 49 min 57 sec) 
select_counter is 1023
Heartbeat CPU 0 instructions: 99000000 cycles: 881506093 heartbeat IPC: 0.13282 cumulative IPC: 0.101556 (Simulation time: 0 hr 50 min 1 sec) 
select_counter is 1023
Heartbeat CPU 0 instructions: 100000000 cycles: 894971084 heartbeat IPC: 0.0742667 cumulative IPC: 0.101143 (Simulation time: 0 hr 50 min 8 sec) 
select_counter is 1023
Heartbeat CPU 0 instructions: 101000000 cycles: 905187548 heartbeat IPC: 0.0978812 cumulative IPC: 0.101106 (Simulation time: 0 hr 50 min 14 sec) 
select_counter is 1023
Heartbeat CPU 0 instructions: 102000000 cycles: 912903822 heartbeat IPC: 0.129596 cumulative IPC: 0.101348 (Simulation time: 0 hr 50 min 19 sec) 
select_counter is 1023
Heartbeat CPU 0 instructions: 103000001 cycles: 920255161 heartbeat IPC: 0.13603 cumulative IPC: 0.101627 (Simulation time: 0 hr 50 min 23 sec) 
select_counter is 1023
Heartbeat CPU 0 instructions: 104000000 cycles: 935997962 heartbeat IPC: 0.063521 cumulative IPC: 0.100983 (Simulation time: 0 hr 50 min 30 sec) 
select_counter is 1023
Heartbeat CPU 0 instructions: 105000000 cycles: 944512995 heartbeat IPC: 0.117439 cumulative IPC: 0.101132 (Simulation time: 0 hr 50 min 35 sec) 
select_counter is 1020
Heartbeat CPU 0 instructions: 106000000 cycles: 952207553 heartbeat IPC: 0.129962 cumulative IPC: 0.101366 (Simulation time: 0 hr 50 min 40 sec) 
select_counter is 1023
Heartbeat CPU 0 instructions: 107000000 cycles: 962446247 heartbeat IPC: 0.0976687 cumulative IPC: 0.101326 (Simulation time: 0 hr 50 min 45 sec) 
select_counter is 1023
Heartbeat CPU 0 instructions: 108000000 cycles: 975795222 heartbeat IPC: 0.0749121 cumulative IPC: 0.100963 (Simulation time: 0 hr 50 min 52 sec) 
select_counter is 1023
Heartbeat CPU 0 instructions: 109000000 cycles: 983322781 heartbeat IPC: 0.132845 cumulative IPC: 0.101208 (Simulation time: 0 hr 50 min 57 sec) 
select_counter is 1022
Heartbeat CPU 0 instructions: 110000000 cycles: 991569840 heartbeat IPC: 0.121255 cumulative IPC: 0.101376 (Simulation time: 0 hr 51 min 2 sec) 
select_counter is 1022
Finished CPU 0 instructions: 100000002 cycles: 986426012 cummulative IPC: 0.101376 (Simulation time: 0 hr 51 min 2 sec) 

ChampSim completed all CPUs

Region of Interest Statistics

CPU 0 cummulative IPC: 0.101376 instructions: 100000002 cycles: 986426012
LLC TOTAL     ACCESS:   21080554  HIT:    8385258  MISS:   12695296
LLC LOAD      ACCESS:    9508146  HIT:    5182684  MISS:    4325462
LLC RFO       ACCESS:     164409  HIT:      93088  MISS:      71321
LLC PREFETCH  ACCESS:    9645209  HIT:    1976899  MISS:    7668310
LLC WRITEBACK ACCESS:    1762790  HIT:    1132587  MISS:     630203
Insertion Distribution: 
	LOAD 18161 0 0 0 0 0 15691 91498 
	RFO 1196 0 0 0 0 0 244 2436 
	PREF 0 39840 0 0 0 0 60375 172152 
	WRITEBACK 0 0 0 0 0 0 0 15328 
Total Prefetch Downgrades: 45474
