
*** ChampSim Multicore Out-of-Order Simulator ***

Warmup Instructions: 10000000
Simulation Instructions: 100000000
Configuration: 2
Number of CPUs: 1
LLC sets: 2048
LLC ways: 16
Off-chip DRAM Channels: 1 Width: 64-bit Data Rate: 1600 MT/s

CPU 0 runs /datasets/cs240c-wi22-a00-public/data/Assignment2-gz/gcc_56B.trace.gz
CPU 0 L1D next line prefetcher
CPU 0 L2C IP-based stride prefetcher
Heartbeat CPU 0 instructions: 1000003 cycles: 954150 heartbeat IPC: 1.04806 cumulative IPC: 1.04806 (Simulation time: 0 hr 0 min 27 sec) 
select_counter is 700
Heartbeat CPU 0 instructions: 2000001 cycles: 1898363 heartbeat IPC: 1.05908 cumulative IPC: 1.05354 (Simulation time: 0 hr 0 min 54 sec) 
select_counter is 714
Heartbeat CPU 0 instructions: 3000001 cycles: 2885611 heartbeat IPC: 1.01292 cumulative IPC: 1.03964 (Simulation time: 0 hr 1 min 23 sec) 
select_counter is 725
Heartbeat CPU 0 instructions: 4000000 cycles: 3848237 heartbeat IPC: 1.03882 cumulative IPC: 1.03944 (Simulation time: 0 hr 1 min 52 sec) 
select_counter is 735
Heartbeat CPU 0 instructions: 5000002 cycles: 4737731 heartbeat IPC: 1.12424 cumulative IPC: 1.05536 (Simulation time: 0 hr 2 min 20 sec) 
select_counter is 749
Heartbeat CPU 0 instructions: 6000000 cycles: 5685699 heartbeat IPC: 1.05489 cumulative IPC: 1.05528 (Simulation time: 0 hr 2 min 46 sec) 
select_counter is 760
Heartbeat CPU 0 instructions: 7000000 cycles: 6649960 heartbeat IPC: 1.03706 cumulative IPC: 1.05264 (Simulation time: 0 hr 3 min 17 sec) 
select_counter is 769
Heartbeat CPU 0 instructions: 8000000 cycles: 7611198 heartbeat IPC: 1.04033 cumulative IPC: 1.05108 (Simulation time: 0 hr 3 min 47 sec) 
select_counter is 779
Heartbeat CPU 0 instructions: 9000000 cycles: 8622686 heartbeat IPC: 0.988642 cumulative IPC: 1.04376 (Simulation time: 0 hr 4 min 15 sec) 
select_counter is 790
Heartbeat CPU 0 instructions: 10000002 cycles: 9583213 heartbeat IPC: 1.0411 cumulative IPC: 1.04349 (Simulation time: 0 hr 4 min 44 sec) 
select_counter is 803

Warmup complete CPU 0 instructions: 10000002 cycles: 9583213 (Simulation time: 0 hr 4 min 44 sec) 

Heartbeat CPU 0 instructions: 11000000 cycles: 10946285 heartbeat IPC: 0.733635 cumulative IPC: 0.733635 (Simulation time: 0 hr 5 min 14 sec) 
select_counter is 820
Heartbeat CPU 0 instructions: 12000000 cycles: 12385327 heartbeat IPC: 0.694907 cumulative IPC: 0.713746 (Simulation time: 0 hr 5 min 42 sec) 
select_counter is 833
Heartbeat CPU 0 instructions: 13000001 cycles: 13780780 heartbeat IPC: 0.716614 cumulative IPC: 0.7147 (Simulation time: 0 hr 6 min 10 sec) 
select_counter is 846
Heartbeat CPU 0 instructions: 14000000 cycles: 15126539 heartbeat IPC: 0.743074 cumulative IPC: 0.721588 (Simulation time: 0 hr 6 min 43 sec) 
select_counter is 856
Heartbeat CPU 0 instructions: 15000003 cycles: 16514901 heartbeat IPC: 0.720275 cumulative IPC: 0.721325 (Simulation time: 0 hr 7 min 14 sec) 
select_counter is 848
Heartbeat CPU 0 instructions: 16000000 cycles: 17853901 heartbeat IPC: 0.746824 cumulative IPC: 0.725453 (Simulation time: 0 hr 7 min 44 sec) 
select_counter is 849
Heartbeat CPU 0 instructions: 17000001 cycles: 19188141 heartbeat IPC: 0.749491 cumulative IPC: 0.728792 (Simulation time: 0 hr 8 min 15 sec) 
select_counter is 851
Heartbeat CPU 0 instructions: 18000000 cycles: 20591033 heartbeat IPC: 0.712813 cumulative IPC: 0.726756 (Simulation time: 0 hr 8 min 45 sec) 
select_counter is 873
Heartbeat CPU 0 instructions: 19000000 cycles: 21986342 heartbeat IPC: 0.716687 cumulative IPC: 0.725623 (Simulation time: 0 hr 9 min 16 sec) 
select_counter is 895
Heartbeat CPU 0 instructions: 20000000 cycles: 23362766 heartbeat IPC: 0.72652 cumulative IPC: 0.725713 (Simulation time: 0 hr 9 min 48 sec) 
select_counter is 884
Heartbeat CPU 0 instructions: 21000000 cycles: 24722800 heartbeat IPC: 0.735276 cumulative IPC: 0.726572 (Simulation time: 0 hr 10 min 17 sec) 
select_counter is 884
Heartbeat CPU 0 instructions: 22000000 cycles: 26061979 heartbeat IPC: 0.746726 cumulative IPC: 0.72821 (Simulation time: 0 hr 10 min 49 sec) 
select_counter is 900
Heartbeat CPU 0 instructions: 23000000 cycles: 27410442 heartbeat IPC: 0.741585 cumulative IPC: 0.729221 (Simulation time: 0 hr 11 min 17 sec) 
select_counter is 907
Heartbeat CPU 0 instructions: 24000000 cycles: 28788329 heartbeat IPC: 0.725749 cumulative IPC: 0.728972 (Simulation time: 0 hr 11 min 45 sec) 
select_counter is 909
Heartbeat CPU 0 instructions: 25000000 cycles: 30173495 heartbeat IPC: 0.721935 cumulative IPC: 0.728499 (Simulation time: 0 hr 12 min 13 sec) 
select_counter is 917
Heartbeat CPU 0 instructions: 26000002 cycles: 31594864 heartbeat IPC: 0.703548 cumulative IPC: 0.726888 (Simulation time: 0 hr 12 min 41 sec) 
select_counter is 928
Heartbeat CPU 0 instructions: 27000000 cycles: 32999265 heartbeat IPC: 0.712046 cumulative IPC: 0.725998 (Simulation time: 0 hr 13 min 9 sec) 
select_counter is 933
Heartbeat CPU 0 instructions: 28000000 cycles: 34361790 heartbeat IPC: 0.733931 cumulative IPC: 0.726434 (Simulation time: 0 hr 13 min 38 sec) 
select_counter is 934
Heartbeat CPU 0 instructions: 29000000 cycles: 35726532 heartbeat IPC: 0.732739 cumulative IPC: 0.726763 (Simulation time: 0 hr 14 min 7 sec) 
select_counter is 947
Heartbeat CPU 0 instructions: 30000000 cycles: 37093901 heartbeat IPC: 0.731331 cumulative IPC: 0.72699 (Simulation time: 0 hr 14 min 38 sec) 
select_counter is 953
Heartbeat CPU 0 instructions: 31000000 cycles: 38467912 heartbeat IPC: 0.727796 cumulative IPC: 0.727028 (Simulation time: 0 hr 15 min 6 sec) 
select_counter is 968
Heartbeat CPU 0 instructions: 32000000 cycles: 39868508 heartbeat IPC: 0.713982 cumulative IPC: 0.726425 (Simulation time: 0 hr 15 min 32 sec) 
select_counter is 982
Heartbeat CPU 0 instructions: 33000002 cycles: 41291544 heartbeat IPC: 0.702724 cumulative IPC: 0.725361 (Simulation time: 0 hr 16 min 2 sec) 
select_counter is 994
Heartbeat CPU 0 instructions: 34000002 cycles: 42668933 heartbeat IPC: 0.726011 cumulative IPC: 0.725388 (Simulation time: 0 hr 16 min 32 sec) 
select_counter is 1002
Heartbeat CPU 0 instructions: 35000002 cycles: 44030898 heartbeat IPC: 0.734233 cumulative IPC: 0.725738 (Simulation time: 0 hr 17 min 0 sec) 
select_counter is 1017
Heartbeat CPU 0 instructions: 36000000 cycles: 45375765 heartbeat IPC: 0.743566 cumulative IPC: 0.726408 (Simulation time: 0 hr 17 min 28 sec) 
select_counter is 1022
Heartbeat CPU 0 instructions: 37000000 cycles: 46700644 heartbeat IPC: 0.754786 cumulative IPC: 0.727421 (Simulation time: 0 hr 17 min 56 sec) 
select_counter is 1023
Heartbeat CPU 0 instructions: 38000002 cycles: 48049373 heartbeat IPC: 0.74144 cumulative IPC: 0.727913 (Simulation time: 0 hr 18 min 22 sec) 
select_counter is 1021
Heartbeat CPU 0 instructions: 39000000 cycles: 49466740 heartbeat IPC: 0.705532 cumulative IPC: 0.727117 (Simulation time: 0 hr 18 min 51 sec) 
select_counter is 1021
Heartbeat CPU 0 instructions: 40000000 cycles: 50846547 heartbeat IPC: 0.724739 cumulative IPC: 0.727038 (Simulation time: 0 hr 19 min 21 sec) 
select_counter is 1023
Heartbeat CPU 0 instructions: 41000001 cycles: 52204981 heartbeat IPC: 0.736143 cumulative IPC: 0.727328 (Simulation time: 0 hr 19 min 51 sec) 
select_counter is 1023
Heartbeat CPU 0 instructions: 42000003 cycles: 53550989 heartbeat IPC: 0.742939 cumulative IPC: 0.727806 (Simulation time: 0 hr 20 min 19 sec) 
select_counter is 1023
Heartbeat CPU 0 instructions: 43000001 cycles: 54904441 heartbeat IPC: 0.73885 cumulative IPC: 0.728136 (Simulation time: 0 hr 20 min 47 sec) 
select_counter is 1022
Heartbeat CPU 0 instructions: 44000000 cycles: 56250087 heartbeat IPC: 0.743137 cumulative IPC: 0.728568 (Simulation time: 0 hr 21 min 15 sec) 
select_counter is 1017
Heartbeat CPU 0 instructions: 45000000 cycles: 57635750 heartbeat IPC: 0.721676 cumulative IPC: 0.728369 (Simulation time: 0 hr 21 min 41 sec) 
select_counter is 1021
Heartbeat CPU 0 instructions: 46000000 cycles: 59043579 heartbeat IPC: 0.710314 cumulative IPC: 0.727855 (Simulation time: 0 hr 22 min 8 sec) 
select_counter is 1023
Heartbeat CPU 0 instructions: 47000002 cycles: 60436732 heartbeat IPC: 0.717798 cumulative IPC: 0.72758 (Simulation time: 0 hr 22 min 36 sec) 
select_counter is 1023
Heartbeat CPU 0 instructions: 48000000 cycles: 61800640 heartbeat IPC: 0.733186 cumulative IPC: 0.727726 (Simulation time: 0 hr 23 min 4 sec) 
select_counter is 1018
Heartbeat CPU 0 instructions: 49000002 cycles: 63143623 heartbeat IPC: 0.744613 cumulative IPC: 0.72815 (Simulation time: 0 hr 23 min 31 sec) 
select_counter is 1019
Heartbeat CPU 0 instructions: 50000000 cycles: 64481213 heartbeat IPC: 0.747612 cumulative IPC: 0.728624 (Simulation time: 0 hr 23 min 59 sec) 
select_counter is 1023
Heartbeat CPU 0 instructions: 51000000 cycles: 65855612 heartbeat IPC: 0.727591 cumulative IPC: 0.728599 (Simulation time: 0 hr 24 min 28 sec) 
select_counter is 1022
Heartbeat CPU 0 instructions: 52000000 cycles: 67264287 heartbeat IPC: 0.709887 cumulative IPC: 0.728142 (Simulation time: 0 hr 24 min 56 sec) 
select_counter is 1023
Heartbeat CPU 0 instructions: 53000001 cycles: 68614694 heartbeat IPC: 0.740518 cumulative IPC: 0.728425 (Simulation time: 0 hr 25 min 27 sec) 
select_counter is 1022
Heartbeat CPU 0 instructions: 54000000 cycles: 69946770 heartbeat IPC: 0.750707 cumulative IPC: 0.728917 (Simulation time: 0 hr 25 min 55 sec) 
select_counter is 1023
Heartbeat CPU 0 instructions: 55000001 cycles: 71269318 heartbeat IPC: 0.756117 cumulative IPC: 0.7295 (Simulation time: 0 hr 26 min 23 sec) 
select_counter is 1023
Heartbeat CPU 0 instructions: 56000000 cycles: 72607527 heartbeat IPC: 0.747267 cumulative IPC: 0.729877 (Simulation time: 0 hr 26 min 51 sec) 
select_counter is 1017
Heartbeat CPU 0 instructions: 57000001 cycles: 73959356 heartbeat IPC: 0.739739 cumulative IPC: 0.730084 (Simulation time: 0 hr 27 min 19 sec) 
select_counter is 1023
Heartbeat CPU 0 instructions: 58000000 cycles: 75354399 heartbeat IPC: 0.716823 cumulative IPC: 0.729803 (Simulation time: 0 hr 27 min 46 sec) 
select_counter is 1021
Heartbeat CPU 0 instructions: 59000000 cycles: 76768194 heartbeat IPC: 0.707316 cumulative IPC: 0.72933 (Simulation time: 0 hr 28 min 15 sec) 
select_counter is 1016
Heartbeat CPU 0 instructions: 60000000 cycles: 78161377 heartbeat IPC: 0.717781 cumulative IPC: 0.729095 (Simulation time: 0 hr 28 min 42 sec) 
select_counter is 1016
Heartbeat CPU 0 instructions: 61000000 cycles: 79507856 heartbeat IPC: 0.742678 cumulative IPC: 0.729357 (Simulation time: 0 hr 29 min 10 sec) 
select_counter is 1019
Heartbeat CPU 0 instructions: 62000002 cycles: 80888389 heartbeat IPC: 0.724359 cumulative IPC: 0.72926 (Simulation time: 0 hr 29 min 39 sec) 
select_counter is 1023
Heartbeat CPU 0 instructions: 63000003 cycles: 82221187 heartbeat IPC: 0.750302 cumulative IPC: 0.729646 (Simulation time: 0 hr 30 min 9 sec) 
select_counter is 1019
Heartbeat CPU 0 instructions: 64000000 cycles: 83559560 heartbeat IPC: 0.747174 cumulative IPC: 0.729963 (Simulation time: 0 hr 30 min 36 sec) 
select_counter is 1020
Heartbeat CPU 0 instructions: 65000000 cycles: 84923703 heartbeat IPC: 0.733061 cumulative IPC: 0.730019 (Simulation time: 0 hr 31 min 2 sec) 
select_counter is 1021
Heartbeat CPU 0 instructions: 66000002 cycles: 86330620 heartbeat IPC: 0.710775 cumulative IPC: 0.729666 (Simulation time: 0 hr 31 min 28 sec) 
select_counter is 1023
Heartbeat CPU 0 instructions: 67000002 cycles: 87732646 heartbeat IPC: 0.713254 cumulative IPC: 0.729372 (Simulation time: 0 hr 31 min 53 sec) 
select_counter is 1021
Heartbeat CPU 0 instructions: 68000000 cycles: 89101866 heartbeat IPC: 0.730341 cumulative IPC: 0.729389 (Simulation time: 0 hr 32 min 24 sec) 
select_counter is 1022
Heartbeat CPU 0 instructions: 69000000 cycles: 90446314 heartbeat IPC: 0.7438 cumulative IPC: 0.729628 (Simulation time: 0 hr 32 min 53 sec) 
select_counter is 1022
Heartbeat CPU 0 instructions: 70000000 cycles: 91790496 heartbeat IPC: 0.743947 cumulative IPC: 0.729862 (Simulation time: 0 hr 33 min 21 sec) 
select_counter is 1022
Heartbeat CPU 0 instructions: 71000003 cycles: 93147088 heartbeat IPC: 0.737144 cumulative IPC: 0.729981 (Simulation time: 0 hr 33 min 49 sec) 
select_counter is 1021
Heartbeat CPU 0 instructions: 72000000 cycles: 94505469 heartbeat IPC: 0.736168 cumulative IPC: 0.730079 (Simulation time: 0 hr 34 min 15 sec) 
select_counter is 1019
Heartbeat CPU 0 instructions: 73000003 cycles: 95890914 heartbeat IPC: 0.721792 cumulative IPC: 0.729946 (Simulation time: 0 hr 34 min 41 sec) 
select_counter is 1023
Heartbeat CPU 0 instructions: 74000001 cycles: 97305167 heartbeat IPC: 0.707086 cumulative IPC: 0.729578 (Simulation time: 0 hr 35 min 8 sec) 
select_counter is 1021
Heartbeat CPU 0 instructions: 75000003 cycles: 98697525 heartbeat IPC: 0.718208 cumulative IPC: 0.7294 (Simulation time: 0 hr 35 min 33 sec) 
select_counter is 1020
Heartbeat CPU 0 instructions: 76000000 cycles: 100056284 heartbeat IPC: 0.735963 cumulative IPC: 0.729499 (Simulation time: 0 hr 35 min 58 sec) 
select_counter is 1019
Heartbeat CPU 0 instructions: 77000003 cycles: 101407237 heartbeat IPC: 0.74022 cumulative IPC: 0.729657 (Simulation time: 0 hr 36 min 24 sec) 
select_counter is 1023
Heartbeat CPU 0 instructions: 78000001 cycles: 102756820 heartbeat IPC: 0.740968 cumulative IPC: 0.72982 (Simulation time: 0 hr 36 min 49 sec) 
select_counter is 1023
Heartbeat CPU 0 instructions: 79000000 cycles: 104129732 heartbeat IPC: 0.728378 cumulative IPC: 0.729799 (Simulation time: 0 hr 37 min 13 sec) 
select_counter is 1023
Heartbeat CPU 0 instructions: 80000000 cycles: 105496869 heartbeat IPC: 0.731456 cumulative IPC: 0.729823 (Simulation time: 0 hr 37 min 37 sec) 
select_counter is 1023
Heartbeat CPU 0 instructions: 81000002 cycles: 106889291 heartbeat IPC: 0.718175 cumulative IPC: 0.729656 (Simulation time: 0 hr 38 min 2 sec) 
select_counter is 1023
Heartbeat CPU 0 instructions: 82000000 cycles: 108276727 heartbeat IPC: 0.720753 cumulative IPC: 0.729531 (Simulation time: 0 hr 38 min 26 sec) 
select_counter is 1021
Heartbeat CPU 0 instructions: 83000003 cycles: 109626520 heartbeat IPC: 0.740857 cumulative IPC: 0.729684 (Simulation time: 0 hr 38 min 50 sec) 
select_counter is 1023
Heartbeat CPU 0 instructions: 84000000 cycles: 110989704 heartbeat IPC: 0.733575 cumulative IPC: 0.729736 (Simulation time: 0 hr 39 min 13 sec) 
select_counter is 1022
Heartbeat CPU 0 instructions: 85000002 cycles: 112321413 heartbeat IPC: 0.750916 cumulative IPC: 0.730011 (Simulation time: 0 hr 39 min 36 sec) 
select_counter is 1023
Heartbeat CPU 0 instructions: 86000003 cycles: 113644676 heartbeat IPC: 0.755708 cumulative IPC: 0.730338 (Simulation time: 0 hr 39 min 58 sec) 
select_counter is 1023
Heartbeat CPU 0 instructions: 87000000 cycles: 115044931 heartbeat IPC: 0.714153 cumulative IPC: 0.730123 (Simulation time: 0 hr 40 min 22 sec) 
select_counter is 1022
Heartbeat CPU 0 instructions: 88000000 cycles: 116414264 heartbeat IPC: 0.730283 cumulative IPC: 0.730125 (Simulation time: 0 hr 40 min 43 sec) 
select_counter is 1023
Heartbeat CPU 0 instructions: 89000000 cycles: 117791491 heartbeat IPC: 0.726097 cumulative IPC: 0.730074 (Simulation time: 0 hr 41 min 4 sec) 
select_counter is 1023
Heartbeat CPU 0 instructions: 90000000 cycles: 119128013 heartbeat IPC: 0.748211 cumulative IPC: 0.730295 (Simulation time: 0 hr 41 min 25 sec) 
select_counter is 1023
Heartbeat CPU 0 instructions: 91000001 cycles: 120454354 heartbeat IPC: 0.753955 cumulative IPC: 0.730578 (Simulation time: 0 hr 41 min 46 sec) 
select_counter is 1016
Heartbeat CPU 0 instructions: 92000000 cycles: 121792562 heartbeat IPC: 0.747267 cumulative IPC: 0.730777 (Simulation time: 0 hr 42 min 5 sec) 
select_counter is 1022
Heartbeat CPU 0 instructions: 93000003 cycles: 123192652 heartbeat IPC: 0.714242 cumulative IPC: 0.730573 (Simulation time: 0 hr 42 min 25 sec) 
select_counter is 1016
Heartbeat CPU 0 instructions: 94000000 cycles: 124554500 heartbeat IPC: 0.734294 cumulative IPC: 0.730617 (Simulation time: 0 hr 42 min 45 sec) 
select_counter is 1000
Heartbeat CPU 0 instructions: 95000000 cycles: 125923225 heartbeat IPC: 0.730607 cumulative IPC: 0.730617 (Simulation time: 0 hr 43 min 4 sec) 
select_counter is 997
Heartbeat CPU 0 instructions: 96000000 cycles: 127272957 heartbeat IPC: 0.740888 cumulative IPC: 0.730735 (Simulation time: 0 hr 43 min 23 sec) 
select_counter is 994
Heartbeat CPU 0 instructions: 97000000 cycles: 128600354 heartbeat IPC: 0.753354 cumulative IPC: 0.730987 (Simulation time: 0 hr 43 min 42 sec) 
select_counter is 984
Heartbeat CPU 0 instructions: 98000003 cycles: 129930720 heartbeat IPC: 0.751675 cumulative IPC: 0.731216 (Simulation time: 0 hr 43 min 59 sec) 
select_counter is 992
Heartbeat CPU 0 instructions: 99000000 cycles: 131334597 heartbeat IPC: 0.712311 cumulative IPC: 0.730998 (Simulation time: 0 hr 44 min 16 sec) 
select_counter is 997
Heartbeat CPU 0 instructions: 100000000 cycles: 132694446 heartbeat IPC: 0.735376 cumulative IPC: 0.731046 (Simulation time: 0 hr 44 min 31 sec) 
select_counter is 1007
Heartbeat CPU 0 instructions: 101000000 cycles: 134058929 heartbeat IPC: 0.732878 cumulative IPC: 0.731066 (Simulation time: 0 hr 44 min 48 sec) 
select_counter is 1009
Heartbeat CPU 0 instructions: 102000001 cycles: 135391312 heartbeat IPC: 0.750536 cumulative IPC: 0.731272 (Simulation time: 0 hr 45 min 3 sec) 
select_counter is 1006
Heartbeat CPU 0 instructions: 103000001 cycles: 136710200 heartbeat IPC: 0.758214 cumulative IPC: 0.731552 (Simulation time: 0 hr 45 min 17 sec) 
select_counter is 998
Heartbeat CPU 0 instructions: 104000000 cycles: 138033628 heartbeat IPC: 0.755613 cumulative IPC: 0.7318 (Simulation time: 0 hr 45 min 31 sec) 
select_counter is 1008
Heartbeat CPU 0 instructions: 105000002 cycles: 139432711 heartbeat IPC: 0.714755 cumulative IPC: 0.731616 (Simulation time: 0 hr 45 min 44 sec) 
select_counter is 1023
Heartbeat CPU 0 instructions: 106000000 cycles: 140857555 heartbeat IPC: 0.70183 cumulative IPC: 0.731293 (Simulation time: 0 hr 45 min 58 sec) 
select_counter is 1023
Heartbeat CPU 0 instructions: 107000002 cycles: 142265218 heartbeat IPC: 0.710399 cumulative IPC: 0.731071 (Simulation time: 0 hr 46 min 11 sec) 
select_counter is 1019
Heartbeat CPU 0 instructions: 108000000 cycles: 143643223 heartbeat IPC: 0.725685 cumulative IPC: 0.731016 (Simulation time: 0 hr 46 min 24 sec) 
select_counter is 1021
Heartbeat CPU 0 instructions: 109000000 cycles: 145000897 heartbeat IPC: 0.736554 cumulative IPC: 0.731071 (Simulation time: 0 hr 46 min 37 sec) 
select_counter is 1019
Heartbeat CPU 0 instructions: 110000000 cycles: 146349253 heartbeat IPC: 0.741644 cumulative IPC: 0.731176 (Simulation time: 0 hr 46 min 49 sec) 
select_counter is 1021
Finished CPU 0 instructions: 100000003 cycles: 136766042 cummulative IPC: 0.731176 (Simulation time: 0 hr 46 min 49 sec) 

ChampSim completed all CPUs

Region of Interest Statistics

CPU 0 cummulative IPC: 0.731176 instructions: 100000003 cycles: 136766042
LLC TOTAL     ACCESS:   21346119  HIT:   21112017  MISS:     234102
LLC LOAD      ACCESS:     165909  HIT:     121308  MISS:      44601
LLC RFO       ACCESS:   10463422  HIT:   10456858  MISS:       6564
LLC PREFETCH  ACCESS:     183300  HIT:      29950  MISS:     153350
LLC WRITEBACK ACCESS:   10533488  HIT:   10503901  MISS:      29587
Insertion Distribution: 
	LOAD 192 0 0 0 0 0 450 595 
	RFO 0 0 0 0 0 0 382 114 
	PREF 0 121 0 0 0 0 455 562 
	WRITEBACK 0 0 0 0 0 0 0 6 
Total Prefetch Downgrades: 172
