
*** ChampSim Multicore Out-of-Order Simulator ***

Warmup Instructions: 10000000
Simulation Instructions: 100000000
Configuration: 2
Number of CPUs: 1
LLC sets: 2048
LLC ways: 16
Off-chip DRAM Channels: 1 Width: 64-bit Data Rate: 1600 MT/s

CPU 0 runs /datasets/cs240c-wi22-a00-public/data/Assignment2-gz/leslie3d_1186B.trace.gz
CPU 0 L1D next line prefetcher
CPU 0 L2C IP-based stride prefetcher
Heartbeat CPU 0 instructions: 1000002 cycles: 564518 heartbeat IPC: 1.77143 cumulative IPC: 1.77143 (Simulation time: 0 hr 0 min 28 sec) 
select_counter is 974
Heartbeat CPU 0 instructions: 2000000 cycles: 1215886 heartbeat IPC: 1.53523 cumulative IPC: 1.64489 (Simulation time: 0 hr 0 min 55 sec) 
select_counter is 1023
Heartbeat CPU 0 instructions: 3000000 cycles: 1867640 heartbeat IPC: 1.53432 cumulative IPC: 1.60631 (Simulation time: 0 hr 1 min 22 sec) 
select_counter is 1023
Heartbeat CPU 0 instructions: 4000000 cycles: 2473224 heartbeat IPC: 1.6513 cumulative IPC: 1.61732 (Simulation time: 0 hr 1 min 51 sec) 
select_counter is 1023
Heartbeat CPU 0 instructions: 5000000 cycles: 3083563 heartbeat IPC: 1.63843 cumulative IPC: 1.6215 (Simulation time: 0 hr 2 min 16 sec) 
select_counter is 1023
Heartbeat CPU 0 instructions: 6000000 cycles: 3735285 heartbeat IPC: 1.5344 cumulative IPC: 1.6063 (Simulation time: 0 hr 2 min 46 sec) 
select_counter is 1023
Heartbeat CPU 0 instructions: 7000001 cycles: 4386515 heartbeat IPC: 1.53556 cumulative IPC: 1.5958 (Simulation time: 0 hr 3 min 14 sec) 
select_counter is 1020
Heartbeat CPU 0 instructions: 8000000 cycles: 4951094 heartbeat IPC: 1.77123 cumulative IPC: 1.6158 (Simulation time: 0 hr 3 min 41 sec) 
select_counter is 1023
Heartbeat CPU 0 instructions: 9000003 cycles: 5602382 heartbeat IPC: 1.53542 cumulative IPC: 1.60646 (Simulation time: 0 hr 4 min 8 sec) 
select_counter is 1022
Heartbeat CPU 0 instructions: 10000001 cycles: 6253538 heartbeat IPC: 1.53573 cumulative IPC: 1.59909 (Simulation time: 0 hr 4 min 34 sec) 
select_counter is 1023

Warmup complete CPU 0 instructions: 10000001 cycles: 6253538 (Simulation time: 0 hr 4 min 34 sec) 

Heartbeat CPU 0 instructions: 11000001 cycles: 7650577 heartbeat IPC: 0.7158 cumulative IPC: 0.7158 (Simulation time: 0 hr 5 min 0 sec) 
select_counter is 1022
Heartbeat CPU 0 instructions: 12000000 cycles: 8904872 heartbeat IPC: 0.79726 cumulative IPC: 0.754337 (Simulation time: 0 hr 5 min 28 sec) 
select_counter is 1020
Heartbeat CPU 0 instructions: 13000000 cycles: 10124438 heartbeat IPC: 0.819964 cumulative IPC: 0.775013 (Simulation time: 0 hr 5 min 59 sec) 
select_counter is 1021
Heartbeat CPU 0 instructions: 14000000 cycles: 11376269 heartbeat IPC: 0.79883 cumulative IPC: 0.780833 (Simulation time: 0 hr 6 min 29 sec) 
select_counter is 1022
Heartbeat CPU 0 instructions: 15000002 cycles: 12783475 heartbeat IPC: 0.710629 cumulative IPC: 0.765704 (Simulation time: 0 hr 6 min 58 sec) 
select_counter is 1023
Heartbeat CPU 0 instructions: 16000000 cycles: 13997480 heartbeat IPC: 0.823718 cumulative IPC: 0.774799 (Simulation time: 0 hr 7 min 28 sec) 
select_counter is 1023
Heartbeat CPU 0 instructions: 17000000 cycles: 15207219 heartbeat IPC: 0.826625 cumulative IPC: 0.781801 (Simulation time: 0 hr 7 min 59 sec) 
select_counter is 1021
Heartbeat CPU 0 instructions: 18000001 cycles: 16625140 heartbeat IPC: 0.705259 cumulative IPC: 0.771337 (Simulation time: 0 hr 8 min 28 sec) 
select_counter is 1023
Heartbeat CPU 0 instructions: 19000003 cycles: 17864613 heartbeat IPC: 0.806796 cumulative IPC: 0.775122 (Simulation time: 0 hr 8 min 57 sec) 
select_counter is 1022
Heartbeat CPU 0 instructions: 20000000 cycles: 19098244 heartbeat IPC: 0.810613 cumulative IPC: 0.778531 (Simulation time: 0 hr 9 min 30 sec) 
select_counter is 1022
Heartbeat CPU 0 instructions: 21000003 cycles: 20411097 heartbeat IPC: 0.761702 cumulative IPC: 0.77697 (Simulation time: 0 hr 9 min 58 sec) 
select_counter is 1023
Heartbeat CPU 0 instructions: 22000003 cycles: 21725214 heartbeat IPC: 0.760967 cumulative IPC: 0.775611 (Simulation time: 0 hr 10 min 24 sec) 
select_counter is 1023
Heartbeat CPU 0 instructions: 23000002 cycles: 22929084 heartbeat IPC: 0.830654 cumulative IPC: 0.779585 (Simulation time: 0 hr 10 min 52 sec) 
select_counter is 1023
Heartbeat CPU 0 instructions: 24000000 cycles: 24131365 heartbeat IPC: 0.831751 cumulative IPC: 0.783093 (Simulation time: 0 hr 11 min 21 sec) 
select_counter is 1023
Heartbeat CPU 0 instructions: 25000000 cycles: 25542747 heartbeat IPC: 0.708525 cumulative IPC: 0.777637 (Simulation time: 0 hr 11 min 49 sec) 
select_counter is 1022
Heartbeat CPU 0 instructions: 26000000 cycles: 26759886 heartbeat IPC: 0.821599 cumulative IPC: 0.780246 (Simulation time: 0 hr 12 min 16 sec) 
select_counter is 1023
Heartbeat CPU 0 instructions: 27000000 cycles: 27973342 heartbeat IPC: 0.824093 cumulative IPC: 0.782696 (Simulation time: 0 hr 12 min 43 sec) 
select_counter is 1021
Heartbeat CPU 0 instructions: 28000000 cycles: 29368071 heartbeat IPC: 0.716985 cumulative IPC: 0.778731 (Simulation time: 0 hr 13 min 9 sec) 
select_counter is 1023
Heartbeat CPU 0 instructions: 29000002 cycles: 30600764 heartbeat IPC: 0.811234 cumulative IPC: 0.780376 (Simulation time: 0 hr 13 min 36 sec) 
select_counter is 1023
Heartbeat CPU 0 instructions: 30000002 cycles: 31815558 heartbeat IPC: 0.823185 cumulative IPC: 0.782411 (Simulation time: 0 hr 14 min 3 sec) 
select_counter is 1023
Heartbeat CPU 0 instructions: 31000002 cycles: 33061253 heartbeat IPC: 0.802765 cumulative IPC: 0.783357 (Simulation time: 0 hr 14 min 30 sec) 
select_counter is 1022
Heartbeat CPU 0 instructions: 32000000 cycles: 34436612 heartbeat IPC: 0.727081 cumulative IPC: 0.78061 (Simulation time: 0 hr 15 min 0 sec) 
select_counter is 1023
Heartbeat CPU 0 instructions: 33000000 cycles: 35639042 heartbeat IPC: 0.831649 cumulative IPC: 0.782699 (Simulation time: 0 hr 15 min 28 sec) 
select_counter is 1022
Heartbeat CPU 0 instructions: 34000000 cycles: 36846575 heartbeat IPC: 0.828135 cumulative IPC: 0.784492 (Simulation time: 0 hr 15 min 55 sec) 
select_counter is 1022
Heartbeat CPU 0 instructions: 35000000 cycles: 38260798 heartbeat IPC: 0.707102 cumulative IPC: 0.781073 (Simulation time: 0 hr 16 min 21 sec) 
select_counter is 1023
Heartbeat CPU 0 instructions: 36000000 cycles: 39482449 heartbeat IPC: 0.818564 cumulative IPC: 0.782451 (Simulation time: 0 hr 16 min 49 sec) 
select_counter is 1023
Heartbeat CPU 0 instructions: 37000003 cycles: 40705071 heartbeat IPC: 0.817917 cumulative IPC: 0.78371 (Simulation time: 0 hr 17 min 18 sec) 
select_counter is 1022
Heartbeat CPU 0 instructions: 38000003 cycles: 42041952 heartbeat IPC: 0.74801 cumulative IPC: 0.782376 (Simulation time: 0 hr 17 min 44 sec) 
select_counter is 1023
Heartbeat CPU 0 instructions: 39000001 cycles: 43330349 heartbeat IPC: 0.776157 cumulative IPC: 0.78216 (Simulation time: 0 hr 18 min 12 sec) 
select_counter is 1021
Heartbeat CPU 0 instructions: 40000000 cycles: 44545658 heartbeat IPC: 0.822835 cumulative IPC: 0.783451 (Simulation time: 0 hr 18 min 39 sec) 
select_counter is 1022
Heartbeat CPU 0 instructions: 41000000 cycles: 45742259 heartbeat IPC: 0.8357 cumulative IPC: 0.785034 (Simulation time: 0 hr 19 min 7 sec) 
select_counter is 1023
Heartbeat CPU 0 instructions: 42000000 cycles: 47160027 heartbeat IPC: 0.705334 cumulative IPC: 0.782272 (Simulation time: 0 hr 19 min 38 sec) 
select_counter is 1023
Heartbeat CPU 0 instructions: 43000002 cycles: 48351350 heartbeat IPC: 0.839405 cumulative IPC: 0.783889 (Simulation time: 0 hr 20 min 5 sec) 
select_counter is 1023
Heartbeat CPU 0 instructions: 44000000 cycles: 49558928 heartbeat IPC: 0.828102 cumulative IPC: 0.785122 (Simulation time: 0 hr 20 min 32 sec) 
select_counter is 1022
Heartbeat CPU 0 instructions: 45000001 cycles: 51007536 heartbeat IPC: 0.690319 cumulative IPC: 0.782053 (Simulation time: 0 hr 20 min 57 sec) 
select_counter is 1023
Heartbeat CPU 0 instructions: 46000001 cycles: 52885966 heartbeat IPC: 0.532359 cumulative IPC: 0.771995 (Simulation time: 0 hr 21 min 26 sec) 
select_counter is 1023
Heartbeat CPU 0 instructions: 47000002 cycles: 54887468 heartbeat IPC: 0.499625 cumulative IPC: 0.760786 (Simulation time: 0 hr 21 min 55 sec) 
select_counter is 1022
Heartbeat CPU 0 instructions: 48000000 cycles: 56927430 heartbeat IPC: 0.490204 cumulative IPC: 0.749893 (Simulation time: 0 hr 22 min 26 sec) 
select_counter is 1023
Heartbeat CPU 0 instructions: 49000002 cycles: 58951081 heartbeat IPC: 0.494157 cumulative IPC: 0.740072 (Simulation time: 0 hr 22 min 56 sec) 
select_counter is 1023
Heartbeat CPU 0 instructions: 50000002 cycles: 60919414 heartbeat IPC: 0.508044 cumulative IPC: 0.731718 (Simulation time: 0 hr 23 min 27 sec) 
select_counter is 1022
Heartbeat CPU 0 instructions: 51000000 cycles: 62881367 heartbeat IPC: 0.509695 cumulative IPC: 0.724026 (Simulation time: 0 hr 23 min 58 sec) 
select_counter is 1022
Heartbeat CPU 0 instructions: 52000000 cycles: 64836012 heartbeat IPC: 0.511602 cumulative IPC: 0.716938 (Simulation time: 0 hr 24 min 28 sec) 
select_counter is 1023
Heartbeat CPU 0 instructions: 53000003 cycles: 66809268 heartbeat IPC: 0.506778 cumulative IPC: 0.71009 (Simulation time: 0 hr 24 min 59 sec) 
select_counter is 1023
Heartbeat CPU 0 instructions: 54000003 cycles: 68791664 heartbeat IPC: 0.50444 cumulative IPC: 0.703571 (Simulation time: 0 hr 25 min 36 sec) 
select_counter is 1022
Heartbeat CPU 0 instructions: 55000001 cycles: 70869470 heartbeat IPC: 0.481276 cumulative IPC: 0.696423 (Simulation time: 0 hr 26 min 7 sec) 
select_counter is 1023
Heartbeat CPU 0 instructions: 56000000 cycles: 73219448 heartbeat IPC: 0.425535 cumulative IPC: 0.686917 (Simulation time: 0 hr 26 min 38 sec) 
select_counter is 1023
Heartbeat CPU 0 instructions: 57000003 cycles: 75636061 heartbeat IPC: 0.413804 cumulative IPC: 0.677404 (Simulation time: 0 hr 27 min 10 sec) 
select_counter is 1022
Heartbeat CPU 0 instructions: 58000001 cycles: 78113237 heartbeat IPC: 0.403685 cumulative IPC: 0.667968 (Simulation time: 0 hr 27 min 41 sec) 
select_counter is 1023
Heartbeat CPU 0 instructions: 59000003 cycles: 80444063 heartbeat IPC: 0.429033 cumulative IPC: 0.660462 (Simulation time: 0 hr 28 min 13 sec) 
select_counter is 1023
Heartbeat CPU 0 instructions: 60000000 cycles: 82758775 heartbeat IPC: 0.432018 cumulative IPC: 0.65355 (Simulation time: 0 hr 28 min 47 sec) 
select_counter is 1021
Heartbeat CPU 0 instructions: 61000003 cycles: 85089391 heartbeat IPC: 0.429072 cumulative IPC: 0.646914 (Simulation time: 0 hr 29 min 21 sec) 
select_counter is 1023
Heartbeat CPU 0 instructions: 62000001 cycles: 87452068 heartbeat IPC: 0.423248 cumulative IPC: 0.640406 (Simulation time: 0 hr 29 min 55 sec) 
select_counter is 1023
Heartbeat CPU 0 instructions: 63000000 cycles: 89445603 heartbeat IPC: 0.501621 cumulative IPC: 0.63708 (Simulation time: 0 hr 30 min 26 sec) 
select_counter is 1016
Heartbeat CPU 0 instructions: 64000000 cycles: 90771519 heartbeat IPC: 0.754196 cumulative IPC: 0.638917 (Simulation time: 0 hr 30 min 52 sec) 
select_counter is 1022
Heartbeat CPU 0 instructions: 65000000 cycles: 92133487 heartbeat IPC: 0.734232 cumulative IPC: 0.640429 (Simulation time: 0 hr 31 min 18 sec) 
select_counter is 1022
Heartbeat CPU 0 instructions: 66000002 cycles: 93485986 heartbeat IPC: 0.739374 cumulative IPC: 0.641963 (Simulation time: 0 hr 31 min 46 sec) 
select_counter is 1023
Heartbeat CPU 0 instructions: 67000000 cycles: 94829090 heartbeat IPC: 0.744542 cumulative IPC: 0.643518 (Simulation time: 0 hr 32 min 13 sec) 
select_counter is 1023
Heartbeat CPU 0 instructions: 68000000 cycles: 96224341 heartbeat IPC: 0.716717 cumulative IPC: 0.644654 (Simulation time: 0 hr 32 min 42 sec) 
select_counter is 1023
Heartbeat CPU 0 instructions: 69000000 cycles: 97558913 heartbeat IPC: 0.749304 cumulative IPC: 0.646183 (Simulation time: 0 hr 33 min 10 sec) 
select_counter is 1023
Heartbeat CPU 0 instructions: 70000000 cycles: 98928280 heartbeat IPC: 0.730264 cumulative IPC: 0.647426 (Simulation time: 0 hr 33 min 39 sec) 
select_counter is 1020
Heartbeat CPU 0 instructions: 71000000 cycles: 100252545 heartbeat IPC: 0.755136 cumulative IPC: 0.648943 (Simulation time: 0 hr 34 min 7 sec) 
select_counter is 1023
Heartbeat CPU 0 instructions: 72000000 cycles: 101598803 heartbeat IPC: 0.7428 cumulative IPC: 0.650268 (Simulation time: 0 hr 34 min 34 sec) 
select_counter is 1023
Heartbeat CPU 0 instructions: 73000000 cycles: 102942244 heartbeat IPC: 0.744357 cumulative IPC: 0.651576 (Simulation time: 0 hr 35 min 0 sec) 
select_counter is 1023
Heartbeat CPU 0 instructions: 74000000 cycles: 104256707 heartbeat IPC: 0.760767 cumulative IPC: 0.65304 (Simulation time: 0 hr 35 min 27 sec) 
select_counter is 1023
Heartbeat CPU 0 instructions: 75000003 cycles: 105621995 heartbeat IPC: 0.732448 cumulative IPC: 0.654131 (Simulation time: 0 hr 35 min 55 sec) 
select_counter is 1023
Heartbeat CPU 0 instructions: 76000000 cycles: 106943729 heartbeat IPC: 0.75658 cumulative IPC: 0.655476 (Simulation time: 0 hr 36 min 20 sec) 
select_counter is 1023
Heartbeat CPU 0 instructions: 77000000 cycles: 108303775 heartbeat IPC: 0.735269 cumulative IPC: 0.656539 (Simulation time: 0 hr 36 min 44 sec) 
select_counter is 1023
Heartbeat CPU 0 instructions: 78000001 cycles: 109644020 heartbeat IPC: 0.746133 cumulative IPC: 0.657701 (Simulation time: 0 hr 37 min 8 sec) 
select_counter is 1022
Heartbeat CPU 0 instructions: 79000002 cycles: 110990494 heartbeat IPC: 0.742681 cumulative IPC: 0.658793 (Simulation time: 0 hr 37 min 33 sec) 
select_counter is 1021
Heartbeat CPU 0 instructions: 80000000 cycles: 112363560 heartbeat IPC: 0.728296 cumulative IPC: 0.659693 (Simulation time: 0 hr 37 min 57 sec) 
select_counter is 1023
Heartbeat CPU 0 instructions: 81000000 cycles: 113695853 heartbeat IPC: 0.750586 cumulative IPC: 0.66082 (Simulation time: 0 hr 38 min 20 sec) 
select_counter is 1022
Heartbeat CPU 0 instructions: 82000003 cycles: 115068838 heartbeat IPC: 0.728342 cumulative IPC: 0.661672 (Simulation time: 0 hr 38 min 43 sec) 
select_counter is 1022
Heartbeat CPU 0 instructions: 83000001 cycles: 116413653 heartbeat IPC: 0.743595 cumulative IPC: 0.662672 (Simulation time: 0 hr 39 min 5 sec) 
select_counter is 1023
Heartbeat CPU 0 instructions: 84000000 cycles: 117754489 heartbeat IPC: 0.745803 cumulative IPC: 0.663671 (Simulation time: 0 hr 39 min 27 sec) 
select_counter is 1021
Heartbeat CPU 0 instructions: 85000001 cycles: 119081713 heartbeat IPC: 0.753453 cumulative IPC: 0.664728 (Simulation time: 0 hr 39 min 48 sec) 
select_counter is 1023
Heartbeat CPU 0 instructions: 86000003 cycles: 120416071 heartbeat IPC: 0.749426 cumulative IPC: 0.665718 (Simulation time: 0 hr 40 min 8 sec) 
select_counter is 1023
Heartbeat CPU 0 instructions: 87000001 cycles: 121756822 heartbeat IPC: 0.745849 cumulative IPC: 0.666648 (Simulation time: 0 hr 40 min 31 sec) 
select_counter is 1023
Heartbeat CPU 0 instructions: 88000000 cycles: 123098841 heartbeat IPC: 0.745145 cumulative IPC: 0.667549 (Simulation time: 0 hr 40 min 53 sec) 
select_counter is 1023
Heartbeat CPU 0 instructions: 89000001 cycles: 124447395 heartbeat IPC: 0.741536 cumulative IPC: 0.668393 (Simulation time: 0 hr 41 min 14 sec) 
select_counter is 1021
Heartbeat CPU 0 instructions: 90000002 cycles: 125794565 heartbeat IPC: 0.742298 cumulative IPC: 0.669226 (Simulation time: 0 hr 41 min 34 sec) 
select_counter is 1023
Heartbeat CPU 0 instructions: 91000000 cycles: 127144156 heartbeat IPC: 0.740964 cumulative IPC: 0.670027 (Simulation time: 0 hr 41 min 55 sec) 
select_counter is 1021
Heartbeat CPU 0 instructions: 92000000 cycles: 128472589 heartbeat IPC: 0.752767 cumulative IPC: 0.670927 (Simulation time: 0 hr 42 min 15 sec) 
select_counter is 1021
Heartbeat CPU 0 instructions: 93000002 cycles: 129830381 heartbeat IPC: 0.736491 cumulative IPC: 0.671647 (Simulation time: 0 hr 42 min 34 sec) 
select_counter is 1022
Heartbeat CPU 0 instructions: 94000000 cycles: 131151242 heartbeat IPC: 0.75708 cumulative IPC: 0.67255 (Simulation time: 0 hr 42 min 54 sec) 
select_counter is 1022
Heartbeat CPU 0 instructions: 95000003 cycles: 132476386 heartbeat IPC: 0.754637 cumulative IPC: 0.673412 (Simulation time: 0 hr 43 min 12 sec) 
select_counter is 1022
Heartbeat CPU 0 instructions: 96000000 cycles: 133832305 heartbeat IPC: 0.737505 cumulative IPC: 0.674093 (Simulation time: 0 hr 43 min 30 sec) 
select_counter is 1023
Heartbeat CPU 0 instructions: 97000001 cycles: 135158612 heartbeat IPC: 0.753974 cumulative IPC: 0.674915 (Simulation time: 0 hr 43 min 47 sec) 
select_counter is 1023
Heartbeat CPU 0 instructions: 98000002 cycles: 136516191 heartbeat IPC: 0.736606 cumulative IPC: 0.675558 (Simulation time: 0 hr 44 min 4 sec) 
select_counter is 1023
Heartbeat CPU 0 instructions: 99000000 cycles: 137848330 heartbeat IPC: 0.750671 cumulative IPC: 0.676319 (Simulation time: 0 hr 44 min 20 sec) 
select_counter is 1023
Heartbeat CPU 0 instructions: 100000000 cycles: 139223054 heartbeat IPC: 0.727419 cumulative IPC: 0.676847 (Simulation time: 0 hr 44 min 36 sec) 
select_counter is 1022
Heartbeat CPU 0 instructions: 101000000 cycles: 140568398 heartbeat IPC: 0.743304 cumulative IPC: 0.677513 (Simulation time: 0 hr 44 min 52 sec) 
select_counter is 1023
Heartbeat CPU 0 instructions: 102000001 cycles: 141897142 heartbeat IPC: 0.752591 cumulative IPC: 0.678248 (Simulation time: 0 hr 45 min 6 sec) 
select_counter is 1023
Heartbeat CPU 0 instructions: 103000002 cycles: 143257656 heartbeat IPC: 0.735017 cumulative IPC: 0.678812 (Simulation time: 0 hr 45 min 19 sec) 
select_counter is 1023
Heartbeat CPU 0 instructions: 104000000 cycles: 144581513 heartbeat IPC: 0.755367 cumulative IPC: 0.679544 (Simulation time: 0 hr 45 min 33 sec) 
select_counter is 1023
Heartbeat CPU 0 instructions: 105000001 cycles: 145955953 heartbeat IPC: 0.72757 cumulative IPC: 0.680017 (Simulation time: 0 hr 45 min 46 sec) 
select_counter is 1022
Heartbeat CPU 0 instructions: 106000002 cycles: 147293638 heartbeat IPC: 0.747561 cumulative IPC: 0.680658 (Simulation time: 0 hr 45 min 59 sec) 
select_counter is 1023
Heartbeat CPU 0 instructions: 107000000 cycles: 148647258 heartbeat IPC: 0.738758 cumulative IPC: 0.68121 (Simulation time: 0 hr 46 min 13 sec) 
select_counter is 1022
Heartbeat CPU 0 instructions: 108000000 cycles: 149980146 heartbeat IPC: 0.750251 cumulative IPC: 0.68185 (Simulation time: 0 hr 46 min 26 sec) 
select_counter is 1022
Heartbeat CPU 0 instructions: 109000003 cycles: 151313368 heartbeat IPC: 0.750065 cumulative IPC: 0.682477 (Simulation time: 0 hr 46 min 38 sec) 
select_counter is 1023
Heartbeat CPU 0 instructions: 110000001 cycles: 152680977 heartbeat IPC: 0.731202 cumulative IPC: 0.682932 (Simulation time: 0 hr 46 min 50 sec) 
select_counter is 1021
Finished CPU 0 instructions: 100000000 cycles: 146427439 cummulative IPC: 0.682932 (Simulation time: 0 hr 46 min 50 sec) 

ChampSim completed all CPUs

Region of Interest Statistics

CPU 0 cummulative IPC: 0.682932 instructions: 100000000 cycles: 146427439
LLC TOTAL     ACCESS:    3758427  HIT:     927445  MISS:    2830982
LLC LOAD      ACCESS:     402862  HIT:      80849  MISS:     322013
LLC RFO       ACCESS:     463710  HIT:     173988  MISS:     289722
LLC PREFETCH  ACCESS:    2142724  HIT:     229427  MISS:    1913297
LLC WRITEBACK ACCESS:     749131  HIT:     443181  MISS:     305950
Insertion Distribution: 
	LOAD 1445 0 0 0 0 0 722 6179 
	RFO 24 0 0 0 0 0 492 8563 
	PREF 0 2128 0 0 0 0 5930 49544 
	WRITEBACK 0 0 0 0 0 0 0 14036 
Total Prefetch Downgrades: 1836
