
*** ChampSim Multicore Out-of-Order Simulator ***

Warmup Instructions: 10000000
Simulation Instructions: 100000000
Configuration: 2
Number of CPUs: 1
LLC sets: 2048
LLC ways: 16
Off-chip DRAM Channels: 1 Width: 64-bit Data Rate: 1600 MT/s

CPU 0 runs /datasets/cs240c-wi22-a00-public/data/Assignment2-gz/milc_360B.trace.gz
CPU 0 L1D next line prefetcher
CPU 0 L2C IP-based stride prefetcher
Heartbeat CPU 0 instructions: 1000001 cycles: 549511 heartbeat IPC: 1.8198 cumulative IPC: 1.8198 (Simulation time: 0 hr 0 min 26 sec) 
select_counter is 1022
Heartbeat CPU 0 instructions: 2000003 cycles: 1099026 heartbeat IPC: 1.81979 cumulative IPC: 1.8198 (Simulation time: 0 hr 0 min 55 sec) 
select_counter is 1023
Heartbeat CPU 0 instructions: 3000001 cycles: 1648486 heartbeat IPC: 1.81997 cumulative IPC: 1.81985 (Simulation time: 0 hr 1 min 26 sec) 
select_counter is 1023
Heartbeat CPU 0 instructions: 4000000 cycles: 2197959 heartbeat IPC: 1.81992 cumulative IPC: 1.81987 (Simulation time: 0 hr 1 min 55 sec) 
select_counter is 1023
Heartbeat CPU 0 instructions: 5000002 cycles: 2747468 heartbeat IPC: 1.81981 cumulative IPC: 1.81986 (Simulation time: 0 hr 2 min 25 sec) 
select_counter is 1023
Heartbeat CPU 0 instructions: 6000001 cycles: 3296983 heartbeat IPC: 1.81978 cumulative IPC: 1.81985 (Simulation time: 0 hr 2 min 54 sec) 
select_counter is 1023
Heartbeat CPU 0 instructions: 7000000 cycles: 3846462 heartbeat IPC: 1.8199 cumulative IPC: 1.81985 (Simulation time: 0 hr 3 min 21 sec) 
select_counter is 1023
Heartbeat CPU 0 instructions: 8000000 cycles: 4395923 heartbeat IPC: 1.81997 cumulative IPC: 1.81987 (Simulation time: 0 hr 3 min 51 sec) 
select_counter is 1022
Heartbeat CPU 0 instructions: 9000001 cycles: 4945436 heartbeat IPC: 1.8198 cumulative IPC: 1.81986 (Simulation time: 0 hr 4 min 18 sec) 
select_counter is 1023
Heartbeat CPU 0 instructions: 10000001 cycles: 5494911 heartbeat IPC: 1.81992 cumulative IPC: 1.81987 (Simulation time: 0 hr 4 min 45 sec) 
select_counter is 1022

Warmup complete CPU 0 instructions: 10000001 cycles: 5494911 (Simulation time: 0 hr 4 min 45 sec) 

Heartbeat CPU 0 instructions: 11000001 cycles: 7194260 heartbeat IPC: 0.588461 cumulative IPC: 0.588461 (Simulation time: 0 hr 5 min 19 sec) 
select_counter is 1023
Heartbeat CPU 0 instructions: 12000000 cycles: 8897975 heartbeat IPC: 0.586952 cumulative IPC: 0.587705 (Simulation time: 0 hr 5 min 49 sec) 
select_counter is 1023
Heartbeat CPU 0 instructions: 13000001 cycles: 10606207 heartbeat IPC: 0.585401 cumulative IPC: 0.586935 (Simulation time: 0 hr 6 min 20 sec) 
select_counter is 1022
Heartbeat CPU 0 instructions: 14000001 cycles: 12306123 heartbeat IPC: 0.588264 cumulative IPC: 0.587267 (Simulation time: 0 hr 6 min 51 sec) 
select_counter is 1023
Heartbeat CPU 0 instructions: 15000003 cycles: 14005127 heartbeat IPC: 0.588581 cumulative IPC: 0.587529 (Simulation time: 0 hr 7 min 24 sec) 
select_counter is 1022
Heartbeat CPU 0 instructions: 16000000 cycles: 15716819 heartbeat IPC: 0.584216 cumulative IPC: 0.586974 (Simulation time: 0 hr 7 min 59 sec) 
select_counter is 1023
Heartbeat CPU 0 instructions: 17000003 cycles: 17421420 heartbeat IPC: 0.586649 cumulative IPC: 0.586928 (Simulation time: 0 hr 8 min 34 sec) 
select_counter is 1023
Heartbeat CPU 0 instructions: 18000002 cycles: 19123926 heartbeat IPC: 0.587369 cumulative IPC: 0.586983 (Simulation time: 0 hr 9 min 7 sec) 
select_counter is 1023
Heartbeat CPU 0 instructions: 19000000 cycles: 20833482 heartbeat IPC: 0.584946 cumulative IPC: 0.586756 (Simulation time: 0 hr 9 min 40 sec) 
select_counter is 1023
Heartbeat CPU 0 instructions: 20000000 cycles: 22535728 heartbeat IPC: 0.587459 cumulative IPC: 0.586826 (Simulation time: 0 hr 10 min 13 sec) 
select_counter is 1023
Heartbeat CPU 0 instructions: 21000002 cycles: 24231400 heartbeat IPC: 0.589738 cumulative IPC: 0.58709 (Simulation time: 0 hr 10 min 49 sec) 
select_counter is 1023
Heartbeat CPU 0 instructions: 22000003 cycles: 25924219 heartbeat IPC: 0.590731 cumulative IPC: 0.587391 (Simulation time: 0 hr 11 min 21 sec) 
select_counter is 1021
Heartbeat CPU 0 instructions: 23000001 cycles: 27619041 heartbeat IPC: 0.590031 cumulative IPC: 0.587594 (Simulation time: 0 hr 11 min 52 sec) 
select_counter is 1023
Heartbeat CPU 0 instructions: 24000000 cycles: 29316322 heartbeat IPC: 0.589177 cumulative IPC: 0.587707 (Simulation time: 0 hr 12 min 22 sec) 
select_counter is 1023
Heartbeat CPU 0 instructions: 25000003 cycles: 31015972 heartbeat IPC: 0.588358 cumulative IPC: 0.58775 (Simulation time: 0 hr 12 min 53 sec) 
select_counter is 1023
Heartbeat CPU 0 instructions: 26000001 cycles: 32713903 heartbeat IPC: 0.588951 cumulative IPC: 0.587825 (Simulation time: 0 hr 13 min 26 sec) 
select_counter is 1022
Heartbeat CPU 0 instructions: 27000001 cycles: 34411625 heartbeat IPC: 0.589025 cumulative IPC: 0.587895 (Simulation time: 0 hr 14 min 2 sec) 
select_counter is 1023
Heartbeat CPU 0 instructions: 28000000 cycles: 36108769 heartbeat IPC: 0.589225 cumulative IPC: 0.587969 (Simulation time: 0 hr 14 min 36 sec) 
select_counter is 1023
Heartbeat CPU 0 instructions: 29000001 cycles: 37801690 heartbeat IPC: 0.590696 cumulative IPC: 0.588112 (Simulation time: 0 hr 15 min 7 sec) 
select_counter is 1023
Heartbeat CPU 0 instructions: 30000000 cycles: 39497182 heartbeat IPC: 0.589799 cumulative IPC: 0.588196 (Simulation time: 0 hr 15 min 35 sec) 
select_counter is 1023
Heartbeat CPU 0 instructions: 31000003 cycles: 41195142 heartbeat IPC: 0.588944 cumulative IPC: 0.588232 (Simulation time: 0 hr 16 min 6 sec) 
select_counter is 1020
Heartbeat CPU 0 instructions: 32000000 cycles: 42893057 heartbeat IPC: 0.588956 cumulative IPC: 0.588264 (Simulation time: 0 hr 16 min 37 sec) 
select_counter is 1021
Heartbeat CPU 0 instructions: 33000000 cycles: 44587379 heartbeat IPC: 0.590207 cumulative IPC: 0.588349 (Simulation time: 0 hr 17 min 12 sec) 
select_counter is 1023
Heartbeat CPU 0 instructions: 34000003 cycles: 46281711 heartbeat IPC: 0.590205 cumulative IPC: 0.588426 (Simulation time: 0 hr 17 min 44 sec) 
select_counter is 1022
Heartbeat CPU 0 instructions: 35000001 cycles: 47978480 heartbeat IPC: 0.589354 cumulative IPC: 0.588463 (Simulation time: 0 hr 18 min 14 sec) 
select_counter is 1023
Heartbeat CPU 0 instructions: 36000000 cycles: 49676235 heartbeat IPC: 0.589013 cumulative IPC: 0.588484 (Simulation time: 0 hr 18 min 47 sec) 
select_counter is 1023
Heartbeat CPU 0 instructions: 37000000 cycles: 51369611 heartbeat IPC: 0.590536 cumulative IPC: 0.58856 (Simulation time: 0 hr 19 min 18 sec) 
select_counter is 1021
Heartbeat CPU 0 instructions: 38000001 cycles: 53065551 heartbeat IPC: 0.589644 cumulative IPC: 0.588598 (Simulation time: 0 hr 19 min 51 sec) 
select_counter is 1022
Heartbeat CPU 0 instructions: 39000000 cycles: 54761409 heartbeat IPC: 0.589671 cumulative IPC: 0.588635 (Simulation time: 0 hr 20 min 25 sec) 
select_counter is 1023
Heartbeat CPU 0 instructions: 40000000 cycles: 56464358 heartbeat IPC: 0.587217 cumulative IPC: 0.588588 (Simulation time: 0 hr 20 min 58 sec) 
select_counter is 1023
Heartbeat CPU 0 instructions: 41000001 cycles: 58158598 heartbeat IPC: 0.590236 cumulative IPC: 0.588641 (Simulation time: 0 hr 21 min 30 sec) 
select_counter is 1023
Heartbeat CPU 0 instructions: 42000001 cycles: 59856146 heartbeat IPC: 0.589085 cumulative IPC: 0.588655 (Simulation time: 0 hr 22 min 3 sec) 
select_counter is 1023
Heartbeat CPU 0 instructions: 43000000 cycles: 61546115 heartbeat IPC: 0.591726 cumulative IPC: 0.588747 (Simulation time: 0 hr 22 min 32 sec) 
select_counter is 1021
Heartbeat CPU 0 instructions: 44000000 cycles: 63530042 heartbeat IPC: 0.504051 cumulative IPC: 0.585852 (Simulation time: 0 hr 23 min 5 sec) 
select_counter is 1023
Heartbeat CPU 0 instructions: 45000002 cycles: 65718483 heartbeat IPC: 0.456947 cumulative IPC: 0.581168 (Simulation time: 0 hr 23 min 42 sec) 
select_counter is 1023
Heartbeat CPU 0 instructions: 46000001 cycles: 67854787 heartbeat IPC: 0.468098 cumulative IPC: 0.577294 (Simulation time: 0 hr 24 min 19 sec) 
select_counter is 1022
Heartbeat CPU 0 instructions: 47000002 cycles: 70024703 heartbeat IPC: 0.460848 cumulative IPC: 0.573379 (Simulation time: 0 hr 24 min 58 sec) 
select_counter is 1023
Heartbeat CPU 0 instructions: 48000000 cycles: 72148359 heartbeat IPC: 0.470885 cumulative IPC: 0.570113 (Simulation time: 0 hr 25 min 31 sec) 
select_counter is 1023
Heartbeat CPU 0 instructions: 49000003 cycles: 74255111 heartbeat IPC: 0.474666 cumulative IPC: 0.567189 (Simulation time: 0 hr 26 min 8 sec) 
select_counter is 1023
Heartbeat CPU 0 instructions: 50000002 cycles: 76149114 heartbeat IPC: 0.527982 cumulative IPC: 0.566138 (Simulation time: 0 hr 26 min 37 sec) 
select_counter is 1023
Heartbeat CPU 0 instructions: 51000002 cycles: 77158305 heartbeat IPC: 0.990893 cumulative IPC: 0.572119 (Simulation time: 0 hr 27 min 3 sec) 
select_counter is 1022
Heartbeat CPU 0 instructions: 52000000 cycles: 78951003 heartbeat IPC: 0.557817 cumulative IPC: 0.57177 (Simulation time: 0 hr 27 min 33 sec) 
select_counter is 1023
Heartbeat CPU 0 instructions: 53000002 cycles: 81157484 heartbeat IPC: 0.453211 cumulative IPC: 0.568313 (Simulation time: 0 hr 28 min 0 sec) 
select_counter is 1023
Heartbeat CPU 0 instructions: 54000003 cycles: 83376727 heartbeat IPC: 0.450605 cumulative IPC: 0.564959 (Simulation time: 0 hr 28 min 31 sec) 
select_counter is 1023
Heartbeat CPU 0 instructions: 55000003 cycles: 85614036 heartbeat IPC: 0.446966 cumulative IPC: 0.561664 (Simulation time: 0 hr 29 min 3 sec) 
select_counter is 1022
Heartbeat CPU 0 instructions: 56000000 cycles: 87849517 heartbeat IPC: 0.44733 cumulative IPC: 0.55856 (Simulation time: 0 hr 29 min 32 sec) 
select_counter is 1023
Heartbeat CPU 0 instructions: 57000000 cycles: 90075833 heartbeat IPC: 0.449173 cumulative IPC: 0.555681 (Simulation time: 0 hr 29 min 58 sec) 
select_counter is 1022
Heartbeat CPU 0 instructions: 58000000 cycles: 92307774 heartbeat IPC: 0.448041 cumulative IPC: 0.552913 (Simulation time: 0 hr 30 min 28 sec) 
select_counter is 1023
Heartbeat CPU 0 instructions: 59000001 cycles: 94537735 heartbeat IPC: 0.448439 cumulative IPC: 0.550297 (Simulation time: 0 hr 31 min 1 sec) 
select_counter is 1022
Heartbeat CPU 0 instructions: 60000000 cycles: 96766483 heartbeat IPC: 0.448682 cumulative IPC: 0.547816 (Simulation time: 0 hr 31 min 34 sec) 
select_counter is 1023
Heartbeat CPU 0 instructions: 61000000 cycles: 98995538 heartbeat IPC: 0.448621 cumulative IPC: 0.545451 (Simulation time: 0 hr 32 min 9 sec) 
select_counter is 1022
Heartbeat CPU 0 instructions: 62000003 cycles: 101224571 heartbeat IPC: 0.448626 cumulative IPC: 0.543196 (Simulation time: 0 hr 32 min 40 sec) 
select_counter is 1023
Heartbeat CPU 0 instructions: 63000003 cycles: 103458754 heartbeat IPC: 0.447591 cumulative IPC: 0.541016 (Simulation time: 0 hr 33 min 6 sec) 
select_counter is 1023
Heartbeat CPU 0 instructions: 64000000 cycles: 105691194 heartbeat IPC: 0.447939 cumulative IPC: 0.538942 (Simulation time: 0 hr 33 min 33 sec) 
select_counter is 1023
Heartbeat CPU 0 instructions: 65000001 cycles: 107926870 heartbeat IPC: 0.447292 cumulative IPC: 0.536942 (Simulation time: 0 hr 34 min 11 sec) 
select_counter is 1023
Heartbeat CPU 0 instructions: 66000001 cycles: 110152226 heartbeat IPC: 0.449366 cumulative IPC: 0.53508 (Simulation time: 0 hr 34 min 47 sec) 
select_counter is 1023
Heartbeat CPU 0 instructions: 67000002 cycles: 112383780 heartbeat IPC: 0.448119 cumulative IPC: 0.533264 (Simulation time: 0 hr 35 min 15 sec) 
select_counter is 1023
Heartbeat CPU 0 instructions: 68000000 cycles: 114611737 heartbeat IPC: 0.448841 cumulative IPC: 0.53154 (Simulation time: 0 hr 35 min 40 sec) 
select_counter is 1023
Heartbeat CPU 0 instructions: 69000001 cycles: 116837373 heartbeat IPC: 0.44931 cumulative IPC: 0.529897 (Simulation time: 0 hr 36 min 11 sec) 
select_counter is 1023
Heartbeat CPU 0 instructions: 70000000 cycles: 119068578 heartbeat IPC: 0.448188 cumulative IPC: 0.528291 (Simulation time: 0 hr 36 min 37 sec) 
select_counter is 1023
Heartbeat CPU 0 instructions: 71000000 cycles: 121296452 heartbeat IPC: 0.448858 cumulative IPC: 0.526763 (Simulation time: 0 hr 37 min 5 sec) 
select_counter is 1023
Heartbeat CPU 0 instructions: 72000000 cycles: 123524459 heartbeat IPC: 0.448832 cumulative IPC: 0.525292 (Simulation time: 0 hr 37 min 39 sec) 
select_counter is 1022
Heartbeat CPU 0 instructions: 73000001 cycles: 125740292 heartbeat IPC: 0.451298 cumulative IPC: 0.523929 (Simulation time: 0 hr 38 min 3 sec) 
select_counter is 1023
Heartbeat CPU 0 instructions: 74000002 cycles: 127347897 heartbeat IPC: 0.622044 cumulative IPC: 0.525223 (Simulation time: 0 hr 38 min 26 sec) 
select_counter is 1023
Heartbeat CPU 0 instructions: 75000003 cycles: 128944185 heartbeat IPC: 0.626454 cumulative IPC: 0.526532 (Simulation time: 0 hr 38 min 49 sec) 
select_counter is 1023
Heartbeat CPU 0 instructions: 76000000 cycles: 130521148 heartbeat IPC: 0.634128 cumulative IPC: 0.527889 (Simulation time: 0 hr 39 min 11 sec) 
select_counter is 1023
Heartbeat CPU 0 instructions: 77000000 cycles: 132084969 heartbeat IPC: 0.639459 cumulative IPC: 0.529267 (Simulation time: 0 hr 39 min 32 sec) 
select_counter is 1023
Heartbeat CPU 0 instructions: 78000000 cycles: 133653247 heartbeat IPC: 0.637642 cumulative IPC: 0.530594 (Simulation time: 0 hr 39 min 53 sec) 
select_counter is 1023
Heartbeat CPU 0 instructions: 79000000 cycles: 135218646 heartbeat IPC: 0.638815 cumulative IPC: 0.5319 (Simulation time: 0 hr 40 min 14 sec) 
select_counter is 1023
Heartbeat CPU 0 instructions: 80000000 cycles: 136787938 heartbeat IPC: 0.63723 cumulative IPC: 0.533159 (Simulation time: 0 hr 40 min 35 sec) 
select_counter is 1023
Heartbeat CPU 0 instructions: 81000003 cycles: 138355935 heartbeat IPC: 0.637758 cumulative IPC: 0.534393 (Simulation time: 0 hr 40 min 56 sec) 
select_counter is 1023
Heartbeat CPU 0 instructions: 82000003 cycles: 139924503 heartbeat IPC: 0.637524 cumulative IPC: 0.535596 (Simulation time: 0 hr 41 min 17 sec) 
select_counter is 1023
Heartbeat CPU 0 instructions: 83000002 cycles: 141487264 heartbeat IPC: 0.639892 cumulative IPC: 0.536795 (Simulation time: 0 hr 41 min 39 sec) 
select_counter is 1022
Heartbeat CPU 0 instructions: 84000000 cycles: 143059435 heartbeat IPC: 0.636062 cumulative IPC: 0.537929 (Simulation time: 0 hr 42 min 0 sec) 
select_counter is 1021
Heartbeat CPU 0 instructions: 85000000 cycles: 144632627 heartbeat IPC: 0.63565 cumulative IPC: 0.539034 (Simulation time: 0 hr 42 min 22 sec) 
select_counter is 1023
Heartbeat CPU 0 instructions: 86000000 cycles: 146207450 heartbeat IPC: 0.634992 cumulative IPC: 0.540108 (Simulation time: 0 hr 42 min 43 sec) 
select_counter is 1023
Heartbeat CPU 0 instructions: 87000000 cycles: 147779350 heartbeat IPC: 0.636173 cumulative IPC: 0.54117 (Simulation time: 0 hr 43 min 3 sec) 
select_counter is 1023
Heartbeat CPU 0 instructions: 88000000 cycles: 149352967 heartbeat IPC: 0.635479 cumulative IPC: 0.542201 (Simulation time: 0 hr 43 min 20 sec) 
select_counter is 1023
Heartbeat CPU 0 instructions: 89000002 cycles: 150930775 heartbeat IPC: 0.633792 cumulative IPC: 0.543195 (Simulation time: 0 hr 43 min 38 sec) 
select_counter is 1020
Heartbeat CPU 0 instructions: 90000002 cycles: 152500580 heartbeat IPC: 0.637022 cumulative IPC: 0.544197 (Simulation time: 0 hr 43 min 54 sec) 
select_counter is 1020
Heartbeat CPU 0 instructions: 91000003 cycles: 154073291 heartbeat IPC: 0.635845 cumulative IPC: 0.545167 (Simulation time: 0 hr 44 min 11 sec) 
select_counter is 1023
Heartbeat CPU 0 instructions: 92000000 cycles: 155650535 heartbeat IPC: 0.634015 cumulative IPC: 0.5461 (Simulation time: 0 hr 44 min 29 sec) 
select_counter is 1023
Heartbeat CPU 0 instructions: 93000000 cycles: 157221943 heartbeat IPC: 0.636372 cumulative IPC: 0.547035 (Simulation time: 0 hr 44 min 44 sec) 
select_counter is 1022
Heartbeat CPU 0 instructions: 94000000 cycles: 158800855 heartbeat IPC: 0.633348 cumulative IPC: 0.547924 (Simulation time: 0 hr 44 min 59 sec) 
select_counter is 1023
Heartbeat CPU 0 instructions: 95000000 cycles: 160377328 heartbeat IPC: 0.634327 cumulative IPC: 0.548803 (Simulation time: 0 hr 45 min 12 sec) 
select_counter is 1023
Heartbeat CPU 0 instructions: 96000000 cycles: 161955427 heartbeat IPC: 0.633674 cumulative IPC: 0.549659 (Simulation time: 0 hr 45 min 25 sec) 
select_counter is 1023
Heartbeat CPU 0 instructions: 97000002 cycles: 163521897 heartbeat IPC: 0.638379 cumulative IPC: 0.550539 (Simulation time: 0 hr 45 min 38 sec) 
select_counter is 1020
Heartbeat CPU 0 instructions: 98000003 cycles: 165087179 heartbeat IPC: 0.638863 cumulative IPC: 0.551405 (Simulation time: 0 hr 45 min 50 sec) 
select_counter is 1023
Heartbeat CPU 0 instructions: 99000000 cycles: 166651388 heartbeat IPC: 0.639299 cumulative IPC: 0.552258 (Simulation time: 0 hr 46 min 3 sec) 
select_counter is 1023
Heartbeat CPU 0 instructions: 100000000 cycles: 168217565 heartbeat IPC: 0.638497 cumulative IPC: 0.553088 (Simulation time: 0 hr 46 min 16 sec) 
select_counter is 1023
Heartbeat CPU 0 instructions: 101000002 cycles: 169785795 heartbeat IPC: 0.637663 cumulative IPC: 0.553896 (Simulation time: 0 hr 46 min 28 sec) 
select_counter is 1023
Heartbeat CPU 0 instructions: 102000000 cycles: 171351908 heartbeat IPC: 0.638522 cumulative IPC: 0.554695 (Simulation time: 0 hr 46 min 41 sec) 
select_counter is 1023
Heartbeat CPU 0 instructions: 103000002 cycles: 172914195 heartbeat IPC: 0.640089 cumulative IPC: 0.555492 (Simulation time: 0 hr 46 min 53 sec) 
select_counter is 1023
Heartbeat CPU 0 instructions: 104000000 cycles: 174474317 heartbeat IPC: 0.640974 cumulative IPC: 0.556281 (Simulation time: 0 hr 47 min 3 sec) 
select_counter is 1022
Heartbeat CPU 0 instructions: 105000003 cycles: 176037962 heartbeat IPC: 0.639533 cumulative IPC: 0.557044 (Simulation time: 0 hr 47 min 12 sec) 
select_counter is 1023
Heartbeat CPU 0 instructions: 106000002 cycles: 177607416 heartbeat IPC: 0.637164 cumulative IPC: 0.557775 (Simulation time: 0 hr 47 min 23 sec) 
select_counter is 1022
Heartbeat CPU 0 instructions: 107000000 cycles: 179175261 heartbeat IPC: 0.637817 cumulative IPC: 0.558497 (Simulation time: 0 hr 47 min 32 sec) 
select_counter is 1021
Heartbeat CPU 0 instructions: 108000000 cycles: 180737227 heartbeat IPC: 0.640219 cumulative IPC: 0.559226 (Simulation time: 0 hr 47 min 40 sec) 
select_counter is 1022
Heartbeat CPU 0 instructions: 109000002 cycles: 182301066 heartbeat IPC: 0.639453 cumulative IPC: 0.559935 (Simulation time: 0 hr 47 min 48 sec) 
select_counter is 1023
Heartbeat CPU 0 instructions: 110000000 cycles: 183868203 heartbeat IPC: 0.638105 cumulative IPC: 0.560622 (Simulation time: 0 hr 47 min 55 sec) 
select_counter is 1023
Finished CPU 0 instructions: 100000003 cycles: 178373293 cummulative IPC: 0.560622 (Simulation time: 0 hr 47 min 55 sec) 

ChampSim completed all CPUs

Region of Interest Statistics

CPU 0 cummulative IPC: 0.560622 instructions: 100000003 cycles: 178373293
LLC TOTAL     ACCESS:    3481386  HIT:     203040  MISS:    3278346
LLC LOAD      ACCESS:    1002061  HIT:          7  MISS:    1002054
LLC RFO       ACCESS:     140009  HIT:          0  MISS:     140009
LLC PREFETCH  ACCESS:    1596645  HIT:      25333  MISS:    1571312
LLC WRITEBACK ACCESS:     742671  HIT:     177700  MISS:     564971
Insertion Distribution: 
	LOAD 0 0 0 0 0 0 321 29633 
	RFO 0 0 0 0 0 0 685 3709 
	PREF 0 0 0 0 0 0 2607 63922 
	WRITEBACK 0 0 0 0 0 0 0 21720 
Total Prefetch Downgrades: 0
