
*** ChampSim Multicore Out-of-Order Simulator ***

Warmup Instructions: 10000000
Simulation Instructions: 100000000
Configuration: 2
Number of CPUs: 1
LLC sets: 2048
LLC ways: 16
Off-chip DRAM Channels: 1 Width: 64-bit Data Rate: 1600 MT/s

CPU 0 runs /datasets/cs240c-wi22-a00-public/data/Assignment2-gz/mcf_250B.trace.gz
CPU 0 L1D next line prefetcher
CPU 0 L2C IP-based stride prefetcher
Heartbeat CPU 0 instructions: 1000000 cycles: 536473 heartbeat IPC: 1.86403 cumulative IPC: 1.86403 (Simulation time: 0 hr 0 min 35 sec) 
select_counter is 1023
Heartbeat CPU 0 instructions: 2000003 cycles: 1051525 heartbeat IPC: 1.94156 cumulative IPC: 1.902 (Simulation time: 0 hr 1 min 9 sec) 
select_counter is 1020
Heartbeat CPU 0 instructions: 3000002 cycles: 1547666 heartbeat IPC: 2.01555 cumulative IPC: 1.9384 (Simulation time: 0 hr 1 min 40 sec) 
select_counter is 1023
Heartbeat CPU 0 instructions: 4000000 cycles: 2057875 heartbeat IPC: 1.95998 cumulative IPC: 1.94375 (Simulation time: 0 hr 2 min 13 sec) 
select_counter is 1022
Heartbeat CPU 0 instructions: 5000002 cycles: 2562992 heartbeat IPC: 1.97974 cumulative IPC: 1.95085 (Simulation time: 0 hr 2 min 47 sec) 
select_counter is 1022
Heartbeat CPU 0 instructions: 6000002 cycles: 3067280 heartbeat IPC: 1.98299 cumulative IPC: 1.95613 (Simulation time: 0 hr 3 min 21 sec) 
select_counter is 1022
Heartbeat CPU 0 instructions: 7000002 cycles: 3605003 heartbeat IPC: 1.85969 cumulative IPC: 1.94175 (Simulation time: 0 hr 3 min 55 sec) 
select_counter is 1021
Heartbeat CPU 0 instructions: 8000000 cycles: 4118957 heartbeat IPC: 1.9457 cumulative IPC: 1.94224 (Simulation time: 0 hr 4 min 30 sec) 
select_counter is 1021
Heartbeat CPU 0 instructions: 9000002 cycles: 4632085 heartbeat IPC: 1.94884 cumulative IPC: 1.94297 (Simulation time: 0 hr 5 min 3 sec) 
select_counter is 1022
Heartbeat CPU 0 instructions: 10000000 cycles: 5141843 heartbeat IPC: 1.96171 cumulative IPC: 1.94483 (Simulation time: 0 hr 5 min 39 sec) 
select_counter is 1023

Warmup complete CPU 0 instructions: 10000003 cycles: 5141844 (Simulation time: 0 hr 5 min 39 sec) 

Heartbeat CPU 0 instructions: 11000001 cycles: 14358923 heartbeat IPC: 0.108494 cumulative IPC: 0.108494 (Simulation time: 0 hr 6 min 25 sec) 
select_counter is 1022
Heartbeat CPU 0 instructions: 12000000 cycles: 28097341 heartbeat IPC: 0.0727885 cumulative IPC: 0.087125 (Simulation time: 0 hr 7 min 23 sec) 
select_counter is 1023
Heartbeat CPU 0 instructions: 13000001 cycles: 41091339 heartbeat IPC: 0.0769587 cumulative IPC: 0.0834504 (Simulation time: 0 hr 8 min 16 sec) 
select_counter is 1023
Heartbeat CPU 0 instructions: 14000003 cycles: 50530240 heartbeat IPC: 0.105945 cumulative IPC: 0.0881283 (Simulation time: 0 hr 9 min 4 sec) 
select_counter is 1023
Heartbeat CPU 0 instructions: 15000002 cycles: 59969569 heartbeat IPC: 0.10594 cumulative IPC: 0.0911947 (Simulation time: 0 hr 9 min 55 sec) 
select_counter is 1023
Heartbeat CPU 0 instructions: 16000000 cycles: 68752209 heartbeat IPC: 0.113861 cumulative IPC: 0.0943242 (Simulation time: 0 hr 10 min 38 sec) 
select_counter is 1023
Heartbeat CPU 0 instructions: 17000000 cycles: 77894242 heartbeat IPC: 0.109385 cumulative IPC: 0.0962167 (Simulation time: 0 hr 11 min 23 sec) 
select_counter is 1023
Heartbeat CPU 0 instructions: 18000002 cycles: 86398795 heartbeat IPC: 0.117584 cumulative IPC: 0.0984531 (Simulation time: 0 hr 12 min 8 sec) 
select_counter is 1022
Heartbeat CPU 0 instructions: 19000000 cycles: 95256998 heartbeat IPC: 0.112889 cumulative IPC: 0.0998722 (Simulation time: 0 hr 12 min 53 sec) 
select_counter is 1023
Heartbeat CPU 0 instructions: 20000000 cycles: 104095088 heartbeat IPC: 0.113147 cumulative IPC: 0.101058 (Simulation time: 0 hr 13 min 42 sec) 
select_counter is 1023
Heartbeat CPU 0 instructions: 21000000 cycles: 112687910 heartbeat IPC: 0.116376 cumulative IPC: 0.102282 (Simulation time: 0 hr 14 min 27 sec) 
select_counter is 1023
Heartbeat CPU 0 instructions: 22000000 cycles: 121048544 heartbeat IPC: 0.119608 cumulative IPC: 0.103532 (Simulation time: 0 hr 15 min 10 sec) 
select_counter is 1023
Heartbeat CPU 0 instructions: 23000003 cycles: 129893960 heartbeat IPC: 0.113053 cumulative IPC: 0.104207 (Simulation time: 0 hr 15 min 51 sec) 
select_counter is 1023
Heartbeat CPU 0 instructions: 24000000 cycles: 138502542 heartbeat IPC: 0.116163 cumulative IPC: 0.104978 (Simulation time: 0 hr 16 min 32 sec) 
select_counter is 1022
Heartbeat CPU 0 instructions: 25000002 cycles: 147509747 heartbeat IPC: 0.111022 cumulative IPC: 0.105361 (Simulation time: 0 hr 17 min 20 sec) 
select_counter is 1023
Heartbeat CPU 0 instructions: 26000000 cycles: 156614771 heartbeat IPC: 0.109829 cumulative IPC: 0.105629 (Simulation time: 0 hr 18 min 11 sec) 
select_counter is 1020
Heartbeat CPU 0 instructions: 27000003 cycles: 165724576 heartbeat IPC: 0.109772 cumulative IPC: 0.105864 (Simulation time: 0 hr 18 min 56 sec) 
select_counter is 1022
Heartbeat CPU 0 instructions: 28000000 cycles: 175056126 heartbeat IPC: 0.107163 cumulative IPC: 0.105936 (Simulation time: 0 hr 19 min 43 sec) 
select_counter is 1021
Heartbeat CPU 0 instructions: 29000000 cycles: 184513852 heartbeat IPC: 0.105734 cumulative IPC: 0.105925 (Simulation time: 0 hr 20 min 35 sec) 
select_counter is 1023
Heartbeat CPU 0 instructions: 30000001 cycles: 193615775 heartbeat IPC: 0.109867 cumulative IPC: 0.106115 (Simulation time: 0 hr 21 min 20 sec) 
select_counter is 1023
Heartbeat CPU 0 instructions: 31000000 cycles: 202698450 heartbeat IPC: 0.1101 cumulative IPC: 0.106299 (Simulation time: 0 hr 22 min 7 sec) 
select_counter is 1023
Heartbeat CPU 0 instructions: 32000000 cycles: 211549675 heartbeat IPC: 0.112979 cumulative IPC: 0.106585 (Simulation time: 0 hr 22 min 54 sec) 
select_counter is 1023
Heartbeat CPU 0 instructions: 33000000 cycles: 220752908 heartbeat IPC: 0.108657 cumulative IPC: 0.106674 (Simulation time: 0 hr 23 min 45 sec) 
select_counter is 1023
Heartbeat CPU 0 instructions: 34000000 cycles: 229962856 heartbeat IPC: 0.108578 cumulative IPC: 0.106752 (Simulation time: 0 hr 24 min 34 sec) 
select_counter is 1023
Heartbeat CPU 0 instructions: 35000001 cycles: 241016767 heartbeat IPC: 0.0904658 cumulative IPC: 0.105988 (Simulation time: 0 hr 25 min 26 sec) 
select_counter is 1021
Heartbeat CPU 0 instructions: 36000000 cycles: 254893444 heartbeat IPC: 0.0720633 cumulative IPC: 0.104103 (Simulation time: 0 hr 26 min 22 sec) 
select_counter is 1019
Heartbeat CPU 0 instructions: 37000002 cycles: 264507243 heartbeat IPC: 0.104017 cumulative IPC: 0.1041 (Simulation time: 0 hr 27 min 9 sec) 
select_counter is 1023
Heartbeat CPU 0 instructions: 38000000 cycles: 273795594 heartbeat IPC: 0.107662 cumulative IPC: 0.104223 (Simulation time: 0 hr 28 min 8 sec) 
select_counter is 1020
Heartbeat CPU 0 instructions: 39000000 cycles: 282963125 heartbeat IPC: 0.109081 cumulative IPC: 0.104384 (Simulation time: 0 hr 28 min 54 sec) 
select_counter is 1023
Heartbeat CPU 0 instructions: 40000000 cycles: 291997615 heartbeat IPC: 0.110687 cumulative IPC: 0.104582 (Simulation time: 0 hr 29 min 38 sec) 
select_counter is 1023
Heartbeat CPU 0 instructions: 41000000 cycles: 301235046 heartbeat IPC: 0.108255 cumulative IPC: 0.104697 (Simulation time: 0 hr 30 min 22 sec) 
select_counter is 1023
Heartbeat CPU 0 instructions: 42000000 cycles: 310376272 heartbeat IPC: 0.109395 cumulative IPC: 0.104837 (Simulation time: 0 hr 31 min 5 sec) 
select_counter is 1023
Heartbeat CPU 0 instructions: 43000000 cycles: 319312263 heartbeat IPC: 0.111907 cumulative IPC: 0.105039 (Simulation time: 0 hr 31 min 50 sec) 
select_counter is 1023
Heartbeat CPU 0 instructions: 44000000 cycles: 328431001 heartbeat IPC: 0.109664 cumulative IPC: 0.105169 (Simulation time: 0 hr 32 min 37 sec) 
select_counter is 1022
Heartbeat CPU 0 instructions: 45000001 cycles: 337470696 heartbeat IPC: 0.110623 cumulative IPC: 0.105317 (Simulation time: 0 hr 33 min 19 sec) 
select_counter is 1022
Heartbeat CPU 0 instructions: 46000000 cycles: 346693879 heartbeat IPC: 0.108422 cumulative IPC: 0.105401 (Simulation time: 0 hr 34 min 1 sec) 
select_counter is 1018
Heartbeat CPU 0 instructions: 47000002 cycles: 355814550 heartbeat IPC: 0.109641 cumulative IPC: 0.105511 (Simulation time: 0 hr 34 min 42 sec) 
select_counter is 1022
Heartbeat CPU 0 instructions: 48000000 cycles: 364818233 heartbeat IPC: 0.111065 cumulative IPC: 0.105651 (Simulation time: 0 hr 35 min 25 sec) 
select_counter is 1023
Heartbeat CPU 0 instructions: 49000000 cycles: 374160644 heartbeat IPC: 0.107039 cumulative IPC: 0.105686 (Simulation time: 0 hr 36 min 18 sec) 
select_counter is 1022
Heartbeat CPU 0 instructions: 50000002 cycles: 383433809 heartbeat IPC: 0.107838 cumulative IPC: 0.105738 (Simulation time: 0 hr 37 min 0 sec) 
select_counter is 1023
Heartbeat CPU 0 instructions: 51000002 cycles: 392550789 heartbeat IPC: 0.109685 cumulative IPC: 0.105831 (Simulation time: 0 hr 37 min 41 sec) 
select_counter is 1023
Heartbeat CPU 0 instructions: 52000000 cycles: 401724665 heartbeat IPC: 0.109005 cumulative IPC: 0.105905 (Simulation time: 0 hr 38 min 24 sec) 
select_counter is 1021
Heartbeat CPU 0 instructions: 53000000 cycles: 410828333 heartbeat IPC: 0.109846 cumulative IPC: 0.105993 (Simulation time: 0 hr 39 min 8 sec) 
select_counter is 1023
Heartbeat CPU 0 instructions: 54000000 cycles: 419797981 heartbeat IPC: 0.111487 cumulative IPC: 0.106112 (Simulation time: 0 hr 39 min 42 sec) 
select_counter is 1023
Heartbeat CPU 0 instructions: 55000000 cycles: 428791988 heartbeat IPC: 0.111185 cumulative IPC: 0.10622 (Simulation time: 0 hr 40 min 15 sec) 
select_counter is 1019
Heartbeat CPU 0 instructions: 56000000 cycles: 437814181 heartbeat IPC: 0.110838 cumulative IPC: 0.106316 (Simulation time: 0 hr 40 min 50 sec) 
select_counter is 1023
Heartbeat CPU 0 instructions: 57000000 cycles: 447007402 heartbeat IPC: 0.108776 cumulative IPC: 0.106367 (Simulation time: 0 hr 41 min 26 sec) 
select_counter is 1021
Heartbeat CPU 0 instructions: 58000000 cycles: 456046762 heartbeat IPC: 0.110627 cumulative IPC: 0.106453 (Simulation time: 0 hr 41 min 58 sec) 
select_counter is 1023
Heartbeat CPU 0 instructions: 59000001 cycles: 465162405 heartbeat IPC: 0.109702 cumulative IPC: 0.106517 (Simulation time: 0 hr 42 min 30 sec) 
select_counter is 1021
Heartbeat CPU 0 instructions: 60000000 cycles: 474184773 heartbeat IPC: 0.110836 cumulative IPC: 0.1066 (Simulation time: 0 hr 43 min 2 sec) 
select_counter is 1020
Heartbeat CPU 0 instructions: 61000002 cycles: 483188104 heartbeat IPC: 0.11107 cumulative IPC: 0.106684 (Simulation time: 0 hr 43 min 31 sec) 
select_counter is 1022
Heartbeat CPU 0 instructions: 62000000 cycles: 490843031 heartbeat IPC: 0.130635 cumulative IPC: 0.107062 (Simulation time: 0 hr 43 min 56 sec) 
select_counter is 1023
Heartbeat CPU 0 instructions: 63000001 cycles: 499502342 heartbeat IPC: 0.115483 cumulative IPC: 0.107209 (Simulation time: 0 hr 44 min 23 sec) 
select_counter is 1020
Heartbeat CPU 0 instructions: 64000000 cycles: 508355896 heartbeat IPC: 0.112949 cumulative IPC: 0.10731 (Simulation time: 0 hr 44 min 48 sec) 
select_counter is 1023
Heartbeat CPU 0 instructions: 65000000 cycles: 516854589 heartbeat IPC: 0.117665 cumulative IPC: 0.107482 (Simulation time: 0 hr 45 min 10 sec) 
select_counter is 1022
Heartbeat CPU 0 instructions: 66000000 cycles: 525621304 heartbeat IPC: 0.114068 cumulative IPC: 0.107593 (Simulation time: 0 hr 45 min 32 sec) 
select_counter is 1023
Heartbeat CPU 0 instructions: 67000001 cycles: 534586688 heartbeat IPC: 0.11154 cumulative IPC: 0.10766 (Simulation time: 0 hr 45 min 53 sec) 
select_counter is 1023
Heartbeat CPU 0 instructions: 68000000 cycles: 543699294 heartbeat IPC: 0.109738 cumulative IPC: 0.107695 (Simulation time: 0 hr 46 min 14 sec) 
select_counter is 1022
Heartbeat CPU 0 instructions: 69000000 cycles: 552575143 heartbeat IPC: 0.112665 cumulative IPC: 0.107776 (Simulation time: 0 hr 46 min 35 sec) 
select_counter is 1023
Heartbeat CPU 0 instructions: 70000000 cycles: 561301982 heartbeat IPC: 0.114589 cumulative IPC: 0.107883 (Simulation time: 0 hr 46 min 54 sec) 
select_counter is 1022
Heartbeat CPU 0 instructions: 71000000 cycles: 570004050 heartbeat IPC: 0.114915 cumulative IPC: 0.107991 (Simulation time: 0 hr 47 min 10 sec) 
select_counter is 1023
Heartbeat CPU 0 instructions: 72000000 cycles: 578741656 heartbeat IPC: 0.114448 cumulative IPC: 0.108089 (Simulation time: 0 hr 47 min 25 sec) 
select_counter is 1023
Heartbeat CPU 0 instructions: 73000000 cycles: 587542922 heartbeat IPC: 0.11362 cumulative IPC: 0.108173 (Simulation time: 0 hr 47 min 39 sec) 
select_counter is 1023
Heartbeat CPU 0 instructions: 74000001 cycles: 596563260 heartbeat IPC: 0.110861 cumulative IPC: 0.108214 (Simulation time: 0 hr 47 min 52 sec) 
select_counter is 1021
Heartbeat CPU 0 instructions: 75000002 cycles: 605268815 heartbeat IPC: 0.114869 cumulative IPC: 0.10831 (Simulation time: 0 hr 48 min 2 sec) 
select_counter is 1023
Heartbeat CPU 0 instructions: 76000000 cycles: 613976191 heartbeat IPC: 0.114845 cumulative IPC: 0.108404 (Simulation time: 0 hr 48 min 11 sec) 
select_counter is 1022
Heartbeat CPU 0 instructions: 77000003 cycles: 628085518 heartbeat IPC: 0.0708753 cumulative IPC: 0.107554 (Simulation time: 0 hr 48 min 23 sec) 
select_counter is 1023
Heartbeat CPU 0 instructions: 78000000 cycles: 638770438 heartbeat IPC: 0.0935896 cumulative IPC: 0.107318 (Simulation time: 0 hr 48 min 31 sec) 
select_counter is 1022
Heartbeat CPU 0 instructions: 79000000 cycles: 647727045 heartbeat IPC: 0.111649 cumulative IPC: 0.107379 (Simulation time: 0 hr 48 min 39 sec) 
select_counter is 1023
Heartbeat CPU 0 instructions: 80000000 cycles: 656378668 heartbeat IPC: 0.115585 cumulative IPC: 0.107488 (Simulation time: 0 hr 48 min 45 sec) 
select_counter is 1022
Heartbeat CPU 0 instructions: 81000001 cycles: 665013380 heartbeat IPC: 0.115812 cumulative IPC: 0.107597 (Simulation time: 0 hr 48 min 51 sec) 
select_counter is 1023
Heartbeat CPU 0 instructions: 82000001 cycles: 673150722 heartbeat IPC: 0.12289 cumulative IPC: 0.107783 (Simulation time: 0 hr 48 min 57 sec) 
select_counter is 1022
Heartbeat CPU 0 instructions: 83000002 cycles: 680767396 heartbeat IPC: 0.131291 cumulative IPC: 0.108048 (Simulation time: 0 hr 49 min 2 sec) 
select_counter is 1023
Heartbeat CPU 0 instructions: 84000000 cycles: 688243057 heartbeat IPC: 0.133767 cumulative IPC: 0.108329 (Simulation time: 0 hr 49 min 7 sec) 
select_counter is 1023
Heartbeat CPU 0 instructions: 85000000 cycles: 696076483 heartbeat IPC: 0.127658 cumulative IPC: 0.108549 (Simulation time: 0 hr 49 min 12 sec) 
select_counter is 1022
Heartbeat CPU 0 instructions: 86000001 cycles: 703859038 heartbeat IPC: 0.128493 cumulative IPC: 0.108771 (Simulation time: 0 hr 49 min 17 sec) 
select_counter is 1021
Heartbeat CPU 0 instructions: 87000001 cycles: 717205756 heartbeat IPC: 0.0749248 cumulative IPC: 0.108136 (Simulation time: 0 hr 49 min 24 sec) 
select_counter is 1023
Heartbeat CPU 0 instructions: 88000000 cycles: 728035526 heartbeat IPC: 0.092338 cumulative IPC: 0.1079 (Simulation time: 0 hr 49 min 30 sec) 
select_counter is 1022
Heartbeat CPU 0 instructions: 89000001 cycles: 736341546 heartbeat IPC: 0.120395 cumulative IPC: 0.108042 (Simulation time: 0 hr 49 min 35 sec) 
select_counter is 1023
Heartbeat CPU 0 instructions: 90000001 cycles: 743160098 heartbeat IPC: 0.146659 cumulative IPC: 0.108398 (Simulation time: 0 hr 49 min 40 sec) 
select_counter is 1023
Heartbeat CPU 0 instructions: 91000000 cycles: 753293155 heartbeat IPC: 0.0986868 cumulative IPC: 0.108267 (Simulation time: 0 hr 49 min 46 sec) 
select_counter is 1022
Heartbeat CPU 0 instructions: 92000000 cycles: 762433415 heartbeat IPC: 0.109406 cumulative IPC: 0.108281 (Simulation time: 0 hr 49 min 51 sec) 
select_counter is 1023
Heartbeat CPU 0 instructions: 93000000 cycles: 771968196 heartbeat IPC: 0.104879 cumulative IPC: 0.108238 (Simulation time: 0 hr 49 min 57 sec) 
select_counter is 1023
Heartbeat CPU 0 instructions: 94000000 cycles: 781113640 heartbeat IPC: 0.109344 cumulative IPC: 0.108251 (Simulation time: 0 hr 50 min 2 sec) 
select_counter is 1023
Heartbeat CPU 0 instructions: 95000000 cycles: 790187987 heartbeat IPC: 0.110201 cumulative IPC: 0.108274 (Simulation time: 0 hr 50 min 8 sec) 
select_counter is 1023
Heartbeat CPU 0 instructions: 96000000 cycles: 799318465 heartbeat IPC: 0.109523 cumulative IPC: 0.108288 (Simulation time: 0 hr 50 min 13 sec) 
select_counter is 1023
Heartbeat CPU 0 instructions: 97000000 cycles: 808432996 heartbeat IPC: 0.109715 cumulative IPC: 0.108304 (Simulation time: 0 hr 50 min 19 sec) 
select_counter is 1022
Heartbeat CPU 0 instructions: 98000000 cycles: 817506227 heartbeat IPC: 0.110214 cumulative IPC: 0.108326 (Simulation time: 0 hr 50 min 25 sec) 
select_counter is 1022
Heartbeat CPU 0 instructions: 99000000 cycles: 826509237 heartbeat IPC: 0.111074 cumulative IPC: 0.108356 (Simulation time: 0 hr 50 min 31 sec) 
select_counter is 1023
Heartbeat CPU 0 instructions: 100000000 cycles: 835658278 heartbeat IPC: 0.109301 cumulative IPC: 0.108366 (Simulation time: 0 hr 50 min 36 sec) 
select_counter is 1021
Heartbeat CPU 0 instructions: 101000002 cycles: 844698409 heartbeat IPC: 0.110618 cumulative IPC: 0.108391 (Simulation time: 0 hr 50 min 42 sec) 
select_counter is 1023
Heartbeat CPU 0 instructions: 102000000 cycles: 853837984 heartbeat IPC: 0.109414 cumulative IPC: 0.108402 (Simulation time: 0 hr 50 min 48 sec) 
select_counter is 1021
Heartbeat CPU 0 instructions: 103000000 cycles: 863074547 heartbeat IPC: 0.108265 cumulative IPC: 0.1084 (Simulation time: 0 hr 50 min 53 sec) 
select_counter is 1022
Heartbeat CPU 0 instructions: 104000000 cycles: 872209683 heartbeat IPC: 0.109467 cumulative IPC: 0.108411 (Simulation time: 0 hr 50 min 59 sec) 
select_counter is 1022
Heartbeat CPU 0 instructions: 105000000 cycles: 881495587 heartbeat IPC: 0.10769 cumulative IPC: 0.108404 (Simulation time: 0 hr 51 min 4 sec) 
select_counter is 1022
Heartbeat CPU 0 instructions: 106000002 cycles: 890712586 heartbeat IPC: 0.108495 cumulative IPC: 0.108405 (Simulation time: 0 hr 51 min 10 sec) 
select_counter is 1023
Heartbeat CPU 0 instructions: 107000003 cycles: 899848673 heartbeat IPC: 0.109456 cumulative IPC: 0.108415 (Simulation time: 0 hr 51 min 16 sec) 
select_counter is 1023
Heartbeat CPU 0 instructions: 108000000 cycles: 908973577 heartbeat IPC: 0.10959 cumulative IPC: 0.108427 (Simulation time: 0 hr 51 min 21 sec) 
select_counter is 1022
Heartbeat CPU 0 instructions: 109000000 cycles: 917923410 heartbeat IPC: 0.111734 cumulative IPC: 0.10846 (Simulation time: 0 hr 51 min 27 sec) 
select_counter is 1022
Heartbeat CPU 0 instructions: 110000000 cycles: 927007281 heartbeat IPC: 0.110085 cumulative IPC: 0.108476 (Simulation time: 0 hr 51 min 32 sec) 
select_counter is 1023
Finished CPU 0 instructions: 100000000 cycles: 921865439 cummulative IPC: 0.108476 (Simulation time: 0 hr 51 min 32 sec) 

ChampSim completed all CPUs

Region of Interest Statistics

CPU 0 cummulative IPC: 0.108476 instructions: 100000000 cycles: 921865439
LLC TOTAL     ACCESS:   26977164  HIT:   11432448  MISS:   15544716
LLC LOAD      ACCESS:   11728235  HIT:    8701361  MISS:    3026874
LLC RFO       ACCESS:      27341  HIT:      16235  MISS:      11106
LLC PREFETCH  ACCESS:   14887860  HIT:    2438934  MISS:   12448926
LLC WRITEBACK ACCESS:     333728  HIT:     275918  MISS:      57810
Insertion Distribution: 
	LOAD 5631 0 0 0 0 0 8237 53217 
	RFO 361 0 0 0 0 0 139 121 
	PREF 0 17932 0 0 0 0 106106 277007 
	WRITEBACK 0 0 0 0 0 0 0 3787 
Total Prefetch Downgrades: 51029
