
*** ChampSim Multicore Out-of-Order Simulator ***

Warmup Instructions: 10000000
Simulation Instructions: 100000000
Configuration: 2
Number of CPUs: 1
LLC sets: 2048
LLC ways: 16
Off-chip DRAM Channels: 1 Width: 64-bit Data Rate: 1600 MT/s

CPU 0 runs /datasets/cs240c-wi22-a00-public/data/Assignment2-gz/wrf_1212B.trace.gz
CPU 0 L1D next line prefetcher
CPU 0 L2C IP-based stride prefetcher
Heartbeat CPU 0 instructions: 1000001 cycles: 598660 heartbeat IPC: 1.6704 cumulative IPC: 1.6704 (Simulation time: 0 hr 0 min 28 sec) 
select_counter is 556
Heartbeat CPU 0 instructions: 2000000 cycles: 1197118 heartbeat IPC: 1.67096 cumulative IPC: 1.67068 (Simulation time: 0 hr 0 min 59 sec) 
select_counter is 602
Heartbeat CPU 0 instructions: 3000001 cycles: 1795976 heartbeat IPC: 1.66985 cumulative IPC: 1.6704 (Simulation time: 0 hr 1 min 28 sec) 
select_counter is 614
Heartbeat CPU 0 instructions: 4000000 cycles: 2394087 heartbeat IPC: 1.67193 cumulative IPC: 1.67078 (Simulation time: 0 hr 1 min 57 sec) 
select_counter is 625
Heartbeat CPU 0 instructions: 5000000 cycles: 2993053 heartbeat IPC: 1.66954 cumulative IPC: 1.67054 (Simulation time: 0 hr 2 min 27 sec) 
select_counter is 642
Heartbeat CPU 0 instructions: 6000001 cycles: 3592667 heartbeat IPC: 1.66774 cumulative IPC: 1.67007 (Simulation time: 0 hr 2 min 53 sec) 
select_counter is 647
Heartbeat CPU 0 instructions: 7000001 cycles: 4190664 heartbeat IPC: 1.67225 cumulative IPC: 1.67038 (Simulation time: 0 hr 3 min 24 sec) 
select_counter is 674
Heartbeat CPU 0 instructions: 8000000 cycles: 4788872 heartbeat IPC: 1.67166 cumulative IPC: 1.67054 (Simulation time: 0 hr 3 min 56 sec) 
select_counter is 692
Heartbeat CPU 0 instructions: 9000002 cycles: 5387791 heartbeat IPC: 1.66968 cumulative IPC: 1.67044 (Simulation time: 0 hr 4 min 26 sec) 
select_counter is 705
Heartbeat CPU 0 instructions: 10000001 cycles: 5987356 heartbeat IPC: 1.66787 cumulative IPC: 1.67019 (Simulation time: 0 hr 4 min 57 sec) 
select_counter is 717

Warmup complete CPU 0 instructions: 10000001 cycles: 5987356 (Simulation time: 0 hr 4 min 57 sec) 

Heartbeat CPU 0 instructions: 11000003 cycles: 7750377 heartbeat IPC: 0.567209 cumulative IPC: 0.567209 (Simulation time: 0 hr 5 min 34 sec) 
select_counter is 734
Heartbeat CPU 0 instructions: 12000000 cycles: 9524541 heartbeat IPC: 0.563644 cumulative IPC: 0.565421 (Simulation time: 0 hr 6 min 8 sec) 
select_counter is 749
Heartbeat CPU 0 instructions: 13000000 cycles: 11313906 heartbeat IPC: 0.558858 cumulative IPC: 0.563216 (Simulation time: 0 hr 6 min 47 sec) 
select_counter is 752
Heartbeat CPU 0 instructions: 14000002 cycles: 13101853 heartbeat IPC: 0.559302 cumulative IPC: 0.562232 (Simulation time: 0 hr 7 min 23 sec) 
select_counter is 763
Heartbeat CPU 0 instructions: 15000003 cycles: 14899416 heartbeat IPC: 0.556309 cumulative IPC: 0.561038 (Simulation time: 0 hr 7 min 58 sec) 
select_counter is 765
Heartbeat CPU 0 instructions: 16000000 cycles: 16647800 heartbeat IPC: 0.571955 cumulative IPC: 0.562828 (Simulation time: 0 hr 8 min 32 sec) 
select_counter is 774
Heartbeat CPU 0 instructions: 17000000 cycles: 18429787 heartbeat IPC: 0.561171 cumulative IPC: 0.562591 (Simulation time: 0 hr 9 min 7 sec) 
select_counter is 790
Heartbeat CPU 0 instructions: 18000000 cycles: 20211764 heartbeat IPC: 0.561174 cumulative IPC: 0.562414 (Simulation time: 0 hr 9 min 46 sec) 
select_counter is 797
Heartbeat CPU 0 instructions: 19000003 cycles: 21991025 heartbeat IPC: 0.562033 cumulative IPC: 0.562371 (Simulation time: 0 hr 10 min 23 sec) 
select_counter is 809
Heartbeat CPU 0 instructions: 20000000 cycles: 23743334 heartbeat IPC: 0.570674 cumulative IPC: 0.563191 (Simulation time: 0 hr 10 min 55 sec) 
select_counter is 833
Heartbeat CPU 0 instructions: 21000001 cycles: 25510280 heartbeat IPC: 0.565949 cumulative IPC: 0.56344 (Simulation time: 0 hr 11 min 30 sec) 
select_counter is 837
Heartbeat CPU 0 instructions: 22000001 cycles: 27293189 heartbeat IPC: 0.560881 cumulative IPC: 0.563226 (Simulation time: 0 hr 12 min 6 sec) 
select_counter is 850
Heartbeat CPU 0 instructions: 23000000 cycles: 29079956 heartbeat IPC: 0.559669 cumulative IPC: 0.562951 (Simulation time: 0 hr 12 min 45 sec) 
select_counter is 866
Heartbeat CPU 0 instructions: 24000000 cycles: 30865075 heartbeat IPC: 0.560187 cumulative IPC: 0.562753 (Simulation time: 0 hr 13 min 18 sec) 
select_counter is 874
Heartbeat CPU 0 instructions: 25000002 cycles: 32612825 heartbeat IPC: 0.572165 cumulative IPC: 0.56337 (Simulation time: 0 hr 13 min 51 sec) 
select_counter is 881
Heartbeat CPU 0 instructions: 26000000 cycles: 34395301 heartbeat IPC: 0.561016 cumulative IPC: 0.563223 (Simulation time: 0 hr 14 min 28 sec) 
select_counter is 896
Heartbeat CPU 0 instructions: 27000000 cycles: 36177698 heartbeat IPC: 0.561042 cumulative IPC: 0.563094 (Simulation time: 0 hr 15 min 0 sec) 
select_counter is 917
Heartbeat CPU 0 instructions: 28000000 cycles: 37956687 heartbeat IPC: 0.562117 cumulative IPC: 0.56304 (Simulation time: 0 hr 15 min 35 sec) 
select_counter is 924
Heartbeat CPU 0 instructions: 29000000 cycles: 39709164 heartbeat IPC: 0.570621 cumulative IPC: 0.563434 (Simulation time: 0 hr 16 min 8 sec) 
select_counter is 950
Heartbeat CPU 0 instructions: 30000003 cycles: 41470818 heartbeat IPC: 0.56765 cumulative IPC: 0.563643 (Simulation time: 0 hr 16 min 43 sec) 
select_counter is 965
Heartbeat CPU 0 instructions: 31000000 cycles: 43253462 heartbeat IPC: 0.560963 cumulative IPC: 0.563515 (Simulation time: 0 hr 17 min 19 sec) 
select_counter is 981
Heartbeat CPU 0 instructions: 32000000 cycles: 45035461 heartbeat IPC: 0.561168 cumulative IPC: 0.563408 (Simulation time: 0 hr 17 min 55 sec) 
select_counter is 999
Heartbeat CPU 0 instructions: 33000000 cycles: 46823369 heartbeat IPC: 0.559313 cumulative IPC: 0.563228 (Simulation time: 0 hr 18 min 29 sec) 
select_counter is 1016
Heartbeat CPU 0 instructions: 34000000 cycles: 48562573 heartbeat IPC: 0.574976 cumulative IPC: 0.563708 (Simulation time: 0 hr 19 min 4 sec) 
select_counter is 1021
Heartbeat CPU 0 instructions: 35000003 cycles: 50345780 heartbeat IPC: 0.560789 cumulative IPC: 0.563591 (Simulation time: 0 hr 19 min 41 sec) 
select_counter is 1021
Heartbeat CPU 0 instructions: 36000000 cycles: 52127065 heartbeat IPC: 0.561391 cumulative IPC: 0.563506 (Simulation time: 0 hr 20 min 18 sec) 
select_counter is 1023
Heartbeat CPU 0 instructions: 37000001 cycles: 53910890 heartbeat IPC: 0.560594 cumulative IPC: 0.563398 (Simulation time: 0 hr 20 min 50 sec) 
select_counter is 1021
Heartbeat CPU 0 instructions: 38000000 cycles: 55663802 heartbeat IPC: 0.570479 cumulative IPC: 0.563647 (Simulation time: 0 hr 21 min 29 sec) 
select_counter is 1023
Heartbeat CPU 0 instructions: 39000000 cycles: 57419073 heartbeat IPC: 0.569713 cumulative IPC: 0.563854 (Simulation time: 0 hr 22 min 1 sec) 
select_counter is 1023
Heartbeat CPU 0 instructions: 40000000 cycles: 59200791 heartbeat IPC: 0.561256 cumulative IPC: 0.563767 (Simulation time: 0 hr 22 min 38 sec) 
select_counter is 1022
Heartbeat CPU 0 instructions: 41000001 cycles: 60982214 heartbeat IPC: 0.56135 cumulative IPC: 0.563689 (Simulation time: 0 hr 23 min 13 sec) 
select_counter is 1023
Heartbeat CPU 0 instructions: 42000003 cycles: 62767121 heartbeat IPC: 0.560254 cumulative IPC: 0.563581 (Simulation time: 0 hr 23 min 47 sec) 
select_counter is 1023
Heartbeat CPU 0 instructions: 43000001 cycles: 64495419 heartbeat IPC: 0.578603 cumulative IPC: 0.564025 (Simulation time: 0 hr 24 min 23 sec) 
select_counter is 1023
Heartbeat CPU 0 instructions: 44000000 cycles: 66276166 heartbeat IPC: 0.561562 cumulative IPC: 0.563952 (Simulation time: 0 hr 25 min 1 sec) 
select_counter is 1023
Heartbeat CPU 0 instructions: 45000001 cycles: 68056642 heartbeat IPC: 0.561648 cumulative IPC: 0.563886 (Simulation time: 0 hr 25 min 39 sec) 
select_counter is 1021
Heartbeat CPU 0 instructions: 46000001 cycles: 69835814 heartbeat IPC: 0.562059 cumulative IPC: 0.563835 (Simulation time: 0 hr 26 min 12 sec) 
select_counter is 1020
Heartbeat CPU 0 instructions: 47000000 cycles: 71589213 heartbeat IPC: 0.57032 cumulative IPC: 0.564008 (Simulation time: 0 hr 26 min 44 sec) 
select_counter is 1023
Heartbeat CPU 0 instructions: 48000000 cycles: 73330652 heartbeat IPC: 0.574238 cumulative IPC: 0.564273 (Simulation time: 0 hr 27 min 19 sec) 
select_counter is 1022
Heartbeat CPU 0 instructions: 49000002 cycles: 75112077 heartbeat IPC: 0.56135 cumulative IPC: 0.564198 (Simulation time: 0 hr 27 min 56 sec) 
select_counter is 1023
Heartbeat CPU 0 instructions: 50000002 cycles: 76892878 heartbeat IPC: 0.561545 cumulative IPC: 0.564131 (Simulation time: 0 hr 28 min 32 sec) 
select_counter is 1023
Heartbeat CPU 0 instructions: 51000002 cycles: 78692633 heartbeat IPC: 0.555631 cumulative IPC: 0.563921 (Simulation time: 0 hr 29 min 4 sec) 
select_counter is 1023
Heartbeat CPU 0 instructions: 52000000 cycles: 80416328 heartbeat IPC: 0.580148 cumulative IPC: 0.564296 (Simulation time: 0 hr 29 min 36 sec) 
select_counter is 1023
Heartbeat CPU 0 instructions: 53000002 cycles: 82183763 heartbeat IPC: 0.565793 cumulative IPC: 0.564331 (Simulation time: 0 hr 30 min 12 sec) 
select_counter is 1023
Heartbeat CPU 0 instructions: 54000001 cycles: 83965060 heartbeat IPC: 0.561388 cumulative IPC: 0.564264 (Simulation time: 0 hr 30 min 44 sec) 
select_counter is 1023
Heartbeat CPU 0 instructions: 55000000 cycles: 85746055 heartbeat IPC: 0.561483 cumulative IPC: 0.564202 (Simulation time: 0 hr 31 min 19 sec) 
select_counter is 1023
Heartbeat CPU 0 instructions: 56000000 cycles: 87520995 heartbeat IPC: 0.563399 cumulative IPC: 0.564184 (Simulation time: 0 hr 31 min 57 sec) 
select_counter is 1023
Heartbeat CPU 0 instructions: 57000001 cycles: 89248422 heartbeat IPC: 0.578896 cumulative IPC: 0.56449 (Simulation time: 0 hr 32 min 33 sec) 
select_counter is 1009
Heartbeat CPU 0 instructions: 58000001 cycles: 91031021 heartbeat IPC: 0.560979 cumulative IPC: 0.564416 (Simulation time: 0 hr 33 min 4 sec) 
select_counter is 1023
Heartbeat CPU 0 instructions: 59000000 cycles: 92813831 heartbeat IPC: 0.560912 cumulative IPC: 0.564344 (Simulation time: 0 hr 33 min 43 sec) 
select_counter is 1023
Heartbeat CPU 0 instructions: 60000000 cycles: 94598169 heartbeat IPC: 0.560432 cumulative IPC: 0.564265 (Simulation time: 0 hr 34 min 15 sec) 
select_counter is 1023
Heartbeat CPU 0 instructions: 61000001 cycles: 96337349 heartbeat IPC: 0.574984 cumulative IPC: 0.564472 (Simulation time: 0 hr 34 min 50 sec) 
select_counter is 1022
Heartbeat CPU 0 instructions: 62000001 cycles: 98080302 heartbeat IPC: 0.573739 cumulative IPC: 0.564647 (Simulation time: 0 hr 35 min 26 sec) 
select_counter is 1023
Heartbeat CPU 0 instructions: 63000002 cycles: 99865991 heartbeat IPC: 0.560008 cumulative IPC: 0.564559 (Simulation time: 0 hr 35 min 54 sec) 
select_counter is 1023
Heartbeat CPU 0 instructions: 64000000 cycles: 101648088 heartbeat IPC: 0.561136 cumulative IPC: 0.564495 (Simulation time: 0 hr 36 min 22 sec) 
select_counter is 1022
Heartbeat CPU 0 instructions: 65000000 cycles: 103435799 heartbeat IPC: 0.559375 cumulative IPC: 0.564401 (Simulation time: 0 hr 36 min 50 sec) 
select_counter is 1023
Heartbeat CPU 0 instructions: 66000001 cycles: 105149674 heartbeat IPC: 0.583474 cumulative IPC: 0.564731 (Simulation time: 0 hr 37 min 20 sec) 
select_counter is 1021
Heartbeat CPU 0 instructions: 67000002 cycles: 106906309 heartbeat IPC: 0.569271 cumulative IPC: 0.56481 (Simulation time: 0 hr 37 min 49 sec) 
select_counter is 1023
Heartbeat CPU 0 instructions: 68000000 cycles: 108691673 heartbeat IPC: 0.560109 cumulative IPC: 0.564728 (Simulation time: 0 hr 38 min 18 sec) 
select_counter is 1021
Heartbeat CPU 0 instructions: 69000001 cycles: 110474246 heartbeat IPC: 0.560987 cumulative IPC: 0.564664 (Simulation time: 0 hr 38 min 48 sec) 
select_counter is 1023
Heartbeat CPU 0 instructions: 70000000 cycles: 112243028 heartbeat IPC: 0.56536 cumulative IPC: 0.564676 (Simulation time: 0 hr 39 min 14 sec) 
select_counter is 1021
Heartbeat CPU 0 instructions: 71000001 cycles: 113958428 heartbeat IPC: 0.582955 cumulative IPC: 0.564966 (Simulation time: 0 hr 39 min 37 sec) 
select_counter is 1022
Heartbeat CPU 0 instructions: 72000000 cycles: 115735296 heartbeat IPC: 0.562787 cumulative IPC: 0.564931 (Simulation time: 0 hr 40 min 3 sec) 
select_counter is 1022
Heartbeat CPU 0 instructions: 73000001 cycles: 117523186 heartbeat IPC: 0.559319 cumulative IPC: 0.564841 (Simulation time: 0 hr 40 min 29 sec) 
select_counter is 1023
Heartbeat CPU 0 instructions: 74000000 cycles: 119302803 heartbeat IPC: 0.561918 cumulative IPC: 0.564795 (Simulation time: 0 hr 40 min 54 sec) 
select_counter is 1019
Heartbeat CPU 0 instructions: 75000002 cycles: 121058051 heartbeat IPC: 0.569721 cumulative IPC: 0.56487 (Simulation time: 0 hr 41 min 16 sec) 
select_counter is 1023
Heartbeat CPU 0 instructions: 76000000 cycles: 122791923 heartbeat IPC: 0.576743 cumulative IPC: 0.565046 (Simulation time: 0 hr 41 min 39 sec) 
select_counter is 1023
Heartbeat CPU 0 instructions: 77000003 cycles: 124569308 heartbeat IPC: 0.562626 cumulative IPC: 0.56501 (Simulation time: 0 hr 42 min 2 sec) 
select_counter is 1021
Heartbeat CPU 0 instructions: 78000000 cycles: 126350665 heartbeat IPC: 0.561368 cumulative IPC: 0.564956 (Simulation time: 0 hr 42 min 26 sec) 
select_counter is 1023
Heartbeat CPU 0 instructions: 79000000 cycles: 128147191 heartbeat IPC: 0.55663 cumulative IPC: 0.564834 (Simulation time: 0 hr 42 min 51 sec) 
select_counter is 1022
Heartbeat CPU 0 instructions: 80000000 cycles: 129866234 heartbeat IPC: 0.581719 cumulative IPC: 0.565068 (Simulation time: 0 hr 43 min 15 sec) 
select_counter is 1022
Heartbeat CPU 0 instructions: 81000003 cycles: 131633784 heartbeat IPC: 0.565757 cumulative IPC: 0.565078 (Simulation time: 0 hr 43 min 37 sec) 
select_counter is 1022
Heartbeat CPU 0 instructions: 82000002 cycles: 133425894 heartbeat IPC: 0.558001 cumulative IPC: 0.564978 (Simulation time: 0 hr 43 min 57 sec) 
select_counter is 1023
Heartbeat CPU 0 instructions: 83000001 cycles: 135214110 heartbeat IPC: 0.559216 cumulative IPC: 0.564898 (Simulation time: 0 hr 44 min 16 sec) 
select_counter is 1023
Heartbeat CPU 0 instructions: 84000000 cycles: 136991735 heartbeat IPC: 0.562548 cumulative IPC: 0.564867 (Simulation time: 0 hr 44 min 35 sec) 
select_counter is 1020
Heartbeat CPU 0 instructions: 85000000 cycles: 138709502 heartbeat IPC: 0.582151 cumulative IPC: 0.56509 (Simulation time: 0 hr 44 min 51 sec) 
select_counter is 1023
Heartbeat CPU 0 instructions: 86000001 cycles: 140494784 heartbeat IPC: 0.560136 cumulative IPC: 0.565025 (Simulation time: 0 hr 45 min 6 sec) 
select_counter is 1023
Heartbeat CPU 0 instructions: 87000000 cycles: 142277250 heartbeat IPC: 0.56102 cumulative IPC: 0.564972 (Simulation time: 0 hr 45 min 21 sec) 
select_counter is 1023
Heartbeat CPU 0 instructions: 88000000 cycles: 144053738 heartbeat IPC: 0.562908 cumulative IPC: 0.564946 (Simulation time: 0 hr 45 min 36 sec) 
select_counter is 1020
Heartbeat CPU 0 instructions: 89000000 cycles: 145805083 heartbeat IPC: 0.57099 cumulative IPC: 0.565021 (Simulation time: 0 hr 45 min 50 sec) 
select_counter is 1023
Heartbeat CPU 0 instructions: 90000000 cycles: 147560154 heartbeat IPC: 0.569778 cumulative IPC: 0.56508 (Simulation time: 0 hr 46 min 4 sec) 
select_counter is 1023
Heartbeat CPU 0 instructions: 91000001 cycles: 149339251 heartbeat IPC: 0.562083 cumulative IPC: 0.565043 (Simulation time: 0 hr 46 min 18 sec) 
select_counter is 1022
Heartbeat CPU 0 instructions: 92000000 cycles: 151121874 heartbeat IPC: 0.560971 cumulative IPC: 0.564993 (Simulation time: 0 hr 46 min 34 sec) 
select_counter is 1022
Heartbeat CPU 0 instructions: 93000003 cycles: 152903875 heartbeat IPC: 0.561169 cumulative IPC: 0.564947 (Simulation time: 0 hr 46 min 49 sec) 
select_counter is 1023
Heartbeat CPU 0 instructions: 94000001 cycles: 154630749 heartbeat IPC: 0.57908 cumulative IPC: 0.565111 (Simulation time: 0 hr 47 min 0 sec) 
select_counter is 1023
Heartbeat CPU 0 instructions: 95000001 cycles: 156411237 heartbeat IPC: 0.561644 cumulative IPC: 0.56507 (Simulation time: 0 hr 47 min 12 sec) 
select_counter is 1022
Heartbeat CPU 0 instructions: 96000000 cycles: 158191549 heartbeat IPC: 0.561699 cumulative IPC: 0.56503 (Simulation time: 0 hr 47 min 22 sec) 
select_counter is 1023
Heartbeat CPU 0 instructions: 97000000 cycles: 159971748 heartbeat IPC: 0.561735 cumulative IPC: 0.564992 (Simulation time: 0 hr 47 min 32 sec) 
select_counter is 1023
Heartbeat CPU 0 instructions: 98000000 cycles: 161733279 heartbeat IPC: 0.567688 cumulative IPC: 0.565023 (Simulation time: 0 hr 47 min 41 sec) 
select_counter is 1022
Heartbeat CPU 0 instructions: 99000000 cycles: 163487257 heartbeat IPC: 0.570133 cumulative IPC: 0.56508 (Simulation time: 0 hr 47 min 49 sec) 
select_counter is 1023
Heartbeat CPU 0 instructions: 100000000 cycles: 165265888 heartbeat IPC: 0.56223 cumulative IPC: 0.565048 (Simulation time: 0 hr 47 min 57 sec) 
select_counter is 1023
Heartbeat CPU 0 instructions: 101000000 cycles: 167043740 heartbeat IPC: 0.562477 cumulative IPC: 0.565019 (Simulation time: 0 hr 48 min 4 sec) 
select_counter is 1022
Heartbeat CPU 0 instructions: 102000003 cycles: 168833038 heartbeat IPC: 0.55888 cumulative IPC: 0.564952 (Simulation time: 0 hr 48 min 10 sec) 
select_counter is 1021
Heartbeat CPU 0 instructions: 103000001 cycles: 170564560 heartbeat IPC: 0.577525 cumulative IPC: 0.565084 (Simulation time: 0 hr 48 min 16 sec) 
select_counter is 1023
Heartbeat CPU 0 instructions: 104000000 cycles: 172349262 heartbeat IPC: 0.560317 cumulative IPC: 0.565033 (Simulation time: 0 hr 48 min 22 sec) 
select_counter is 1023
Heartbeat CPU 0 instructions: 105000002 cycles: 174129164 heartbeat IPC: 0.56183 cumulative IPC: 0.564999 (Simulation time: 0 hr 48 min 28 sec) 
select_counter is 1023
Heartbeat CPU 0 instructions: 106000001 cycles: 175906346 heartbeat IPC: 0.562688 cumulative IPC: 0.564975 (Simulation time: 0 hr 48 min 33 sec) 
select_counter is 1023
Heartbeat CPU 0 instructions: 107000003 cycles: 177665333 heartbeat IPC: 0.56851 cumulative IPC: 0.565011 (Simulation time: 0 hr 48 min 37 sec) 
select_counter is 1023
Heartbeat CPU 0 instructions: 108000000 cycles: 179430579 heartbeat IPC: 0.566492 cumulative IPC: 0.565026 (Simulation time: 0 hr 48 min 42 sec) 
select_counter is 1023
Heartbeat CPU 0 instructions: 109000002 cycles: 181214652 heartbeat IPC: 0.560516 cumulative IPC: 0.56498 (Simulation time: 0 hr 48 min 46 sec) 
select_counter is 1022
Heartbeat CPU 0 instructions: 110000003 cycles: 182993508 heartbeat IPC: 0.56216 cumulative IPC: 0.564952 (Simulation time: 0 hr 48 min 50 sec) 
select_counter is 1022
Finished CPU 0 instructions: 100000002 cycles: 177006152 cummulative IPC: 0.564952 (Simulation time: 0 hr 48 min 50 sec) 

ChampSim completed all CPUs

Region of Interest Statistics

CPU 0 cummulative IPC: 0.564952 instructions: 100000002 cycles: 177006152
LLC TOTAL     ACCESS:     134548  HIT:      18351  MISS:     116197
LLC LOAD      ACCESS:      14762  HIT:       3882  MISS:      10880
LLC RFO       ACCESS:       1233  HIT:        326  MISS:        907
LLC PREFETCH  ACCESS:      79471  HIT:       6346  MISS:      73125
LLC WRITEBACK ACCESS:      39082  HIT:       7797  MISS:      31285
Insertion Distribution: 
	LOAD 19 0 0 0 0 0 372 33 
	RFO 0 0 0 0 0 0 48 2 
	PREF 0 0 0 0 0 0 982 1388 
	WRITEBACK 0 0 0 0 0 0 0 481 
Total Prefetch Downgrades: 7
