
*** ChampSim Multicore Out-of-Order Simulator ***

Warmup Instructions: 10000000
Simulation Instructions: 100000000
Configuration: 2
Number of CPUs: 1
LLC sets: 2048
LLC ways: 16
Off-chip DRAM Channels: 1 Width: 64-bit Data Rate: 1600 MT/s

CPU 0 runs /datasets/cs240c-wi22-a00-public/data/Assignment2-gz/zeusmp_600B.trace.gz
CPU 0 L1D next line prefetcher
CPU 0 L2C IP-based stride prefetcher
Heartbeat CPU 0 instructions: 1000000 cycles: 407346 heartbeat IPC: 2.45492 cumulative IPC: 2.45492 (Simulation time: 0 hr 0 min 22 sec) 
select_counter is 596
Heartbeat CPU 0 instructions: 2000001 cycles: 814289 heartbeat IPC: 2.45735 cumulative IPC: 2.45613 (Simulation time: 0 hr 0 min 47 sec) 
select_counter is 668
Heartbeat CPU 0 instructions: 3000000 cycles: 1221758 heartbeat IPC: 2.45417 cumulative IPC: 2.45548 (Simulation time: 0 hr 1 min 12 sec) 
select_counter is 734
Heartbeat CPU 0 instructions: 4000000 cycles: 1629412 heartbeat IPC: 2.45306 cumulative IPC: 2.45487 (Simulation time: 0 hr 1 min 35 sec) 
select_counter is 800
Heartbeat CPU 0 instructions: 5000001 cycles: 2036975 heartbeat IPC: 2.45361 cumulative IPC: 2.45462 (Simulation time: 0 hr 1 min 56 sec) 
select_counter is 859
Heartbeat CPU 0 instructions: 6000000 cycles: 2444300 heartbeat IPC: 2.45504 cumulative IPC: 2.45469 (Simulation time: 0 hr 2 min 18 sec) 
select_counter is 917
Heartbeat CPU 0 instructions: 7000000 cycles: 2851777 heartbeat IPC: 2.45413 cumulative IPC: 2.45461 (Simulation time: 0 hr 2 min 38 sec) 
select_counter is 992
Heartbeat CPU 0 instructions: 8000000 cycles: 3259379 heartbeat IPC: 2.45337 cumulative IPC: 2.45446 (Simulation time: 0 hr 3 min 0 sec) 
select_counter is 1023
Heartbeat CPU 0 instructions: 9000003 cycles: 3666456 heartbeat IPC: 2.45655 cumulative IPC: 2.45469 (Simulation time: 0 hr 3 min 24 sec) 
select_counter is 1023
Heartbeat CPU 0 instructions: 10000001 cycles: 4073957 heartbeat IPC: 2.45398 cumulative IPC: 2.45462 (Simulation time: 0 hr 3 min 45 sec) 
select_counter is 1023

Warmup complete CPU 0 instructions: 10000001 cycles: 4073957 (Simulation time: 0 hr 3 min 45 sec) 

Heartbeat CPU 0 instructions: 11000000 cycles: 4748240 heartbeat IPC: 1.48306 cumulative IPC: 1.48306 (Simulation time: 0 hr 4 min 11 sec) 
select_counter is 1023
Heartbeat CPU 0 instructions: 12000000 cycles: 5421576 heartbeat IPC: 1.48514 cumulative IPC: 1.4841 (Simulation time: 0 hr 4 min 38 sec) 
select_counter is 1020
Heartbeat CPU 0 instructions: 13000001 cycles: 6095067 heartbeat IPC: 1.4848 cumulative IPC: 1.48433 (Simulation time: 0 hr 5 min 3 sec) 
select_counter is 1023
Heartbeat CPU 0 instructions: 14000001 cycles: 6768001 heartbeat IPC: 1.48603 cumulative IPC: 1.48476 (Simulation time: 0 hr 5 min 30 sec) 
select_counter is 1023
Heartbeat CPU 0 instructions: 15000003 cycles: 7443264 heartbeat IPC: 1.48091 cumulative IPC: 1.48399 (Simulation time: 0 hr 5 min 59 sec) 
select_counter is 1022
Heartbeat CPU 0 instructions: 16000000 cycles: 8161657 heartbeat IPC: 1.39199 cumulative IPC: 1.46782 (Simulation time: 0 hr 6 min 25 sec) 
select_counter is 1023
Heartbeat CPU 0 instructions: 17000001 cycles: 8936852 heartbeat IPC: 1.29 cumulative IPC: 1.43947 (Simulation time: 0 hr 6 min 51 sec) 
select_counter is 1023
Heartbeat CPU 0 instructions: 18000003 cycles: 9711029 heartbeat IPC: 1.2917 cumulative IPC: 1.41918 (Simulation time: 0 hr 7 min 19 sec) 
select_counter is 1022
Heartbeat CPU 0 instructions: 19000000 cycles: 10486716 heartbeat IPC: 1.28918 cumulative IPC: 1.40345 (Simulation time: 0 hr 7 min 47 sec) 
select_counter is 1023
Heartbeat CPU 0 instructions: 20000000 cycles: 11260550 heartbeat IPC: 1.29227 cumulative IPC: 1.39148 (Simulation time: 0 hr 8 min 12 sec) 
select_counter is 1021
Heartbeat CPU 0 instructions: 21000002 cycles: 12036733 heartbeat IPC: 1.28836 cumulative IPC: 1.38143 (Simulation time: 0 hr 8 min 39 sec) 
select_counter is 1020
Heartbeat CPU 0 instructions: 22000000 cycles: 12813344 heartbeat IPC: 1.28764 cumulative IPC: 1.37309 (Simulation time: 0 hr 9 min 3 sec) 
select_counter is 1022
Heartbeat CPU 0 instructions: 23000000 cycles: 13581141 heartbeat IPC: 1.30243 cumulative IPC: 1.36739 (Simulation time: 0 hr 9 min 30 sec) 
select_counter is 1020
Heartbeat CPU 0 instructions: 24000000 cycles: 14357393 heartbeat IPC: 1.28824 cumulative IPC: 1.36141 (Simulation time: 0 hr 9 min 57 sec) 
select_counter is 1023
Heartbeat CPU 0 instructions: 25000000 cycles: 15118991 heartbeat IPC: 1.31303 cumulative IPC: 1.35808 (Simulation time: 0 hr 10 min 21 sec) 
select_counter is 1023
Heartbeat CPU 0 instructions: 26000000 cycles: 15888674 heartbeat IPC: 1.29924 cumulative IPC: 1.35424 (Simulation time: 0 hr 10 min 48 sec) 
select_counter is 1023
Heartbeat CPU 0 instructions: 27000003 cycles: 16654925 heartbeat IPC: 1.30506 cumulative IPC: 1.35125 (Simulation time: 0 hr 11 min 12 sec) 
select_counter is 1023
Heartbeat CPU 0 instructions: 28000000 cycles: 17437268 heartbeat IPC: 1.27821 cumulative IPC: 1.34697 (Simulation time: 0 hr 11 min 36 sec) 
select_counter is 1021
Heartbeat CPU 0 instructions: 29000000 cycles: 18213663 heartbeat IPC: 1.288 cumulative IPC: 1.34373 (Simulation time: 0 hr 12 min 0 sec) 
select_counter is 1023
Heartbeat CPU 0 instructions: 30000003 cycles: 18988927 heartbeat IPC: 1.28989 cumulative IPC: 1.34093 (Simulation time: 0 hr 12 min 27 sec) 
select_counter is 1023
Heartbeat CPU 0 instructions: 31000002 cycles: 19770269 heartbeat IPC: 1.27985 cumulative IPC: 1.33789 (Simulation time: 0 hr 12 min 51 sec) 
select_counter is 1023
Heartbeat CPU 0 instructions: 32000000 cycles: 20541978 heartbeat IPC: 1.29582 cumulative IPC: 1.33592 (Simulation time: 0 hr 13 min 14 sec) 
select_counter is 1023
Heartbeat CPU 0 instructions: 33000001 cycles: 21318858 heartbeat IPC: 1.2872 cumulative IPC: 1.33373 (Simulation time: 0 hr 13 min 38 sec) 
select_counter is 1022
Heartbeat CPU 0 instructions: 34000000 cycles: 22096022 heartbeat IPC: 1.28673 cumulative IPC: 1.3317 (Simulation time: 0 hr 14 min 5 sec) 
select_counter is 1022
Heartbeat CPU 0 instructions: 35000000 cycles: 22872567 heartbeat IPC: 1.28776 cumulative IPC: 1.32989 (Simulation time: 0 hr 14 min 29 sec) 
select_counter is 1023
Heartbeat CPU 0 instructions: 36000000 cycles: 23640904 heartbeat IPC: 1.30151 cumulative IPC: 1.32877 (Simulation time: 0 hr 14 min 54 sec) 
select_counter is 1023
Heartbeat CPU 0 instructions: 37000001 cycles: 24417347 heartbeat IPC: 1.28793 cumulative IPC: 1.32721 (Simulation time: 0 hr 15 min 17 sec) 
select_counter is 1023
Heartbeat CPU 0 instructions: 38000001 cycles: 25198880 heartbeat IPC: 1.27954 cumulative IPC: 1.32545 (Simulation time: 0 hr 15 min 41 sec) 
select_counter is 1023
Heartbeat CPU 0 instructions: 39000002 cycles: 25975080 heartbeat IPC: 1.28833 cumulative IPC: 1.32413 (Simulation time: 0 hr 16 min 5 sec) 
select_counter is 1022
Heartbeat CPU 0 instructions: 40000000 cycles: 26752046 heartbeat IPC: 1.28706 cumulative IPC: 1.32286 (Simulation time: 0 hr 16 min 27 sec) 
select_counter is 1023
Heartbeat CPU 0 instructions: 41000002 cycles: 27529707 heartbeat IPC: 1.28591 cumulative IPC: 1.32164 (Simulation time: 0 hr 16 min 48 sec) 
select_counter is 1023
Heartbeat CPU 0 instructions: 42000000 cycles: 28299124 heartbeat IPC: 1.29968 cumulative IPC: 1.32094 (Simulation time: 0 hr 17 min 16 sec) 
select_counter is 1023
Heartbeat CPU 0 instructions: 43000002 cycles: 29074005 heartbeat IPC: 1.29052 cumulative IPC: 1.32 (Simulation time: 0 hr 17 min 44 sec) 
select_counter is 1023
Heartbeat CPU 0 instructions: 44000000 cycles: 29846918 heartbeat IPC: 1.2938 cumulative IPC: 1.31921 (Simulation time: 0 hr 18 min 8 sec) 
select_counter is 1022
Heartbeat CPU 0 instructions: 45000003 cycles: 30620765 heartbeat IPC: 1.29225 cumulative IPC: 1.31843 (Simulation time: 0 hr 18 min 32 sec) 
select_counter is 1023
Heartbeat CPU 0 instructions: 46000000 cycles: 31394021 heartbeat IPC: 1.29323 cumulative IPC: 1.31771 (Simulation time: 0 hr 18 min 53 sec) 
select_counter is 1023
Heartbeat CPU 0 instructions: 47000001 cycles: 32175964 heartbeat IPC: 1.27887 cumulative IPC: 1.31663 (Simulation time: 0 hr 19 min 17 sec) 
select_counter is 1022
Heartbeat CPU 0 instructions: 48000000 cycles: 32951610 heartbeat IPC: 1.28925 cumulative IPC: 1.3159 (Simulation time: 0 hr 19 min 38 sec) 
select_counter is 1023
Heartbeat CPU 0 instructions: 49000000 cycles: 33723087 heartbeat IPC: 1.29621 cumulative IPC: 1.31538 (Simulation time: 0 hr 20 min 1 sec) 
select_counter is 1023
Heartbeat CPU 0 instructions: 50000000 cycles: 34495906 heartbeat IPC: 1.29396 cumulative IPC: 1.31484 (Simulation time: 0 hr 20 min 26 sec) 
select_counter is 1023
Heartbeat CPU 0 instructions: 51000001 cycles: 35274931 heartbeat IPC: 1.28366 cumulative IPC: 1.31406 (Simulation time: 0 hr 20 min 53 sec) 
select_counter is 1023
Heartbeat CPU 0 instructions: 52000000 cycles: 36039556 heartbeat IPC: 1.30783 cumulative IPC: 1.31391 (Simulation time: 0 hr 21 min 21 sec) 
select_counter is 1022
Heartbeat CPU 0 instructions: 53000001 cycles: 36821705 heartbeat IPC: 1.27853 cumulative IPC: 1.31307 (Simulation time: 0 hr 21 min 45 sec) 
select_counter is 1022
Heartbeat CPU 0 instructions: 54000000 cycles: 37598732 heartbeat IPC: 1.28696 cumulative IPC: 1.31246 (Simulation time: 0 hr 22 min 8 sec) 
select_counter is 1022
Heartbeat CPU 0 instructions: 55000001 cycles: 38369115 heartbeat IPC: 1.29806 cumulative IPC: 1.31214 (Simulation time: 0 hr 22 min 31 sec) 
select_counter is 1023
Heartbeat CPU 0 instructions: 56000000 cycles: 39141846 heartbeat IPC: 1.29411 cumulative IPC: 1.31174 (Simulation time: 0 hr 22 min 54 sec) 
select_counter is 1023
Heartbeat CPU 0 instructions: 57000003 cycles: 39923960 heartbeat IPC: 1.27859 cumulative IPC: 1.31102 (Simulation time: 0 hr 23 min 23 sec) 
select_counter is 1022
Heartbeat CPU 0 instructions: 58000001 cycles: 40688317 heartbeat IPC: 1.30829 cumulative IPC: 1.31096 (Simulation time: 0 hr 23 min 50 sec) 
select_counter is 1023
Heartbeat CPU 0 instructions: 59000000 cycles: 41463738 heartbeat IPC: 1.28962 cumulative IPC: 1.31052 (Simulation time: 0 hr 24 min 17 sec) 
select_counter is 1022
Heartbeat CPU 0 instructions: 60000000 cycles: 42238597 heartbeat IPC: 1.29056 cumulative IPC: 1.31011 (Simulation time: 0 hr 24 min 43 sec) 
select_counter is 1023
Heartbeat CPU 0 instructions: 61000003 cycles: 43014449 heartbeat IPC: 1.28891 cumulative IPC: 1.30969 (Simulation time: 0 hr 25 min 7 sec) 
select_counter is 1023
Heartbeat CPU 0 instructions: 62000001 cycles: 43789434 heartbeat IPC: 1.29034 cumulative IPC: 1.30931 (Simulation time: 0 hr 25 min 29 sec) 
select_counter is 1023
Heartbeat CPU 0 instructions: 63000000 cycles: 44564603 heartbeat IPC: 1.29004 cumulative IPC: 1.30894 (Simulation time: 0 hr 25 min 52 sec) 
select_counter is 1023
Heartbeat CPU 0 instructions: 64000000 cycles: 45337734 heartbeat IPC: 1.29344 cumulative IPC: 1.30865 (Simulation time: 0 hr 26 min 16 sec) 
select_counter is 1023
Heartbeat CPU 0 instructions: 65000001 cycles: 46115113 heartbeat IPC: 1.28638 cumulative IPC: 1.30824 (Simulation time: 0 hr 26 min 40 sec) 
select_counter is 1023
Heartbeat CPU 0 instructions: 66000000 cycles: 46901671 heartbeat IPC: 1.27136 cumulative IPC: 1.30756 (Simulation time: 0 hr 27 min 5 sec) 
select_counter is 1023
Heartbeat CPU 0 instructions: 67000001 cycles: 47686236 heartbeat IPC: 1.27459 cumulative IPC: 1.30697 (Simulation time: 0 hr 27 min 30 sec) 
select_counter is 1023
Heartbeat CPU 0 instructions: 68000000 cycles: 48464349 heartbeat IPC: 1.28516 cumulative IPC: 1.30659 (Simulation time: 0 hr 27 min 53 sec) 
select_counter is 1022
Heartbeat CPU 0 instructions: 69000002 cycles: 49247268 heartbeat IPC: 1.27727 cumulative IPC: 1.30608 (Simulation time: 0 hr 28 min 16 sec) 
select_counter is 1023
Heartbeat CPU 0 instructions: 70000000 cycles: 50023579 heartbeat IPC: 1.28814 cumulative IPC: 1.30578 (Simulation time: 0 hr 28 min 41 sec) 
select_counter is 1023
Heartbeat CPU 0 instructions: 71000001 cycles: 50804375 heartbeat IPC: 1.28075 cumulative IPC: 1.30536 (Simulation time: 0 hr 29 min 3 sec) 
select_counter is 1023
Heartbeat CPU 0 instructions: 72000000 cycles: 51576905 heartbeat IPC: 1.29445 cumulative IPC: 1.30518 (Simulation time: 0 hr 29 min 27 sec) 
select_counter is 1023
Heartbeat CPU 0 instructions: 73000003 cycles: 52348121 heartbeat IPC: 1.29666 cumulative IPC: 1.30505 (Simulation time: 0 hr 29 min 50 sec) 
select_counter is 1022
Heartbeat CPU 0 instructions: 74000002 cycles: 53126177 heartbeat IPC: 1.28525 cumulative IPC: 1.30473 (Simulation time: 0 hr 30 min 14 sec) 
select_counter is 1022
Heartbeat CPU 0 instructions: 75000003 cycles: 53902651 heartbeat IPC: 1.28787 cumulative IPC: 1.30447 (Simulation time: 0 hr 30 min 39 sec) 
select_counter is 1023
Heartbeat CPU 0 instructions: 76000000 cycles: 54678644 heartbeat IPC: 1.28867 cumulative IPC: 1.30423 (Simulation time: 0 hr 31 min 5 sec) 
select_counter is 1022
Heartbeat CPU 0 instructions: 77000000 cycles: 55456682 heartbeat IPC: 1.28528 cumulative IPC: 1.30394 (Simulation time: 0 hr 31 min 29 sec) 
select_counter is 1023
Heartbeat CPU 0 instructions: 78000003 cycles: 56235476 heartbeat IPC: 1.28404 cumulative IPC: 1.30364 (Simulation time: 0 hr 31 min 51 sec) 
select_counter is 1022
Heartbeat CPU 0 instructions: 79000000 cycles: 57009399 heartbeat IPC: 1.29211 cumulative IPC: 1.30347 (Simulation time: 0 hr 32 min 20 sec) 
select_counter is 1023
Heartbeat CPU 0 instructions: 80000000 cycles: 57788019 heartbeat IPC: 1.28432 cumulative IPC: 1.3032 (Simulation time: 0 hr 32 min 42 sec) 
select_counter is 1023
Heartbeat CPU 0 instructions: 81000002 cycles: 58567049 heartbeat IPC: 1.28365 cumulative IPC: 1.30292 (Simulation time: 0 hr 33 min 2 sec) 
select_counter is 1023
Heartbeat CPU 0 instructions: 82000002 cycles: 59339540 heartbeat IPC: 1.29451 cumulative IPC: 1.3028 (Simulation time: 0 hr 33 min 27 sec) 
select_counter is 1021
Heartbeat CPU 0 instructions: 83000001 cycles: 60110597 heartbeat IPC: 1.29692 cumulative IPC: 1.30272 (Simulation time: 0 hr 33 min 48 sec) 
select_counter is 1019
Heartbeat CPU 0 instructions: 84000000 cycles: 60892511 heartbeat IPC: 1.27891 cumulative IPC: 1.30239 (Simulation time: 0 hr 34 min 9 sec) 
select_counter is 1023
Heartbeat CPU 0 instructions: 85000002 cycles: 61672237 heartbeat IPC: 1.2825 cumulative IPC: 1.30212 (Simulation time: 0 hr 34 min 36 sec) 
select_counter is 1022
Heartbeat CPU 0 instructions: 86000002 cycles: 62444180 heartbeat IPC: 1.29543 cumulative IPC: 1.30203 (Simulation time: 0 hr 34 min 59 sec) 
select_counter is 1022
Heartbeat CPU 0 instructions: 87000000 cycles: 63224145 heartbeat IPC: 1.28211 cumulative IPC: 1.30177 (Simulation time: 0 hr 35 min 23 sec) 
select_counter is 1023
Heartbeat CPU 0 instructions: 88000000 cycles: 63999650 heartbeat IPC: 1.28948 cumulative IPC: 1.30161 (Simulation time: 0 hr 35 min 53 sec) 
select_counter is 1023
Heartbeat CPU 0 instructions: 89000002 cycles: 64772687 heartbeat IPC: 1.2936 cumulative IPC: 1.30151 (Simulation time: 0 hr 36 min 19 sec) 
select_counter is 1022
Heartbeat CPU 0 instructions: 90000002 cycles: 65543125 heartbeat IPC: 1.29796 cumulative IPC: 1.30147 (Simulation time: 0 hr 36 min 41 sec) 
select_counter is 1023
Heartbeat CPU 0 instructions: 91000001 cycles: 66321953 heartbeat IPC: 1.28398 cumulative IPC: 1.30125 (Simulation time: 0 hr 37 min 5 sec) 
select_counter is 1023
Heartbeat CPU 0 instructions: 92000000 cycles: 67102629 heartbeat IPC: 1.28094 cumulative IPC: 1.301 (Simulation time: 0 hr 37 min 25 sec) 
select_counter is 1023
Heartbeat CPU 0 instructions: 93000000 cycles: 67871852 heartbeat IPC: 1.30001 cumulative IPC: 1.30098 (Simulation time: 0 hr 37 min 44 sec) 
select_counter is 1023
Heartbeat CPU 0 instructions: 94000002 cycles: 68649014 heartbeat IPC: 1.28674 cumulative IPC: 1.30081 (Simulation time: 0 hr 38 min 5 sec) 
select_counter is 1023
Heartbeat CPU 0 instructions: 95000001 cycles: 69424465 heartbeat IPC: 1.28957 cumulative IPC: 1.30068 (Simulation time: 0 hr 38 min 26 sec) 
select_counter is 1023
Heartbeat CPU 0 instructions: 96000000 cycles: 70200994 heartbeat IPC: 1.28778 cumulative IPC: 1.30053 (Simulation time: 0 hr 38 min 47 sec) 
select_counter is 1023
Heartbeat CPU 0 instructions: 97000003 cycles: 70971366 heartbeat IPC: 1.29808 cumulative IPC: 1.3005 (Simulation time: 0 hr 39 min 4 sec) 
select_counter is 1023
Heartbeat CPU 0 instructions: 98000002 cycles: 71745999 heartbeat IPC: 1.29093 cumulative IPC: 1.30039 (Simulation time: 0 hr 39 min 24 sec) 
select_counter is 1023
Heartbeat CPU 0 instructions: 99000000 cycles: 72528384 heartbeat IPC: 1.27814 cumulative IPC: 1.30014 (Simulation time: 0 hr 39 min 44 sec) 
select_counter is 1022
Heartbeat CPU 0 instructions: 100000000 cycles: 73305462 heartbeat IPC: 1.28687 cumulative IPC: 1.29999 (Simulation time: 0 hr 40 min 5 sec) 
select_counter is 1023
Heartbeat CPU 0 instructions: 101000002 cycles: 74079421 heartbeat IPC: 1.29206 cumulative IPC: 1.2999 (Simulation time: 0 hr 40 min 26 sec) 
select_counter is 1023
Heartbeat CPU 0 instructions: 102000002 cycles: 74862727 heartbeat IPC: 1.27664 cumulative IPC: 1.29964 (Simulation time: 0 hr 40 min 43 sec) 
select_counter is 1022
Heartbeat CPU 0 instructions: 103000001 cycles: 75640229 heartbeat IPC: 1.28617 cumulative IPC: 1.29949 (Simulation time: 0 hr 41 min 2 sec) 
select_counter is 1023
Heartbeat CPU 0 instructions: 104000000 cycles: 76418016 heartbeat IPC: 1.2857 cumulative IPC: 1.29935 (Simulation time: 0 hr 41 min 19 sec) 
select_counter is 1022
Heartbeat CPU 0 instructions: 105000001 cycles: 77196287 heartbeat IPC: 1.2849 cumulative IPC: 1.29919 (Simulation time: 0 hr 41 min 38 sec) 
select_counter is 1022
Heartbeat CPU 0 instructions: 106000000 cycles: 77974320 heartbeat IPC: 1.28529 cumulative IPC: 1.29905 (Simulation time: 0 hr 41 min 57 sec) 
select_counter is 1021
Heartbeat CPU 0 instructions: 107000000 cycles: 78750733 heartbeat IPC: 1.28797 cumulative IPC: 1.29893 (Simulation time: 0 hr 42 min 14 sec) 
select_counter is 1020
Heartbeat CPU 0 instructions: 108000000 cycles: 79526461 heartbeat IPC: 1.28911 cumulative IPC: 1.29883 (Simulation time: 0 hr 42 min 33 sec) 
select_counter is 1023
Heartbeat CPU 0 instructions: 109000000 cycles: 80305320 heartbeat IPC: 1.28393 cumulative IPC: 1.29868 (Simulation time: 0 hr 42 min 50 sec) 
select_counter is 1023
Heartbeat CPU 0 instructions: 110000002 cycles: 81084890 heartbeat IPC: 1.28276 cumulative IPC: 1.29852 (Simulation time: 0 hr 43 min 4 sec) 
select_counter is 1023
Finished CPU 0 instructions: 100000001 cycles: 77010933 cummulative IPC: 1.29852 (Simulation time: 0 hr 43 min 4 sec) 

ChampSim completed all CPUs

Region of Interest Statistics

CPU 0 cummulative IPC: 1.29852 instructions: 100000001 cycles: 77010933
LLC TOTAL     ACCESS:     382564  HIT:      16221  MISS:     366343
LLC LOAD      ACCESS:      28066  HIT:        403  MISS:      27663
LLC RFO       ACCESS:       3434  HIT:          0  MISS:       3434
LLC PREFETCH  ACCESS:     287830  HIT:       4450  MISS:     283380
LLC WRITEBACK ACCESS:      63234  HIT:      11368  MISS:      51866
Insertion Distribution: 
	LOAD 0 0 0 0 0 0 134 595 
	RFO 0 0 0 0 0 0 162 108 
	PREF 0 0 0 0 0 0 1374 8448 
	WRITEBACK 0 0 0 0 0 0 0 1548 
Total Prefetch Downgrades: 5
