
*** ChampSim Multicore Out-of-Order Simulator ***

Warmup Instructions: 10000000
Simulation Instructions: 100000000
Configuration: 2
Number of CPUs: 1
LLC sets: 2048
LLC ways: 16
Off-chip DRAM Channels: 1 Width: 64-bit Data Rate: 1600 MT/s

CPU 0 runs /datasets/cs240c-wi22-a00-public/data/Assignment2-gz/omnetpp_340B.trace.gz
CPU 0 L1D next line prefetcher
CPU 0 L2C IP-based stride prefetcher
Heartbeat CPU 0 instructions: 1000001 cycles: 576932 heartbeat IPC: 1.73331 cumulative IPC: 1.73331 (Simulation time: 0 hr 0 min 28 sec) 
select_counter is 1023
Heartbeat CPU 0 instructions: 2000000 cycles: 1160867 heartbeat IPC: 1.71252 cumulative IPC: 1.72285 (Simulation time: 0 hr 1 min 0 sec) 
select_counter is 1023
Heartbeat CPU 0 instructions: 3000001 cycles: 1758123 heartbeat IPC: 1.67433 cumulative IPC: 1.70637 (Simulation time: 0 hr 1 min 33 sec) 
select_counter is 1022
Heartbeat CPU 0 instructions: 4000000 cycles: 2379122 heartbeat IPC: 1.61031 cumulative IPC: 1.68129 (Simulation time: 0 hr 2 min 6 sec) 
select_counter is 1023
Heartbeat CPU 0 instructions: 5000002 cycles: 2954474 heartbeat IPC: 1.73807 cumulative IPC: 1.69235 (Simulation time: 0 hr 2 min 37 sec) 
select_counter is 1023
Heartbeat CPU 0 instructions: 6000003 cycles: 3555930 heartbeat IPC: 1.66263 cumulative IPC: 1.68732 (Simulation time: 0 hr 3 min 12 sec) 
select_counter is 1023
Heartbeat CPU 0 instructions: 7000003 cycles: 4205402 heartbeat IPC: 1.53971 cumulative IPC: 1.66453 (Simulation time: 0 hr 3 min 44 sec) 
select_counter is 1022
Heartbeat CPU 0 instructions: 8000000 cycles: 4800080 heartbeat IPC: 1.68158 cumulative IPC: 1.66664 (Simulation time: 0 hr 4 min 18 sec) 
select_counter is 1021
Heartbeat CPU 0 instructions: 9000002 cycles: 5433242 heartbeat IPC: 1.57938 cumulative IPC: 1.65647 (Simulation time: 0 hr 4 min 48 sec) 
select_counter is 1022
Heartbeat CPU 0 instructions: 10000002 cycles: 6027892 heartbeat IPC: 1.68166 cumulative IPC: 1.65896 (Simulation time: 0 hr 5 min 18 sec) 
select_counter is 1022

Warmup complete CPU 0 instructions: 10000002 cycles: 6027892 (Simulation time: 0 hr 5 min 18 sec) 

Heartbeat CPU 0 instructions: 11000000 cycles: 9613208 heartbeat IPC: 0.278915 cumulative IPC: 0.278915 (Simulation time: 0 hr 6 min 3 sec) 
select_counter is 1022
Heartbeat CPU 0 instructions: 12000000 cycles: 13160510 heartbeat IPC: 0.281904 cumulative IPC: 0.280402 (Simulation time: 0 hr 6 min 43 sec) 
select_counter is 1023
Heartbeat CPU 0 instructions: 13000000 cycles: 16930196 heartbeat IPC: 0.265274 cumulative IPC: 0.275171 (Simulation time: 0 hr 7 min 32 sec) 
select_counter is 1023
Heartbeat CPU 0 instructions: 14000001 cycles: 20771233 heartbeat IPC: 0.260347 cumulative IPC: 0.271309 (Simulation time: 0 hr 8 min 12 sec) 
select_counter is 1021
Heartbeat CPU 0 instructions: 15000003 cycles: 24791684 heartbeat IPC: 0.248729 cumulative IPC: 0.266471 (Simulation time: 0 hr 9 min 2 sec) 
select_counter is 1020
Heartbeat CPU 0 instructions: 16000000 cycles: 28979559 heartbeat IPC: 0.238784 cumulative IPC: 0.261419 (Simulation time: 0 hr 9 min 51 sec) 
select_counter is 1023
Heartbeat CPU 0 instructions: 17000000 cycles: 32740713 heartbeat IPC: 0.265876 cumulative IPC: 0.262046 (Simulation time: 0 hr 10 min 34 sec) 
select_counter is 1022
Heartbeat CPU 0 instructions: 18000000 cycles: 36676544 heartbeat IPC: 0.254076 cumulative IPC: 0.261023 (Simulation time: 0 hr 11 min 15 sec) 
select_counter is 1023
Heartbeat CPU 0 instructions: 19000000 cycles: 41002100 heartbeat IPC: 0.231184 cumulative IPC: 0.257332 (Simulation time: 0 hr 11 min 54 sec) 
select_counter is 1023
Heartbeat CPU 0 instructions: 20000000 cycles: 45108529 heartbeat IPC: 0.243521 cumulative IPC: 0.255881 (Simulation time: 0 hr 12 min 36 sec) 
select_counter is 1023
Heartbeat CPU 0 instructions: 21000000 cycles: 48610762 heartbeat IPC: 0.285532 cumulative IPC: 0.25832 (Simulation time: 0 hr 13 min 18 sec) 
select_counter is 1023
Heartbeat CPU 0 instructions: 22000001 cycles: 52441154 heartbeat IPC: 0.26107 cumulative IPC: 0.258547 (Simulation time: 0 hr 14 min 2 sec) 
select_counter is 1023
Heartbeat CPU 0 instructions: 23000001 cycles: 56233087 heartbeat IPC: 0.263718 cumulative IPC: 0.258937 (Simulation time: 0 hr 14 min 43 sec) 
select_counter is 1023
Heartbeat CPU 0 instructions: 24000000 cycles: 60032400 heartbeat IPC: 0.263205 cumulative IPC: 0.259238 (Simulation time: 0 hr 15 min 22 sec) 
select_counter is 1022
Heartbeat CPU 0 instructions: 25000000 cycles: 63917878 heartbeat IPC: 0.257369 cumulative IPC: 0.259112 (Simulation time: 0 hr 16 min 3 sec) 
select_counter is 1022
Heartbeat CPU 0 instructions: 26000001 cycles: 67884467 heartbeat IPC: 0.252106 cumulative IPC: 0.258663 (Simulation time: 0 hr 16 min 44 sec) 
select_counter is 1023
Heartbeat CPU 0 instructions: 27000000 cycles: 71970124 heartbeat IPC: 0.244758 cumulative IPC: 0.257801 (Simulation time: 0 hr 17 min 26 sec) 
select_counter is 1022
Heartbeat CPU 0 instructions: 28000000 cycles: 76036955 heartbeat IPC: 0.245892 cumulative IPC: 0.25711 (Simulation time: 0 hr 18 min 9 sec) 
select_counter is 1023
Heartbeat CPU 0 instructions: 29000003 cycles: 80102810 heartbeat IPC: 0.245951 cumulative IPC: 0.256497 (Simulation time: 0 hr 18 min 47 sec) 
select_counter is 1023
Heartbeat CPU 0 instructions: 30000000 cycles: 83712134 heartbeat IPC: 0.277059 cumulative IPC: 0.257452 (Simulation time: 0 hr 19 min 22 sec) 
select_counter is 1020
Heartbeat CPU 0 instructions: 31000000 cycles: 87559995 heartbeat IPC: 0.259885 cumulative IPC: 0.257567 (Simulation time: 0 hr 20 min 5 sec) 
select_counter is 1023
Heartbeat CPU 0 instructions: 32000000 cycles: 91241576 heartbeat IPC: 0.271622 cumulative IPC: 0.258174 (Simulation time: 0 hr 20 min 44 sec) 
select_counter is 1023
Heartbeat CPU 0 instructions: 33000003 cycles: 94957728 heartbeat IPC: 0.269096 cumulative IPC: 0.258631 (Simulation time: 0 hr 21 min 25 sec) 
select_counter is 1023
Heartbeat CPU 0 instructions: 34000001 cycles: 99133140 heartbeat IPC: 0.239497 cumulative IPC: 0.257773 (Simulation time: 0 hr 22 min 5 sec) 
select_counter is 1023
Heartbeat CPU 0 instructions: 35000002 cycles: 102718817 heartbeat IPC: 0.278888 cumulative IPC: 0.258556 (Simulation time: 0 hr 22 min 41 sec) 
select_counter is 1021
Heartbeat CPU 0 instructions: 36000000 cycles: 106987046 heartbeat IPC: 0.234289 cumulative IPC: 0.25753 (Simulation time: 0 hr 23 min 26 sec) 
select_counter is 1023
Heartbeat CPU 0 instructions: 37000000 cycles: 111312363 heartbeat IPC: 0.231197 cumulative IPC: 0.256448 (Simulation time: 0 hr 24 min 5 sec) 
select_counter is 1023
Heartbeat CPU 0 instructions: 38000000 cycles: 115100718 heartbeat IPC: 0.263967 cumulative IPC: 0.256709 (Simulation time: 0 hr 24 min 40 sec) 
select_counter is 1023
Heartbeat CPU 0 instructions: 39000001 cycles: 119284546 heartbeat IPC: 0.239016 cumulative IPC: 0.256056 (Simulation time: 0 hr 25 min 16 sec) 
select_counter is 1023
Heartbeat CPU 0 instructions: 40000000 cycles: 122802416 heartbeat IPC: 0.284263 cumulative IPC: 0.256905 (Simulation time: 0 hr 26 min 0 sec) 
select_counter is 1023
Heartbeat CPU 0 instructions: 41000000 cycles: 126439444 heartbeat IPC: 0.27495 cumulative IPC: 0.25745 (Simulation time: 0 hr 26 min 39 sec) 
select_counter is 1023
Heartbeat CPU 0 instructions: 42000001 cycles: 130551944 heartbeat IPC: 0.243161 cumulative IPC: 0.256978 (Simulation time: 0 hr 27 min 16 sec) 
select_counter is 1023
Heartbeat CPU 0 instructions: 43000001 cycles: 134610027 heartbeat IPC: 0.246422 cumulative IPC: 0.256645 (Simulation time: 0 hr 28 min 1 sec) 
select_counter is 1023
Heartbeat CPU 0 instructions: 44000000 cycles: 138302437 heartbeat IPC: 0.270826 cumulative IPC: 0.257041 (Simulation time: 0 hr 28 min 41 sec) 
select_counter is 1022
Heartbeat CPU 0 instructions: 45000003 cycles: 142223068 heartbeat IPC: 0.255062 cumulative IPC: 0.256984 (Simulation time: 0 hr 29 min 18 sec) 
select_counter is 1020
Heartbeat CPU 0 instructions: 46000003 cycles: 146266983 heartbeat IPC: 0.247285 cumulative IPC: 0.256704 (Simulation time: 0 hr 30 min 6 sec) 
select_counter is 1023
Heartbeat CPU 0 instructions: 47000000 cycles: 149416341 heartbeat IPC: 0.317524 cumulative IPC: 0.25804 (Simulation time: 0 hr 30 min 41 sec) 
select_counter is 1023
Heartbeat CPU 0 instructions: 48000000 cycles: 153397216 heartbeat IPC: 0.251201 cumulative IPC: 0.257856 (Simulation time: 0 hr 31 min 20 sec) 
select_counter is 1023
Heartbeat CPU 0 instructions: 49000000 cycles: 156412480 heartbeat IPC: 0.331646 cumulative IPC: 0.259335 (Simulation time: 0 hr 31 min 54 sec) 
select_counter is 1022
Heartbeat CPU 0 instructions: 50000001 cycles: 160509478 heartbeat IPC: 0.244081 cumulative IPC: 0.258931 (Simulation time: 0 hr 32 min 35 sec) 
select_counter is 1023
Heartbeat CPU 0 instructions: 51000003 cycles: 164247861 heartbeat IPC: 0.267496 cumulative IPC: 0.259133 (Simulation time: 0 hr 33 min 18 sec) 
select_counter is 1023
Heartbeat CPU 0 instructions: 52000000 cycles: 168244491 heartbeat IPC: 0.25021 cumulative IPC: 0.258913 (Simulation time: 0 hr 34 min 2 sec) 
select_counter is 1023
Heartbeat CPU 0 instructions: 53000000 cycles: 172623187 heartbeat IPC: 0.228378 cumulative IPC: 0.258111 (Simulation time: 0 hr 34 min 41 sec) 
select_counter is 1023
Heartbeat CPU 0 instructions: 54000002 cycles: 176682497 heartbeat IPC: 0.246348 cumulative IPC: 0.257831 (Simulation time: 0 hr 35 min 17 sec) 
select_counter is 1022
Heartbeat CPU 0 instructions: 55000001 cycles: 180578047 heartbeat IPC: 0.256703 cumulative IPC: 0.257806 (Simulation time: 0 hr 36 min 2 sec) 
select_counter is 1021
Heartbeat CPU 0 instructions: 56000000 cycles: 184911799 heartbeat IPC: 0.230747 cumulative IPC: 0.25715 (Simulation time: 0 hr 36 min 43 sec) 
select_counter is 1023
Heartbeat CPU 0 instructions: 57000001 cycles: 189000892 heartbeat IPC: 0.244553 cumulative IPC: 0.256868 (Simulation time: 0 hr 37 min 19 sec) 
select_counter is 1022
Heartbeat CPU 0 instructions: 58000000 cycles: 192347977 heartbeat IPC: 0.298767 cumulative IPC: 0.257621 (Simulation time: 0 hr 37 min 52 sec) 
select_counter is 1023
Heartbeat CPU 0 instructions: 59000003 cycles: 196293641 heartbeat IPC: 0.253444 cumulative IPC: 0.257535 (Simulation time: 0 hr 38 min 26 sec) 
select_counter is 1023
Heartbeat CPU 0 instructions: 60000000 cycles: 200716107 heartbeat IPC: 0.226118 cumulative IPC: 0.256821 (Simulation time: 0 hr 38 min 57 sec) 
select_counter is 1023
Heartbeat CPU 0 instructions: 61000001 cycles: 205057407 heartbeat IPC: 0.230346 cumulative IPC: 0.256243 (Simulation time: 0 hr 39 min 26 sec) 
select_counter is 1023
Heartbeat CPU 0 instructions: 62000000 cycles: 209559742 heartbeat IPC: 0.222107 cumulative IPC: 0.255488 (Simulation time: 0 hr 39 min 58 sec) 
select_counter is 1021
Heartbeat CPU 0 instructions: 63000001 cycles: 213328550 heartbeat IPC: 0.265336 cumulative IPC: 0.255667 (Simulation time: 0 hr 40 min 29 sec) 
select_counter is 1020
Heartbeat CPU 0 instructions: 64000000 cycles: 217201410 heartbeat IPC: 0.258207 cumulative IPC: 0.255714 (Simulation time: 0 hr 40 min 56 sec) 
select_counter is 1021
Heartbeat CPU 0 instructions: 65000001 cycles: 220667916 heartbeat IPC: 0.288475 cumulative IPC: 0.256243 (Simulation time: 0 hr 41 min 24 sec) 
select_counter is 1023
Heartbeat CPU 0 instructions: 66000002 cycles: 224546661 heartbeat IPC: 0.257816 cumulative IPC: 0.256271 (Simulation time: 0 hr 41 min 47 sec) 
select_counter is 1023
Heartbeat CPU 0 instructions: 67000002 cycles: 228381008 heartbeat IPC: 0.260801 cumulative IPC: 0.256349 (Simulation time: 0 hr 42 min 13 sec) 
select_counter is 1023
Heartbeat CPU 0 instructions: 68000000 cycles: 232204368 heartbeat IPC: 0.26155 cumulative IPC: 0.256437 (Simulation time: 0 hr 42 min 41 sec) 
select_counter is 1022
Heartbeat CPU 0 instructions: 69000000 cycles: 236136926 heartbeat IPC: 0.254287 cumulative IPC: 0.2564 (Simulation time: 0 hr 43 min 7 sec) 
select_counter is 1023
Heartbeat CPU 0 instructions: 70000001 cycles: 239561835 heartbeat IPC: 0.291979 cumulative IPC: 0.256922 (Simulation time: 0 hr 43 min 30 sec) 
select_counter is 1023
Heartbeat CPU 0 instructions: 71000003 cycles: 243448493 heartbeat IPC: 0.257291 cumulative IPC: 0.256928 (Simulation time: 0 hr 43 min 55 sec) 
select_counter is 1023
Heartbeat CPU 0 instructions: 72000000 cycles: 247885541 heartbeat IPC: 0.225374 cumulative IPC: 0.256349 (Simulation time: 0 hr 44 min 20 sec) 
select_counter is 1023
Heartbeat CPU 0 instructions: 73000002 cycles: 251902451 heartbeat IPC: 0.248948 cumulative IPC: 0.256228 (Simulation time: 0 hr 44 min 42 sec) 
select_counter is 1023
Heartbeat CPU 0 instructions: 74000000 cycles: 255713429 heartbeat IPC: 0.262399 cumulative IPC: 0.256322 (Simulation time: 0 hr 45 min 2 sec) 
select_counter is 1023
Heartbeat CPU 0 instructions: 75000003 cycles: 259779847 heartbeat IPC: 0.245917 cumulative IPC: 0.256156 (Simulation time: 0 hr 45 min 21 sec) 
select_counter is 1023
Heartbeat CPU 0 instructions: 76000000 cycles: 263620665 heartbeat IPC: 0.26036 cumulative IPC: 0.256218 (Simulation time: 0 hr 45 min 40 sec) 
select_counter is 1021
Heartbeat CPU 0 instructions: 77000002 cycles: 268191646 heartbeat IPC: 0.218772 cumulative IPC: 0.255565 (Simulation time: 0 hr 45 min 56 sec) 
select_counter is 1023
Heartbeat CPU 0 instructions: 78000003 cycles: 272073575 heartbeat IPC: 0.257604 cumulative IPC: 0.255595 (Simulation time: 0 hr 46 min 12 sec) 
select_counter is 1023
Heartbeat CPU 0 instructions: 79000002 cycles: 275978263 heartbeat IPC: 0.256102 cumulative IPC: 0.255603 (Simulation time: 0 hr 46 min 28 sec) 
select_counter is 1022
Heartbeat CPU 0 instructions: 80000000 cycles: 279852288 heartbeat IPC: 0.258129 cumulative IPC: 0.255638 (Simulation time: 0 hr 46 min 43 sec) 
select_counter is 1023
Heartbeat CPU 0 instructions: 81000002 cycles: 284067672 heartbeat IPC: 0.237227 cumulative IPC: 0.255359 (Simulation time: 0 hr 46 min 58 sec) 
select_counter is 1023
Heartbeat CPU 0 instructions: 82000000 cycles: 288439883 heartbeat IPC: 0.228717 cumulative IPC: 0.254947 (Simulation time: 0 hr 47 min 12 sec) 
select_counter is 1023
Heartbeat CPU 0 instructions: 83000002 cycles: 292202568 heartbeat IPC: 0.265768 cumulative IPC: 0.255089 (Simulation time: 0 hr 47 min 23 sec) 
select_counter is 1023
Heartbeat CPU 0 instructions: 84000000 cycles: 296183760 heartbeat IPC: 0.251181 cumulative IPC: 0.255035 (Simulation time: 0 hr 47 min 34 sec) 
select_counter is 1023
Heartbeat CPU 0 instructions: 85000000 cycles: 299906119 heartbeat IPC: 0.268647 cumulative IPC: 0.255208 (Simulation time: 0 hr 47 min 43 sec) 
select_counter is 1023
Heartbeat CPU 0 instructions: 86000000 cycles: 303829838 heartbeat IPC: 0.25486 cumulative IPC: 0.255203 (Simulation time: 0 hr 47 min 53 sec) 
select_counter is 1022
Heartbeat CPU 0 instructions: 87000001 cycles: 307637356 heartbeat IPC: 0.262639 cumulative IPC: 0.255297 (Simulation time: 0 hr 48 min 0 sec) 
select_counter is 1023
Heartbeat CPU 0 instructions: 88000000 cycles: 311461652 heartbeat IPC: 0.261486 cumulative IPC: 0.255375 (Simulation time: 0 hr 48 min 8 sec) 
select_counter is 1022
Heartbeat CPU 0 instructions: 89000003 cycles: 314949096 heartbeat IPC: 0.286744 cumulative IPC: 0.255729 (Simulation time: 0 hr 48 min 14 sec) 
select_counter is 1023
Heartbeat CPU 0 instructions: 90000000 cycles: 318781212 heartbeat IPC: 0.260952 cumulative IPC: 0.255793 (Simulation time: 0 hr 48 min 21 sec) 
select_counter is 1022
Heartbeat CPU 0 instructions: 91000001 cycles: 322285390 heartbeat IPC: 0.285374 cumulative IPC: 0.25612 (Simulation time: 0 hr 48 min 27 sec) 
select_counter is 1023
Heartbeat CPU 0 instructions: 92000000 cycles: 326322877 heartbeat IPC: 0.247679 cumulative IPC: 0.256014 (Simulation time: 0 hr 48 min 33 sec) 
select_counter is 1020
Heartbeat CPU 0 instructions: 93000001 cycles: 330796598 heartbeat IPC: 0.223528 cumulative IPC: 0.255566 (Simulation time: 0 hr 48 min 39 sec) 
select_counter is 1023
Heartbeat CPU 0 instructions: 94000001 cycles: 334604355 heartbeat IPC: 0.262622 cumulative IPC: 0.255648 (Simulation time: 0 hr 48 min 44 sec) 
select_counter is 1021
Heartbeat CPU 0 instructions: 95000000 cycles: 338592801 heartbeat IPC: 0.250724 cumulative IPC: 0.255589 (Simulation time: 0 hr 48 min 49 sec) 
select_counter is 1022
Heartbeat CPU 0 instructions: 96000000 cycles: 343022322 heartbeat IPC: 0.225758 cumulative IPC: 0.255197 (Simulation time: 0 hr 48 min 53 sec) 
select_counter is 1018
Heartbeat CPU 0 instructions: 97000000 cycles: 346699573 heartbeat IPC: 0.271942 cumulative IPC: 0.255378 (Simulation time: 0 hr 48 min 57 sec) 
select_counter is 1023
Heartbeat CPU 0 instructions: 98000000 cycles: 350948025 heartbeat IPC: 0.23538 cumulative IPC: 0.255132 (Simulation time: 0 hr 49 min 2 sec) 
select_counter is 1023
Heartbeat CPU 0 instructions: 99000000 cycles: 355309664 heartbeat IPC: 0.229272 cumulative IPC: 0.254809 (Simulation time: 0 hr 49 min 6 sec) 
select_counter is 1021
Heartbeat CPU 0 instructions: 100000000 cycles: 359428530 heartbeat IPC: 0.242785 cumulative IPC: 0.254668 (Simulation time: 0 hr 49 min 10 sec) 
select_counter is 1023
Heartbeat CPU 0 instructions: 101000000 cycles: 363401462 heartbeat IPC: 0.251703 cumulative IPC: 0.254636 (Simulation time: 0 hr 49 min 14 sec) 
select_counter is 1022
Heartbeat CPU 0 instructions: 102000003 cycles: 367495428 heartbeat IPC: 0.244263 cumulative IPC: 0.254518 (Simulation time: 0 hr 49 min 18 sec) 
select_counter is 1023
Heartbeat CPU 0 instructions: 103000000 cycles: 371374393 heartbeat IPC: 0.2578 cumulative IPC: 0.254553 (Simulation time: 0 hr 49 min 22 sec) 
select_counter is 1023
Heartbeat CPU 0 instructions: 104000000 cycles: 375155557 heartbeat IPC: 0.264469 cumulative IPC: 0.254654 (Simulation time: 0 hr 49 min 26 sec) 
select_counter is 1023
Heartbeat CPU 0 instructions: 105000003 cycles: 379112485 heartbeat IPC: 0.252722 cumulative IPC: 0.254634 (Simulation time: 0 hr 49 min 30 sec) 
select_counter is 1023
Heartbeat CPU 0 instructions: 106000001 cycles: 382639957 heartbeat IPC: 0.283489 cumulative IPC: 0.254904 (Simulation time: 0 hr 49 min 34 sec) 
select_counter is 1022
Heartbeat CPU 0 instructions: 107000000 cycles: 386808002 heartbeat IPC: 0.23992 cumulative IPC: 0.25474 (Simulation time: 0 hr 49 min 39 sec) 
select_counter is 1022
Heartbeat CPU 0 instructions: 108000000 cycles: 390816225 heartbeat IPC: 0.249487 cumulative IPC: 0.254685 (Simulation time: 0 hr 49 min 43 sec) 
select_counter is 1023
Heartbeat CPU 0 instructions: 109000000 cycles: 395295315 heartbeat IPC: 0.22326 cumulative IPC: 0.254324 (Simulation time: 0 hr 49 min 47 sec) 
select_counter is 1023
Heartbeat CPU 0 instructions: 110000000 cycles: 398964284 heartbeat IPC: 0.272556 cumulative IPC: 0.254494 (Simulation time: 0 hr 49 min 52 sec) 
select_counter is 1023
Finished CPU 0 instructions: 100000000 cycles: 392936396 cummulative IPC: 0.254494 (Simulation time: 0 hr 49 min 52 sec) 

ChampSim completed all CPUs

Region of Interest Statistics

CPU 0 cummulative IPC: 0.254494 instructions: 100000000 cycles: 392936396
LLC TOTAL     ACCESS:    4309210  HIT:    1379832  MISS:    2929378
LLC LOAD      ACCESS:    1524159  HIT:     446479  MISS:    1077680
LLC RFO       ACCESS:     249544  HIT:      82711  MISS:     166833
LLC PREFETCH  ACCESS:    1529506  HIT:     148690  MISS:    1380816
LLC WRITEBACK ACCESS:    1006001  HIT:     701952  MISS:     304049
Insertion Distribution: 
	LOAD 5640 0 0 0 0 0 4857 26951 
	RFO 1747 0 0 0 0 0 1429 2600 
	PREF 0 517 0 0 0 0 1816 46200 
	WRITEBACK 0 0 0 0 0 0 0 14342 
Total Prefetch Downgrades: 615
