
*** ChampSim Multicore Out-of-Order Simulator ***

Warmup Instructions: 10000000
Simulation Instructions: 100000000
Configuration: 2
Number of CPUs: 1
LLC sets: 2048
LLC ways: 16
Off-chip DRAM Channels: 1 Width: 64-bit Data Rate: 1600 MT/s

CPU 0 runs /datasets/cs240c-wi22-a00-public/data/Assignment2-gz/gcc_13B.trace.gz
CPU 0 L1D next line prefetcher
CPU 0 L2C IP-based stride prefetcher
Heartbeat CPU 0 instructions: 1000000 cycles: 633311 heartbeat IPC: 1.579 cumulative IPC: 1.579 (Simulation time: 0 hr 0 min 28 sec) 
select_counter is 1023
Heartbeat CPU 0 instructions: 2000001 cycles: 1243581 heartbeat IPC: 1.63862 cumulative IPC: 1.60826 (Simulation time: 0 hr 0 min 55 sec) 
select_counter is 1019
Heartbeat CPU 0 instructions: 3000001 cycles: 1717235 heartbeat IPC: 2.11125 cumulative IPC: 1.74699 (Simulation time: 0 hr 1 min 19 sec) 
select_counter is 1023
Heartbeat CPU 0 instructions: 4000000 cycles: 2190617 heartbeat IPC: 2.11246 cumulative IPC: 1.82597 (Simulation time: 0 hr 1 min 42 sec) 
select_counter is 1023
Heartbeat CPU 0 instructions: 5000002 cycles: 2664532 heartbeat IPC: 2.11009 cumulative IPC: 1.8765 (Simulation time: 0 hr 2 min 7 sec) 
select_counter is 1022
Heartbeat CPU 0 instructions: 6000002 cycles: 3138308 heartbeat IPC: 2.1107 cumulative IPC: 1.91186 (Simulation time: 0 hr 2 min 30 sec) 
select_counter is 1023
Heartbeat CPU 0 instructions: 7000001 cycles: 3613676 heartbeat IPC: 2.10363 cumulative IPC: 1.93709 (Simulation time: 0 hr 2 min 52 sec) 
select_counter is 1022
Heartbeat CPU 0 instructions: 8000000 cycles: 4090398 heartbeat IPC: 2.09766 cumulative IPC: 1.9558 (Simulation time: 0 hr 3 min 17 sec) 
select_counter is 1022
Heartbeat CPU 0 instructions: 9000001 cycles: 4831259 heartbeat IPC: 1.34978 cumulative IPC: 1.86287 (Simulation time: 0 hr 3 min 45 sec) 
select_counter is 1023
Heartbeat CPU 0 instructions: 10000001 cycles: 5536149 heartbeat IPC: 1.41866 cumulative IPC: 1.80631 (Simulation time: 0 hr 4 min 13 sec) 
select_counter is 1023

Warmup complete CPU 0 instructions: 10000001 cycles: 5536149 (Simulation time: 0 hr 4 min 13 sec) 

Heartbeat CPU 0 instructions: 11000000 cycles: 12660152 heartbeat IPC: 0.14037 cumulative IPC: 0.14037 (Simulation time: 0 hr 4 min 54 sec) 
select_counter is 1023
Heartbeat CPU 0 instructions: 12000000 cycles: 19145020 heartbeat IPC: 0.154205 cumulative IPC: 0.146963 (Simulation time: 0 hr 5 min 34 sec) 
select_counter is 1023
Heartbeat CPU 0 instructions: 13000000 cycles: 25165929 heartbeat IPC: 0.166088 cumulative IPC: 0.152829 (Simulation time: 0 hr 6 min 16 sec) 
select_counter is 1021
Heartbeat CPU 0 instructions: 14000000 cycles: 30855672 heartbeat IPC: 0.175755 cumulative IPC: 0.157981 (Simulation time: 0 hr 6 min 54 sec) 
select_counter is 1023
Heartbeat CPU 0 instructions: 15000000 cycles: 33635401 heartbeat IPC: 0.359747 cumulative IPC: 0.177941 (Simulation time: 0 hr 7 min 30 sec) 
select_counter is 1023
Heartbeat CPU 0 instructions: 16000000 cycles: 35824576 heartbeat IPC: 0.456793 cumulative IPC: 0.198095 (Simulation time: 0 hr 7 min 59 sec) 
select_counter is 1023
Heartbeat CPU 0 instructions: 17000000 cycles: 38051616 heartbeat IPC: 0.449027 cumulative IPC: 0.215282 (Simulation time: 0 hr 8 min 30 sec) 
select_counter is 1023
Heartbeat CPU 0 instructions: 18000002 cycles: 40263819 heartbeat IPC: 0.452039 cumulative IPC: 0.230364 (Simulation time: 0 hr 9 min 0 sec) 
select_counter is 1022
Heartbeat CPU 0 instructions: 19000002 cycles: 42465013 heartbeat IPC: 0.454299 cumulative IPC: 0.243712 (Simulation time: 0 hr 9 min 32 sec) 
select_counter is 1023
Heartbeat CPU 0 instructions: 20000000 cycles: 44672580 heartbeat IPC: 0.452986 cumulative IPC: 0.255516 (Simulation time: 0 hr 10 min 5 sec) 
select_counter is 1023
Heartbeat CPU 0 instructions: 21000001 cycles: 47096556 heartbeat IPC: 0.412546 cumulative IPC: 0.264675 (Simulation time: 0 hr 10 min 34 sec) 
select_counter is 1022
Heartbeat CPU 0 instructions: 22000001 cycles: 51278032 heartbeat IPC: 0.23915 cumulative IPC: 0.262342 (Simulation time: 0 hr 11 min 12 sec) 
select_counter is 1023
Heartbeat CPU 0 instructions: 23000002 cycles: 58193628 heartbeat IPC: 0.144601 cumulative IPC: 0.246879 (Simulation time: 0 hr 11 min 55 sec) 
select_counter is 1023
Heartbeat CPU 0 instructions: 24000000 cycles: 64956593 heartbeat IPC: 0.147864 cumulative IPC: 0.235609 (Simulation time: 0 hr 12 min 32 sec) 
select_counter is 1023
Heartbeat CPU 0 instructions: 25000000 cycles: 71131753 heartbeat IPC: 0.161939 cumulative IPC: 0.228674 (Simulation time: 0 hr 13 min 8 sec) 
select_counter is 1023
Heartbeat CPU 0 instructions: 26000001 cycles: 76870374 heartbeat IPC: 0.174258 cumulative IPC: 0.224296 (Simulation time: 0 hr 13 min 42 sec) 
select_counter is 1023
Heartbeat CPU 0 instructions: 27000000 cycles: 82009761 heartbeat IPC: 0.194576 cumulative IPC: 0.222299 (Simulation time: 0 hr 14 min 22 sec) 
select_counter is 1023
Heartbeat CPU 0 instructions: 28000000 cycles: 84418965 heartbeat IPC: 0.415075 cumulative IPC: 0.228187 (Simulation time: 0 hr 14 min 54 sec) 
select_counter is 1021
Heartbeat CPU 0 instructions: 29000000 cycles: 86477246 heartbeat IPC: 0.485842 cumulative IPC: 0.234739 (Simulation time: 0 hr 15 min 24 sec) 
select_counter is 1023
Heartbeat CPU 0 instructions: 30000001 cycles: 88540502 heartbeat IPC: 0.484671 cumulative IPC: 0.240951 (Simulation time: 0 hr 15 min 53 sec) 
select_counter is 1021
Heartbeat CPU 0 instructions: 31000000 cycles: 90606865 heartbeat IPC: 0.483942 cumulative IPC: 0.246853 (Simulation time: 0 hr 16 min 24 sec) 
select_counter is 1023
Heartbeat CPU 0 instructions: 32000000 cycles: 92669074 heartbeat IPC: 0.484917 cumulative IPC: 0.252488 (Simulation time: 0 hr 16 min 53 sec) 
select_counter is 1023
Heartbeat CPU 0 instructions: 33000000 cycles: 94738078 heartbeat IPC: 0.483324 cumulative IPC: 0.257842 (Simulation time: 0 hr 17 min 21 sec) 
select_counter is 1023
Heartbeat CPU 0 instructions: 34000000 cycles: 97374834 heartbeat IPC: 0.379254 cumulative IPC: 0.261328 (Simulation time: 0 hr 17 min 51 sec) 
select_counter is 1023
Heartbeat CPU 0 instructions: 35000000 cycles: 111676150 heartbeat IPC: 0.0699236 cumulative IPC: 0.235538 (Simulation time: 0 hr 19 min 4 sec) 
select_counter is 1023
Heartbeat CPU 0 instructions: 36000000 cycles: 115531036 heartbeat IPC: 0.259411 cumulative IPC: 0.236375 (Simulation time: 0 hr 19 min 31 sec) 
select_counter is 1022
Heartbeat CPU 0 instructions: 37000003 cycles: 119369604 heartbeat IPC: 0.260515 cumulative IPC: 0.237189 (Simulation time: 0 hr 19 min 57 sec) 
select_counter is 1023
Heartbeat CPU 0 instructions: 38000000 cycles: 123223826 heartbeat IPC: 0.259455 cumulative IPC: 0.237918 (Simulation time: 0 hr 20 min 30 sec) 
select_counter is 1023
Heartbeat CPU 0 instructions: 39000000 cycles: 126991522 heartbeat IPC: 0.265414 cumulative IPC: 0.238771 (Simulation time: 0 hr 20 min 57 sec) 
select_counter is 1023
Heartbeat CPU 0 instructions: 40000000 cycles: 130662269 heartbeat IPC: 0.272424 cumulative IPC: 0.239758 (Simulation time: 0 hr 21 min 23 sec) 
select_counter is 1022
Heartbeat CPU 0 instructions: 41000000 cycles: 134301444 heartbeat IPC: 0.274788 cumulative IPC: 0.240748 (Simulation time: 0 hr 21 min 51 sec) 
select_counter is 1023
Heartbeat CPU 0 instructions: 42000000 cycles: 137961499 heartbeat IPC: 0.27322 cumulative IPC: 0.241646 (Simulation time: 0 hr 22 min 18 sec) 
select_counter is 1023
Heartbeat CPU 0 instructions: 43000002 cycles: 141626443 heartbeat IPC: 0.272856 cumulative IPC: 0.242486 (Simulation time: 0 hr 22 min 46 sec) 
select_counter is 1023
Heartbeat CPU 0 instructions: 44000000 cycles: 145283594 heartbeat IPC: 0.273436 cumulative IPC: 0.243296 (Simulation time: 0 hr 23 min 15 sec) 
select_counter is 1023
Heartbeat CPU 0 instructions: 45000001 cycles: 148911765 heartbeat IPC: 0.275621 cumulative IPC: 0.244114 (Simulation time: 0 hr 23 min 42 sec) 
select_counter is 1023
Heartbeat CPU 0 instructions: 46000001 cycles: 152517695 heartbeat IPC: 0.277321 cumulative IPC: 0.244929 (Simulation time: 0 hr 24 min 12 sec) 
select_counter is 1022
Heartbeat CPU 0 instructions: 47000001 cycles: 156110379 heartbeat IPC: 0.278343 cumulative IPC: 0.245726 (Simulation time: 0 hr 24 min 45 sec) 
select_counter is 1023
Heartbeat CPU 0 instructions: 48000000 cycles: 159677393 heartbeat IPC: 0.280346 cumulative IPC: 0.246527 (Simulation time: 0 hr 25 min 14 sec) 
select_counter is 1023
Heartbeat CPU 0 instructions: 49000000 cycles: 163260605 heartbeat IPC: 0.279079 cumulative IPC: 0.247267 (Simulation time: 0 hr 25 min 50 sec) 
select_counter is 1023
Heartbeat CPU 0 instructions: 50000003 cycles: 166840855 heartbeat IPC: 0.279311 cumulative IPC: 0.247978 (Simulation time: 0 hr 26 min 18 sec) 
select_counter is 1022
Heartbeat CPU 0 instructions: 51000001 cycles: 170421507 heartbeat IPC: 0.279278 cumulative IPC: 0.248658 (Simulation time: 0 hr 26 min 44 sec) 
select_counter is 1022
Heartbeat CPU 0 instructions: 52000000 cycles: 173987712 heartbeat IPC: 0.28041 cumulative IPC: 0.24933 (Simulation time: 0 hr 27 min 11 sec) 
select_counter is 1023
Heartbeat CPU 0 instructions: 53000001 cycles: 177569222 heartbeat IPC: 0.279212 cumulative IPC: 0.249952 (Simulation time: 0 hr 27 min 40 sec) 
select_counter is 1023
Heartbeat CPU 0 instructions: 54000000 cycles: 181143550 heartbeat IPC: 0.279773 cumulative IPC: 0.250559 (Simulation time: 0 hr 28 min 6 sec) 
select_counter is 1021
Heartbeat CPU 0 instructions: 55000000 cycles: 184727067 heartbeat IPC: 0.279055 cumulative IPC: 0.251129 (Simulation time: 0 hr 28 min 33 sec) 
select_counter is 1023
Heartbeat CPU 0 instructions: 56000000 cycles: 188300806 heartbeat IPC: 0.279819 cumulative IPC: 0.25169 (Simulation time: 0 hr 29 min 5 sec) 
select_counter is 1022
Heartbeat CPU 0 instructions: 57000002 cycles: 191840483 heartbeat IPC: 0.282512 cumulative IPC: 0.252275 (Simulation time: 0 hr 29 min 32 sec) 
select_counter is 1022
Heartbeat CPU 0 instructions: 58000001 cycles: 195385968 heartbeat IPC: 0.282049 cumulative IPC: 0.252831 (Simulation time: 0 hr 29 min 59 sec) 
select_counter is 1022
Heartbeat CPU 0 instructions: 59000003 cycles: 198904102 heartbeat IPC: 0.284242 cumulative IPC: 0.253403 (Simulation time: 0 hr 30 min 26 sec) 
select_counter is 1023
Heartbeat CPU 0 instructions: 60000000 cycles: 202419046 heartbeat IPC: 0.284499 cumulative IPC: 0.253958 (Simulation time: 0 hr 30 min 53 sec) 
select_counter is 1023
Heartbeat CPU 0 instructions: 61000000 cycles: 205930240 heartbeat IPC: 0.284803 cumulative IPC: 0.254499 (Simulation time: 0 hr 31 min 20 sec) 
select_counter is 1023
Heartbeat CPU 0 instructions: 62000003 cycles: 209438077 heartbeat IPC: 0.285077 cumulative IPC: 0.255025 (Simulation time: 0 hr 31 min 46 sec) 
select_counter is 1023
Heartbeat CPU 0 instructions: 63000001 cycles: 212948407 heartbeat IPC: 0.284873 cumulative IPC: 0.25553 (Simulation time: 0 hr 32 min 13 sec) 
select_counter is 1023
Heartbeat CPU 0 instructions: 64000000 cycles: 216479057 heartbeat IPC: 0.283234 cumulative IPC: 0.255993 (Simulation time: 0 hr 32 min 39 sec) 
select_counter is 1023
Heartbeat CPU 0 instructions: 65000000 cycles: 220050103 heartbeat IPC: 0.28003 cumulative IPC: 0.256394 (Simulation time: 0 hr 33 min 5 sec) 
select_counter is 1023
Heartbeat CPU 0 instructions: 66000000 cycles: 223655884 heartbeat IPC: 0.277332 cumulative IPC: 0.25674 (Simulation time: 0 hr 33 min 31 sec) 
select_counter is 1023
Heartbeat CPU 0 instructions: 67000001 cycles: 227420400 heartbeat IPC: 0.265639 cumulative IPC: 0.256891 (Simulation time: 0 hr 33 min 58 sec) 
select_counter is 1023
Heartbeat CPU 0 instructions: 68000000 cycles: 231203530 heartbeat IPC: 0.264331 cumulative IPC: 0.257015 (Simulation time: 0 hr 34 min 26 sec) 
select_counter is 1023
Heartbeat CPU 0 instructions: 69000003 cycles: 234983814 heartbeat IPC: 0.264531 cumulative IPC: 0.257139 (Simulation time: 0 hr 34 min 54 sec) 
select_counter is 1020
Heartbeat CPU 0 instructions: 70000000 cycles: 238806804 heartbeat IPC: 0.261575 cumulative IPC: 0.257212 (Simulation time: 0 hr 35 min 22 sec) 
select_counter is 1021
Heartbeat CPU 0 instructions: 71000002 cycles: 242423900 heartbeat IPC: 0.276465 cumulative IPC: 0.257506 (Simulation time: 0 hr 35 min 50 sec) 
select_counter is 1023
Heartbeat CPU 0 instructions: 72000000 cycles: 246018242 heartbeat IPC: 0.278214 cumulative IPC: 0.257815 (Simulation time: 0 hr 36 min 17 sec) 
select_counter is 1023
Heartbeat CPU 0 instructions: 73000003 cycles: 249609786 heartbeat IPC: 0.278433 cumulative IPC: 0.258119 (Simulation time: 0 hr 36 min 44 sec) 
select_counter is 1023
Heartbeat CPU 0 instructions: 74000000 cycles: 253227967 heartbeat IPC: 0.276381 cumulative IPC: 0.258386 (Simulation time: 0 hr 37 min 11 sec) 
select_counter is 1022
Heartbeat CPU 0 instructions: 75000000 cycles: 256846496 heartbeat IPC: 0.276355 cumulative IPC: 0.258644 (Simulation time: 0 hr 37 min 38 sec) 
select_counter is 1022
Heartbeat CPU 0 instructions: 76000000 cycles: 260478618 heartbeat IPC: 0.275321 cumulative IPC: 0.258882 (Simulation time: 0 hr 38 min 8 sec) 
select_counter is 1022
Heartbeat CPU 0 instructions: 77000000 cycles: 264083532 heartbeat IPC: 0.277399 cumulative IPC: 0.25914 (Simulation time: 0 hr 38 min 34 sec) 
select_counter is 1021
Heartbeat CPU 0 instructions: 78000003 cycles: 267635813 heartbeat IPC: 0.28151 cumulative IPC: 0.259443 (Simulation time: 0 hr 39 min 0 sec) 
select_counter is 1023
Heartbeat CPU 0 instructions: 79000000 cycles: 271214156 heartbeat IPC: 0.279458 cumulative IPC: 0.259713 (Simulation time: 0 hr 39 min 25 sec) 
select_counter is 1022
Heartbeat CPU 0 instructions: 80000000 cycles: 274761592 heartbeat IPC: 0.281894 cumulative IPC: 0.260005 (Simulation time: 0 hr 39 min 49 sec) 
select_counter is 1023
Heartbeat CPU 0 instructions: 81000001 cycles: 278295963 heartbeat IPC: 0.282936 cumulative IPC: 0.260302 (Simulation time: 0 hr 40 min 12 sec) 
select_counter is 1022
Heartbeat CPU 0 instructions: 82000000 cycles: 281833144 heartbeat IPC: 0.282711 cumulative IPC: 0.260589 (Simulation time: 0 hr 40 min 35 sec) 
select_counter is 1023
Heartbeat CPU 0 instructions: 83000003 cycles: 285390153 heartbeat IPC: 0.281136 cumulative IPC: 0.26085 (Simulation time: 0 hr 40 min 59 sec) 
select_counter is 1022
Heartbeat CPU 0 instructions: 84000000 cycles: 288930096 heartbeat IPC: 0.28249 cumulative IPC: 0.261121 (Simulation time: 0 hr 41 min 21 sec) 
select_counter is 1022
Heartbeat CPU 0 instructions: 85000000 cycles: 292464344 heartbeat IPC: 0.282946 cumulative IPC: 0.261389 (Simulation time: 0 hr 41 min 43 sec) 
select_counter is 1023
Heartbeat CPU 0 instructions: 86000001 cycles: 296009932 heartbeat IPC: 0.282041 cumulative IPC: 0.261642 (Simulation time: 0 hr 42 min 5 sec) 
select_counter is 1023
Heartbeat CPU 0 instructions: 87000001 cycles: 299561228 heartbeat IPC: 0.281587 cumulative IPC: 0.261882 (Simulation time: 0 hr 42 min 27 sec) 
select_counter is 1023
Heartbeat CPU 0 instructions: 88000000 cycles: 303102167 heartbeat IPC: 0.282411 cumulative IPC: 0.262127 (Simulation time: 0 hr 42 min 49 sec) 
select_counter is 1021
Heartbeat CPU 0 instructions: 89000003 cycles: 306641498 heartbeat IPC: 0.28254 cumulative IPC: 0.262367 (Simulation time: 0 hr 43 min 9 sec) 
select_counter is 1023
Heartbeat CPU 0 instructions: 90000000 cycles: 310181067 heartbeat IPC: 0.282519 cumulative IPC: 0.262601 (Simulation time: 0 hr 43 min 29 sec) 
select_counter is 1022
Heartbeat CPU 0 instructions: 91000000 cycles: 313709304 heartbeat IPC: 0.283428 cumulative IPC: 0.262839 (Simulation time: 0 hr 43 min 47 sec) 
select_counter is 1022
Heartbeat CPU 0 instructions: 92000000 cycles: 317221233 heartbeat IPC: 0.284744 cumulative IPC: 0.263086 (Simulation time: 0 hr 44 min 6 sec) 
select_counter is 1023
Heartbeat CPU 0 instructions: 93000001 cycles: 320737408 heartbeat IPC: 0.2844 cumulative IPC: 0.263324 (Simulation time: 0 hr 44 min 24 sec) 
select_counter is 1021
Heartbeat CPU 0 instructions: 94000003 cycles: 324242985 heartbeat IPC: 0.28526 cumulative IPC: 0.263565 (Simulation time: 0 hr 44 min 42 sec) 
select_counter is 1023
Heartbeat CPU 0 instructions: 95000002 cycles: 327756291 heartbeat IPC: 0.284632 cumulative IPC: 0.263795 (Simulation time: 0 hr 44 min 58 sec) 
select_counter is 1023
Heartbeat CPU 0 instructions: 96000000 cycles: 331251824 heartbeat IPC: 0.286079 cumulative IPC: 0.264034 (Simulation time: 0 hr 45 min 13 sec) 
select_counter is 1023
Heartbeat CPU 0 instructions: 97000000 cycles: 334743498 heartbeat IPC: 0.286396 cumulative IPC: 0.264271 (Simulation time: 0 hr 45 min 28 sec) 
select_counter is 1021
Heartbeat CPU 0 instructions: 98000000 cycles: 338229056 heartbeat IPC: 0.286898 cumulative IPC: 0.264508 (Simulation time: 0 hr 45 min 43 sec) 
select_counter is 1023
Heartbeat CPU 0 instructions: 99000000 cycles: 341733436 heartbeat IPC: 0.285357 cumulative IPC: 0.264726 (Simulation time: 0 hr 45 min 58 sec) 
select_counter is 1022
Heartbeat CPU 0 instructions: 100000000 cycles: 345272156 heartbeat IPC: 0.282588 cumulative IPC: 0.264912 (Simulation time: 0 hr 46 min 12 sec) 
select_counter is 1023
Heartbeat CPU 0 instructions: 101000003 cycles: 348785840 heartbeat IPC: 0.284602 cumulative IPC: 0.265113 (Simulation time: 0 hr 46 min 26 sec) 
select_counter is 1022
Heartbeat CPU 0 instructions: 102000000 cycles: 352840618 heartbeat IPC: 0.246622 cumulative IPC: 0.264897 (Simulation time: 0 hr 46 min 39 sec) 
select_counter is 1020
Heartbeat CPU 0 instructions: 103000002 cycles: 357181480 heartbeat IPC: 0.230369 cumulative IPC: 0.264471 (Simulation time: 0 hr 46 min 52 sec) 
select_counter is 1022
Heartbeat CPU 0 instructions: 104000000 cycles: 361288618 heartbeat IPC: 0.243478 cumulative IPC: 0.264229 (Simulation time: 0 hr 47 min 4 sec) 
select_counter is 1021
Heartbeat CPU 0 instructions: 105000000 cycles: 365187374 heartbeat IPC: 0.256492 cumulative IPC: 0.264145 (Simulation time: 0 hr 47 min 14 sec) 
select_counter is 1022
Heartbeat CPU 0 instructions: 106000002 cycles: 369077527 heartbeat IPC: 0.25706 cumulative IPC: 0.264069 (Simulation time: 0 hr 47 min 25 sec) 
select_counter is 1021
Heartbeat CPU 0 instructions: 107000001 cycles: 373009668 heartbeat IPC: 0.254314 cumulative IPC: 0.263965 (Simulation time: 0 hr 47 min 34 sec) 
select_counter is 1023
Heartbeat CPU 0 instructions: 108000000 cycles: 376822793 heartbeat IPC: 0.262252 cumulative IPC: 0.263947 (Simulation time: 0 hr 47 min 43 sec) 
select_counter is 1023
Heartbeat CPU 0 instructions: 109000000 cycles: 380551769 heartbeat IPC: 0.26817 cumulative IPC: 0.263989 (Simulation time: 0 hr 47 min 51 sec) 
select_counter is 1023
Heartbeat CPU 0 instructions: 110000002 cycles: 384255419 heartbeat IPC: 0.270004 cumulative IPC: 0.264048 (Simulation time: 0 hr 47 min 58 sec) 
select_counter is 1023
Finished CPU 0 instructions: 100000001 cycles: 378719270 cummulative IPC: 0.264048 (Simulation time: 0 hr 47 min 58 sec) 

ChampSim completed all CPUs

Region of Interest Statistics

CPU 0 cummulative IPC: 0.264048 instructions: 100000001 cycles: 378719270
LLC TOTAL     ACCESS:    2540846  HIT:     290434  MISS:    2250412
LLC LOAD      ACCESS:     647802  HIT:      66356  MISS:     581446
LLC RFO       ACCESS:     277454  HIT:      28637  MISS:     248817
LLC PREFETCH  ACCESS:    1132358  HIT:      64808  MISS:    1067550
LLC WRITEBACK ACCESS:     483232  HIT:     130633  MISS:     352599
Insertion Distribution: 
	LOAD 1125 0 0 0 0 0 1485 18355 
	RFO 499 0 0 0 0 0 1484 9210 
	PREF 0 382 0 0 0 0 2854 36590 
	WRITEBACK 0 0 0 0 0 0 0 14797 
Total Prefetch Downgrades: 280
