Initialize SIGNATURE TABLE
ST_SET: 1
ST_WAY: 256
ST_TAG_BIT: 16
ST_TAG_MASK: ffff

Initialize PATTERN TABLE
PT_SET: 512
PT_WAY: 4
SIG_DELTA_BIT: 7
C_SIG_BIT: 4
C_DELTA_BIT: 4

Initialize PREFETCH FILTER
FILTER_SET: 1024

*** ChampSim Multicore Out-of-Order Simulator ***

Warmup Instructions: 50000000
Simulation Instructions: 50000000
Number of CPUs: 1
LLC sets: 2048
LLC ways: 16
Off-chip DRAM Size: 4096 MB Channels: 1 Width: 64-bit Data Rate: 3200 MT/s

CPU 0 runs /Users/gandhardeshpande/Desktop/CSE240C/HW1/ChampSim/ipc1_public/client_004.champsimtrace.xz
L1I Barca has been initializedCPU 0 L1D next line prefetcher
Heartbeat CPU 0 instructions: 10000000 cycles: 3592902 heartbeat IPC: 2.78327 cumulative IPC: 2.78327 (Simulation time: 0 hr 0 min 27 sec) 
Heartbeat CPU 0 instructions: 20000003 cycles: 7057573 heartbeat IPC: 2.88628 cumulative IPC: 2.83384 (Simulation time: 0 hr 0 min 48 sec) 
Heartbeat CPU 0 instructions: 30000000 cycles: 10648468 heartbeat IPC: 2.78482 cumulative IPC: 2.81731 (Simulation time: 0 hr 1 min 13 sec) 
Heartbeat CPU 0 instructions: 40000003 cycles: 14329947 heartbeat IPC: 2.7163 cumulative IPC: 2.79136 (Simulation time: 0 hr 1 min 41 sec) 
Heartbeat CPU 0 instructions: 50000001 cycles: 17848373 heartbeat IPC: 2.84218 cumulative IPC: 2.80138 (Simulation time: 0 hr 2 min 11 sec) 

Warmup complete CPU 0 instructions: 50000001 cycles: 17848373 (Simulation time: 0 hr 2 min 11 sec) 

Heartbeat CPU 0 instructions: 60000002 cycles: 25458466 heartbeat IPC: 1.31404 cumulative IPC: 1.31404 (Simulation time: 0 hr 2 min 34 sec) 
Heartbeat CPU 0 instructions: 70000001 cycles: 33190678 heartbeat IPC: 1.29329 cumulative IPC: 1.30359 (Simulation time: 0 hr 3 min 11 sec) 
Heartbeat CPU 0 instructions: 80000002 cycles: 41561853 heartbeat IPC: 1.19458 cumulative IPC: 1.2651 (Simulation time: 0 hr 3 min 37 sec) 
Heartbeat CPU 0 instructions: 90000000 cycles: 49513808 heartbeat IPC: 1.25755 cumulative IPC: 1.26321 (Simulation time: 0 hr 4 min 4 sec) 
Heartbeat CPU 0 instructions: 100000002 cycles: 57158393 heartbeat IPC: 1.30812 cumulative IPC: 1.27194 (Simulation time: 0 hr 4 min 34 sec) 
Finished CPU 0 instructions: 50000001 cycles: 39310020 cumulative IPC: 1.27194 (Simulation time: 0 hr 4 min 34 sec) 

ChampSim completed all CPUs

Region of Interest Statistics

CPU 0 cumulative IPC: 1.27194 instructions: 50000001 cycles: 39310020
L1D TOTAL     ACCESS:   21914446  HIT:   21025536  MISS:     888910
L1D LOAD      ACCESS:    8701045  HIT:    8304856  MISS:     396189
L1D RFO       ACCESS:    4807217  HIT:    4685709  MISS:     121508
L1D PREFETCH  ACCESS:    8406184  HIT:    8034971  MISS:     371213
L1D WRITEBACK ACCESS:          0  HIT:          0  MISS:          0
L1D PREFETCH  REQUESTED:    8741295  ISSUED:    8581660  USEFUL:     132755  USELESS:     238466
L1D AVERAGE MISS LATENCY: 30.3161 cycles
L1I TOTAL     ACCESS:   10885371  HIT:    9625998  MISS:    1259373
L1I LOAD      ACCESS:    9391673  HIT:    9290444  MISS:     101229
L1I RFO       ACCESS:          0  HIT:          0  MISS:          0
L1I PREFETCH  ACCESS:    1493698  HIT:     335554  MISS:    1158144
L1I WRITEBACK ACCESS:          0  HIT:          0  MISS:          0
L1I PREFETCH  REQUESTED:    1657224  ISSUED:    1657224  USEFUL:     592541  USELESS:     565579
L1I AVERAGE MISS LATENCY: 21.6009 cycles
L2C TOTAL     ACCESS:    3069251  HIT:    2771379  MISS:     297872
L2C LOAD      ACCESS:     429196  HIT:     373959  MISS:      55237
L2C RFO       ACCESS:     117411  HIT:      44992  MISS:      72419
L2C PREFETCH  ACCESS:    2300634  HIT:    2131126  MISS:     169508
L2C WRITEBACK ACCESS:     222010  HIT:     221302  MISS:        708
L2C PREFETCH  REQUESTED:    1486428  ISSUED:    1486186  USEFUL:      21207  USELESS:     146709
L2C AVERAGE MISS LATENCY: 85.6499 cycles
LLC TOTAL     ACCESS:     693577  HIT:     569217  MISS:     124360
LLC LOAD      ACCESS:      55230  HIT:      40131  MISS:      15099
LLC RFO       ACCESS:      72417  HIT:      41594  MISS:      30823
LLC PREFETCH  ACCESS:     464158  HIT:     385894  MISS:      78264
LLC WRITEBACK ACCESS:     101772  HIT:     101598  MISS:        174
LLC PREFETCH  REQUESTED:          0  ISSUED:          0  USEFUL:      14963  USELESS:      62529
LLC AVERAGE MISS LATENCY: 189.414 cycles
Major fault: 0 Minor fault: 3976
CPU 0 L1D next line prefetcher final stats

DRAM Statistics
 CHANNEL 0
 RQ ROW_BUFFER_HIT:      33467  ROW_BUFFER_MISS:      90704
 DBUS_CONGESTED:      56067
 WQ ROW_BUFFER_HIT:       7526  ROW_BUFFER_MISS:      34778  FULL:          0

 AVG_CONGESTED_CYCLE: 5

CPU 0 Branch Prediction Accuracy: 94.1242% MPKI: 11.6089 Average ROB Occupancy at Mispredict: 57.5127

Branch types
NOT_BRANCH: 40121072 80.2421%
BRANCH_DIRECT_JUMP: 644555 1.28911%
BRANCH_INDIRECT: 201946 0.403892%
BRANCH_CONDITIONAL: 7003556 14.0071%
BRANCH_DIRECT_CALL: 564821 1.12964%
BRANCH_INDIRECT_CALL: 445012 0.890024%
BRANCH_RETURN: 1018716 2.03743%
BRANCH_OTHER: 0 0%

