Initialize SIGNATURE TABLE
ST_SET: 1
ST_WAY: 256
ST_TAG_BIT: 16
ST_TAG_MASK: ffff

Initialize PATTERN TABLE
PT_SET: 512
PT_WAY: 4
SIG_DELTA_BIT: 7
C_SIG_BIT: 4
C_DELTA_BIT: 4

Initialize PREFETCH FILTER
FILTER_SET: 1024

*** ChampSim Multicore Out-of-Order Simulator ***

Warmup Instructions: 50000000
Simulation Instructions: 50000000
Number of CPUs: 1
LLC sets: 2048
LLC ways: 16
Off-chip DRAM Size: 4096 MB Channels: 1 Width: 64-bit Data Rate: 3200 MT/s

CPU 0 runs /Users/gandhardeshpande/Desktop/CSE240C/HW1/ChampSim/ipc1_public/server_012.champsimtrace.xz
L1I Barca has been initializedCPU 0 L1D next line prefetcher
Heartbeat CPU 0 instructions: 10000002 cycles: 3197376 heartbeat IPC: 3.12757 cumulative IPC: 3.12757 (Simulation time: 0 hr 0 min 19 sec) 
Heartbeat CPU 0 instructions: 20000002 cycles: 6396593 heartbeat IPC: 3.12576 cumulative IPC: 3.12666 (Simulation time: 0 hr 0 min 38 sec) 
Heartbeat CPU 0 instructions: 30000001 cycles: 9596930 heartbeat IPC: 3.12467 cumulative IPC: 3.126 (Simulation time: 0 hr 0 min 57 sec) 
Heartbeat CPU 0 instructions: 40000000 cycles: 12802859 heartbeat IPC: 3.11922 cumulative IPC: 3.1243 (Simulation time: 0 hr 1 min 16 sec) 
Heartbeat CPU 0 instructions: 50000003 cycles: 16001183 heartbeat IPC: 3.12664 cumulative IPC: 3.12477 (Simulation time: 0 hr 1 min 35 sec) 

Warmup complete CPU 0 instructions: 50000003 cycles: 16001183 (Simulation time: 0 hr 1 min 35 sec) 

Heartbeat CPU 0 instructions: 60000002 cycles: 23066716 heartbeat IPC: 1.41532 cumulative IPC: 1.41532 (Simulation time: 0 hr 1 min 53 sec) 
Heartbeat CPU 0 instructions: 70000000 cycles: 30097346 heartbeat IPC: 1.42235 cumulative IPC: 1.41883 (Simulation time: 0 hr 2 min 12 sec) 
Heartbeat CPU 0 instructions: 80000003 cycles: 37160277 heartbeat IPC: 1.41584 cumulative IPC: 1.41783 (Simulation time: 0 hr 2 min 30 sec) 
Heartbeat CPU 0 instructions: 90000001 cycles: 44452060 heartbeat IPC: 1.37141 cumulative IPC: 1.40593 (Simulation time: 0 hr 2 min 49 sec) 
Heartbeat CPU 0 instructions: 100000002 cycles: 51631912 heartbeat IPC: 1.39279 cumulative IPC: 1.40328 (Simulation time: 0 hr 3 min 8 sec) 
Finished CPU 0 instructions: 50000001 cycles: 35630730 cumulative IPC: 1.40328 (Simulation time: 0 hr 3 min 8 sec) 

ChampSim completed all CPUs

Region of Interest Statistics

CPU 0 cumulative IPC: 1.40328 instructions: 50000001 cycles: 35630730
L1D TOTAL     ACCESS:   17331231  HIT:   16288312  MISS:    1042919
L1D LOAD      ACCESS:    6305084  HIT:    5817114  MISS:     487970
L1D RFO       ACCESS:    4962867  HIT:    4881047  MISS:      81820
L1D PREFETCH  ACCESS:    6063280  HIT:    5590151  MISS:     473129
L1D WRITEBACK ACCESS:          0  HIT:          0  MISS:          0
L1D PREFETCH  REQUESTED:    6339231  ISSUED:    6240221  USEFUL:     132447  USELESS:     340703
L1D AVERAGE MISS LATENCY: 39.3013 cycles
L1I TOTAL     ACCESS:   10707939  HIT:    8867822  MISS:    1840117
L1I LOAD      ACCESS:    8692825  HIT:    8503169  MISS:     189656
L1I RFO       ACCESS:          0  HIT:          0  MISS:          0
L1I PREFETCH  ACCESS:    2015114  HIT:     364653  MISS:    1650461
L1I WRITEBACK ACCESS:          0  HIT:          0  MISS:          0
L1I PREFETCH  REQUESTED:    2332472  ISSUED:    2332472  USEFUL:    1211784  USELESS:     438638
L1I AVERAGE MISS LATENCY: 27.5866 cycles
L2C TOTAL     ACCESS:    3731105  HIT:    2523807  MISS:    1207298
L2C LOAD      ACCESS:     531493  HIT:     268226  MISS:     263267
L2C RFO       ACCESS:      80645  HIT:      33117  MISS:      47528
L2C PREFETCH  ACCESS:    2843494  HIT:    1947854  MISS:     895640
L2C WRITEBACK ACCESS:     275473  HIT:     274610  MISS:        863
L2C PREFETCH  REQUESTED:    2455686  ISSUED:    2453074  USEFUL:      26379  USELESS:     869100
L2C AVERAGE MISS LATENCY: 43.7654 cycles
LLC TOTAL     ACCESS:    2178606  HIT:    2055524  MISS:     123082
LLC LOAD      ACCESS:     263168  HIT:     246531  MISS:      16637
LLC RFO       ACCESS:      47525  HIT:      38121  MISS:       9404
LLC PREFETCH  ACCESS:    1705731  HIT:    1608878  MISS:      96853
LLC WRITEBACK ACCESS:     162182  HIT:     161994  MISS:        188
LLC PREFETCH  REQUESTED:          0  ISSUED:          0  USEFUL:       8721  USELESS:      88052
LLC AVERAGE MISS LATENCY: 173.362 cycles
Major fault: 0 Minor fault: 5596
CPU 0 L1D next line prefetcher final stats

DRAM Statistics
 CHANNEL 0
 RQ ROW_BUFFER_HIT:      20053  ROW_BUFFER_MISS:     102833
 DBUS_CONGESTED:      54519
 WQ ROW_BUFFER_HIT:      10819  ROW_BUFFER_MISS:      47060  FULL:          0

 AVG_CONGESTED_CYCLE: 5

CPU 0 Branch Prediction Accuracy: 99.4607% MPKI: 1.00288 Average ROB Occupancy at Mispredict: 120.377

Branch types
NOT_BRANCH: 40701161 81.4023%
BRANCH_DIRECT_JUMP: 469810 0.93962%
BRANCH_INDIRECT: 153732 0.307464%
BRANCH_CONDITIONAL: 6944091 13.8882%
BRANCH_DIRECT_CALL: 679880 1.35976%
BRANCH_INDIRECT_CALL: 168745 0.33749%
BRANCH_RETURN: 882493 1.76499%
BRANCH_OTHER: 0 0%

