Initialize SIGNATURE TABLE
ST_SET: 1
ST_WAY: 256
ST_TAG_BIT: 16
ST_TAG_MASK: ffff

Initialize PATTERN TABLE
PT_SET: 512
PT_WAY: 4
SIG_DELTA_BIT: 7
C_SIG_BIT: 4
C_DELTA_BIT: 4

Initialize PREFETCH FILTER
FILTER_SET: 1024

*** ChampSim Multicore Out-of-Order Simulator ***

Warmup Instructions: 50000000
Simulation Instructions: 50000000
Number of CPUs: 1
LLC sets: 2048
LLC ways: 16
Off-chip DRAM Size: 4096 MB Channels: 1 Width: 64-bit Data Rate: 3200 MT/s

CPU 0 runs /Users/gandhardeshpande/Desktop/CSE240C/HW1/ChampSim/ipc1_public/spec_gcc_002.champsimtrace.xz
L1I Barca has been initializedCPU 0 L1D next line prefetcher
Heartbeat CPU 0 instructions: 10000002 cycles: 3587316 heartbeat IPC: 2.7876 cumulative IPC: 2.7876 (Simulation time: 0 hr 0 min 15 sec) 
Heartbeat CPU 0 instructions: 20000000 cycles: 7175172 heartbeat IPC: 2.78718 cumulative IPC: 2.78739 (Simulation time: 0 hr 0 min 29 sec) 
Heartbeat CPU 0 instructions: 30000000 cycles: 10808780 heartbeat IPC: 2.75209 cumulative IPC: 2.77552 (Simulation time: 0 hr 0 min 46 sec) 
Heartbeat CPU 0 instructions: 40000000 cycles: 14369013 heartbeat IPC: 2.8088 cumulative IPC: 2.78377 (Simulation time: 0 hr 1 min 0 sec) 
Heartbeat CPU 0 instructions: 50000002 cycles: 17871071 heartbeat IPC: 2.85546 cumulative IPC: 2.79782 (Simulation time: 0 hr 1 min 14 sec) 

Warmup complete CPU 0 instructions: 50000002 cycles: 17871071 (Simulation time: 0 hr 1 min 14 sec) 

Heartbeat CPU 0 instructions: 60000001 cycles: 49456350 heartbeat IPC: 0.316603 cumulative IPC: 0.316603 (Simulation time: 0 hr 1 min 42 sec) 
Heartbeat CPU 0 instructions: 70000001 cycles: 80167843 heartbeat IPC: 0.325611 cumulative IPC: 0.321044 (Simulation time: 0 hr 2 min 11 sec) 
Heartbeat CPU 0 instructions: 80000002 cycles: 125882727 heartbeat IPC: 0.218747 cumulative IPC: 0.277748 (Simulation time: 0 hr 2 min 44 sec) 
Heartbeat CPU 0 instructions: 90000001 cycles: 166993962 heartbeat IPC: 0.243242 cumulative IPC: 0.268235 (Simulation time: 0 hr 3 min 16 sec) 
Heartbeat CPU 0 instructions: 100000000 cycles: 190038317 heartbeat IPC: 0.433946 cumulative IPC: 0.290415 (Simulation time: 0 hr 3 min 42 sec) 
Finished CPU 0 instructions: 50000002 cycles: 172167254 cumulative IPC: 0.290415 (Simulation time: 0 hr 3 min 42 sec) 

ChampSim completed all CPUs

Region of Interest Statistics

CPU 0 cumulative IPC: 0.290415 instructions: 50000002 cycles: 172167254
L1D TOTAL     ACCESS:   18323746  HIT:   13090120  MISS:    5233626
L1D LOAD      ACCESS:    6353559  HIT:    5342442  MISS:    1011117
L1D RFO       ACCESS:    7072939  HIT:    3472325  MISS:    3600614
L1D PREFETCH  ACCESS:    4897248  HIT:    4275353  MISS:     621895
L1D WRITEBACK ACCESS:          0  HIT:          0  MISS:          0
L1D PREFETCH  REQUESTED:    6373680  ISSUED:    6303142  USEFUL:     462105  USELESS:     160006
L1D AVERAGE MISS LATENCY: 317.445 cycles
L1I TOTAL     ACCESS:   13390000  HIT:   12196595  MISS:    1193405
L1I LOAD      ACCESS:   12002767  HIT:   11884877  MISS:     117890
L1I RFO       ACCESS:          0  HIT:          0  MISS:          0
L1I PREFETCH  ACCESS:    1387233  HIT:     311718  MISS:    1075515
L1I WRITEBACK ACCESS:          0  HIT:          0  MISS:          0
L1I PREFETCH  REQUESTED:    1605542  ISSUED:    1605542  USEFUL:     619892  USELESS:     455611
L1I AVERAGE MISS LATENCY: 43.8123 cycles
L2C TOTAL     ACCESS:   10640371  HIT:    5279695  MISS:    5360676
L2C LOAD      ACCESS:     304836  HIT:     120840  MISS:     183996
L2C RFO       ACCESS:    3599065  HIT:      10948  MISS:    3588117
L2C PREFETCH  ACCESS:    3010980  HIT:    1422507  MISS:    1588473
L2C WRITEBACK ACCESS:    3725490  HIT:    3725400  MISS:         90
L2C PREFETCH  REQUESTED:    3321594  ISSUED:    3321374  USEFUL:      28208  USELESS:    1560441
L2C AVERAGE MISS LATENCY: 316.864 cycles
LLC TOTAL     ACCESS:   10206609  HIT:    7066066  MISS:    3140543
LLC LOAD      ACCESS:     183869  HIT:     137326  MISS:      46543
LLC RFO       ACCESS:    3588118  HIT:     955845  MISS:    2632273
LLC PREFETCH  ACCESS:    2761139  HIT:    2299412  MISS:     461727
LLC WRITEBACK ACCESS:    3673483  HIT:    3673483  MISS:          0
LLC PREFETCH  REQUESTED:          0  ISSUED:          0  USEFUL:     180995  USELESS:     281402
LLC AVERAGE MISS LATENCY: 506.866 cycles
Major fault: 0 Minor fault: 4152
CPU 0 L1D next line prefetcher final stats

DRAM Statistics
 CHANNEL 0
 RQ ROW_BUFFER_HIT:     850210  ROW_BUFFER_MISS:    2288662
 DBUS_CONGESTED:    4909478
 WQ ROW_BUFFER_HIT:     802454  ROW_BUFFER_MISS:    2028334  FULL:          0

 AVG_CONGESTED_CYCLE: 6

CPU 0 Branch Prediction Accuracy: 99.5987% MPKI: 0.82446 Average ROB Occupancy at Mispredict: 128.855

Branch types
NOT_BRANCH: 39726803 79.4536%
BRANCH_DIRECT_JUMP: 391438 0.782876%
BRANCH_INDIRECT: 62076 0.124152%
BRANCH_CONDITIONAL: 8421539 16.8431%
BRANCH_DIRECT_CALL: 672962 1.34592%
BRANCH_INDIRECT_CALL: 26115 0.05223%
BRANCH_RETURN: 699082 1.39816%
BRANCH_OTHER: 0 0%

