
*** ChampSim Multicore Out-of-Order Simulator ***

Warmup Instructions: 10000000
Simulation Instructions: 100000000
Configuration: 2
Number of CPUs: 1
LLC sets: 2048
LLC ways: 16
Off-chip DRAM Channels: 1 Width: 64-bit Data Rate: 1600 MT/s

CPU 0 runs /datasets/cs240c-wi22-a00-public/data/Assignment2-gz/wrf_1650B.trace.gz
CPU 0 L1D next line prefetcher
CPU 0 L2C IP-based stride prefetcher
Initialize SRRIP state
Heartbeat CPU 0 instructions: 1000000 cycles: 514299 heartbeat IPC: 1.94439 cumulative IPC: 1.94439 (Simulation time: 0 hr 0 min 33 sec) 
Heartbeat CPU 0 instructions: 2000000 cycles: 1028473 heartbeat IPC: 1.94487 cumulative IPC: 1.94463 (Simulation time: 0 hr 1 min 5 sec) 
Heartbeat CPU 0 instructions: 3000001 cycles: 1546184 heartbeat IPC: 1.93158 cumulative IPC: 1.94026 (Simulation time: 0 hr 1 min 38 sec) 
Heartbeat CPU 0 instructions: 4000000 cycles: 2063940 heartbeat IPC: 1.93141 cumulative IPC: 1.93804 (Simulation time: 0 hr 2 min 12 sec) 
Heartbeat CPU 0 instructions: 5000001 cycles: 2581687 heartbeat IPC: 1.93145 cumulative IPC: 1.93672 (Simulation time: 0 hr 2 min 46 sec) 
Heartbeat CPU 0 instructions: 6000003 cycles: 3099505 heartbeat IPC: 1.93118 cumulative IPC: 1.93579 (Simulation time: 0 hr 3 min 25 sec) 
Heartbeat CPU 0 instructions: 7000000 cycles: 3617214 heartbeat IPC: 1.93158 cumulative IPC: 1.93519 (Simulation time: 0 hr 4 min 0 sec) 
Heartbeat CPU 0 instructions: 8000000 cycles: 4135023 heartbeat IPC: 1.93121 cumulative IPC: 1.93469 (Simulation time: 0 hr 4 min 34 sec) 
Heartbeat CPU 0 instructions: 9000001 cycles: 4649336 heartbeat IPC: 1.94434 cumulative IPC: 1.93576 (Simulation time: 0 hr 5 min 8 sec) 
Heartbeat CPU 0 instructions: 10000001 cycles: 5163453 heartbeat IPC: 1.94508 cumulative IPC: 1.93669 (Simulation time: 0 hr 5 min 41 sec) 

Warmup complete CPU 0 instructions: 10000001 cycles: 5163453 (Simulation time: 0 hr 5 min 41 sec) 

Heartbeat CPU 0 instructions: 11000000 cycles: 6646675 heartbeat IPC: 0.674207 cumulative IPC: 0.674207 (Simulation time: 0 hr 6 min 28 sec) 
Heartbeat CPU 0 instructions: 12000000 cycles: 8135729 heartbeat IPC: 0.671567 cumulative IPC: 0.672885 (Simulation time: 0 hr 7 min 11 sec) 
Heartbeat CPU 0 instructions: 13000002 cycles: 9629724 heartbeat IPC: 0.669348 cumulative IPC: 0.671701 (Simulation time: 0 hr 7 min 52 sec) 
Heartbeat CPU 0 instructions: 14000002 cycles: 11124015 heartbeat IPC: 0.669214 cumulative IPC: 0.671078 (Simulation time: 0 hr 8 min 36 sec) 
Heartbeat CPU 0 instructions: 15000001 cycles: 12618833 heartbeat IPC: 0.668977 cumulative IPC: 0.670657 (Simulation time: 0 hr 9 min 14 sec) 
Heartbeat CPU 0 instructions: 16000000 cycles: 14113265 heartbeat IPC: 0.66915 cumulative IPC: 0.670405 (Simulation time: 0 hr 9 min 51 sec) 
Heartbeat CPU 0 instructions: 17000000 cycles: 15607540 heartbeat IPC: 0.669221 cumulative IPC: 0.670236 (Simulation time: 0 hr 10 min 37 sec) 
Heartbeat CPU 0 instructions: 18000001 cycles: 17095469 heartbeat IPC: 0.672076 cumulative IPC: 0.670465 (Simulation time: 0 hr 11 min 20 sec) 
Heartbeat CPU 0 instructions: 19000003 cycles: 18577611 heartbeat IPC: 0.674701 cumulative IPC: 0.670933 (Simulation time: 0 hr 12 min 7 sec) 
Heartbeat CPU 0 instructions: 20000000 cycles: 20060902 heartbeat IPC: 0.674175 cumulative IPC: 0.671256 (Simulation time: 0 hr 12 min 54 sec) 
Heartbeat CPU 0 instructions: 21000000 cycles: 21544828 heartbeat IPC: 0.673888 cumulative IPC: 0.671494 (Simulation time: 0 hr 13 min 37 sec) 
Heartbeat CPU 0 instructions: 22000000 cycles: 23038726 heartbeat IPC: 0.66939 cumulative IPC: 0.671318 (Simulation time: 0 hr 14 min 23 sec) 
Heartbeat CPU 0 instructions: 23000003 cycles: 24534146 heartbeat IPC: 0.66871 cumulative IPC: 0.671117 (Simulation time: 0 hr 15 min 6 sec) 
Heartbeat CPU 0 instructions: 24000000 cycles: 26027752 heartbeat IPC: 0.669519 cumulative IPC: 0.671003 (Simulation time: 0 hr 15 min 55 sec) 
Heartbeat CPU 0 instructions: 25000000 cycles: 27522673 heartbeat IPC: 0.668932 cumulative IPC: 0.670864 (Simulation time: 0 hr 16 min 42 sec) 
Heartbeat CPU 0 instructions: 26000001 cycles: 29017430 heartbeat IPC: 0.669006 cumulative IPC: 0.670748 (Simulation time: 0 hr 17 min 27 sec) 
Heartbeat CPU 0 instructions: 27000003 cycles: 30510702 heartbeat IPC: 0.669672 cumulative IPC: 0.670684 (Simulation time: 0 hr 18 min 8 sec) 
Heartbeat CPU 0 instructions: 28000000 cycles: 31993187 heartbeat IPC: 0.674541 cumulative IPC: 0.670897 (Simulation time: 0 hr 18 min 49 sec) 
Heartbeat CPU 0 instructions: 29000001 cycles: 33476108 heartbeat IPC: 0.674345 cumulative IPC: 0.671078 (Simulation time: 0 hr 19 min 34 sec) 
Heartbeat CPU 0 instructions: 30000001 cycles: 34959463 heartbeat IPC: 0.674147 cumulative IPC: 0.671231 (Simulation time: 0 hr 20 min 20 sec) 
Heartbeat CPU 0 instructions: 31000000 cycles: 36450339 heartbeat IPC: 0.670746 cumulative IPC: 0.671208 (Simulation time: 0 hr 21 min 3 sec) 
Heartbeat CPU 0 instructions: 32000000 cycles: 37944205 heartbeat IPC: 0.669404 cumulative IPC: 0.671126 (Simulation time: 0 hr 21 min 47 sec) 
Heartbeat CPU 0 instructions: 33000001 cycles: 39438165 heartbeat IPC: 0.669363 cumulative IPC: 0.671049 (Simulation time: 0 hr 22 min 29 sec) 
Heartbeat CPU 0 instructions: 34000002 cycles: 40932447 heartbeat IPC: 0.669218 cumulative IPC: 0.670972 (Simulation time: 0 hr 23 min 10 sec) 
Heartbeat CPU 0 instructions: 35000001 cycles: 42427793 heartbeat IPC: 0.668741 cumulative IPC: 0.670883 (Simulation time: 0 hr 23 min 56 sec) 
Heartbeat CPU 0 instructions: 36000000 cycles: 43922710 heartbeat IPC: 0.668933 cumulative IPC: 0.670807 (Simulation time: 0 hr 24 min 43 sec) 
Heartbeat CPU 0 instructions: 37000003 cycles: 45408870 heartbeat IPC: 0.672877 cumulative IPC: 0.670884 (Simulation time: 0 hr 25 min 27 sec) 
Heartbeat CPU 0 instructions: 38000000 cycles: 46891586 heartbeat IPC: 0.674436 cumulative IPC: 0.67101 (Simulation time: 0 hr 26 min 13 sec) 
Heartbeat CPU 0 instructions: 39000001 cycles: 48375465 heartbeat IPC: 0.67391 cumulative IPC: 0.67111 (Simulation time: 0 hr 27 min 0 sec) 
Heartbeat CPU 0 instructions: 40000000 cycles: 49861326 heartbeat IPC: 0.67301 cumulative IPC: 0.671173 (Simulation time: 0 hr 27 min 39 sec) 
Heartbeat CPU 0 instructions: 41000000 cycles: 51355412 heartbeat IPC: 0.669306 cumulative IPC: 0.671112 (Simulation time: 0 hr 28 min 25 sec) 
Heartbeat CPU 0 instructions: 42000001 cycles: 52851232 heartbeat IPC: 0.66853 cumulative IPC: 0.671031 (Simulation time: 0 hr 29 min 11 sec) 
Heartbeat CPU 0 instructions: 43000001 cycles: 54345355 heartbeat IPC: 0.669289 cumulative IPC: 0.670979 (Simulation time: 0 hr 29 min 55 sec) 
Heartbeat CPU 0 instructions: 44000000 cycles: 55840997 heartbeat IPC: 0.668609 cumulative IPC: 0.670909 (Simulation time: 0 hr 30 min 38 sec) 
Heartbeat CPU 0 instructions: 45000000 cycles: 57335388 heartbeat IPC: 0.669169 cumulative IPC: 0.670859 (Simulation time: 0 hr 31 min 22 sec) 
Heartbeat CPU 0 instructions: 46000002 cycles: 59611489 heartbeat IPC: 0.439349 cumulative IPC: 0.661181 (Simulation time: 0 hr 32 min 7 sec) 
Heartbeat CPU 0 instructions: 47000002 cycles: 61178690 heartbeat IPC: 0.63808 cumulative IPC: 0.660535 (Simulation time: 0 hr 32 min 48 sec) 
Heartbeat CPU 0 instructions: 48000000 cycles: 62845494 heartbeat IPC: 0.599949 cumulative IPC: 0.658784 (Simulation time: 0 hr 33 min 35 sec) 
Heartbeat CPU 0 instructions: 49000001 cycles: 64520918 heartbeat IPC: 0.596864 cumulative IPC: 0.657036 (Simulation time: 0 hr 34 min 12 sec) 
Heartbeat CPU 0 instructions: 50000000 cycles: 66195691 heartbeat IPC: 0.597095 cumulative IPC: 0.655391 (Simulation time: 0 hr 34 min 52 sec) 
Heartbeat CPU 0 instructions: 51000000 cycles: 68000815 heartbeat IPC: 0.553979 cumulative IPC: 0.652478 (Simulation time: 0 hr 35 min 35 sec) 
Heartbeat CPU 0 instructions: 52000000 cycles: 69756522 heartbeat IPC: 0.569571 cumulative IPC: 0.650225 (Simulation time: 0 hr 36 min 13 sec) 
Heartbeat CPU 0 instructions: 53000002 cycles: 70791139 heartbeat IPC: 0.966543 cumulative IPC: 0.655211 (Simulation time: 0 hr 36 min 54 sec) 
Heartbeat CPU 0 instructions: 54000001 cycles: 71704617 heartbeat IPC: 1.09472 cumulative IPC: 0.661245 (Simulation time: 0 hr 37 min 32 sec) 
Heartbeat CPU 0 instructions: 55000000 cycles: 72607156 heartbeat IPC: 1.10798 cumulative IPC: 0.667223 (Simulation time: 0 hr 38 min 8 sec) 
Heartbeat CPU 0 instructions: 56000000 cycles: 73488520 heartbeat IPC: 1.13461 cumulative IPC: 0.673252 (Simulation time: 0 hr 38 min 48 sec) 
Heartbeat CPU 0 instructions: 57000001 cycles: 74376057 heartbeat IPC: 1.12671 cumulative IPC: 0.679067 (Simulation time: 0 hr 39 min 21 sec) 
Heartbeat CPU 0 instructions: 58000002 cycles: 75259822 heartbeat IPC: 1.13152 cumulative IPC: 0.684772 (Simulation time: 0 hr 39 min 58 sec) 
Heartbeat CPU 0 instructions: 59000003 cycles: 76144668 heartbeat IPC: 1.13014 cumulative IPC: 0.690324 (Simulation time: 0 hr 40 min 33 sec) 
Heartbeat CPU 0 instructions: 60000000 cycles: 77034333 heartbeat IPC: 1.12402 cumulative IPC: 0.695692 (Simulation time: 0 hr 41 min 7 sec) 
Heartbeat CPU 0 instructions: 61000003 cycles: 78327089 heartbeat IPC: 0.773543 cumulative IPC: 0.697068 (Simulation time: 0 hr 41 min 47 sec) 
Heartbeat CPU 0 instructions: 62000002 cycles: 79815252 heartbeat IPC: 0.671969 cumulative IPC: 0.696567 (Simulation time: 0 hr 42 min 30 sec) 
Heartbeat CPU 0 instructions: 63000002 cycles: 81301039 heartbeat IPC: 0.673044 cumulative IPC: 0.696108 (Simulation time: 0 hr 43 min 9 sec) 
Heartbeat CPU 0 instructions: 64000000 cycles: 82787312 heartbeat IPC: 0.672823 cumulative IPC: 0.695662 (Simulation time: 0 hr 43 min 50 sec) 
Heartbeat CPU 0 instructions: 65000001 cycles: 84275224 heartbeat IPC: 0.672083 cumulative IPC: 0.695219 (Simulation time: 0 hr 44 min 27 sec) 
Heartbeat CPU 0 instructions: 66000000 cycles: 85760901 heartbeat IPC: 0.673093 cumulative IPC: 0.694811 (Simulation time: 0 hr 45 min 7 sec) 
Heartbeat CPU 0 instructions: 67000001 cycles: 87249579 heartbeat IPC: 0.671738 cumulative IPC: 0.694393 (Simulation time: 0 hr 45 min 46 sec) 
Heartbeat CPU 0 instructions: 68000000 cycles: 88735400 heartbeat IPC: 0.673028 cumulative IPC: 0.694013 (Simulation time: 0 hr 46 min 26 sec) 
Heartbeat CPU 0 instructions: 69000002 cycles: 90221074 heartbeat IPC: 0.673097 cumulative IPC: 0.693647 (Simulation time: 0 hr 47 min 3 sec) 
Heartbeat CPU 0 instructions: 70000000 cycles: 91707574 heartbeat IPC: 0.67272 cumulative IPC: 0.693288 (Simulation time: 0 hr 47 min 40 sec) 
Heartbeat CPU 0 instructions: 71000001 cycles: 93194672 heartbeat IPC: 0.672451 cumulative IPC: 0.692936 (Simulation time: 0 hr 48 min 20 sec) 
Heartbeat CPU 0 instructions: 72000000 cycles: 94682338 heartbeat IPC: 0.672193 cumulative IPC: 0.692591 (Simulation time: 0 hr 48 min 56 sec) 
Heartbeat CPU 0 instructions: 73000000 cycles: 96168500 heartbeat IPC: 0.672874 cumulative IPC: 0.692269 (Simulation time: 0 hr 49 min 36 sec) 
Heartbeat CPU 0 instructions: 74000003 cycles: 97654199 heartbeat IPC: 0.673086 cumulative IPC: 0.691961 (Simulation time: 0 hr 50 min 18 sec) 
Heartbeat CPU 0 instructions: 75000003 cycles: 99140699 heartbeat IPC: 0.672721 cumulative IPC: 0.691657 (Simulation time: 0 hr 51 min 2 sec) 
Heartbeat CPU 0 instructions: 76000000 cycles: 100626927 heartbeat IPC: 0.672842 cumulative IPC: 0.691364 (Simulation time: 0 hr 51 min 48 sec) 
Heartbeat CPU 0 instructions: 77000002 cycles: 102115337 heartbeat IPC: 0.671859 cumulative IPC: 0.691064 (Simulation time: 0 hr 52 min 28 sec) 
Heartbeat CPU 0 instructions: 78000001 cycles: 103602691 heartbeat IPC: 0.672334 cumulative IPC: 0.690781 (Simulation time: 0 hr 53 min 13 sec) 
Heartbeat CPU 0 instructions: 79000001 cycles: 105090686 heartbeat IPC: 0.672045 cumulative IPC: 0.690502 (Simulation time: 0 hr 53 min 57 sec) 
Heartbeat CPU 0 instructions: 80000000 cycles: 106576241 heartbeat IPC: 0.673148 cumulative IPC: 0.690248 (Simulation time: 0 hr 54 min 37 sec) 
Heartbeat CPU 0 instructions: 81000000 cycles: 108063988 heartbeat IPC: 0.672157 cumulative IPC: 0.689987 (Simulation time: 0 hr 55 min 16 sec) 
Heartbeat CPU 0 instructions: 82000003 cycles: 109549374 heartbeat IPC: 0.673228 cumulative IPC: 0.689748 (Simulation time: 0 hr 55 min 56 sec) 
Heartbeat CPU 0 instructions: 83000003 cycles: 111038997 heartbeat IPC: 0.671311 cumulative IPC: 0.689489 (Simulation time: 0 hr 56 min 36 sec) 
Heartbeat CPU 0 instructions: 84000000 cycles: 112524897 heartbeat IPC: 0.672991 cumulative IPC: 0.68926 (Simulation time: 0 hr 57 min 17 sec) 
Heartbeat CPU 0 instructions: 85000002 cycles: 114011150 heartbeat IPC: 0.672834 cumulative IPC: 0.689036 (Simulation time: 0 hr 58 min 2 sec) 
Heartbeat CPU 0 instructions: 86000001 cycles: 115496943 heartbeat IPC: 0.673041 cumulative IPC: 0.688821 (Simulation time: 0 hr 58 min 43 sec) 
Heartbeat CPU 0 instructions: 87000001 cycles: 116983149 heartbeat IPC: 0.672854 cumulative IPC: 0.688609 (Simulation time: 0 hr 59 min 21 sec) 
Heartbeat CPU 0 instructions: 88000000 cycles: 118492373 heartbeat IPC: 0.662592 cumulative IPC: 0.688262 (Simulation time: 0 hr 59 min 59 sec) 
Heartbeat CPU 0 instructions: 89000003 cycles: 119993736 heartbeat IPC: 0.666063 cumulative IPC: 0.687972 (Simulation time: 1 hr 0 min 33 sec) 
Heartbeat CPU 0 instructions: 90000003 cycles: 121497360 heartbeat IPC: 0.66506 cumulative IPC: 0.687676 (Simulation time: 1 hr 1 min 7 sec) 
Heartbeat CPU 0 instructions: 91000001 cycles: 122998016 heartbeat IPC: 0.666374 cumulative IPC: 0.687404 (Simulation time: 1 hr 1 min 41 sec) 
Heartbeat CPU 0 instructions: 92000000 cycles: 124505342 heartbeat IPC: 0.663426 cumulative IPC: 0.687102 (Simulation time: 1 hr 2 min 14 sec) 
Heartbeat CPU 0 instructions: 93000001 cycles: 126014279 heartbeat IPC: 0.662719 cumulative IPC: 0.686797 (Simulation time: 1 hr 2 min 46 sec) 
Heartbeat CPU 0 instructions: 94000001 cycles: 127525004 heartbeat IPC: 0.661934 cumulative IPC: 0.68649 (Simulation time: 1 hr 3 min 16 sec) 
Heartbeat CPU 0 instructions: 95000001 cycles: 129035252 heartbeat IPC: 0.662143 cumulative IPC: 0.686193 (Simulation time: 1 hr 3 min 46 sec) 
Heartbeat CPU 0 instructions: 96000000 cycles: 130548147 heartbeat IPC: 0.660984 cumulative IPC: 0.685889 (Simulation time: 1 hr 4 min 14 sec) 
Heartbeat CPU 0 instructions: 97000000 cycles: 132063873 heartbeat IPC: 0.65975 cumulative IPC: 0.685577 (Simulation time: 1 hr 4 min 41 sec) 
Heartbeat CPU 0 instructions: 98000000 cycles: 133577240 heartbeat IPC: 0.660778 cumulative IPC: 0.685285 (Simulation time: 1 hr 5 min 9 sec) 
Heartbeat CPU 0 instructions: 99000000 cycles: 135088937 heartbeat IPC: 0.661508 cumulative IPC: 0.685008 (Simulation time: 1 hr 5 min 36 sec) 
Heartbeat CPU 0 instructions: 100000000 cycles: 136604395 heartbeat IPC: 0.659867 cumulative IPC: 0.684718 (Simulation time: 1 hr 6 min 4 sec) 
Heartbeat CPU 0 instructions: 101000002 cycles: 138121912 heartbeat IPC: 0.658973 cumulative IPC: 0.684424 (Simulation time: 1 hr 6 min 29 sec) 
Heartbeat CPU 0 instructions: 102000002 cycles: 139635131 heartbeat IPC: 0.660843 cumulative IPC: 0.684159 (Simulation time: 1 hr 6 min 55 sec) 
Heartbeat CPU 0 instructions: 103000002 cycles: 141149185 heartbeat IPC: 0.660478 cumulative IPC: 0.683895 (Simulation time: 1 hr 7 min 21 sec) 
Heartbeat CPU 0 instructions: 104000000 cycles: 142664835 heartbeat IPC: 0.659782 cumulative IPC: 0.68363 (Simulation time: 1 hr 7 min 45 sec) 
Heartbeat CPU 0 instructions: 105000001 cycles: 144180165 heartbeat IPC: 0.659923 cumulative IPC: 0.683371 (Simulation time: 1 hr 8 min 10 sec) 
Heartbeat CPU 0 instructions: 106000001 cycles: 145696174 heartbeat IPC: 0.659627 cumulative IPC: 0.683115 (Simulation time: 1 hr 8 min 33 sec) 
Heartbeat CPU 0 instructions: 107000000 cycles: 147207224 heartbeat IPC: 0.661791 cumulative IPC: 0.682888 (Simulation time: 1 hr 8 min 56 sec) 
Heartbeat CPU 0 instructions: 108000000 cycles: 148721304 heartbeat IPC: 0.660467 cumulative IPC: 0.682652 (Simulation time: 1 hr 9 min 19 sec) 
Heartbeat CPU 0 instructions: 109000000 cycles: 150234450 heartbeat IPC: 0.660875 cumulative IPC: 0.682424 (Simulation time: 1 hr 9 min 40 sec) 
Heartbeat CPU 0 instructions: 110000001 cycles: 151741028 heartbeat IPC: 0.663757 cumulative IPC: 0.682233 (Simulation time: 1 hr 10 min 1 sec) 
Finished CPU 0 instructions: 100000000 cycles: 146577575 cummulative IPC: 0.682233 (Simulation time: 1 hr 10 min 1 sec) 

ChampSim completed all CPUs

Region of Interest Statistics

CPU 0 cummulative IPC: 0.682233 instructions: 100000000 cycles: 146577575
LLC TOTAL     ACCESS:    1089045  HIT:     141332  MISS:     947713
LLC LOAD      ACCESS:      57702  HIT:       8746  MISS:      48956
LLC RFO       ACCESS:     201523  HIT:       1450  MISS:     200073
LLC PREFETCH  ACCESS:     601301  HIT:      47761  MISS:     553540
LLC WRITEBACK ACCESS:     228519  HIT:      83375  MISS:     145144
Insertion Distribution: 
	LOAD 5749 0 26660 16833 
	RFO 0 0 47412 156837 
	PREF 0 0 100200 463884 
	WRITEBACK 0 0 0 145144 
Total Prefetch Downgrades: 493
