
*** ChampSim Multicore Out-of-Order Simulator ***

Warmup Instructions: 10000000
Simulation Instructions: 100000000
Configuration: 2
Number of CPUs: 1
LLC sets: 2048
LLC ways: 16
Off-chip DRAM Channels: 1 Width: 64-bit Data Rate: 1600 MT/s

CPU 0 runs /datasets/cs240c-wi22-a00-public/data/Assignment2-gz/gcc_56B.trace.gz
CPU 0 L1D next line prefetcher
CPU 0 L2C IP-based stride prefetcher
Initialize SRRIP state
Heartbeat CPU 0 instructions: 1000003 cycles: 954151 heartbeat IPC: 1.04806 cumulative IPC: 1.04806 (Simulation time: 0 hr 0 min 44 sec) 
Heartbeat CPU 0 instructions: 2000001 cycles: 1898349 heartbeat IPC: 1.0591 cumulative IPC: 1.05355 (Simulation time: 0 hr 1 min 26 sec) 
Heartbeat CPU 0 instructions: 3000001 cycles: 2885593 heartbeat IPC: 1.01292 cumulative IPC: 1.03965 (Simulation time: 0 hr 2 min 8 sec) 
Heartbeat CPU 0 instructions: 4000000 cycles: 3848221 heartbeat IPC: 1.03882 cumulative IPC: 1.03944 (Simulation time: 0 hr 2 min 52 sec) 
Heartbeat CPU 0 instructions: 5000002 cycles: 4737701 heartbeat IPC: 1.12425 cumulative IPC: 1.05536 (Simulation time: 0 hr 3 min 29 sec) 
Heartbeat CPU 0 instructions: 6000000 cycles: 5685656 heartbeat IPC: 1.0549 cumulative IPC: 1.05529 (Simulation time: 0 hr 4 min 15 sec) 
Heartbeat CPU 0 instructions: 7000000 cycles: 6649892 heartbeat IPC: 1.03709 cumulative IPC: 1.05265 (Simulation time: 0 hr 4 min 58 sec) 
Heartbeat CPU 0 instructions: 8000000 cycles: 7611115 heartbeat IPC: 1.04034 cumulative IPC: 1.05109 (Simulation time: 0 hr 5 min 44 sec) 
Heartbeat CPU 0 instructions: 9000000 cycles: 8622587 heartbeat IPC: 0.988658 cumulative IPC: 1.04377 (Simulation time: 0 hr 6 min 25 sec) 
Heartbeat CPU 0 instructions: 10000002 cycles: 9583098 heartbeat IPC: 1.04111 cumulative IPC: 1.0435 (Simulation time: 0 hr 7 min 3 sec) 

Warmup complete CPU 0 instructions: 10000002 cycles: 9583098 (Simulation time: 0 hr 7 min 3 sec) 

Heartbeat CPU 0 instructions: 11000000 cycles: 10925644 heartbeat IPC: 0.744852 cumulative IPC: 0.744852 (Simulation time: 0 hr 7 min 40 sec) 
Heartbeat CPU 0 instructions: 12000000 cycles: 12345245 heartbeat IPC: 0.704423 cumulative IPC: 0.724074 (Simulation time: 0 hr 8 min 21 sec) 
Heartbeat CPU 0 instructions: 13000001 cycles: 13726403 heartbeat IPC: 0.724031 cumulative IPC: 0.724059 (Simulation time: 0 hr 9 min 1 sec) 
Heartbeat CPU 0 instructions: 14000000 cycles: 15053234 heartbeat IPC: 0.753675 cumulative IPC: 0.731243 (Simulation time: 0 hr 9 min 43 sec) 
Heartbeat CPU 0 instructions: 15000003 cycles: 16421751 heartbeat IPC: 0.73072 cumulative IPC: 0.731138 (Simulation time: 0 hr 10 min 22 sec) 
Heartbeat CPU 0 instructions: 16000000 cycles: 17740013 heartbeat IPC: 0.758572 cumulative IPC: 0.735572 (Simulation time: 0 hr 11 min 4 sec) 
Heartbeat CPU 0 instructions: 17000001 cycles: 19053423 heartbeat IPC: 0.761378 cumulative IPC: 0.739151 (Simulation time: 0 hr 11 min 44 sec) 
Heartbeat CPU 0 instructions: 18000000 cycles: 20434841 heartbeat IPC: 0.723893 cumulative IPC: 0.737209 (Simulation time: 0 hr 12 min 22 sec) 
Heartbeat CPU 0 instructions: 19000000 cycles: 21802344 heartbeat IPC: 0.73126 cumulative IPC: 0.736543 (Simulation time: 0 hr 12 min 59 sec) 
Heartbeat CPU 0 instructions: 20000000 cycles: 23158727 heartbeat IPC: 0.737255 cumulative IPC: 0.736614 (Simulation time: 0 hr 13 min 43 sec) 
Heartbeat CPU 0 instructions: 21000000 cycles: 24494378 heartbeat IPC: 0.748699 cumulative IPC: 0.737696 (Simulation time: 0 hr 14 min 23 sec) 
Heartbeat CPU 0 instructions: 22000000 cycles: 25812412 heartbeat IPC: 0.758706 cumulative IPC: 0.739403 (Simulation time: 0 hr 15 min 6 sec) 
Heartbeat CPU 0 instructions: 23000000 cycles: 27138862 heartbeat IPC: 0.753892 cumulative IPC: 0.740497 (Simulation time: 0 hr 15 min 44 sec) 
Heartbeat CPU 0 instructions: 24000000 cycles: 28488245 heartbeat IPC: 0.741079 cumulative IPC: 0.740539 (Simulation time: 0 hr 16 min 20 sec) 
Heartbeat CPU 0 instructions: 25000000 cycles: 29849139 heartbeat IPC: 0.734811 cumulative IPC: 0.740154 (Simulation time: 0 hr 17 min 1 sec) 
Heartbeat CPU 0 instructions: 26000002 cycles: 31248602 heartbeat IPC: 0.714561 cumulative IPC: 0.738501 (Simulation time: 0 hr 17 min 40 sec) 
Heartbeat CPU 0 instructions: 27000000 cycles: 32624478 heartbeat IPC: 0.726808 cumulative IPC: 0.737803 (Simulation time: 0 hr 18 min 20 sec) 
Heartbeat CPU 0 instructions: 28000000 cycles: 33952715 heartbeat IPC: 0.752878 cumulative IPC: 0.738625 (Simulation time: 0 hr 19 min 1 sec) 
Heartbeat CPU 0 instructions: 29000000 cycles: 35285285 heartbeat IPC: 0.75043 cumulative IPC: 0.739237 (Simulation time: 0 hr 19 min 44 sec) 
Heartbeat CPU 0 instructions: 30000000 cycles: 36621730 heartbeat IPC: 0.748254 cumulative IPC: 0.739682 (Simulation time: 0 hr 20 min 28 sec) 
Heartbeat CPU 0 instructions: 31000000 cycles: 37966709 heartbeat IPC: 0.743506 cumulative IPC: 0.739864 (Simulation time: 0 hr 21 min 7 sec) 
Heartbeat CPU 0 instructions: 32000000 cycles: 39334519 heartbeat IPC: 0.731096 cumulative IPC: 0.73946 (Simulation time: 0 hr 21 min 50 sec) 
Heartbeat CPU 0 instructions: 33000002 cycles: 40735389 heartbeat IPC: 0.713844 cumulative IPC: 0.738308 (Simulation time: 0 hr 22 min 27 sec) 
Heartbeat CPU 0 instructions: 34000002 cycles: 42092528 heartbeat IPC: 0.736844 cumulative IPC: 0.738247 (Simulation time: 0 hr 23 min 8 sec) 
Heartbeat CPU 0 instructions: 35000002 cycles: 43436515 heartbeat IPC: 0.744055 cumulative IPC: 0.738478 (Simulation time: 0 hr 23 min 48 sec) 
Heartbeat CPU 0 instructions: 36000000 cycles: 44758469 heartbeat IPC: 0.756454 cumulative IPC: 0.739154 (Simulation time: 0 hr 24 min 32 sec) 
Heartbeat CPU 0 instructions: 37000000 cycles: 46066408 heartbeat IPC: 0.764562 cumulative IPC: 0.740064 (Simulation time: 0 hr 25 min 9 sec) 
Heartbeat CPU 0 instructions: 38000002 cycles: 47395458 heartbeat IPC: 0.752419 cumulative IPC: 0.740499 (Simulation time: 0 hr 25 min 54 sec) 
Heartbeat CPU 0 instructions: 39000000 cycles: 48794315 heartbeat IPC: 0.714868 cumulative IPC: 0.739584 (Simulation time: 0 hr 26 min 32 sec) 
Heartbeat CPU 0 instructions: 40000000 cycles: 50153260 heartbeat IPC: 0.735865 cumulative IPC: 0.73946 (Simulation time: 0 hr 27 min 17 sec) 
Heartbeat CPU 0 instructions: 41000001 cycles: 51490476 heartbeat IPC: 0.747823 cumulative IPC: 0.739727 (Simulation time: 0 hr 27 min 56 sec) 
Heartbeat CPU 0 instructions: 42000003 cycles: 52816281 heartbeat IPC: 0.75426 cumulative IPC: 0.740172 (Simulation time: 0 hr 28 min 36 sec) 
Heartbeat CPU 0 instructions: 43000001 cycles: 54149677 heartbeat IPC: 0.749963 cumulative IPC: 0.740465 (Simulation time: 0 hr 29 min 14 sec) 
Heartbeat CPU 0 instructions: 44000000 cycles: 55473928 heartbeat IPC: 0.755143 cumulative IPC: 0.740889 (Simulation time: 0 hr 29 min 51 sec) 
Heartbeat CPU 0 instructions: 45000000 cycles: 56838705 heartbeat IPC: 0.73272 cumulative IPC: 0.740653 (Simulation time: 0 hr 30 min 29 sec) 
Heartbeat CPU 0 instructions: 46000000 cycles: 58228717 heartbeat IPC: 0.719418 cumulative IPC: 0.740046 (Simulation time: 0 hr 31 min 9 sec) 
Heartbeat CPU 0 instructions: 47000002 cycles: 59600367 heartbeat IPC: 0.72905 cumulative IPC: 0.739744 (Simulation time: 0 hr 31 min 51 sec) 
Heartbeat CPU 0 instructions: 48000000 cycles: 60945483 heartbeat IPC: 0.743429 cumulative IPC: 0.739841 (Simulation time: 0 hr 32 min 30 sec) 
Heartbeat CPU 0 instructions: 49000002 cycles: 62270294 heartbeat IPC: 0.754826 cumulative IPC: 0.740218 (Simulation time: 0 hr 33 min 10 sec) 
Heartbeat CPU 0 instructions: 50000000 cycles: 63589533 heartbeat IPC: 0.758011 cumulative IPC: 0.740652 (Simulation time: 0 hr 33 min 49 sec) 
Heartbeat CPU 0 instructions: 51000000 cycles: 64942601 heartbeat IPC: 0.739061 cumulative IPC: 0.740614 (Simulation time: 0 hr 34 min 25 sec) 
Heartbeat CPU 0 instructions: 52000000 cycles: 66333927 heartbeat IPC: 0.718739 cumulative IPC: 0.740077 (Simulation time: 0 hr 35 min 6 sec) 
Heartbeat CPU 0 instructions: 53000001 cycles: 67670311 heartbeat IPC: 0.748289 cumulative IPC: 0.740266 (Simulation time: 0 hr 35 min 47 sec) 
Heartbeat CPU 0 instructions: 54000000 cycles: 68984760 heartbeat IPC: 0.760774 cumulative IPC: 0.74072 (Simulation time: 0 hr 36 min 26 sec) 
Heartbeat CPU 0 instructions: 55000001 cycles: 70290733 heartbeat IPC: 0.765713 cumulative IPC: 0.741258 (Simulation time: 0 hr 37 min 4 sec) 
Heartbeat CPU 0 instructions: 56000000 cycles: 71613160 heartbeat IPC: 0.756185 cumulative IPC: 0.741576 (Simulation time: 0 hr 37 min 43 sec) 
Heartbeat CPU 0 instructions: 57000001 cycles: 72946492 heartbeat IPC: 0.750001 cumulative IPC: 0.741753 (Simulation time: 0 hr 38 min 20 sec) 
Heartbeat CPU 0 instructions: 58000000 cycles: 74320675 heartbeat IPC: 0.727704 cumulative IPC: 0.741455 (Simulation time: 0 hr 39 min 3 sec) 
Heartbeat CPU 0 instructions: 59000000 cycles: 75713729 heartbeat IPC: 0.717847 cumulative IPC: 0.740958 (Simulation time: 0 hr 39 min 46 sec) 
Heartbeat CPU 0 instructions: 60000000 cycles: 77088600 heartbeat IPC: 0.727341 cumulative IPC: 0.74068 (Simulation time: 0 hr 40 min 27 sec) 
Heartbeat CPU 0 instructions: 61000000 cycles: 78418455 heartbeat IPC: 0.751962 cumulative IPC: 0.740898 (Simulation time: 0 hr 41 min 8 sec) 
Heartbeat CPU 0 instructions: 62000002 cycles: 79778483 heartbeat IPC: 0.73528 cumulative IPC: 0.740789 (Simulation time: 0 hr 41 min 50 sec) 
Heartbeat CPU 0 instructions: 63000003 cycles: 81093400 heartbeat IPC: 0.760505 cumulative IPC: 0.741152 (Simulation time: 0 hr 42 min 27 sec) 
Heartbeat CPU 0 instructions: 64000000 cycles: 82411748 heartbeat IPC: 0.758523 cumulative IPC: 0.741466 (Simulation time: 0 hr 43 min 6 sec) 
Heartbeat CPU 0 instructions: 65000000 cycles: 83753628 heartbeat IPC: 0.745223 cumulative IPC: 0.741534 (Simulation time: 0 hr 43 min 46 sec) 
Heartbeat CPU 0 instructions: 66000002 cycles: 85143392 heartbeat IPC: 0.719548 cumulative IPC: 0.74113 (Simulation time: 0 hr 44 min 20 sec) 
Heartbeat CPU 0 instructions: 67000002 cycles: 86528776 heartbeat IPC: 0.721822 cumulative IPC: 0.740782 (Simulation time: 0 hr 45 min 2 sec) 
Heartbeat CPU 0 instructions: 68000000 cycles: 87879064 heartbeat IPC: 0.740581 cumulative IPC: 0.740779 (Simulation time: 0 hr 45 min 44 sec) 
Heartbeat CPU 0 instructions: 69000000 cycles: 89207033 heartbeat IPC: 0.75303 cumulative IPC: 0.740983 (Simulation time: 0 hr 46 min 22 sec) 
Heartbeat CPU 0 instructions: 70000000 cycles: 90532206 heartbeat IPC: 0.754618 cumulative IPC: 0.741206 (Simulation time: 0 hr 47 min 1 sec) 
Heartbeat CPU 0 instructions: 71000003 cycles: 91873206 heartbeat IPC: 0.745714 cumulative IPC: 0.74128 (Simulation time: 0 hr 47 min 41 sec) 
Heartbeat CPU 0 instructions: 72000000 cycles: 93209821 heartbeat IPC: 0.748156 cumulative IPC: 0.74139 (Simulation time: 0 hr 48 min 19 sec) 
Heartbeat CPU 0 instructions: 73000003 cycles: 94574955 heartbeat IPC: 0.732531 cumulative IPC: 0.741247 (Simulation time: 0 hr 48 min 55 sec) 
Heartbeat CPU 0 instructions: 74000001 cycles: 95972519 heartbeat IPC: 0.715529 cumulative IPC: 0.740831 (Simulation time: 0 hr 49 min 32 sec) 
Heartbeat CPU 0 instructions: 75000003 cycles: 97344878 heartbeat IPC: 0.728674 cumulative IPC: 0.740641 (Simulation time: 0 hr 50 min 21 sec) 
Heartbeat CPU 0 instructions: 76000000 cycles: 98686351 heartbeat IPC: 0.745447 cumulative IPC: 0.740714 (Simulation time: 0 hr 51 min 4 sec) 
Heartbeat CPU 0 instructions: 77000003 cycles: 100019455 heartbeat IPC: 0.750131 cumulative IPC: 0.740852 (Simulation time: 0 hr 51 min 51 sec) 
Heartbeat CPU 0 instructions: 78000001 cycles: 101349210 heartbeat IPC: 0.752017 cumulative IPC: 0.741014 (Simulation time: 0 hr 52 min 35 sec) 
Heartbeat CPU 0 instructions: 79000000 cycles: 102704021 heartbeat IPC: 0.73811 cumulative IPC: 0.740972 (Simulation time: 0 hr 53 min 20 sec) 
Heartbeat CPU 0 instructions: 80000000 cycles: 104050432 heartbeat IPC: 0.742715 cumulative IPC: 0.740997 (Simulation time: 0 hr 54 min 6 sec) 
Heartbeat CPU 0 instructions: 81000002 cycles: 105427577 heartbeat IPC: 0.726141 cumulative IPC: 0.740783 (Simulation time: 0 hr 54 min 48 sec) 
Heartbeat CPU 0 instructions: 82000000 cycles: 106797939 heartbeat IPC: 0.729733 cumulative IPC: 0.740628 (Simulation time: 0 hr 55 min 32 sec) 
Heartbeat CPU 0 instructions: 83000003 cycles: 108129315 heartbeat IPC: 0.751105 cumulative IPC: 0.740769 (Simulation time: 0 hr 56 min 16 sec) 
Heartbeat CPU 0 instructions: 84000000 cycles: 109470658 heartbeat IPC: 0.745519 cumulative IPC: 0.740833 (Simulation time: 0 hr 57 min 1 sec) 
Heartbeat CPU 0 instructions: 85000002 cycles: 110784106 heartbeat IPC: 0.761356 cumulative IPC: 0.741099 (Simulation time: 0 hr 57 min 51 sec) 
Heartbeat CPU 0 instructions: 86000003 cycles: 112085778 heartbeat IPC: 0.768243 cumulative IPC: 0.741444 (Simulation time: 0 hr 58 min 30 sec) 
Heartbeat CPU 0 instructions: 87000000 cycles: 113467370 heartbeat IPC: 0.723801 cumulative IPC: 0.741209 (Simulation time: 0 hr 59 min 10 sec) 
Heartbeat CPU 0 instructions: 88000000 cycles: 114816631 heartbeat IPC: 0.741146 cumulative IPC: 0.741209 (Simulation time: 0 hr 59 min 47 sec) 
Heartbeat CPU 0 instructions: 89000000 cycles: 116175597 heartbeat IPC: 0.735854 cumulative IPC: 0.74114 (Simulation time: 1 hr 0 min 22 sec) 
Heartbeat CPU 0 instructions: 90000000 cycles: 117492059 heartbeat IPC: 0.759612 cumulative IPC: 0.741366 (Simulation time: 1 hr 0 min 58 sec) 
Heartbeat CPU 0 instructions: 91000001 cycles: 118798480 heartbeat IPC: 0.765451 cumulative IPC: 0.741654 (Simulation time: 1 hr 1 min 31 sec) 
Heartbeat CPU 0 instructions: 92000000 cycles: 120115706 heartbeat IPC: 0.75917 cumulative IPC: 0.741863 (Simulation time: 1 hr 2 min 3 sec) 
Heartbeat CPU 0 instructions: 93000003 cycles: 121497671 heartbeat IPC: 0.72361 cumulative IPC: 0.741637 (Simulation time: 1 hr 2 min 34 sec) 
Heartbeat CPU 0 instructions: 94000000 cycles: 122839591 heartbeat IPC: 0.745199 cumulative IPC: 0.741679 (Simulation time: 1 hr 3 min 7 sec) 
Heartbeat CPU 0 instructions: 95000000 cycles: 124190397 heartbeat IPC: 0.740299 cumulative IPC: 0.741663 (Simulation time: 1 hr 3 min 37 sec) 
Heartbeat CPU 0 instructions: 96000000 cycles: 125522738 heartbeat IPC: 0.750559 cumulative IPC: 0.741765 (Simulation time: 1 hr 4 min 7 sec) 
Heartbeat CPU 0 instructions: 97000000 cycles: 126833053 heartbeat IPC: 0.763175 cumulative IPC: 0.742005 (Simulation time: 1 hr 4 min 37 sec) 
Heartbeat CPU 0 instructions: 98000003 cycles: 128141222 heartbeat IPC: 0.76443 cumulative IPC: 0.742252 (Simulation time: 1 hr 5 min 4 sec) 
Heartbeat CPU 0 instructions: 99000000 cycles: 129527339 heartbeat IPC: 0.721438 cumulative IPC: 0.742011 (Simulation time: 1 hr 5 min 33 sec) 
Heartbeat CPU 0 instructions: 100000000 cycles: 130869899 heartbeat IPC: 0.744846 cumulative IPC: 0.742043 (Simulation time: 1 hr 6 min 2 sec) 
Heartbeat CPU 0 instructions: 101000000 cycles: 132217229 heartbeat IPC: 0.742209 cumulative IPC: 0.742045 (Simulation time: 1 hr 6 min 29 sec) 
Heartbeat CPU 0 instructions: 102000001 cycles: 133530466 heartbeat IPC: 0.761478 cumulative IPC: 0.742251 (Simulation time: 1 hr 6 min 56 sec) 
Heartbeat CPU 0 instructions: 103000001 cycles: 134833113 heartbeat IPC: 0.767668 cumulative IPC: 0.742515 (Simulation time: 1 hr 7 min 23 sec) 
Heartbeat CPU 0 instructions: 104000000 cycles: 136134554 heartbeat IPC: 0.768378 cumulative IPC: 0.742781 (Simulation time: 1 hr 7 min 49 sec) 
Heartbeat CPU 0 instructions: 105000002 cycles: 137511920 heartbeat IPC: 0.726025 cumulative IPC: 0.7426 (Simulation time: 1 hr 8 min 16 sec) 
Heartbeat CPU 0 instructions: 106000000 cycles: 138916124 heartbeat IPC: 0.712146 cumulative IPC: 0.74227 (Simulation time: 1 hr 8 min 41 sec) 
Heartbeat CPU 0 instructions: 107000002 cycles: 140305983 heartbeat IPC: 0.719499 cumulative IPC: 0.742028 (Simulation time: 1 hr 9 min 7 sec) 
Heartbeat CPU 0 instructions: 108000000 cycles: 141662039 heartbeat IPC: 0.737431 cumulative IPC: 0.74198 (Simulation time: 1 hr 9 min 30 sec) 
Heartbeat CPU 0 instructions: 109000000 cycles: 142997990 heartbeat IPC: 0.74853 cumulative IPC: 0.742046 (Simulation time: 1 hr 9 min 54 sec) 
Heartbeat CPU 0 instructions: 110000000 cycles: 144326007 heartbeat IPC: 0.753002 cumulative IPC: 0.742154 (Simulation time: 1 hr 10 min 16 sec) 
Finished CPU 0 instructions: 100000003 cycles: 134742911 cummulative IPC: 0.742154 (Simulation time: 1 hr 10 min 16 sec) 

ChampSim completed all CPUs

Region of Interest Statistics

CPU 0 cummulative IPC: 0.742154 instructions: 100000003 cycles: 134742911
LLC TOTAL     ACCESS:   21346126  HIT:   21272506  MISS:      73620
LLC LOAD      ACCESS:     165897  HIT:     131117  MISS:      34780
LLC RFO       ACCESS:   10463422  HIT:   10457724  MISS:       5698
LLC PREFETCH  ACCESS:     183319  HIT:     150355  MISS:      32964
LLC WRITEBACK ACCESS:   10533488  HIT:   10533310  MISS:        178
Insertion Distribution: 
	LOAD 6444 0 14889 17108 
	RFO 0 0 10505 3440 
	PREF 0 3439 14406 18161 
	WRITEBACK 0 0 0 180 
Total Prefetch Downgrades: 5305
