
*** ChampSim Multicore Out-of-Order Simulator ***

Warmup Instructions: 10000000
Simulation Instructions: 100000000
Configuration: 2
Number of CPUs: 1
LLC sets: 2048
LLC ways: 16
Off-chip DRAM Channels: 1 Width: 64-bit Data Rate: 1600 MT/s

CPU 0 runs /datasets/cs240c-wi22-a00-public/data/Assignment2-gz/omnetpp_4B.trace.gz
CPU 0 L1D next line prefetcher
CPU 0 L2C IP-based stride prefetcher
Initialize SRRIP state
Heartbeat CPU 0 instructions: 1000001 cycles: 566984 heartbeat IPC: 1.76372 cumulative IPC: 1.76372 (Simulation time: 0 hr 0 min 32 sec) 
Heartbeat CPU 0 instructions: 2000001 cycles: 1135714 heartbeat IPC: 1.7583 cumulative IPC: 1.76101 (Simulation time: 0 hr 1 min 3 sec) 
Heartbeat CPU 0 instructions: 3000001 cycles: 1722947 heartbeat IPC: 1.7029 cumulative IPC: 1.7412 (Simulation time: 0 hr 1 min 38 sec) 
Heartbeat CPU 0 instructions: 4000000 cycles: 2292436 heartbeat IPC: 1.75596 cumulative IPC: 1.74487 (Simulation time: 0 hr 2 min 10 sec) 
Heartbeat CPU 0 instructions: 5000000 cycles: 2866632 heartbeat IPC: 1.74157 cumulative IPC: 1.74421 (Simulation time: 0 hr 2 min 44 sec) 
Heartbeat CPU 0 instructions: 6000000 cycles: 3442823 heartbeat IPC: 1.73554 cumulative IPC: 1.74276 (Simulation time: 0 hr 3 min 14 sec) 
Heartbeat CPU 0 instructions: 7000000 cycles: 4012122 heartbeat IPC: 1.75655 cumulative IPC: 1.74471 (Simulation time: 0 hr 3 min 45 sec) 
Heartbeat CPU 0 instructions: 8000000 cycles: 4565596 heartbeat IPC: 1.80677 cumulative IPC: 1.75224 (Simulation time: 0 hr 4 min 17 sec) 
Heartbeat CPU 0 instructions: 9000001 cycles: 5147694 heartbeat IPC: 1.71793 cumulative IPC: 1.74836 (Simulation time: 0 hr 4 min 55 sec) 
Heartbeat CPU 0 instructions: 10000000 cycles: 5701659 heartbeat IPC: 1.80517 cumulative IPC: 1.75388 (Simulation time: 0 hr 5 min 30 sec) 

Warmup complete CPU 0 instructions: 10000003 cycles: 5701660 (Simulation time: 0 hr 5 min 30 sec) 

Heartbeat CPU 0 instructions: 11000000 cycles: 8877469 heartbeat IPC: 0.31488 cumulative IPC: 0.314879 (Simulation time: 0 hr 6 min 14 sec) 
Heartbeat CPU 0 instructions: 12000000 cycles: 10032605 heartbeat IPC: 0.865699 cumulative IPC: 0.461792 (Simulation time: 0 hr 6 min 44 sec) 
Heartbeat CPU 0 instructions: 13000003 cycles: 11177555 heartbeat IPC: 0.873403 cumulative IPC: 0.547856 (Simulation time: 0 hr 7 min 11 sec) 
Heartbeat CPU 0 instructions: 14000000 cycles: 12297823 heartbeat IPC: 0.892641 cumulative IPC: 0.606413 (Simulation time: 0 hr 7 min 40 sec) 
Heartbeat CPU 0 instructions: 15000000 cycles: 13436997 heartbeat IPC: 0.877829 cumulative IPC: 0.646384 (Simulation time: 0 hr 8 min 8 sec) 
Heartbeat CPU 0 instructions: 16000000 cycles: 16286542 heartbeat IPC: 0.350933 cumulative IPC: 0.566846 (Simulation time: 0 hr 8 min 45 sec) 
Heartbeat CPU 0 instructions: 17000003 cycles: 19143570 heartbeat IPC: 0.350015 cumulative IPC: 0.520759 (Simulation time: 0 hr 9 min 18 sec) 
Heartbeat CPU 0 instructions: 18000002 cycles: 21945863 heartbeat IPC: 0.35685 cumulative IPC: 0.492483 (Simulation time: 0 hr 9 min 47 sec) 
Heartbeat CPU 0 instructions: 19000002 cycles: 24750713 heartbeat IPC: 0.356525 cumulative IPC: 0.472464 (Simulation time: 0 hr 10 min 20 sec) 
Heartbeat CPU 0 instructions: 20000000 cycles: 28081586 heartbeat IPC: 0.300221 cumulative IPC: 0.446829 (Simulation time: 0 hr 10 min 54 sec) 
Heartbeat CPU 0 instructions: 21000000 cycles: 31390493 heartbeat IPC: 0.302215 cumulative IPC: 0.428201 (Simulation time: 0 hr 11 min 34 sec) 
Heartbeat CPU 0 instructions: 22000001 cycles: 34579744 heartbeat IPC: 0.313554 cumulative IPC: 0.41554 (Simulation time: 0 hr 12 min 13 sec) 
Heartbeat CPU 0 instructions: 23000000 cycles: 37403694 heartbeat IPC: 0.354114 cumulative IPC: 0.410068 (Simulation time: 0 hr 12 min 48 sec) 
Heartbeat CPU 0 instructions: 24000000 cycles: 40222189 heartbeat IPC: 0.354799 cumulative IPC: 0.405556 (Simulation time: 0 hr 13 min 23 sec) 
Heartbeat CPU 0 instructions: 25000000 cycles: 43019182 heartbeat IPC: 0.357527 cumulative IPC: 0.401956 (Simulation time: 0 hr 13 min 57 sec) 
Heartbeat CPU 0 instructions: 26000002 cycles: 45791638 heartbeat IPC: 0.360692 cumulative IPC: 0.399102 (Simulation time: 0 hr 14 min 31 sec) 
Heartbeat CPU 0 instructions: 27000001 cycles: 48620409 heartbeat IPC: 0.35351 cumulative IPC: 0.396097 (Simulation time: 0 hr 15 min 2 sec) 
Heartbeat CPU 0 instructions: 28000000 cycles: 51387228 heartbeat IPC: 0.361426 cumulative IPC: 0.393997 (Simulation time: 0 hr 15 min 34 sec) 
Heartbeat CPU 0 instructions: 29000001 cycles: 54231321 heartbeat IPC: 0.351606 cumulative IPC: 0.391513 (Simulation time: 0 hr 16 min 7 sec) 
Heartbeat CPU 0 instructions: 30000000 cycles: 57055086 heartbeat IPC: 0.354137 cumulative IPC: 0.389458 (Simulation time: 0 hr 16 min 40 sec) 
Heartbeat CPU 0 instructions: 31000002 cycles: 59832649 heartbeat IPC: 0.360029 cumulative IPC: 0.387948 (Simulation time: 0 hr 17 min 10 sec) 
Heartbeat CPU 0 instructions: 32000000 cycles: 62657842 heartbeat IPC: 0.353957 cumulative IPC: 0.386262 (Simulation time: 0 hr 17 min 48 sec) 
Heartbeat CPU 0 instructions: 33000000 cycles: 65828828 heartbeat IPC: 0.315359 cumulative IPC: 0.382523 (Simulation time: 0 hr 18 min 21 sec) 
Heartbeat CPU 0 instructions: 34000001 cycles: 69143665 heartbeat IPC: 0.301674 cumulative IPC: 0.378298 (Simulation time: 0 hr 18 min 56 sec) 
Heartbeat CPU 0 instructions: 35000001 cycles: 72192516 heartbeat IPC: 0.327992 cumulative IPC: 0.375992 (Simulation time: 0 hr 19 min 29 sec) 
Heartbeat CPU 0 instructions: 36000000 cycles: 75467369 heartbeat IPC: 0.305357 cumulative IPC: 0.372676 (Simulation time: 0 hr 20 min 5 sec) 
Heartbeat CPU 0 instructions: 37000001 cycles: 78259213 heartbeat IPC: 0.358187 cumulative IPC: 0.372118 (Simulation time: 0 hr 20 min 37 sec) 
Heartbeat CPU 0 instructions: 38000001 cycles: 81439246 heartbeat IPC: 0.314462 cumulative IPC: 0.369698 (Simulation time: 0 hr 21 min 12 sec) 
Heartbeat CPU 0 instructions: 39000001 cycles: 83961899 heartbeat IPC: 0.396408 cumulative IPC: 0.370559 (Simulation time: 0 hr 21 min 47 sec) 
Heartbeat CPU 0 instructions: 40000000 cycles: 85084075 heartbeat IPC: 0.891125 cumulative IPC: 0.377917 (Simulation time: 0 hr 22 min 13 sec) 
Heartbeat CPU 0 instructions: 41000001 cycles: 86210339 heartbeat IPC: 0.887892 cumulative IPC: 0.385052 (Simulation time: 0 hr 22 min 42 sec) 
Heartbeat CPU 0 instructions: 42000001 cycles: 87344476 heartbeat IPC: 0.881728 cumulative IPC: 0.391951 (Simulation time: 0 hr 23 min 12 sec) 
Heartbeat CPU 0 instructions: 43000002 cycles: 88553370 heartbeat IPC: 0.827203 cumulative IPC: 0.398302 (Simulation time: 0 hr 23 min 42 sec) 
Heartbeat CPU 0 instructions: 44000000 cycles: 91474251 heartbeat IPC: 0.342362 cumulative IPC: 0.396397 (Simulation time: 0 hr 24 min 15 sec) 
Heartbeat CPU 0 instructions: 45000000 cycles: 94364262 heartbeat IPC: 0.346019 cumulative IPC: 0.394755 (Simulation time: 0 hr 24 min 48 sec) 
Heartbeat CPU 0 instructions: 46000000 cycles: 97712944 heartbeat IPC: 0.298625 cumulative IPC: 0.391256 (Simulation time: 0 hr 25 min 22 sec) 
Heartbeat CPU 0 instructions: 47000000 cycles: 101038656 heartbeat IPC: 0.300687 cumulative IPC: 0.388097 (Simulation time: 0 hr 25 min 56 sec) 
Heartbeat CPU 0 instructions: 48000000 cycles: 104182263 heartbeat IPC: 0.318106 cumulative IPC: 0.385863 (Simulation time: 0 hr 26 min 32 sec) 
Heartbeat CPU 0 instructions: 49000000 cycles: 107087122 heartbeat IPC: 0.344251 cumulative IPC: 0.38467 (Simulation time: 0 hr 27 min 8 sec) 
Heartbeat CPU 0 instructions: 50000001 cycles: 109900192 heartbeat IPC: 0.355484 cumulative IPC: 0.383883 (Simulation time: 0 hr 27 min 40 sec) 
Heartbeat CPU 0 instructions: 51000003 cycles: 112705568 heartbeat IPC: 0.356459 cumulative IPC: 0.383164 (Simulation time: 0 hr 28 min 18 sec) 
Heartbeat CPU 0 instructions: 52000000 cycles: 115492883 heartbeat IPC: 0.358767 cumulative IPC: 0.382544 (Simulation time: 0 hr 28 min 49 sec) 
Heartbeat CPU 0 instructions: 53000003 cycles: 118292481 heartbeat IPC: 0.357195 cumulative IPC: 0.381914 (Simulation time: 0 hr 29 min 23 sec) 
Heartbeat CPU 0 instructions: 54000001 cycles: 121070110 heartbeat IPC: 0.360019 cumulative IPC: 0.381387 (Simulation time: 0 hr 29 min 54 sec) 
Heartbeat CPU 0 instructions: 55000001 cycles: 123999272 heartbeat IPC: 0.341395 cumulative IPC: 0.380397 (Simulation time: 0 hr 30 min 26 sec) 
Heartbeat CPU 0 instructions: 56000000 cycles: 126836382 heartbeat IPC: 0.352471 cumulative IPC: 0.379742 (Simulation time: 0 hr 30 min 58 sec) 
Heartbeat CPU 0 instructions: 57000003 cycles: 129621808 heartbeat IPC: 0.359013 cumulative IPC: 0.379277 (Simulation time: 0 hr 31 min 32 sec) 
Heartbeat CPU 0 instructions: 58000001 cycles: 132604794 heartbeat IPC: 0.335234 cumulative IPC: 0.378241 (Simulation time: 0 hr 32 min 4 sec) 
Heartbeat CPU 0 instructions: 59000001 cycles: 135884333 heartbeat IPC: 0.304921 cumulative IPC: 0.376394 (Simulation time: 0 hr 32 min 41 sec) 
Heartbeat CPU 0 instructions: 60000000 cycles: 138865351 heartbeat IPC: 0.335456 cumulative IPC: 0.375478 (Simulation time: 0 hr 33 min 16 sec) 
Heartbeat CPU 0 instructions: 61000001 cycles: 141914605 heartbeat IPC: 0.327949 cumulative IPC: 0.374414 (Simulation time: 0 hr 33 min 51 sec) 
Heartbeat CPU 0 instructions: 62000000 cycles: 145262741 heartbeat IPC: 0.298673 cumulative IPC: 0.372597 (Simulation time: 0 hr 34 min 32 sec) 
Heartbeat CPU 0 instructions: 63000001 cycles: 148115070 heartbeat IPC: 0.350591 cumulative IPC: 0.372156 (Simulation time: 0 hr 35 min 4 sec) 
Heartbeat CPU 0 instructions: 64000000 cycles: 150931988 heartbeat IPC: 0.354998 cumulative IPC: 0.371823 (Simulation time: 0 hr 35 min 38 sec) 
Heartbeat CPU 0 instructions: 65000001 cycles: 153728427 heartbeat IPC: 0.357598 cumulative IPC: 0.371554 (Simulation time: 0 hr 36 min 10 sec) 
Heartbeat CPU 0 instructions: 66000002 cycles: 157868412 heartbeat IPC: 0.241547 cumulative IPC: 0.368017 (Simulation time: 0 hr 36 min 52 sec) 
Heartbeat CPU 0 instructions: 67000001 cycles: 159529236 heartbeat IPC: 0.60211 cumulative IPC: 0.370545 (Simulation time: 0 hr 37 min 24 sec) 
Heartbeat CPU 0 instructions: 68000000 cycles: 160653507 heartbeat IPC: 0.889464 cumulative IPC: 0.37431 (Simulation time: 0 hr 37 min 50 sec) 
Heartbeat CPU 0 instructions: 69000003 cycles: 161795589 heartbeat IPC: 0.875597 cumulative IPC: 0.377978 (Simulation time: 0 hr 38 min 18 sec) 
Heartbeat CPU 0 instructions: 70000000 cycles: 162915989 heartbeat IPC: 0.892536 cumulative IPC: 0.381645 (Simulation time: 0 hr 38 min 49 sec) 
Heartbeat CPU 0 instructions: 71000001 cycles: 164091593 heartbeat IPC: 0.850627 cumulative IPC: 0.385125 (Simulation time: 0 hr 39 min 18 sec) 
Heartbeat CPU 0 instructions: 72000000 cycles: 167448137 heartbeat IPC: 0.297925 cumulative IPC: 0.383316 (Simulation time: 0 hr 39 min 55 sec) 
Heartbeat CPU 0 instructions: 73000000 cycles: 170845460 heartbeat IPC: 0.294349 cumulative IPC: 0.381486 (Simulation time: 0 hr 40 min 34 sec) 
Heartbeat CPU 0 instructions: 74000001 cycles: 174195290 heartbeat IPC: 0.298523 cumulative IPC: 0.379836 (Simulation time: 0 hr 41 min 12 sec) 
Heartbeat CPU 0 instructions: 75000001 cycles: 177121918 heartbeat IPC: 0.34169 cumulative IPC: 0.379185 (Simulation time: 0 hr 41 min 52 sec) 
Heartbeat CPU 0 instructions: 76000000 cycles: 179912470 heartbeat IPC: 0.358352 cumulative IPC: 0.378851 (Simulation time: 0 hr 42 min 22 sec) 
Heartbeat CPU 0 instructions: 77000000 cycles: 182717343 heartbeat IPC: 0.356522 cumulative IPC: 0.378498 (Simulation time: 0 hr 43 min 1 sec) 
Heartbeat CPU 0 instructions: 78000001 cycles: 185520110 heartbeat IPC: 0.356791 cumulative IPC: 0.378159 (Simulation time: 0 hr 43 min 33 sec) 
Heartbeat CPU 0 instructions: 79000001 cycles: 188311650 heartbeat IPC: 0.358225 cumulative IPC: 0.377854 (Simulation time: 0 hr 44 min 8 sec) 
Heartbeat CPU 0 instructions: 80000000 cycles: 191083185 heartbeat IPC: 0.360811 cumulative IPC: 0.3776 (Simulation time: 0 hr 44 min 42 sec) 
Heartbeat CPU 0 instructions: 81000002 cycles: 193932576 heartbeat IPC: 0.350953 cumulative IPC: 0.377196 (Simulation time: 0 hr 45 min 18 sec) 
Heartbeat CPU 0 instructions: 82000001 cycles: 196758427 heartbeat IPC: 0.353875 cumulative IPC: 0.376851 (Simulation time: 0 hr 45 min 52 sec) 
Heartbeat CPU 0 instructions: 83000002 cycles: 199614941 heartbeat IPC: 0.350077 cumulative IPC: 0.376457 (Simulation time: 0 hr 46 min 28 sec) 
Heartbeat CPU 0 instructions: 84000000 cycles: 202468467 heartbeat IPC: 0.350443 cumulative IPC: 0.37608 (Simulation time: 0 hr 47 min 1 sec) 
Heartbeat CPU 0 instructions: 85000002 cycles: 205776999 heartbeat IPC: 0.302249 cumulative IPC: 0.374859 (Simulation time: 0 hr 47 min 34 sec) 
Heartbeat CPU 0 instructions: 86000002 cycles: 209097188 heartbeat IPC: 0.301188 cumulative IPC: 0.373656 (Simulation time: 0 hr 48 min 8 sec) 
Heartbeat CPU 0 instructions: 87000000 cycles: 212138992 heartbeat IPC: 0.328752 cumulative IPC: 0.372995 (Simulation time: 0 hr 48 min 44 sec) 
Heartbeat CPU 0 instructions: 88000000 cycles: 215157979 heartbeat IPC: 0.331237 cumulative IPC: 0.372393 (Simulation time: 0 hr 49 min 17 sec) 
Heartbeat CPU 0 instructions: 89000002 cycles: 218237755 heartbeat IPC: 0.3247 cumulative IPC: 0.371702 (Simulation time: 0 hr 49 min 58 sec) 
Heartbeat CPU 0 instructions: 90000001 cycles: 221014263 heartbeat IPC: 0.360164 cumulative IPC: 0.371553 (Simulation time: 0 hr 50 min 36 sec) 
Heartbeat CPU 0 instructions: 91000001 cycles: 223823498 heartbeat IPC: 0.355969 cumulative IPC: 0.371352 (Simulation time: 0 hr 51 min 12 sec) 
Heartbeat CPU 0 instructions: 92000000 cycles: 226729735 heartbeat IPC: 0.344087 cumulative IPC: 0.370994 (Simulation time: 0 hr 51 min 51 sec) 
Heartbeat CPU 0 instructions: 93000000 cycles: 229568440 heartbeat IPC: 0.352273 cumulative IPC: 0.370756 (Simulation time: 0 hr 52 min 27 sec) 
Heartbeat CPU 0 instructions: 94000000 cycles: 234115784 heartbeat IPC: 0.219909 cumulative IPC: 0.367753 (Simulation time: 0 hr 53 min 13 sec) 
Heartbeat CPU 0 instructions: 95000000 cycles: 235300327 heartbeat IPC: 0.844207 cumulative IPC: 0.370211 (Simulation time: 0 hr 53 min 45 sec) 
Heartbeat CPU 0 instructions: 96000000 cycles: 236443308 heartbeat IPC: 0.874905 cumulative IPC: 0.372711 (Simulation time: 0 hr 54 min 15 sec) 
Heartbeat CPU 0 instructions: 97000002 cycles: 237561981 heartbeat IPC: 0.893918 cumulative IPC: 0.375226 (Simulation time: 0 hr 54 min 43 sec) 
Heartbeat CPU 0 instructions: 98000001 cycles: 238703922 heartbeat IPC: 0.875701 cumulative IPC: 0.377679 (Simulation time: 0 hr 55 min 12 sec) 
Heartbeat CPU 0 instructions: 99000002 cycles: 240571153 heartbeat IPC: 0.535553 cumulative IPC: 0.378934 (Simulation time: 0 hr 55 min 47 sec) 
Heartbeat CPU 0 instructions: 100000000 cycles: 243968585 heartbeat IPC: 0.294339 cumulative IPC: 0.377728 (Simulation time: 0 hr 56 min 25 sec) 
Heartbeat CPU 0 instructions: 101000002 cycles: 247058045 heartbeat IPC: 0.323682 cumulative IPC: 0.377036 (Simulation time: 0 hr 57 min 4 sec) 
Heartbeat CPU 0 instructions: 102000001 cycles: 250048465 heartbeat IPC: 0.334401 cumulative IPC: 0.376514 (Simulation time: 0 hr 57 min 42 sec) 
Heartbeat CPU 0 instructions: 103000000 cycles: 252848476 heartbeat IPC: 0.357141 cumulative IPC: 0.376295 (Simulation time: 0 hr 58 min 18 sec) 
Heartbeat CPU 0 instructions: 104000000 cycles: 255666796 heartbeat IPC: 0.354821 cumulative IPC: 0.376052 (Simulation time: 0 hr 58 min 53 sec) 
Heartbeat CPU 0 instructions: 105000001 cycles: 258457822 heartbeat IPC: 0.358292 cumulative IPC: 0.375856 (Simulation time: 0 hr 59 min 24 sec) 
Heartbeat CPU 0 instructions: 106000000 cycles: 261358978 heartbeat IPC: 0.34469 cumulative IPC: 0.375503 (Simulation time: 0 hr 59 min 57 sec) 
Heartbeat CPU 0 instructions: 107000002 cycles: 264207877 heartbeat IPC: 0.351014 cumulative IPC: 0.375233 (Simulation time: 1 hr 0 min 26 sec) 
Heartbeat CPU 0 instructions: 108000000 cycles: 267036312 heartbeat IPC: 0.353552 cumulative IPC: 0.374998 (Simulation time: 1 hr 0 min 56 sec) 
Heartbeat CPU 0 instructions: 109000002 cycles: 269835594 heartbeat IPC: 0.357235 cumulative IPC: 0.37481 (Simulation time: 1 hr 1 min 25 sec) 
Heartbeat CPU 0 instructions: 110000001 cycles: 272663816 heartbeat IPC: 0.353579 cumulative IPC: 0.374585 (Simulation time: 1 hr 1 min 52 sec) 
Finished CPU 0 instructions: 100000001 cycles: 266962158 cummulative IPC: 0.374585 (Simulation time: 1 hr 1 min 52 sec) 

ChampSim completed all CPUs

Region of Interest Statistics

CPU 0 cummulative IPC: 0.374585 instructions: 100000001 cycles: 266962158
LLC TOTAL     ACCESS:    4665012  HIT:    2413706  MISS:    2251306
LLC LOAD      ACCESS:    2182861  HIT:    2026399  MISS:     156462
LLC RFO       ACCESS:      24955  HIT:      12310  MISS:      12645
LLC PREFETCH  ACCESS:    2376827  HIT:     314192  MISS:    2062635
LLC WRITEBACK ACCESS:      80369  HIT:      60805  MISS:      19564
Insertion Distribution: 
	LOAD 48928 0 96430 89141 
	RFO 3383 0 4172 6746 
	PREF 0 13676 67978 2186690 
	WRITEBACK 0 0 0 20900 
Total Prefetch Downgrades: 14032
