
*** ChampSim Multicore Out-of-Order Simulator ***

Warmup Instructions: 10000000
Simulation Instructions: 100000000
Configuration: 2
Number of CPUs: 1
LLC sets: 2048
LLC ways: 16
Off-chip DRAM Channels: 1 Width: 64-bit Data Rate: 1600 MT/s

CPU 0 runs /datasets/cs240c-wi22-a00-public/data/Assignment2-gz/soplex_205B.trace.gz
CPU 0 L1D next line prefetcher
CPU 0 L2C IP-based stride prefetcher
Initialize SRRIP state
Heartbeat CPU 0 instructions: 1000000 cycles: 395620 heartbeat IPC: 2.52768 cumulative IPC: 2.52768 (Simulation time: 0 hr 0 min 29 sec) 
Heartbeat CPU 0 instructions: 2000002 cycles: 925599 heartbeat IPC: 1.88687 cumulative IPC: 2.16077 (Simulation time: 0 hr 0 min 55 sec) 
Heartbeat CPU 0 instructions: 3000000 cycles: 1397348 heartbeat IPC: 2.11977 cumulative IPC: 2.14692 (Simulation time: 0 hr 1 min 31 sec) 
Heartbeat CPU 0 instructions: 4000000 cycles: 1758580 heartbeat IPC: 2.7683 cumulative IPC: 2.27456 (Simulation time: 0 hr 2 min 1 sec) 
Heartbeat CPU 0 instructions: 5000003 cycles: 2201948 heartbeat IPC: 2.25547 cumulative IPC: 2.27072 (Simulation time: 0 hr 2 min 35 sec) 
Heartbeat CPU 0 instructions: 6000003 cycles: 2621661 heartbeat IPC: 2.38258 cumulative IPC: 2.28863 (Simulation time: 0 hr 3 min 10 sec) 
Heartbeat CPU 0 instructions: 7000000 cycles: 3006095 heartbeat IPC: 2.60122 cumulative IPC: 2.3286 (Simulation time: 0 hr 3 min 37 sec) 
Heartbeat CPU 0 instructions: 8000000 cycles: 3400151 heartbeat IPC: 2.53771 cumulative IPC: 2.35284 (Simulation time: 0 hr 4 min 2 sec) 
Heartbeat CPU 0 instructions: 9000003 cycles: 3925856 heartbeat IPC: 1.90221 cumulative IPC: 2.29249 (Simulation time: 0 hr 4 min 36 sec) 
Heartbeat CPU 0 instructions: 10000000 cycles: 4411059 heartbeat IPC: 2.06099 cumulative IPC: 2.26703 (Simulation time: 0 hr 5 min 10 sec) 

Warmup complete CPU 0 instructions: 10000004 cycles: 4411061 (Simulation time: 0 hr 5 min 10 sec) 

Heartbeat CPU 0 instructions: 11000001 cycles: 6942694 heartbeat IPC: 0.395002 cumulative IPC: 0.395001 (Simulation time: 0 hr 5 min 49 sec) 
Heartbeat CPU 0 instructions: 12000000 cycles: 9124837 heartbeat IPC: 0.458265 cumulative IPC: 0.424287 (Simulation time: 0 hr 6 min 31 sec) 
Heartbeat CPU 0 instructions: 13000000 cycles: 12544678 heartbeat IPC: 0.292411 cumulative IPC: 0.368839 (Simulation time: 0 hr 7 min 13 sec) 
Heartbeat CPU 0 instructions: 14000003 cycles: 13803777 heartbeat IPC: 0.794221 cumulative IPC: 0.425862 (Simulation time: 0 hr 7 min 39 sec) 
Heartbeat CPU 0 instructions: 15000000 cycles: 15484375 heartbeat IPC: 0.595025 cumulative IPC: 0.451536 (Simulation time: 0 hr 8 min 11 sec) 
Heartbeat CPU 0 instructions: 16000000 cycles: 18633640 heartbeat IPC: 0.317534 cumulative IPC: 0.421864 (Simulation time: 0 hr 8 min 50 sec) 
Heartbeat CPU 0 instructions: 17000001 cycles: 22216719 heartbeat IPC: 0.27909 cumulative IPC: 0.393133 (Simulation time: 0 hr 9 min 44 sec) 
Heartbeat CPU 0 instructions: 18000000 cycles: 28761563 heartbeat IPC: 0.152792 cumulative IPC: 0.328535 (Simulation time: 0 hr 10 min 42 sec) 
Heartbeat CPU 0 instructions: 19000003 cycles: 33277450 heartbeat IPC: 0.221441 cumulative IPC: 0.311781 (Simulation time: 0 hr 11 min 36 sec) 
Heartbeat CPU 0 instructions: 20000000 cycles: 35435078 heartbeat IPC: 0.463471 cumulative IPC: 0.322331 (Simulation time: 0 hr 12 min 27 sec) 
Heartbeat CPU 0 instructions: 21000001 cycles: 39902162 heartbeat IPC: 0.22386 cumulative IPC: 0.309937 (Simulation time: 0 hr 13 min 17 sec) 
Heartbeat CPU 0 instructions: 22000001 cycles: 43968003 heartbeat IPC: 0.245952 cumulative IPC: 0.30336 (Simulation time: 0 hr 14 min 3 sec) 
Heartbeat CPU 0 instructions: 23000002 cycles: 47129243 heartbeat IPC: 0.316332 cumulative IPC: 0.30432 (Simulation time: 0 hr 14 min 43 sec) 
Heartbeat CPU 0 instructions: 24000000 cycles: 50824489 heartbeat IPC: 0.270617 cumulative IPC: 0.301637 (Simulation time: 0 hr 15 min 30 sec) 
Heartbeat CPU 0 instructions: 25000000 cycles: 54431740 heartbeat IPC: 0.277219 cumulative IPC: 0.299876 (Simulation time: 0 hr 16 min 12 sec) 
Heartbeat CPU 0 instructions: 26000002 cycles: 57928838 heartbeat IPC: 0.285952 cumulative IPC: 0.298966 (Simulation time: 0 hr 16 min 59 sec) 
Heartbeat CPU 0 instructions: 27000000 cycles: 60427455 heartbeat IPC: 0.400221 cumulative IPC: 0.303483 (Simulation time: 0 hr 17 min 35 sec) 
Heartbeat CPU 0 instructions: 28000000 cycles: 63896043 heartbeat IPC: 0.288302 cumulative IPC: 0.302597 (Simulation time: 0 hr 18 min 20 sec) 
Heartbeat CPU 0 instructions: 29000000 cycles: 65898923 heartbeat IPC: 0.499281 cumulative IPC: 0.309004 (Simulation time: 0 hr 18 min 58 sec) 
Heartbeat CPU 0 instructions: 30000003 cycles: 66886422 heartbeat IPC: 1.01266 cumulative IPC: 0.320126 (Simulation time: 0 hr 19 min 30 sec) 
Heartbeat CPU 0 instructions: 31000003 cycles: 68236966 heartbeat IPC: 0.740442 cumulative IPC: 0.32902 (Simulation time: 0 hr 20 min 5 sec) 
Heartbeat CPU 0 instructions: 32000000 cycles: 71446928 heartbeat IPC: 0.311529 cumulative IPC: 0.328182 (Simulation time: 0 hr 20 min 45 sec) 
Heartbeat CPU 0 instructions: 33000000 cycles: 74287444 heartbeat IPC: 0.352049 cumulative IPC: 0.329153 (Simulation time: 0 hr 21 min 37 sec) 
Heartbeat CPU 0 instructions: 34000002 cycles: 75918926 heartbeat IPC: 0.612941 cumulative IPC: 0.335627 (Simulation time: 0 hr 22 min 17 sec) 
Heartbeat CPU 0 instructions: 35000003 cycles: 78556112 heartbeat IPC: 0.379192 cumulative IPC: 0.337177 (Simulation time: 0 hr 23 min 1 sec) 
Heartbeat CPU 0 instructions: 36000000 cycles: 80901043 heartbeat IPC: 0.42645 cumulative IPC: 0.339914 (Simulation time: 0 hr 23 min 58 sec) 
Heartbeat CPU 0 instructions: 37000000 cycles: 84201515 heartbeat IPC: 0.302987 cumulative IPC: 0.338386 (Simulation time: 0 hr 24 min 44 sec) 
Heartbeat CPU 0 instructions: 38000002 cycles: 85447403 heartbeat IPC: 0.802642 cumulative IPC: 0.345524 (Simulation time: 0 hr 25 min 9 sec) 
Heartbeat CPU 0 instructions: 39000003 cycles: 87348676 heartbeat IPC: 0.525964 cumulative IPC: 0.34966 (Simulation time: 0 hr 25 min 37 sec) 
Heartbeat CPU 0 instructions: 40000000 cycles: 90549874 heartbeat IPC: 0.312382 cumulative IPC: 0.348275 (Simulation time: 0 hr 26 min 23 sec) 
Heartbeat CPU 0 instructions: 41000000 cycles: 93742738 heartbeat IPC: 0.313198 cumulative IPC: 0.347021 (Simulation time: 0 hr 27 min 6 sec) 
Heartbeat CPU 0 instructions: 42000001 cycles: 95508210 heartbeat IPC: 0.566421 cumulative IPC: 0.351273 (Simulation time: 0 hr 27 min 39 sec) 
Heartbeat CPU 0 instructions: 43000001 cycles: 98870775 heartbeat IPC: 0.297392 cumulative IPC: 0.349355 (Simulation time: 0 hr 28 min 28 sec) 
Heartbeat CPU 0 instructions: 44000000 cycles: 101079100 heartbeat IPC: 0.452831 cumulative IPC: 0.351719 (Simulation time: 0 hr 28 min 59 sec) 
Heartbeat CPU 0 instructions: 45000001 cycles: 102297519 heartbeat IPC: 0.820737 cumulative IPC: 0.357557 (Simulation time: 0 hr 29 min 26 sec) 
Heartbeat CPU 0 instructions: 46000002 cycles: 105135128 heartbeat IPC: 0.35241 cumulative IPC: 0.357412 (Simulation time: 0 hr 30 min 8 sec) 
Heartbeat CPU 0 instructions: 47000000 cycles: 108249181 heartbeat IPC: 0.321124 cumulative IPC: 0.356324 (Simulation time: 0 hr 30 min 53 sec) 
Heartbeat CPU 0 instructions: 48000000 cycles: 111292765 heartbeat IPC: 0.32856 cumulative IPC: 0.355533 (Simulation time: 0 hr 31 min 42 sec) 
Heartbeat CPU 0 instructions: 49000001 cycles: 113236292 heartbeat IPC: 0.514529 cumulative IPC: 0.358373 (Simulation time: 0 hr 32 min 18 sec) 
Heartbeat CPU 0 instructions: 50000000 cycles: 116490203 heartbeat IPC: 0.307322 cumulative IPC: 0.356891 (Simulation time: 0 hr 33 min 2 sec) 
Heartbeat CPU 0 instructions: 51000003 cycles: 118835076 heartbeat IPC: 0.426464 cumulative IPC: 0.358316 (Simulation time: 0 hr 33 min 38 sec) 
Heartbeat CPU 0 instructions: 52000000 cycles: 120060664 heartbeat IPC: 0.815932 cumulative IPC: 0.363166 (Simulation time: 0 hr 34 min 6 sec) 
Heartbeat CPU 0 instructions: 53000003 cycles: 122878987 heartbeat IPC: 0.354822 cumulative IPC: 0.362967 (Simulation time: 0 hr 34 min 46 sec) 
Heartbeat CPU 0 instructions: 54000001 cycles: 126049502 heartbeat IPC: 0.315406 cumulative IPC: 0.361728 (Simulation time: 0 hr 35 min 29 sec) 
Heartbeat CPU 0 instructions: 55000001 cycles: 129329600 heartbeat IPC: 0.304869 cumulative IPC: 0.360235 (Simulation time: 0 hr 36 min 17 sec) 
Heartbeat CPU 0 instructions: 56000000 cycles: 131106416 heartbeat IPC: 0.562804 cumulative IPC: 0.363076 (Simulation time: 0 hr 36 min 50 sec) 
Heartbeat CPU 0 instructions: 57000000 cycles: 134509228 heartbeat IPC: 0.293875 cumulative IPC: 0.361266 (Simulation time: 0 hr 37 min 32 sec) 
Heartbeat CPU 0 instructions: 58000000 cycles: 136727378 heartbeat IPC: 0.450826 cumulative IPC: 0.362767 (Simulation time: 0 hr 38 min 2 sec) 
Heartbeat CPU 0 instructions: 59000001 cycles: 137954897 heartbeat IPC: 0.814652 cumulative IPC: 0.366921 (Simulation time: 0 hr 38 min 30 sec) 
Heartbeat CPU 0 instructions: 60000000 cycles: 140798997 heartbeat IPC: 0.351605 cumulative IPC: 0.366601 (Simulation time: 0 hr 39 min 10 sec) 
Heartbeat CPU 0 instructions: 61000003 cycles: 143962836 heartbeat IPC: 0.316073 cumulative IPC: 0.365456 (Simulation time: 0 hr 39 min 54 sec) 
Heartbeat CPU 0 instructions: 62000002 cycles: 147322693 heartbeat IPC: 0.297631 cumulative IPC: 0.363861 (Simulation time: 0 hr 40 min 44 sec) 
Heartbeat CPU 0 instructions: 63000001 cycles: 148903484 heartbeat IPC: 0.632594 cumulative IPC: 0.366801 (Simulation time: 0 hr 41 min 23 sec) 
Heartbeat CPU 0 instructions: 64000000 cycles: 152636432 heartbeat IPC: 0.267885 cumulative IPC: 0.36431 (Simulation time: 0 hr 42 min 7 sec) 
Heartbeat CPU 0 instructions: 65000001 cycles: 154520448 heartbeat IPC: 0.530782 cumulative IPC: 0.366399 (Simulation time: 0 hr 42 min 35 sec) 
Heartbeat CPU 0 instructions: 66000000 cycles: 155752545 heartbeat IPC: 0.811624 cumulative IPC: 0.370024 (Simulation time: 0 hr 43 min 3 sec) 
Heartbeat CPU 0 instructions: 67000003 cycles: 158657342 heartbeat IPC: 0.344259 cumulative IPC: 0.369539 (Simulation time: 0 hr 43 min 47 sec) 
Heartbeat CPU 0 instructions: 68000000 cycles: 161850437 heartbeat IPC: 0.313175 cumulative IPC: 0.368396 (Simulation time: 0 hr 44 min 31 sec) 
Heartbeat CPU 0 instructions: 69000001 cycles: 164663572 heartbeat IPC: 0.355476 cumulative IPC: 0.368169 (Simulation time: 0 hr 45 min 19 sec) 
Heartbeat CPU 0 instructions: 70000000 cycles: 166492089 heartbeat IPC: 0.546891 cumulative IPC: 0.370185 (Simulation time: 0 hr 45 min 54 sec) 
Heartbeat CPU 0 instructions: 71000001 cycles: 169866867 heartbeat IPC: 0.296316 cumulative IPC: 0.368678 (Simulation time: 0 hr 46 min 39 sec) 
Heartbeat CPU 0 instructions: 72000000 cycles: 172061698 heartbeat IPC: 0.455615 cumulative IPC: 0.369817 (Simulation time: 0 hr 47 min 15 sec) 
Heartbeat CPU 0 instructions: 73000000 cycles: 173290164 heartbeat IPC: 0.814023 cumulative IPC: 0.373048 (Simulation time: 0 hr 47 min 46 sec) 
Heartbeat CPU 0 instructions: 74000001 cycles: 176122820 heartbeat IPC: 0.353026 cumulative IPC: 0.372718 (Simulation time: 0 hr 48 min 23 sec) 
Heartbeat CPU 0 instructions: 75000003 cycles: 179306076 heartbeat IPC: 0.314144 cumulative IPC: 0.371652 (Simulation time: 0 hr 49 min 8 sec) 
Heartbeat CPU 0 instructions: 76000000 cycles: 182556728 heartbeat IPC: 0.30763 cumulative IPC: 0.370483 (Simulation time: 0 hr 50 min 0 sec) 
Heartbeat CPU 0 instructions: 77000000 cycles: 184106845 heartbeat IPC: 0.645113 cumulative IPC: 0.372852 (Simulation time: 0 hr 50 min 42 sec) 
Heartbeat CPU 0 instructions: 78000000 cycles: 187959379 heartbeat IPC: 0.259569 cumulative IPC: 0.370475 (Simulation time: 0 hr 51 min 39 sec) 
Heartbeat CPU 0 instructions: 79000002 cycles: 189764840 heartbeat IPC: 0.553876 cumulative IPC: 0.372261 (Simulation time: 0 hr 52 min 10 sec) 
Heartbeat CPU 0 instructions: 80000000 cycles: 190995299 heartbeat IPC: 0.812703 cumulative IPC: 0.375166 (Simulation time: 0 hr 52 min 40 sec) 
Heartbeat CPU 0 instructions: 81000000 cycles: 193872242 heartbeat IPC: 0.347591 cumulative IPC: 0.374747 (Simulation time: 0 hr 53 min 26 sec) 
Heartbeat CPU 0 instructions: 82000000 cycles: 197070227 heartbeat IPC: 0.312697 cumulative IPC: 0.373717 (Simulation time: 0 hr 54 min 18 sec) 
Heartbeat CPU 0 instructions: 83000000 cycles: 200370126 heartbeat IPC: 0.30304 cumulative IPC: 0.372527 (Simulation time: 0 hr 55 min 6 sec) 
Heartbeat CPU 0 instructions: 84000000 cycles: 202017083 heartbeat IPC: 0.60718 cumulative IPC: 0.374482 (Simulation time: 0 hr 55 min 48 sec) 
Heartbeat CPU 0 instructions: 85000000 cycles: 205909839 heartbeat IPC: 0.256887 cumulative IPC: 0.372211 (Simulation time: 0 hr 56 min 47 sec) 
Heartbeat CPU 0 instructions: 86000002 cycles: 207312182 heartbeat IPC: 0.713094 cumulative IPC: 0.374567 (Simulation time: 0 hr 57 min 18 sec) 
Heartbeat CPU 0 instructions: 87000002 cycles: 208553057 heartbeat IPC: 0.805883 cumulative IPC: 0.377188 (Simulation time: 0 hr 57 min 47 sec) 
Heartbeat CPU 0 instructions: 88000000 cycles: 211459768 heartbeat IPC: 0.344031 cumulative IPC: 0.376723 (Simulation time: 0 hr 58 min 30 sec) 
Heartbeat CPU 0 instructions: 89000003 cycles: 215001937 heartbeat IPC: 0.282314 cumulative IPC: 0.375135 (Simulation time: 0 hr 59 min 21 sec) 
Heartbeat CPU 0 instructions: 90000001 cycles: 218052049 heartbeat IPC: 0.327856 cumulative IPC: 0.37446 (Simulation time: 1 hr 0 min 2 sec) 
Heartbeat CPU 0 instructions: 91000003 cycles: 219872281 heartbeat IPC: 0.549382 cumulative IPC: 0.375938 (Simulation time: 1 hr 0 min 41 sec) 
Heartbeat CPU 0 instructions: 92000000 cycles: 223574259 heartbeat IPC: 0.270125 cumulative IPC: 0.37415 (Simulation time: 1 hr 1 min 24 sec) 
Heartbeat CPU 0 instructions: 93000000 cycles: 224831473 heartbeat IPC: 0.79541 cumulative IPC: 0.376553 (Simulation time: 1 hr 1 min 46 sec) 
Heartbeat CPU 0 instructions: 94000000 cycles: 226206714 heartbeat IPC: 0.727145 cumulative IPC: 0.378727 (Simulation time: 1 hr 2 min 11 sec) 
Heartbeat CPU 0 instructions: 95000002 cycles: 229225875 heartbeat IPC: 0.331219 cumulative IPC: 0.378089 (Simulation time: 1 hr 2 min 46 sec) 
Heartbeat CPU 0 instructions: 96000000 cycles: 232133215 heartbeat IPC: 0.343956 cumulative IPC: 0.377653 (Simulation time: 1 hr 3 min 21 sec) 
Heartbeat CPU 0 instructions: 97000003 cycles: 234814247 heartbeat IPC: 0.372992 cumulative IPC: 0.377599 (Simulation time: 1 hr 3 min 50 sec) 
Heartbeat CPU 0 instructions: 98000003 cycles: 237092712 heartbeat IPC: 0.438892 cumulative IPC: 0.378199 (Simulation time: 1 hr 4 min 23 sec) 
Heartbeat CPU 0 instructions: 99000000 cycles: 240339847 heartbeat IPC: 0.307963 cumulative IPC: 0.377232 (Simulation time: 1 hr 4 min 55 sec) 
Heartbeat CPU 0 instructions: 100000000 cycles: 241593284 heartbeat IPC: 0.797806 cumulative IPC: 0.379455 (Simulation time: 1 hr 5 min 14 sec) 
Heartbeat CPU 0 instructions: 101000003 cycles: 243491133 heartbeat IPC: 0.526914 cumulative IPC: 0.380626 (Simulation time: 1 hr 5 min 36 sec) 
Heartbeat CPU 0 instructions: 102000002 cycles: 246643609 heartbeat IPC: 0.317211 cumulative IPC: 0.3798 (Simulation time: 1 hr 6 min 9 sec) 
Heartbeat CPU 0 instructions: 103000000 cycles: 248804444 heartbeat IPC: 0.462783 cumulative IPC: 0.380534 (Simulation time: 1 hr 6 min 41 sec) 
Heartbeat CPU 0 instructions: 104000000 cycles: 257693077 heartbeat IPC: 0.112503 cumulative IPC: 0.371128 (Simulation time: 1 hr 7 min 19 sec) 
Heartbeat CPU 0 instructions: 105000000 cycles: 259756340 heartbeat IPC: 0.484669 cumulative IPC: 0.372045 (Simulation time: 1 hr 7 min 53 sec) 
Heartbeat CPU 0 instructions: 106000002 cycles: 263623444 heartbeat IPC: 0.258592 cumulative IPC: 0.370353 (Simulation time: 1 hr 8 min 26 sec) 
Heartbeat CPU 0 instructions: 107000003 cycles: 267915417 heartbeat IPC: 0.232993 cumulative IPC: 0.368115 (Simulation time: 1 hr 8 min 57 sec) 
Heartbeat CPU 0 instructions: 108000000 cycles: 271275964 heartbeat IPC: 0.29757 cumulative IPC: 0.367227 (Simulation time: 1 hr 9 min 23 sec) 
Heartbeat CPU 0 instructions: 109000000 cycles: 274595391 heartbeat IPC: 0.301257 cumulative IPC: 0.366416 (Simulation time: 1 hr 9 min 49 sec) 
Heartbeat CPU 0 instructions: 110000003 cycles: 278123186 heartbeat IPC: 0.283464 cumulative IPC: 0.365347 (Simulation time: 1 hr 10 min 10 sec) 
Finished CPU 0 instructions: 100000003 cycles: 273712126 cummulative IPC: 0.365347 (Simulation time: 1 hr 10 min 10 sec) 

ChampSim completed all CPUs

Region of Interest Statistics

CPU 0 cummulative IPC: 0.365347 instructions: 100000003 cycles: 273712126
LLC TOTAL     ACCESS:    8730935  HIT:    4619343  MISS:    4111592
LLC LOAD      ACCESS:    2230780  HIT:    1045070  MISS:    1185710
LLC RFO       ACCESS:     871500  HIT:     326877  MISS:     544623
LLC PREFETCH  ACCESS:    3453745  HIT:    1512449  MISS:    1941296
LLC WRITEBACK ACCESS:    2174910  HIT:    1734947  MISS:     439963
Insertion Distribution: 
	LOAD 384137 0 172847 748892 
	RFO 191394 0 148137 250479 
	PREF 0 209526 403781 1612076 
	WRITEBACK 0 0 0 506760 
Total Prefetch Downgrades: 184133
