
*** ChampSim Multicore Out-of-Order Simulator ***

Warmup Instructions: 10000000
Simulation Instructions: 100000000
Configuration: 2
Number of CPUs: 1
LLC sets: 2048
LLC ways: 16
Off-chip DRAM Channels: 1 Width: 64-bit Data Rate: 1600 MT/s

CPU 0 runs /datasets/cs240c-wi22-a00-public/data/Assignment2-gz/leslie3d_94B.trace.gz
CPU 0 L1D next line prefetcher
CPU 0 L2C IP-based stride prefetcher
Initialize SRRIP state
Heartbeat CPU 0 instructions: 1000003 cycles: 597056 heartbeat IPC: 1.67489 cumulative IPC: 1.67489 (Simulation time: 0 hr 0 min 57 sec) 
Heartbeat CPU 0 instructions: 2000002 cycles: 1215907 heartbeat IPC: 1.6159 cumulative IPC: 1.64486 (Simulation time: 0 hr 2 min 1 sec) 
Heartbeat CPU 0 instructions: 3000003 cycles: 1867671 heartbeat IPC: 1.5343 cumulative IPC: 1.60628 (Simulation time: 0 hr 3 min 6 sec) 
Heartbeat CPU 0 instructions: 4000000 cycles: 2518897 heartbeat IPC: 1.53556 cumulative IPC: 1.588 (Simulation time: 0 hr 4 min 7 sec) 
Heartbeat CPU 0 instructions: 5000002 cycles: 3083890 heartbeat IPC: 1.76994 cumulative IPC: 1.62133 (Simulation time: 0 hr 5 min 10 sec) 
Heartbeat CPU 0 instructions: 6000002 cycles: 3734519 heartbeat IPC: 1.53697 cumulative IPC: 1.60663 (Simulation time: 0 hr 6 min 8 sec) 
Heartbeat CPU 0 instructions: 7000000 cycles: 4385212 heartbeat IPC: 1.53682 cumulative IPC: 1.59627 (Simulation time: 0 hr 7 min 16 sec) 
Heartbeat CPU 0 instructions: 8000000 cycles: 4950201 heartbeat IPC: 1.76995 cumulative IPC: 1.6161 (Simulation time: 0 hr 8 min 24 sec) 
Heartbeat CPU 0 instructions: 9000000 cycles: 5601051 heartbeat IPC: 1.53645 cumulative IPC: 1.60684 (Simulation time: 0 hr 9 min 38 sec) 
Heartbeat CPU 0 instructions: 10000001 cycles: 6252262 heartbeat IPC: 1.5356 cumulative IPC: 1.59942 (Simulation time: 0 hr 10 min 44 sec) 

Warmup complete CPU 0 instructions: 10000001 cycles: 6252262 (Simulation time: 0 hr 10 min 44 sec) 

Heartbeat CPU 0 instructions: 11000000 cycles: 7479059 heartbeat IPC: 0.81513 cumulative IPC: 0.81513 (Simulation time: 0 hr 11 min 48 sec) 
Heartbeat CPU 0 instructions: 12000000 cycles: 9295808 heartbeat IPC: 0.550434 cumulative IPC: 0.657128 (Simulation time: 0 hr 13 min 5 sec) 
Heartbeat CPU 0 instructions: 13000000 cycles: 11041010 heartbeat IPC: 0.573 cumulative IPC: 0.626468 (Simulation time: 0 hr 14 min 18 sec) 
Heartbeat CPU 0 instructions: 14000001 cycles: 12895840 heartbeat IPC: 0.539133 cumulative IPC: 0.602085 (Simulation time: 0 hr 15 min 33 sec) 
Heartbeat CPU 0 instructions: 15000001 cycles: 14584163 heartbeat IPC: 0.592304 cumulative IPC: 0.600103 (Simulation time: 0 hr 16 min 51 sec) 
Heartbeat CPU 0 instructions: 16000000 cycles: 16429603 heartbeat IPC: 0.541876 cumulative IPC: 0.589545 (Simulation time: 0 hr 18 min 5 sec) 
Heartbeat CPU 0 instructions: 17000000 cycles: 18190244 heartbeat IPC: 0.567975 cumulative IPC: 0.586364 (Simulation time: 0 hr 19 min 21 sec) 
Heartbeat CPU 0 instructions: 18000002 cycles: 20002100 heartbeat IPC: 0.551921 cumulative IPC: 0.581825 (Simulation time: 0 hr 20 min 30 sec) 
Heartbeat CPU 0 instructions: 19000001 cycles: 21809416 heartbeat IPC: 0.553306 cumulative IPC: 0.578512 (Simulation time: 0 hr 21 min 42 sec) 
Heartbeat CPU 0 instructions: 20000000 cycles: 23703960 heartbeat IPC: 0.527831 cumulative IPC: 0.57301 (Simulation time: 0 hr 23 min 1 sec) 
Heartbeat CPU 0 instructions: 21000002 cycles: 25330496 heartbeat IPC: 0.614805 cumulative IPC: 0.576573 (Simulation time: 0 hr 24 min 14 sec) 
Heartbeat CPU 0 instructions: 22000002 cycles: 27634038 heartbeat IPC: 0.434114 cumulative IPC: 0.561226 (Simulation time: 0 hr 25 min 34 sec) 
Heartbeat CPU 0 instructions: 23000000 cycles: 29958280 heartbeat IPC: 0.430247 cumulative IPC: 0.548384 (Simulation time: 0 hr 26 min 56 sec) 
Heartbeat CPU 0 instructions: 24000000 cycles: 32213620 heartbeat IPC: 0.443392 cumulative IPC: 0.539263 (Simulation time: 0 hr 28 min 12 sec) 
Heartbeat CPU 0 instructions: 25000000 cycles: 34568259 heartbeat IPC: 0.424694 cumulative IPC: 0.529736 (Simulation time: 0 hr 29 min 32 sec) 
Heartbeat CPU 0 instructions: 26000002 cycles: 36830653 heartbeat IPC: 0.442011 cumulative IPC: 0.523245 (Simulation time: 0 hr 30 min 57 sec) 
Heartbeat CPU 0 instructions: 27000001 cycles: 39180290 heartbeat IPC: 0.425597 cumulative IPC: 0.516277 (Simulation time: 0 hr 32 min 24 sec) 
Heartbeat CPU 0 instructions: 28000000 cycles: 41541742 heartbeat IPC: 0.423468 cumulative IPC: 0.510067 (Simulation time: 0 hr 33 min 52 sec) 
Heartbeat CPU 0 instructions: 29000000 cycles: 43865620 heartbeat IPC: 0.430315 cumulative IPC: 0.50514 (Simulation time: 0 hr 35 min 25 sec) 
Heartbeat CPU 0 instructions: 30000000 cycles: 45211865 heartbeat IPC: 0.742807 cumulative IPC: 0.513352 (Simulation time: 0 hr 36 min 40 sec) 
Heartbeat CPU 0 instructions: 31000002 cycles: 46445066 heartbeat IPC: 0.810899 cumulative IPC: 0.522482 (Simulation time: 0 hr 37 min 50 sec) 
Heartbeat CPU 0 instructions: 32000000 cycles: 47709334 heartbeat IPC: 0.79097 cumulative IPC: 0.530669 (Simulation time: 0 hr 39 min 4 sec) 
Heartbeat CPU 0 instructions: 33000001 cycles: 48953376 heartbeat IPC: 0.803832 cumulative IPC: 0.538628 (Simulation time: 0 hr 40 min 16 sec) 
Heartbeat CPU 0 instructions: 34000003 cycles: 50237416 heartbeat IPC: 0.778794 cumulative IPC: 0.545639 (Simulation time: 0 hr 41 min 27 sec) 
Heartbeat CPU 0 instructions: 35000001 cycles: 51494420 heartbeat IPC: 0.795541 cumulative IPC: 0.552582 (Simulation time: 0 hr 42 min 40 sec) 
Heartbeat CPU 0 instructions: 36000000 cycles: 52804137 heartbeat IPC: 0.763523 cumulative IPC: 0.558517 (Simulation time: 0 hr 43 min 50 sec) 
Heartbeat CPU 0 instructions: 37000003 cycles: 54066023 heartbeat IPC: 0.792467 cumulative IPC: 0.564691 (Simulation time: 0 hr 45 min 1 sec) 
Heartbeat CPU 0 instructions: 38000000 cycles: 55331547 heartbeat IPC: 0.790184 cumulative IPC: 0.570505 (Simulation time: 0 hr 46 min 15 sec) 
Heartbeat CPU 0 instructions: 39000002 cycles: 56615370 heartbeat IPC: 0.778925 cumulative IPC: 0.575818 (Simulation time: 0 hr 47 min 29 sec) 
Heartbeat CPU 0 instructions: 40000000 cycles: 57860639 heartbeat IPC: 0.803038 cumulative IPC: 0.581301 (Simulation time: 0 hr 48 min 35 sec) 
Heartbeat CPU 0 instructions: 41000002 cycles: 59167294 heartbeat IPC: 0.765314 cumulative IPC: 0.585845 (Simulation time: 0 hr 49 min 40 sec) 
Heartbeat CPU 0 instructions: 42000002 cycles: 60425873 heartbeat IPC: 0.794547 cumulative IPC: 0.590694 (Simulation time: 0 hr 50 min 39 sec) 
Heartbeat CPU 0 instructions: 43000002 cycles: 61729780 heartbeat IPC: 0.766926 cumulative IPC: 0.594836 (Simulation time: 0 hr 51 min 40 sec) 
Heartbeat CPU 0 instructions: 44000000 cycles: 62995897 heartbeat IPC: 0.789815 cumulative IPC: 0.599186 (Simulation time: 0 hr 52 min 39 sec) 
Heartbeat CPU 0 instructions: 45000003 cycles: 64276543 heartbeat IPC: 0.780858 cumulative IPC: 0.603196 (Simulation time: 0 hr 53 min 44 sec) 
Heartbeat CPU 0 instructions: 46000001 cycles: 65593255 heartbeat IPC: 0.759466 cumulative IPC: 0.606663 (Simulation time: 0 hr 54 min 46 sec) 
Heartbeat CPU 0 instructions: 47000000 cycles: 66857951 heartbeat IPC: 0.790703 cumulative IPC: 0.610504 (Simulation time: 0 hr 55 min 45 sec) 
Heartbeat CPU 0 instructions: 48000000 cycles: 68182471 heartbeat IPC: 0.75499 cumulative IPC: 0.613594 (Simulation time: 0 hr 56 min 42 sec) 
Heartbeat CPU 0 instructions: 49000001 cycles: 69449801 heartbeat IPC: 0.789061 cumulative IPC: 0.617113 (Simulation time: 0 hr 57 min 42 sec) 
Heartbeat CPU 0 instructions: 50000001 cycles: 70763072 heartbeat IPC: 0.761457 cumulative IPC: 0.620051 (Simulation time: 0 hr 58 min 38 sec) 
Heartbeat CPU 0 instructions: 51000003 cycles: 72044053 heartbeat IPC: 0.780653 cumulative IPC: 0.623178 (Simulation time: 0 hr 59 min 36 sec) 
Heartbeat CPU 0 instructions: 52000000 cycles: 73312462 heartbeat IPC: 0.788387 cumulative IPC: 0.626303 (Simulation time: 1 hr 0 min 26 sec) 
Heartbeat CPU 0 instructions: 53000002 cycles: 74630201 heartbeat IPC: 0.758877 cumulative IPC: 0.628858 (Simulation time: 1 hr 1 min 13 sec) 
Heartbeat CPU 0 instructions: 54000001 cycles: 75890479 heartbeat IPC: 0.793475 cumulative IPC: 0.631837 (Simulation time: 1 hr 1 min 58 sec) 
Heartbeat CPU 0 instructions: 55000000 cycles: 77199813 heartbeat IPC: 0.763746 cumulative IPC: 0.634271 (Simulation time: 1 hr 2 min 39 sec) 
Heartbeat CPU 0 instructions: 56000000 cycles: 78482280 heartbeat IPC: 0.779747 cumulative IPC: 0.636854 (Simulation time: 1 hr 3 min 23 sec) 
Heartbeat CPU 0 instructions: 57000000 cycles: 79778128 heartbeat IPC: 0.771695 cumulative IPC: 0.639231 (Simulation time: 1 hr 4 min 2 sec) 
Heartbeat CPU 0 instructions: 58000001 cycles: 81048419 heartbeat IPC: 0.787222 cumulative IPC: 0.641744 (Simulation time: 1 hr 4 min 41 sec) 
Heartbeat CPU 0 instructions: 59000000 cycles: 82297410 heartbeat IPC: 0.800645 cumulative IPC: 0.644354 (Simulation time: 1 hr 5 min 16 sec) 
Heartbeat CPU 0 instructions: 60000000 cycles: 83594868 heartbeat IPC: 0.770738 cumulative IPC: 0.646474 (Simulation time: 1 hr 5 min 52 sec) 
Heartbeat CPU 0 instructions: 61000001 cycles: 84866032 heartbeat IPC: 0.786681 cumulative IPC: 0.648741 (Simulation time: 1 hr 6 min 25 sec) 
Heartbeat CPU 0 instructions: 62000002 cycles: 86142488 heartbeat IPC: 0.78342 cumulative IPC: 0.650893 (Simulation time: 1 hr 6 min 54 sec) 
Heartbeat CPU 0 instructions: 63000001 cycles: 87394947 heartbeat IPC: 0.798429 cumulative IPC: 0.65317 (Simulation time: 1 hr 7 min 27 sec) 
Heartbeat CPU 0 instructions: 64000000 cycles: 88681930 heartbeat IPC: 0.77701 cumulative IPC: 0.655104 (Simulation time: 1 hr 7 min 55 sec) 
Heartbeat CPU 0 instructions: 65000000 cycles: 89952774 heartbeat IPC: 0.786879 cumulative IPC: 0.657105 (Simulation time: 1 hr 8 min 24 sec) 
Heartbeat CPU 0 instructions: 66000000 cycles: 91232500 heartbeat IPC: 0.781417 cumulative IPC: 0.658977 (Simulation time: 1 hr 8 min 50 sec) 
Heartbeat CPU 0 instructions: 67000003 cycles: 92509967 heartbeat IPC: 0.782801 cumulative IPC: 0.660811 (Simulation time: 1 hr 9 min 17 sec) 
Heartbeat CPU 0 instructions: 68000000 cycles: 93784061 heartbeat IPC: 0.784869 cumulative IPC: 0.662616 (Simulation time: 1 hr 9 min 41 sec) 
Heartbeat CPU 0 instructions: 69000000 cycles: 95070648 heartbeat IPC: 0.77725 cumulative IPC: 0.664277 (Simulation time: 1 hr 10 min 5 sec) 
Heartbeat CPU 0 instructions: 70000001 cycles: 96341031 heartbeat IPC: 0.787165 cumulative IPC: 0.66601 (Simulation time: 1 hr 10 min 25 sec) 
Heartbeat CPU 0 instructions: 71000002 cycles: 97646902 heartbeat IPC: 0.765773 cumulative IPC: 0.667435 (Simulation time: 1 hr 10 min 42 sec) 
Heartbeat CPU 0 instructions: 72000000 cycles: 98907610 heartbeat IPC: 0.793203 cumulative IPC: 0.669146 (Simulation time: 1 hr 10 min 59 sec) 
Heartbeat CPU 0 instructions: 73000000 cycles: 100190439 heartbeat IPC: 0.779527 cumulative IPC: 0.670654 (Simulation time: 1 hr 11 min 15 sec) 
Heartbeat CPU 0 instructions: 74000000 cycles: 101464413 heartbeat IPC: 0.784945 cumulative IPC: 0.672183 (Simulation time: 1 hr 11 min 31 sec) 
Heartbeat CPU 0 instructions: 75000002 cycles: 102729227 heartbeat IPC: 0.790632 cumulative IPC: 0.673736 (Simulation time: 1 hr 11 min 47 sec) 
Heartbeat CPU 0 instructions: 76000000 cycles: 104029132 heartbeat IPC: 0.769285 cumulative IPC: 0.675006 (Simulation time: 1 hr 12 min 2 sec) 
Heartbeat CPU 0 instructions: 77000000 cycles: 105290146 heartbeat IPC: 0.793013 cumulative IPC: 0.676509 (Simulation time: 1 hr 12 min 17 sec) 
Heartbeat CPU 0 instructions: 78000003 cycles: 106608858 heartbeat IPC: 0.758318 cumulative IPC: 0.677584 (Simulation time: 1 hr 12 min 30 sec) 
Heartbeat CPU 0 instructions: 79000000 cycles: 108067608 heartbeat IPC: 0.685516 cumulative IPC: 0.677697 (Simulation time: 1 hr 12 min 40 sec) 
Heartbeat CPU 0 instructions: 80000000 cycles: 109723263 heartbeat IPC: 0.603991 cumulative IPC: 0.676518 (Simulation time: 1 hr 12 min 50 sec) 
Heartbeat CPU 0 instructions: 81000002 cycles: 111345873 heartbeat IPC: 0.616292 cumulative IPC: 0.675588 (Simulation time: 1 hr 12 min 59 sec) 
Heartbeat CPU 0 instructions: 82000003 cycles: 113016344 heartbeat IPC: 0.598634 cumulative IPC: 0.674384 (Simulation time: 1 hr 13 min 8 sec) 
Heartbeat CPU 0 instructions: 83000003 cycles: 114697959 heartbeat IPC: 0.594666 cumulative IPC: 0.673148 (Simulation time: 1 hr 13 min 17 sec) 
Heartbeat CPU 0 instructions: 84000000 cycles: 116325918 heartbeat IPC: 0.614264 cumulative IPC: 0.672277 (Simulation time: 1 hr 13 min 24 sec) 
Heartbeat CPU 0 instructions: 85000001 cycles: 117986840 heartbeat IPC: 0.602076 cumulative IPC: 0.671234 (Simulation time: 1 hr 13 min 32 sec) 
Heartbeat CPU 0 instructions: 86000002 cycles: 119619296 heartbeat IPC: 0.612575 cumulative IPC: 0.670389 (Simulation time: 1 hr 13 min 39 sec) 
Heartbeat CPU 0 instructions: 87000000 cycles: 121265876 heartbeat IPC: 0.607318 cumulative IPC: 0.669486 (Simulation time: 1 hr 13 min 46 sec) 
Heartbeat CPU 0 instructions: 88000000 cycles: 122940523 heartbeat IPC: 0.597141 cumulative IPC: 0.668448 (Simulation time: 1 hr 13 min 53 sec) 
Heartbeat CPU 0 instructions: 89000002 cycles: 124574352 heartbeat IPC: 0.61206 cumulative IPC: 0.667669 (Simulation time: 1 hr 13 min 59 sec) 
Heartbeat CPU 0 instructions: 90000001 cycles: 126217823 heartbeat IPC: 0.608468 cumulative IPC: 0.666858 (Simulation time: 1 hr 14 min 5 sec) 
Heartbeat CPU 0 instructions: 91000003 cycles: 127859475 heartbeat IPC: 0.609144 cumulative IPC: 0.666079 (Simulation time: 1 hr 14 min 11 sec) 
Heartbeat CPU 0 instructions: 92000000 cycles: 129516659 heartbeat IPC: 0.603431 cumulative IPC: 0.665237 (Simulation time: 1 hr 14 min 16 sec) 
Heartbeat CPU 0 instructions: 93000001 cycles: 131196233 heartbeat IPC: 0.59539 cumulative IPC: 0.664298 (Simulation time: 1 hr 14 min 22 sec) 
Heartbeat CPU 0 instructions: 94000003 cycles: 132861385 heartbeat IPC: 0.600547 cumulative IPC: 0.663459 (Simulation time: 1 hr 14 min 28 sec) 
Heartbeat CPU 0 instructions: 95000002 cycles: 134570229 heartbeat IPC: 0.58519 cumulative IPC: 0.662417 (Simulation time: 1 hr 14 min 33 sec) 
Heartbeat CPU 0 instructions: 96000000 cycles: 136226816 heartbeat IPC: 0.60365 cumulative IPC: 0.661668 (Simulation time: 1 hr 14 min 38 sec) 
Heartbeat CPU 0 instructions: 97000003 cycles: 138176324 heartbeat IPC: 0.512951 cumulative IPC: 0.65947 (Simulation time: 1 hr 14 min 44 sec) 
Heartbeat CPU 0 instructions: 98000002 cycles: 143324120 heartbeat IPC: 0.194258 cumulative IPC: 0.641999 (Simulation time: 1 hr 14 min 54 sec) 
Heartbeat CPU 0 instructions: 99000000 cycles: 146291356 heartbeat IPC: 0.337013 cumulative IPC: 0.635537 (Simulation time: 1 hr 15 min 3 sec) 
Heartbeat CPU 0 instructions: 100000000 cycles: 147958496 heartbeat IPC: 0.59983 cumulative IPC: 0.635117 (Simulation time: 1 hr 15 min 8 sec) 
Heartbeat CPU 0 instructions: 101000002 cycles: 149210667 heartbeat IPC: 0.798615 cumulative IPC: 0.636549 (Simulation time: 1 hr 15 min 12 sec) 
Heartbeat CPU 0 instructions: 102000003 cycles: 150533855 heartbeat IPC: 0.755751 cumulative IPC: 0.637642 (Simulation time: 1 hr 15 min 16 sec) 
Heartbeat CPU 0 instructions: 103000002 cycles: 151932235 heartbeat IPC: 0.715113 cumulative IPC: 0.638386 (Simulation time: 1 hr 15 min 21 sec) 
Heartbeat CPU 0 instructions: 104000000 cycles: 153430950 heartbeat IPC: 0.667237 cumulative IPC: 0.638679 (Simulation time: 1 hr 15 min 25 sec) 
Heartbeat CPU 0 instructions: 105000001 cycles: 154956000 heartbeat IPC: 0.655717 cumulative IPC: 0.638854 (Simulation time: 1 hr 15 min 30 sec) 
Heartbeat CPU 0 instructions: 106000001 cycles: 156485564 heartbeat IPC: 0.653781 cumulative IPC: 0.639006 (Simulation time: 1 hr 15 min 34 sec) 
Heartbeat CPU 0 instructions: 107000001 cycles: 158026567 heartbeat IPC: 0.648928 cumulative IPC: 0.639107 (Simulation time: 1 hr 15 min 39 sec) 
Heartbeat CPU 0 instructions: 108000000 cycles: 159566967 heartbeat IPC: 0.649181 cumulative IPC: 0.639208 (Simulation time: 1 hr 15 min 44 sec) 
Heartbeat CPU 0 instructions: 109000001 cycles: 161086022 heartbeat IPC: 0.658305 cumulative IPC: 0.639395 (Simulation time: 1 hr 15 min 48 sec) 
Heartbeat CPU 0 instructions: 110000001 cycles: 162627170 heartbeat IPC: 0.648867 cumulative IPC: 0.639489 (Simulation time: 1 hr 15 min 53 sec) 
Finished CPU 0 instructions: 100000000 cycles: 156374908 cummulative IPC: 0.639489 (Simulation time: 1 hr 15 min 53 sec) 

ChampSim completed all CPUs

Region of Interest Statistics

CPU 0 cummulative IPC: 0.639489 instructions: 100000000 cycles: 156374908
LLC TOTAL     ACCESS:    4599963  HIT:    1115926  MISS:    3484037
LLC LOAD      ACCESS:     465871  HIT:     132634  MISS:     333237
LLC RFO       ACCESS:     742963  HIT:      96446  MISS:     646517
LLC PREFETCH  ACCESS:    2290728  HIT:     536255  MISS:    1754473
LLC WRITEBACK ACCESS:    1100401  HIT:     350591  MISS:     749810
Insertion Distribution: 
	LOAD 32086 0 74866 229844 
	RFO 179 0 72292 576522 
	PREF 0 126430 318718 1484982 
	WRITEBACK 0 0 0 770589 
Total Prefetch Downgrades: 92097
