
*** ChampSim Multicore Out-of-Order Simulator ***

Warmup Instructions: 10000000
Simulation Instructions: 100000000
Configuration: 2
Number of CPUs: 1
LLC sets: 2048
LLC ways: 16
Off-chip DRAM Channels: 1 Width: 64-bit Data Rate: 1600 MT/s

CPU 0 runs /datasets/cs240c-wi22-a00-public/data/Assignment2-gz/leslie3d_1116B.trace.gz
CPU 0 L1D next line prefetcher
CPU 0 L2C IP-based stride prefetcher
Initialize SRRIP state
Heartbeat CPU 0 instructions: 1000003 cycles: 535311 heartbeat IPC: 1.86808 cumulative IPC: 1.86808 (Simulation time: 0 hr 0 min 38 sec) 
Heartbeat CPU 0 instructions: 2000003 cycles: 1071193 heartbeat IPC: 1.86608 cumulative IPC: 1.86708 (Simulation time: 0 hr 1 min 19 sec) 
Heartbeat CPU 0 instructions: 3000003 cycles: 1607887 heartbeat IPC: 1.86326 cumulative IPC: 1.8658 (Simulation time: 0 hr 2 min 0 sec) 
Heartbeat CPU 0 instructions: 4000000 cycles: 2143304 heartbeat IPC: 1.8677 cumulative IPC: 1.86628 (Simulation time: 0 hr 2 min 36 sec) 
Heartbeat CPU 0 instructions: 5000001 cycles: 2678446 heartbeat IPC: 1.86866 cumulative IPC: 1.86675 (Simulation time: 0 hr 3 min 16 sec) 
Heartbeat CPU 0 instructions: 6000001 cycles: 3213902 heartbeat IPC: 1.86757 cumulative IPC: 1.86689 (Simulation time: 0 hr 3 min 58 sec) 
Heartbeat CPU 0 instructions: 7000001 cycles: 3749873 heartbeat IPC: 1.86577 cumulative IPC: 1.86673 (Simulation time: 0 hr 4 min 44 sec) 
Heartbeat CPU 0 instructions: 8000000 cycles: 4285928 heartbeat IPC: 1.86548 cumulative IPC: 1.86657 (Simulation time: 0 hr 5 min 21 sec) 
Heartbeat CPU 0 instructions: 9000003 cycles: 4821088 heartbeat IPC: 1.86861 cumulative IPC: 1.8668 (Simulation time: 0 hr 5 min 55 sec) 
Heartbeat CPU 0 instructions: 10000002 cycles: 5356050 heartbeat IPC: 1.86929 cumulative IPC: 1.86705 (Simulation time: 0 hr 6 min 30 sec) 

Warmup complete CPU 0 instructions: 10000002 cycles: 5356050 (Simulation time: 0 hr 6 min 30 sec) 

Heartbeat CPU 0 instructions: 11000001 cycles: 6443317 heartbeat IPC: 0.919736 cumulative IPC: 0.919736 (Simulation time: 0 hr 7 min 8 sec) 
Heartbeat CPU 0 instructions: 12000000 cycles: 7492466 heartbeat IPC: 0.953152 cumulative IPC: 0.936146 (Simulation time: 0 hr 7 min 47 sec) 
Heartbeat CPU 0 instructions: 13000002 cycles: 8544374 heartbeat IPC: 0.950655 cumulative IPC: 0.940933 (Simulation time: 0 hr 8 min 25 sec) 
Heartbeat CPU 0 instructions: 14000003 cycles: 9590351 heartbeat IPC: 0.956045 cumulative IPC: 0.944666 (Simulation time: 0 hr 9 min 4 sec) 
Heartbeat CPU 0 instructions: 15000000 cycles: 10643499 heartbeat IPC: 0.949531 cumulative IPC: 0.945635 (Simulation time: 0 hr 9 min 40 sec) 
Heartbeat CPU 0 instructions: 16000000 cycles: 11701161 heartbeat IPC: 0.945482 cumulative IPC: 0.94561 (Simulation time: 0 hr 10 min 17 sec) 
Heartbeat CPU 0 instructions: 17000003 cycles: 12730521 heartbeat IPC: 0.97148 cumulative IPC: 0.949221 (Simulation time: 0 hr 10 min 55 sec) 
Heartbeat CPU 0 instructions: 18000001 cycles: 13772277 heartbeat IPC: 0.959916 cumulative IPC: 0.950545 (Simulation time: 0 hr 11 min 39 sec) 
Heartbeat CPU 0 instructions: 19000001 cycles: 14813093 heartbeat IPC: 0.960785 cumulative IPC: 0.951672 (Simulation time: 0 hr 12 min 23 sec) 
Heartbeat CPU 0 instructions: 20000000 cycles: 15854132 heartbeat IPC: 0.960578 cumulative IPC: 0.952555 (Simulation time: 0 hr 13 min 1 sec) 
Heartbeat CPU 0 instructions: 21000000 cycles: 16910676 heartbeat IPC: 0.946482 cumulative IPC: 0.951999 (Simulation time: 0 hr 13 min 41 sec) 
Heartbeat CPU 0 instructions: 22000000 cycles: 17945485 heartbeat IPC: 0.966362 cumulative IPC: 0.95318 (Simulation time: 0 hr 14 min 21 sec) 
Heartbeat CPU 0 instructions: 23000003 cycles: 19012287 heartbeat IPC: 0.937384 cumulative IPC: 0.951946 (Simulation time: 0 hr 14 min 56 sec) 
Heartbeat CPU 0 instructions: 24000000 cycles: 20054911 heartbeat IPC: 0.959116 cumulative IPC: 0.952455 (Simulation time: 0 hr 15 min 32 sec) 
Heartbeat CPU 0 instructions: 25000001 cycles: 21101852 heartbeat IPC: 0.955165 cumulative IPC: 0.952635 (Simulation time: 0 hr 16 min 13 sec) 
Heartbeat CPU 0 instructions: 26000002 cycles: 22174580 heartbeat IPC: 0.932204 cumulative IPC: 0.951332 (Simulation time: 0 hr 16 min 50 sec) 
Heartbeat CPU 0 instructions: 27000001 cycles: 23241408 heartbeat IPC: 0.937357 cumulative IPC: 0.950498 (Simulation time: 0 hr 17 min 27 sec) 
Heartbeat CPU 0 instructions: 28000000 cycles: 24273827 heartbeat IPC: 0.968598 cumulative IPC: 0.951486 (Simulation time: 0 hr 18 min 6 sec) 
Heartbeat CPU 0 instructions: 29000003 cycles: 25326963 heartbeat IPC: 0.949548 cumulative IPC: 0.951384 (Simulation time: 0 hr 18 min 42 sec) 
Heartbeat CPU 0 instructions: 30000000 cycles: 26397717 heartbeat IPC: 0.933919 cumulative IPC: 0.950495 (Simulation time: 0 hr 19 min 19 sec) 
Heartbeat CPU 0 instructions: 31000001 cycles: 27451459 heartbeat IPC: 0.949 cumulative IPC: 0.950424 (Simulation time: 0 hr 20 min 0 sec) 
Heartbeat CPU 0 instructions: 32000000 cycles: 28498328 heartbeat IPC: 0.955228 cumulative IPC: 0.950641 (Simulation time: 0 hr 20 min 38 sec) 
Heartbeat CPU 0 instructions: 33000002 cycles: 29563941 heartbeat IPC: 0.938429 cumulative IPC: 0.950103 (Simulation time: 0 hr 21 min 23 sec) 
Heartbeat CPU 0 instructions: 34000002 cycles: 30632552 heartbeat IPC: 0.935794 cumulative IPC: 0.949498 (Simulation time: 0 hr 22 min 5 sec) 
Heartbeat CPU 0 instructions: 35000000 cycles: 31699117 heartbeat IPC: 0.937587 cumulative IPC: 0.949016 (Simulation time: 0 hr 22 min 42 sec) 
Heartbeat CPU 0 instructions: 36000000 cycles: 32760730 heartbeat IPC: 0.941963 cumulative IPC: 0.948743 (Simulation time: 0 hr 23 min 23 sec) 
Heartbeat CPU 0 instructions: 37000003 cycles: 34022063 heartbeat IPC: 0.792814 cumulative IPC: 0.941882 (Simulation time: 0 hr 24 min 7 sec) 
Heartbeat CPU 0 instructions: 38000003 cycles: 35520438 heartbeat IPC: 0.66739 cumulative IPC: 0.928247 (Simulation time: 0 hr 24 min 45 sec) 
Heartbeat CPU 0 instructions: 39000003 cycles: 37055272 heartbeat IPC: 0.651536 cumulative IPC: 0.914849 (Simulation time: 0 hr 25 min 24 sec) 
Heartbeat CPU 0 instructions: 40000000 cycles: 38599701 heartbeat IPC: 0.647487 cumulative IPC: 0.902428 (Simulation time: 0 hr 26 min 1 sec) 
Heartbeat CPU 0 instructions: 41000002 cycles: 40131421 heartbeat IPC: 0.652862 cumulative IPC: 0.891436 (Simulation time: 0 hr 26 min 38 sec) 
Heartbeat CPU 0 instructions: 42000001 cycles: 41666356 heartbeat IPC: 0.651493 cumulative IPC: 0.881292 (Simulation time: 0 hr 27 min 18 sec) 
Heartbeat CPU 0 instructions: 43000003 cycles: 43192977 heartbeat IPC: 0.655043 cumulative IPC: 0.872164 (Simulation time: 0 hr 27 min 53 sec) 
Heartbeat CPU 0 instructions: 44000000 cycles: 44722557 heartbeat IPC: 0.653772 cumulative IPC: 0.863678 (Simulation time: 0 hr 28 min 29 sec) 
Heartbeat CPU 0 instructions: 45000002 cycles: 46255145 heartbeat IPC: 0.652492 cumulative IPC: 0.855765 (Simulation time: 0 hr 29 min 10 sec) 
Heartbeat CPU 0 instructions: 46000002 cycles: 47796342 heartbeat IPC: 0.648846 cumulative IPC: 0.848251 (Simulation time: 0 hr 29 min 46 sec) 
Heartbeat CPU 0 instructions: 47000001 cycles: 49327433 heartbeat IPC: 0.653128 cumulative IPC: 0.841456 (Simulation time: 0 hr 30 min 29 sec) 
Heartbeat CPU 0 instructions: 48000000 cycles: 50847731 heartbeat IPC: 0.657765 cumulative IPC: 0.835317 (Simulation time: 0 hr 31 min 6 sec) 
Heartbeat CPU 0 instructions: 49000002 cycles: 52963583 heartbeat IPC: 0.472624 cumulative IPC: 0.819198 (Simulation time: 0 hr 31 min 48 sec) 
Heartbeat CPU 0 instructions: 50000000 cycles: 55333572 heartbeat IPC: 0.421942 cumulative IPC: 0.80036 (Simulation time: 0 hr 32 min 34 sec) 
Heartbeat CPU 0 instructions: 51000003 cycles: 57614255 heartbeat IPC: 0.438466 cumulative IPC: 0.784566 (Simulation time: 0 hr 33 min 18 sec) 
Heartbeat CPU 0 instructions: 52000000 cycles: 60008480 heartbeat IPC: 0.41767 cumulative IPC: 0.768493 (Simulation time: 0 hr 34 min 4 sec) 
Heartbeat CPU 0 instructions: 53000003 cycles: 62403595 heartbeat IPC: 0.417518 cumulative IPC: 0.753757 (Simulation time: 0 hr 34 min 47 sec) 
Heartbeat CPU 0 instructions: 54000000 cycles: 64726658 heartbeat IPC: 0.430465 cumulative IPC: 0.741107 (Simulation time: 0 hr 35 min 38 sec) 
Heartbeat CPU 0 instructions: 55000002 cycles: 67034453 heartbeat IPC: 0.433315 cumulative IPC: 0.729591 (Simulation time: 0 hr 36 min 29 sec) 
Heartbeat CPU 0 instructions: 56000000 cycles: 69407734 heartbeat IPC: 0.421357 cumulative IPC: 0.71817 (Simulation time: 0 hr 37 min 24 sec) 
Heartbeat CPU 0 instructions: 57000001 cycles: 71743158 heartbeat IPC: 0.428188 cumulative IPC: 0.707969 (Simulation time: 0 hr 38 min 16 sec) 
Heartbeat CPU 0 instructions: 58000001 cycles: 73991077 heartbeat IPC: 0.444856 cumulative IPC: 0.699351 (Simulation time: 0 hr 39 min 6 sec) 
Heartbeat CPU 0 instructions: 59000000 cycles: 75259596 heartbeat IPC: 0.78832 cumulative IPC: 0.700966 (Simulation time: 0 hr 39 min 50 sec) 
Heartbeat CPU 0 instructions: 60000000 cycles: 76542103 heartbeat IPC: 0.779723 cumulative IPC: 0.702385 (Simulation time: 0 hr 40 min 34 sec) 
Heartbeat CPU 0 instructions: 61000003 cycles: 77917253 heartbeat IPC: 0.727196 cumulative IPC: 0.702855 (Simulation time: 0 hr 41 min 16 sec) 
Heartbeat CPU 0 instructions: 62000002 cycles: 79253010 heartbeat IPC: 0.748638 cumulative IPC: 0.703683 (Simulation time: 0 hr 41 min 57 sec) 
Heartbeat CPU 0 instructions: 63000003 cycles: 80460078 heartbeat IPC: 0.828455 cumulative IPC: 0.705688 (Simulation time: 0 hr 42 min 40 sec) 
Heartbeat CPU 0 instructions: 64000000 cycles: 81695711 heartbeat IPC: 0.809299 cumulative IPC: 0.707365 (Simulation time: 0 hr 43 min 24 sec) 
Heartbeat CPU 0 instructions: 65000001 cycles: 83207998 heartbeat IPC: 0.661251 cumulative IPC: 0.706469 (Simulation time: 0 hr 44 min 9 sec) 
Heartbeat CPU 0 instructions: 66000000 cycles: 84412531 heartbeat IPC: 0.830196 cumulative IPC: 0.708354 (Simulation time: 0 hr 44 min 56 sec) 
Heartbeat CPU 0 instructions: 67000001 cycles: 85628765 heartbeat IPC: 0.822211 cumulative IPC: 0.710079 (Simulation time: 0 hr 45 min 39 sec) 
Heartbeat CPU 0 instructions: 68000000 cycles: 87052310 heartbeat IPC: 0.702471 cumulative IPC: 0.709947 (Simulation time: 0 hr 46 min 16 sec) 
Heartbeat CPU 0 instructions: 69000002 cycles: 88350401 heartbeat IPC: 0.770364 cumulative IPC: 0.710892 (Simulation time: 0 hr 46 min 55 sec) 
Heartbeat CPU 0 instructions: 70000000 cycles: 89545677 heartbeat IPC: 0.836625 cumulative IPC: 0.712677 (Simulation time: 0 hr 47 min 35 sec) 
Heartbeat CPU 0 instructions: 71000002 cycles: 90765637 heartbeat IPC: 0.819701 cumulative IPC: 0.714206 (Simulation time: 0 hr 48 min 15 sec) 
Heartbeat CPU 0 instructions: 72000000 cycles: 92210543 heartbeat IPC: 0.692085 cumulative IPC: 0.713838 (Simulation time: 0 hr 48 min 56 sec) 
Heartbeat CPU 0 instructions: 73000000 cycles: 93410506 heartbeat IPC: 0.833359 cumulative IPC: 0.715466 (Simulation time: 0 hr 49 min 40 sec) 
Heartbeat CPU 0 instructions: 74000000 cycles: 94591738 heartbeat IPC: 0.846574 cumulative IPC: 0.717202 (Simulation time: 0 hr 50 min 27 sec) 
Heartbeat CPU 0 instructions: 75000002 cycles: 96025058 heartbeat IPC: 0.697682 cumulative IPC: 0.716893 (Simulation time: 0 hr 51 min 13 sec) 
Heartbeat CPU 0 instructions: 76000000 cycles: 97206668 heartbeat IPC: 0.846301 cumulative IPC: 0.718558 (Simulation time: 0 hr 52 min 0 sec) 
Heartbeat CPU 0 instructions: 77000001 cycles: 98375774 heartbeat IPC: 0.855355 cumulative IPC: 0.720277 (Simulation time: 0 hr 52 min 44 sec) 
Heartbeat CPU 0 instructions: 78000000 cycles: 99652359 heartbeat IPC: 0.783339 cumulative IPC: 0.721131 (Simulation time: 0 hr 53 min 29 sec) 
Heartbeat CPU 0 instructions: 79000001 cycles: 100964740 heartbeat IPC: 0.761975 cumulative IPC: 0.721692 (Simulation time: 0 hr 54 min 20 sec) 
Heartbeat CPU 0 instructions: 80000000 cycles: 102130805 heartbeat IPC: 0.857584 cumulative IPC: 0.723329 (Simulation time: 0 hr 55 min 6 sec) 
Heartbeat CPU 0 instructions: 81000003 cycles: 103302713 heartbeat IPC: 0.853312 cumulative IPC: 0.724884 (Simulation time: 0 hr 55 min 52 sec) 
Heartbeat CPU 0 instructions: 82000000 cycles: 104713783 heartbeat IPC: 0.70868 cumulative IPC: 0.724654 (Simulation time: 0 hr 56 min 35 sec) 
Heartbeat CPU 0 instructions: 83000001 cycles: 105884368 heartbeat IPC: 0.854275 cumulative IPC: 0.726164 (Simulation time: 0 hr 57 min 20 sec) 
Heartbeat CPU 0 instructions: 84000000 cycles: 107062148 heartbeat IPC: 0.849054 cumulative IPC: 0.727587 (Simulation time: 0 hr 58 min 2 sec) 
Heartbeat CPU 0 instructions: 85000003 cycles: 108438779 heartbeat IPC: 0.726413 cumulative IPC: 0.727571 (Simulation time: 0 hr 58 min 43 sec) 
Heartbeat CPU 0 instructions: 86000002 cycles: 109639832 heartbeat IPC: 0.832602 cumulative IPC: 0.728781 (Simulation time: 0 hr 59 min 24 sec) 
Heartbeat CPU 0 instructions: 87000001 cycles: 110807339 heartbeat IPC: 0.856525 cumulative IPC: 0.730195 (Simulation time: 1 hr 0 min 6 sec) 
Heartbeat CPU 0 instructions: 88000000 cycles: 112000919 heartbeat IPC: 0.837815 cumulative IPC: 0.731399 (Simulation time: 1 hr 0 min 45 sec) 
Heartbeat CPU 0 instructions: 89000001 cycles: 113391924 heartbeat IPC: 0.718905 cumulative IPC: 0.731239 (Simulation time: 1 hr 1 min 21 sec) 
Heartbeat CPU 0 instructions: 90000003 cycles: 114560209 heartbeat IPC: 0.855957 cumulative IPC: 0.732573 (Simulation time: 1 hr 1 min 57 sec) 
Heartbeat CPU 0 instructions: 91000000 cycles: 115742275 heartbeat IPC: 0.845974 cumulative IPC: 0.733787 (Simulation time: 1 hr 2 min 30 sec) 
Heartbeat CPU 0 instructions: 92000000 cycles: 117151717 heartbeat IPC: 0.709501 cumulative IPC: 0.733481 (Simulation time: 1 hr 3 min 1 sec) 
Heartbeat CPU 0 instructions: 93000002 cycles: 118321525 heartbeat IPC: 0.854843 cumulative IPC: 0.734738 (Simulation time: 1 hr 3 min 33 sec) 
Heartbeat CPU 0 instructions: 94000000 cycles: 119500876 heartbeat IPC: 0.847922 cumulative IPC: 0.735907 (Simulation time: 1 hr 4 min 5 sec) 
Heartbeat CPU 0 instructions: 95000003 cycles: 120807724 heartbeat IPC: 0.765202 cumulative IPC: 0.736239 (Simulation time: 1 hr 4 min 35 sec) 
Heartbeat CPU 0 instructions: 96000000 cycles: 122114059 heartbeat IPC: 0.765498 cumulative IPC: 0.736566 (Simulation time: 1 hr 5 min 1 sec) 
Heartbeat CPU 0 instructions: 97000000 cycles: 123270206 heartbeat IPC: 0.864942 cumulative IPC: 0.737825 (Simulation time: 1 hr 5 min 26 sec) 
Heartbeat CPU 0 instructions: 98000000 cycles: 124452113 heartbeat IPC: 0.84609 cumulative IPC: 0.738899 (Simulation time: 1 hr 5 min 53 sec) 
Heartbeat CPU 0 instructions: 99000003 cycles: 125858588 heartbeat IPC: 0.710999 cumulative IPC: 0.738574 (Simulation time: 1 hr 6 min 18 sec) 
Heartbeat CPU 0 instructions: 100000000 cycles: 127034881 heartbeat IPC: 0.850126 cumulative IPC: 0.739652 (Simulation time: 1 hr 6 min 42 sec) 
Heartbeat CPU 0 instructions: 101000001 cycles: 128222476 heartbeat IPC: 0.842039 cumulative IPC: 0.740642 (Simulation time: 1 hr 7 min 7 sec) 
Heartbeat CPU 0 instructions: 102000003 cycles: 129629477 heartbeat IPC: 0.710733 cumulative IPC: 0.740303 (Simulation time: 1 hr 7 min 29 sec) 
Heartbeat CPU 0 instructions: 103000002 cycles: 130820540 heartbeat IPC: 0.839585 cumulative IPC: 0.741246 (Simulation time: 1 hr 7 min 52 sec) 
Heartbeat CPU 0 instructions: 104000000 cycles: 132010684 heartbeat IPC: 0.840233 cumulative IPC: 0.742176 (Simulation time: 1 hr 8 min 16 sec) 
Heartbeat CPU 0 instructions: 105000000 cycles: 133230739 heartbeat IPC: 0.819635 cumulative IPC: 0.742915 (Simulation time: 1 hr 8 min 37 sec) 
Heartbeat CPU 0 instructions: 106000003 cycles: 134965711 heartbeat IPC: 0.57638 cumulative IPC: 0.740686 (Simulation time: 1 hr 8 min 59 sec) 
Heartbeat CPU 0 instructions: 107000002 cycles: 136607377 heartbeat IPC: 0.609137 cumulative IPC: 0.73904 (Simulation time: 1 hr 9 min 20 sec) 
Heartbeat CPU 0 instructions: 108000000 cycles: 138396867 heartbeat IPC: 0.558817 cumulative IPC: 0.736616 (Simulation time: 1 hr 9 min 42 sec) 
Heartbeat CPU 0 instructions: 109000003 cycles: 140120286 heartbeat IPC: 0.580244 cumulative IPC: 0.734616 (Simulation time: 1 hr 10 min 2 sec) 
Heartbeat CPU 0 instructions: 110000003 cycles: 141932978 heartbeat IPC: 0.551666 cumulative IPC: 0.732188 (Simulation time: 1 hr 10 min 22 sec) 
Finished CPU 0 instructions: 100000001 cycles: 136576928 cummulative IPC: 0.732188 (Simulation time: 1 hr 10 min 22 sec) 

ChampSim completed all CPUs

Region of Interest Statistics

CPU 0 cummulative IPC: 0.732188 instructions: 100000001 cycles: 136576928
LLC TOTAL     ACCESS:    3583034  HIT:     784573  MISS:    2798461
LLC LOAD      ACCESS:     297591  HIT:      68662  MISS:     228929
LLC RFO       ACCESS:     622472  HIT:     116565  MISS:     505907
LLC PREFETCH  ACCESS:    1899579  HIT:     352906  MISS:    1546673
LLC WRITEBACK ACCESS:     763392  HIT:     246440  MISS:     516952
Insertion Distribution: 
	LOAD 15960 0 46764 168865 
	RFO 43 0 66751 465506 
	PREF 0 42425 218059 1400104 
	WRITEBACK 0 0 0 535286 
Total Prefetch Downgrades: 35240
