Initialize SIGNATURE TABLE
ST_SET: 1
ST_WAY: 256
ST_TAG_BIT: 16
ST_TAG_MASK: ffff

Initialize PATTERN TABLE
PT_SET: 512
PT_WAY: 4
SIG_DELTA_BIT: 7
C_SIG_BIT: 4
C_DELTA_BIT: 4

Initialize PREFETCH FILTER
FILTER_SET: 1024

*** ChampSim Multicore Out-of-Order Simulator ***

Warmup Instructions: 50000000
Simulation Instructions: 50000000
Number of CPUs: 1
LLC sets: 2048
LLC ways: 16
Off-chip DRAM Size: 4096 MB Channels: 1 Width: 64-bit Data Rate: 3200 MT/s

CPU 0 runs /Users/gandhardeshpande/Desktop/CSE240C/HW1/ChampSim/ipc1_public/server_009.champsimtrace.xz
CPU 0 L1D next line prefetcher
Heartbeat CPU 0 instructions: 10000003 cycles: 3201439 heartbeat IPC: 3.1236 cumulative IPC: 3.1236 (Simulation time: 0 hr 0 min 13 sec) 
Heartbeat CPU 0 instructions: 20000001 cycles: 6396404 heartbeat IPC: 3.12992 cumulative IPC: 3.12676 (Simulation time: 0 hr 0 min 26 sec) 
Heartbeat CPU 0 instructions: 30000002 cycles: 9605848 heartbeat IPC: 3.1158 cumulative IPC: 3.1231 (Simulation time: 0 hr 0 min 39 sec) 
Heartbeat CPU 0 instructions: 40000003 cycles: 12811818 heartbeat IPC: 3.11918 cumulative IPC: 3.12212 (Simulation time: 0 hr 0 min 53 sec) 
Heartbeat CPU 0 instructions: 50000000 cycles: 16074052 heartbeat IPC: 3.06538 cumulative IPC: 3.1106 (Simulation time: 0 hr 1 min 6 sec) 

Warmup complete CPU 0 instructions: 50000004 cycles: 16074053 (Simulation time: 0 hr 1 min 6 sec) 

Heartbeat CPU 0 instructions: 60000002 cycles: 34114693 heartbeat IPC: 0.554304 cumulative IPC: 0.554304 (Simulation time: 0 hr 1 min 22 sec) 
Heartbeat CPU 0 instructions: 70000003 cycles: 56048415 heartbeat IPC: 0.455919 cumulative IPC: 0.500321 (Simulation time: 0 hr 1 min 43 sec) 
Heartbeat CPU 0 instructions: 80000000 cycles: 66848642 heartbeat IPC: 0.925906 cumulative IPC: 0.590847 (Simulation time: 0 hr 1 min 53 sec) 
Heartbeat CPU 0 instructions: 90000001 cycles: 77768767 heartbeat IPC: 0.915741 cumulative IPC: 0.648354 (Simulation time: 0 hr 2 min 3 sec) 
Heartbeat CPU 0 instructions: 100000003 cycles: 88535692 heartbeat IPC: 0.92877 cumulative IPC: 0.69002 (Simulation time: 0 hr 2 min 14 sec) 
Finished CPU 0 instructions: 50000003 cycles: 72461640 cumulative IPC: 0.69002 (Simulation time: 0 hr 2 min 14 sec) 

ChampSim completed all CPUs

Region of Interest Statistics

CPU 0 cumulative IPC: 0.69002 instructions: 50000003 cycles: 72461640
L1D TOTAL     ACCESS:   22547872  HIT:   17967306  MISS:    4580566
L1D LOAD      ACCESS:    9062349  HIT:    6792331  MISS:    2270018
L1D RFO       ACCESS:    4623079  HIT:    4518268  MISS:     104811
L1D PREFETCH  ACCESS:    8862444  HIT:    6656707  MISS:    2205737
L1D WRITEBACK ACCESS:          0  HIT:          0  MISS:          0
L1D PREFETCH  REQUESTED:    9097265  ISSUED:    8995212  USEFUL:     116699  USELESS:    2089036
L1D AVERAGE MISS LATENCY: 20.0012 cycles
L1I TOTAL     ACCESS:   10627593  HIT:    9605511  MISS:    1022082
L1I LOAD      ACCESS:   10627593  HIT:    9605511  MISS:    1022082
L1I RFO       ACCESS:          0  HIT:          0  MISS:          0
L1I PREFETCH  ACCESS:          0  HIT:          0  MISS:          0
L1I WRITEBACK ACCESS:          0  HIT:          0  MISS:          0
L1I PREFETCH  REQUESTED:          0  ISSUED:          0  USEFUL:          0  USELESS:          0
L1I AVERAGE MISS LATENCY: 31.6164 cycles
L2C TOTAL     ACCESS:    7687541  HIT:    6714482  MISS:     973059
L2C LOAD      ACCESS:    3275674  HIT:    2620515  MISS:     655159
L2C RFO       ACCESS:     103887  HIT:      64747  MISS:      39140
L2C PREFETCH  ACCESS:    4051107  HIT:    3773006  MISS:     278101
L2C WRITEBACK ACCESS:     256873  HIT:     256214  MISS:        659
L2C PREFETCH  REQUESTED:    7308107  ISSUED:    7307652  USEFUL:      53858  USELESS:     224237
L2C AVERAGE MISS LATENCY: 41.7698 cycles
LLC TOTAL     ACCESS:    2877529  HIT:    2716150  MISS:     161379
LLC LOAD      ACCESS:     630491  HIT:     592886  MISS:      37605
LLC RFO       ACCESS:      39139  HIT:      30237  MISS:       8902
LLC PREFETCH  ACCESS:    2074498  HIT:    1960103  MISS:     114395
LLC WRITEBACK ACCESS:     133401  HIT:     132924  MISS:        477
LLC PREFETCH  REQUESTED:          0  ISSUED:          0  USEFUL:      23193  USELESS:      90240
LLC AVERAGE MISS LATENCY: 160.543 cycles
Major fault: 0 Minor fault: 6351
CPU 0 L1D next line prefetcher final stats

DRAM Statistics
 CHANNEL 0
 RQ ROW_BUFFER_HIT:      32017  ROW_BUFFER_MISS:     128878
 DBUS_CONGESTED:      64006
 WQ ROW_BUFFER_HIT:       8604  ROW_BUFFER_MISS:      39989  FULL:          0

 AVG_CONGESTED_CYCLE: 5

CPU 0 Branch Prediction Accuracy: 99.4713% MPKI: 1.11484 Average ROB Occupancy at Mispredict: 74.2758

Branch types
NOT_BRANCH: 39456615 78.9132%
BRANCH_DIRECT_JUMP: 445350 0.8907%
BRANCH_INDIRECT: 131149 0.262298%
BRANCH_CONDITIONAL: 8130196 16.2604%
BRANCH_DIRECT_CALL: 732485 1.46497%
BRANCH_INDIRECT_CALL: 172369 0.344738%
BRANCH_RETURN: 931558 1.86312%
BRANCH_OTHER: 0 0%

