Initialize SIGNATURE TABLE
ST_SET: 1
ST_WAY: 256
ST_TAG_BIT: 16
ST_TAG_MASK: ffff

Initialize PATTERN TABLE
PT_SET: 512
PT_WAY: 4
SIG_DELTA_BIT: 7
C_SIG_BIT: 4
C_DELTA_BIT: 4

Initialize PREFETCH FILTER
FILTER_SET: 1024

*** ChampSim Multicore Out-of-Order Simulator ***

Warmup Instructions: 50000000
Simulation Instructions: 50000000
Number of CPUs: 1
LLC sets: 2048
LLC ways: 16
Off-chip DRAM Size: 4096 MB Channels: 1 Width: 64-bit Data Rate: 3200 MT/s

CPU 0 runs /Users/gandhardeshpande/Desktop/CSE240C/HW1/ChampSim/ipc1_public/spec_gobmk_002.champsimtrace.xz
CPU 0 L1D next line prefetcher
Heartbeat CPU 0 instructions: 10000001 cycles: 3287511 heartbeat IPC: 3.04182 cumulative IPC: 3.04182 (Simulation time: 0 hr 0 min 12 sec) 
Heartbeat CPU 0 instructions: 20000000 cycles: 6619144 heartbeat IPC: 3.00153 cumulative IPC: 3.02154 (Simulation time: 0 hr 0 min 24 sec) 
Heartbeat CPU 0 instructions: 30000000 cycles: 9957156 heartbeat IPC: 2.9958 cumulative IPC: 3.01291 (Simulation time: 0 hr 0 min 36 sec) 
Heartbeat CPU 0 instructions: 40000000 cycles: 13266621 heartbeat IPC: 3.02164 cumulative IPC: 3.01509 (Simulation time: 0 hr 0 min 48 sec) 
Heartbeat CPU 0 instructions: 50000003 cycles: 16530232 heartbeat IPC: 3.06409 cumulative IPC: 3.02476 (Simulation time: 0 hr 1 min 0 sec) 

Warmup complete CPU 0 instructions: 50000003 cycles: 16530232 (Simulation time: 0 hr 1 min 0 sec) 

Heartbeat CPU 0 instructions: 60000003 cycles: 24508191 heartbeat IPC: 1.25345 cumulative IPC: 1.25345 (Simulation time: 0 hr 1 min 9 sec) 
Heartbeat CPU 0 instructions: 70000001 cycles: 32455643 heartbeat IPC: 1.25826 cumulative IPC: 1.25585 (Simulation time: 0 hr 1 min 17 sec) 
Heartbeat CPU 0 instructions: 80000000 cycles: 40224153 heartbeat IPC: 1.28725 cumulative IPC: 1.26615 (Simulation time: 0 hr 1 min 25 sec) 
Heartbeat CPU 0 instructions: 90000001 cycles: 48250634 heartbeat IPC: 1.24588 cumulative IPC: 1.26102 (Simulation time: 0 hr 1 min 33 sec) 
Heartbeat CPU 0 instructions: 100000003 cycles: 56461096 heartbeat IPC: 1.21796 cumulative IPC: 1.25216 (Simulation time: 0 hr 1 min 41 sec) 
Finished CPU 0 instructions: 50000000 cycles: 39930864 cumulative IPC: 1.25216 (Simulation time: 0 hr 1 min 41 sec) 

ChampSim completed all CPUs

Region of Interest Statistics

CPU 0 cumulative IPC: 1.25216 instructions: 50000000 cycles: 39930864
L1D TOTAL     ACCESS:   17776589  HIT:   17653451  MISS:     123138
L1D LOAD      ACCESS:    6730844  HIT:    6696689  MISS:      34155
L1D RFO       ACCESS:    4393045  HIT:    4350422  MISS:      42623
L1D PREFETCH  ACCESS:    6652700  HIT:    6606340  MISS:      46360
L1D WRITEBACK ACCESS:          0  HIT:          0  MISS:          0
L1D PREFETCH  REQUESTED:    6733211  ISSUED:    6665768  USEFUL:      17288  USELESS:      29254
L1D AVERAGE MISS LATENCY: 50.4205 cycles
L1I TOTAL     ACCESS:    8843600  HIT:    8420121  MISS:     423479
L1I LOAD      ACCESS:    8843600  HIT:    8420121  MISS:     423479
L1I RFO       ACCESS:          0  HIT:          0  MISS:          0
L1I PREFETCH  ACCESS:          0  HIT:          0  MISS:          0
L1I WRITEBACK ACCESS:          0  HIT:          0  MISS:          0
L1I PREFETCH  REQUESTED:          0  ISSUED:          0  USEFUL:          0  USELESS:          0
L1I AVERAGE MISS LATENCY: 14.6734 cycles
L2C TOTAL     ACCESS:    1001397  HIT:     964129  MISS:      37268
L2C LOAD      ACCESS:     456729  HIT:     440973  MISS:      15756
L2C RFO       ACCESS:      42520  HIT:      39698  MISS:       2822
L2C PREFETCH  ACCESS:     427942  HIT:     409365  MISS:      18577
L2C WRITEBACK ACCESS:      74206  HIT:      74093  MISS:        113
L2C PREFETCH  REQUESTED:     447482  ISSUED:     447481  USEFUL:       2041  USELESS:      17119
L2C AVERAGE MISS LATENCY: 125.236 cycles
LLC TOTAL     ACCESS:      94893  HIT:      64280  MISS:      30613
LLC LOAD      ACCESS:      15756  HIT:       6809  MISS:       8947
LLC RFO       ACCESS:       2822  HIT:       1209  MISS:       1613
LLC PREFETCH  ACCESS:      58396  HIT:      38766  MISS:      19630
LLC WRITEBACK ACCESS:      17919  HIT:      17496  MISS:        423
LLC PREFETCH  REQUESTED:          0  ISSUED:          0  USEFUL:       2211  USELESS:      17524
LLC AVERAGE MISS LATENCY: 182.868 cycles
Major fault: 0 Minor fault: 2776
CPU 0 L1D next line prefetcher final stats

DRAM Statistics
 CHANNEL 0
 RQ ROW_BUFFER_HIT:       2646  ROW_BUFFER_MISS:      27544
 DBUS_CONGESTED:      14649
 WQ ROW_BUFFER_HIT:        822  ROW_BUFFER_MISS:      12223  FULL:          0

 AVG_CONGESTED_CYCLE: 4

CPU 0 Branch Prediction Accuracy: 93.9974% MPKI: 10.2447 Average ROB Occupancy at Mispredict: 37.0099

Branch types
NOT_BRANCH: 41466058 82.9321%
BRANCH_DIRECT_JUMP: 464313 0.928626%
BRANCH_INDIRECT: 32 6.4e-05%
BRANCH_CONDITIONAL: 7069453 14.1389%
BRANCH_DIRECT_CALL: 499587 0.999174%
BRANCH_INDIRECT_CALL: 342 0.000684%
BRANCH_RETURN: 499906 0.999812%
BRANCH_OTHER: 0 0%

