Initialize SIGNATURE TABLE
ST_SET: 1
ST_WAY: 256
ST_TAG_BIT: 16
ST_TAG_MASK: ffff

Initialize PATTERN TABLE
PT_SET: 512
PT_WAY: 4
SIG_DELTA_BIT: 7
C_SIG_BIT: 4
C_DELTA_BIT: 4

Initialize PREFETCH FILTER
FILTER_SET: 1024

*** ChampSim Multicore Out-of-Order Simulator ***

Warmup Instructions: 50000000
Simulation Instructions: 50000000
Number of CPUs: 1
LLC sets: 2048
LLC ways: 16
Off-chip DRAM Size: 4096 MB Channels: 1 Width: 64-bit Data Rate: 3200 MT/s

CPU 0 runs /Users/gandhardeshpande/Desktop/CSE240C/HW1/ChampSim/ipc1_public/spec_gcc_001.champsimtrace.xz
CPU 0 L1D next line prefetcher
Heartbeat CPU 0 instructions: 10000003 cycles: 3219094 heartbeat IPC: 3.10647 cumulative IPC: 3.10647 (Simulation time: 0 hr 0 min 13 sec) 
Heartbeat CPU 0 instructions: 20000002 cycles: 6463251 heartbeat IPC: 3.08246 cumulative IPC: 3.09442 (Simulation time: 0 hr 0 min 26 sec) 
Heartbeat CPU 0 instructions: 30000000 cycles: 9664426 heartbeat IPC: 3.12385 cumulative IPC: 3.10417 (Simulation time: 0 hr 0 min 39 sec) 
Heartbeat CPU 0 instructions: 40000001 cycles: 12904579 heartbeat IPC: 3.08627 cumulative IPC: 3.09967 (Simulation time: 0 hr 0 min 52 sec) 
Heartbeat CPU 0 instructions: 50000001 cycles: 16144519 heartbeat IPC: 3.08648 cumulative IPC: 3.09703 (Simulation time: 0 hr 1 min 5 sec) 

Warmup complete CPU 0 instructions: 50000001 cycles: 16144519 (Simulation time: 0 hr 1 min 5 sec) 

Heartbeat CPU 0 instructions: 60000000 cycles: 24238128 heartbeat IPC: 1.23554 cumulative IPC: 1.23554 (Simulation time: 0 hr 1 min 16 sec) 
Heartbeat CPU 0 instructions: 70000002 cycles: 32383495 heartbeat IPC: 1.22769 cumulative IPC: 1.2316 (Simulation time: 0 hr 1 min 27 sec) 
Heartbeat CPU 0 instructions: 80000000 cycles: 40054094 heartbeat IPC: 1.30368 cumulative IPC: 1.25473 (Simulation time: 0 hr 1 min 39 sec) 
Heartbeat CPU 0 instructions: 90000001 cycles: 48196301 heartbeat IPC: 1.22817 cumulative IPC: 1.24798 (Simulation time: 0 hr 1 min 50 sec) 
Heartbeat CPU 0 instructions: 100000000 cycles: 56675122 heartbeat IPC: 1.17941 cumulative IPC: 1.23364 (Simulation time: 0 hr 2 min 1 sec) 
Finished CPU 0 instructions: 50000000 cycles: 40530607 cumulative IPC: 1.23364 (Simulation time: 0 hr 2 min 1 sec) 

ChampSim completed all CPUs

Region of Interest Statistics

CPU 0 cumulative IPC: 1.23364 instructions: 50000000 cycles: 40530607
L1D TOTAL     ACCESS:   19440063  HIT:   18334845  MISS:    1105218
L1D LOAD      ACCESS:    7288072  HIT:    6809356  MISS:     478716
L1D RFO       ACCESS:    5121783  HIT:    5042201  MISS:      79582
L1D PREFETCH  ACCESS:    7030208  HIT:    6483288  MISS:     546920
L1D WRITEBACK ACCESS:          0  HIT:          0  MISS:          0
L1D PREFETCH  REQUESTED:    7330758  ISSUED:    7231645  USEFUL:     276657  USELESS:     270276
L1D AVERAGE MISS LATENCY: 25.0611 cycles
L1I TOTAL     ACCESS:    9288821  HIT:    9068764  MISS:     220057
L1I LOAD      ACCESS:    9288821  HIT:    9068764  MISS:     220057
L1I RFO       ACCESS:          0  HIT:          0  MISS:          0
L1I PREFETCH  ACCESS:          0  HIT:          0  MISS:          0
L1I WRITEBACK ACCESS:          0  HIT:          0  MISS:          0
L1I PREFETCH  REQUESTED:          0  ISSUED:          0  USEFUL:          0  USELESS:          0
L1I AVERAGE MISS LATENCY: 25.1521 cycles
L2C TOTAL     ACCESS:    2397774  HIT:    2171983  MISS:     225791
L2C LOAD      ACCESS:     671777  HIT:     572466  MISS:      99311
L2C RFO       ACCESS:      75074  HIT:      37914  MISS:      37160
L2C PREFETCH  ACCESS:    1397163  HIT:    1308105  MISS:      89058
L2C WRITEBACK ACCESS:     253760  HIT:     253498  MISS:        262
L2C PREFETCH  REQUESTED:    1530199  ISSUED:    1530129  USEFUL:      27559  USELESS:      60818
L2C AVERAGE MISS LATENCY: 63.7825 cycles
LLC TOTAL     ACCESS:     567817  HIT:     498244  MISS:      69573
LLC LOAD      ACCESS:      99122  HIT:      86523  MISS:      12599
LLC RFO       ACCESS:      37160  HIT:      16962  MISS:      20198
LLC PREFETCH  ACCESS:     345067  HIT:     309367  MISS:      35700
LLC WRITEBACK ACCESS:      86468  HIT:      85392  MISS:       1076
LLC PREFETCH  REQUESTED:          0  ISSUED:          0  USEFUL:      13858  USELESS:      21399
LLC AVERAGE MISS LATENCY: 183.094 cycles
Major fault: 0 Minor fault: 6865
CPU 0 L1D next line prefetcher final stats

DRAM Statistics
 CHANNEL 0
 RQ ROW_BUFFER_HIT:      19436  ROW_BUFFER_MISS:      49059
 DBUS_CONGESTED:      34683
 WQ ROW_BUFFER_HIT:       4396  ROW_BUFFER_MISS:      22087  FULL:          0

 AVG_CONGESTED_CYCLE: 6

CPU 0 Branch Prediction Accuracy: 95.8872% MPKI: 9.67286 Average ROB Occupancy at Mispredict: 63.3718

Branch types
NOT_BRANCH: 38240102 76.4802%
BRANCH_DIRECT_JUMP: 653296 1.30659%
BRANCH_INDIRECT: 37098 0.074196%
BRANCH_CONDITIONAL: 8897819 17.7956%
BRANCH_DIRECT_CALL: 992620 1.98524%
BRANCH_INDIRECT_CALL: 93046 0.186092%
BRANCH_RETURN: 1085674 2.17135%
BRANCH_OTHER: 0 0%

