Initialize SIGNATURE TABLE
ST_SET: 1
ST_WAY: 256
ST_TAG_BIT: 16
ST_TAG_MASK: ffff

Initialize PATTERN TABLE
PT_SET: 512
PT_WAY: 4
SIG_DELTA_BIT: 7
C_SIG_BIT: 4
C_DELTA_BIT: 4

Initialize PREFETCH FILTER
FILTER_SET: 1024

*** ChampSim Multicore Out-of-Order Simulator ***

Warmup Instructions: 50000000
Simulation Instructions: 50000000
Number of CPUs: 1
LLC sets: 2048
LLC ways: 16
Off-chip DRAM Size: 4096 MB Channels: 1 Width: 64-bit Data Rate: 3200 MT/s

CPU 0 runs /Users/gandhardeshpande/Desktop/CSE240C/HW1/ChampSim/ipc1_public/server_025.champsimtrace.xz
L1I Barca has been initializedCPU 0 L1D next line prefetcher
Heartbeat CPU 0 instructions: 10000003 cycles: 3528848 heartbeat IPC: 2.83379 cumulative IPC: 2.83379 (Simulation time: 0 hr 0 min 22 sec) 
Heartbeat CPU 0 instructions: 20000000 cycles: 7065009 heartbeat IPC: 2.82792 cumulative IPC: 2.83085 (Simulation time: 0 hr 0 min 43 sec) 
Heartbeat CPU 0 instructions: 30000001 cycles: 10592349 heartbeat IPC: 2.835 cumulative IPC: 2.83223 (Simulation time: 0 hr 1 min 4 sec) 
Heartbeat CPU 0 instructions: 40000003 cycles: 14126800 heartbeat IPC: 2.82929 cumulative IPC: 2.8315 (Simulation time: 0 hr 1 min 26 sec) 
Heartbeat CPU 0 instructions: 50000001 cycles: 17660049 heartbeat IPC: 2.83026 cumulative IPC: 2.83125 (Simulation time: 0 hr 1 min 47 sec) 

Warmup complete CPU 0 instructions: 50000001 cycles: 17660049 (Simulation time: 0 hr 1 min 47 sec) 

Heartbeat CPU 0 instructions: 60000002 cycles: 24550867 heartbeat IPC: 1.45121 cumulative IPC: 1.45121 (Simulation time: 0 hr 2 min 9 sec) 
Heartbeat CPU 0 instructions: 70000000 cycles: 31543342 heartbeat IPC: 1.43011 cumulative IPC: 1.44058 (Simulation time: 0 hr 2 min 31 sec) 
Heartbeat CPU 0 instructions: 80000002 cycles: 38456639 heartbeat IPC: 1.44649 cumulative IPC: 1.44254 (Simulation time: 0 hr 2 min 54 sec) 
Heartbeat CPU 0 instructions: 90000001 cycles: 45009694 heartbeat IPC: 1.52601 cumulative IPC: 1.46254 (Simulation time: 0 hr 3 min 17 sec) 
Heartbeat CPU 0 instructions: 100000003 cycles: 51263222 heartbeat IPC: 1.5991 cumulative IPC: 1.48795 (Simulation time: 0 hr 3 min 40 sec) 
Finished CPU 0 instructions: 50000002 cycles: 33603173 cumulative IPC: 1.48795 (Simulation time: 0 hr 3 min 40 sec) 

ChampSim completed all CPUs

Region of Interest Statistics

CPU 0 cumulative IPC: 1.48795 instructions: 50000002 cycles: 33603173
L1D TOTAL     ACCESS:   20044657  HIT:   18619188  MISS:    1425469
L1D LOAD      ACCESS:    6985801  HIT:    6366663  MISS:     619138
L1D RFO       ACCESS:    6384041  HIT:    6136208  MISS:     247833
L1D PREFETCH  ACCESS:    6674815  HIT:    6116317  MISS:     558498
L1D WRITEBACK ACCESS:          0  HIT:          0  MISS:          0
L1D PREFETCH  REQUESTED:    7026773  ISSUED:    6853247  USEFUL:     131175  USELESS:     427317
L1D AVERAGE MISS LATENCY: 23.2022 cycles
L1I TOTAL     ACCESS:   13116873  HIT:    9830697  MISS:    3286176
L1I LOAD      ACCESS:    9421741  HIT:    9141177  MISS:     280564
L1I RFO       ACCESS:          0  HIT:          0  MISS:          0
L1I PREFETCH  ACCESS:    3695132  HIT:     689520  MISS:    3005612
L1I WRITEBACK ACCESS:          0  HIT:          0  MISS:          0
L1I PREFETCH  REQUESTED:    4244561  ISSUED:    4244561  USEFUL:    2236113  USELESS:     769565
L1I AVERAGE MISS LATENCY: 16.9099 cycles
L2C TOTAL     ACCESS:    6373706  HIT:    5687760  MISS:     685946
L2C LOAD      ACCESS:     687911  HIT:     561010  MISS:     126901
L2C RFO       ACCESS:     246518  HIT:     177127  MISS:      69391
L2C PREFETCH  ACCESS:    4942545  HIT:    4458832  MISS:     483713
L2C WRITEBACK ACCESS:     496732  HIT:     490791  MISS:       5941
L2C PREFETCH  REQUESTED:    3382923  ISSUED:    3380668  USEFUL:      13608  USELESS:     469691
L2C AVERAGE MISS LATENCY: 36.6863 cycles
LLC TOTAL     ACCESS:    1763007  HIT:    1734420  MISS:      28587
LLC LOAD      ACCESS:     126776  HIT:     123550  MISS:       3226
LLC RFO       ACCESS:      69390  HIT:      58601  MISS:      10789
LLC PREFETCH  ACCESS:    1443462  HIT:    1429111  MISS:      14351
LLC WRITEBACK ACCESS:     123379  HIT:     123158  MISS:        221
LLC PREFETCH  REQUESTED:          0  ISSUED:          0  USEFUL:       1040  USELESS:      12970
LLC AVERAGE MISS LATENCY: 177.654 cycles
Major fault: 0 Minor fault: 2457
CPU 0 L1D next line prefetcher final stats

DRAM Statistics
 CHANNEL 0
 RQ ROW_BUFFER_HIT:       9125  ROW_BUFFER_MISS:      19233
 DBUS_CONGESTED:      17652
 WQ ROW_BUFFER_HIT:       1294  ROW_BUFFER_MISS:      11326  FULL:          0

 AVG_CONGESTED_CYCLE: 6

CPU 0 Branch Prediction Accuracy: 99.8142% MPKI: 0.34676 Average ROB Occupancy at Mispredict: 191.192

Branch types
NOT_BRANCH: 40668917 81.3378%
BRANCH_DIRECT_JUMP: 531701 1.0634%
BRANCH_INDIRECT: 199025 0.39805%
BRANCH_CONDITIONAL: 6211497 12.423%
BRANCH_DIRECT_CALL: 1010911 2.02182%
BRANCH_INDIRECT_CALL: 183501 0.367002%
BRANCH_RETURN: 1194416 2.38883%
BRANCH_OTHER: 0 0%

