Initialize SIGNATURE TABLE
ST_SET: 1
ST_WAY: 256
ST_TAG_BIT: 16
ST_TAG_MASK: ffff

Initialize PATTERN TABLE
PT_SET: 512
PT_WAY: 4
SIG_DELTA_BIT: 7
C_SIG_BIT: 4
C_DELTA_BIT: 4

Initialize PREFETCH FILTER
FILTER_SET: 1024

*** ChampSim Multicore Out-of-Order Simulator ***

Warmup Instructions: 50000000
Simulation Instructions: 50000000
Number of CPUs: 1
LLC sets: 2048
LLC ways: 16
Off-chip DRAM Size: 4096 MB Channels: 1 Width: 64-bit Data Rate: 3200 MT/s

CPU 0 runs /Users/gandhardeshpande/Desktop/CSE240C/HW1/ChampSim/ipc1_public/client_002.champsimtrace.xz
CPU 0 L1I next line prefetcher
Running FNL-MMA for L1I
CPU 0 L1D next line prefetcher
Heartbeat CPU 0 instructions: 10000000 cycles: 3405127 heartbeat IPC: 2.93675 cumulative IPC: 2.93675 (Simulation time: 0 hr 0 min 14 sec) 
Heartbeat CPU 0 instructions: 20000002 cycles: 6861104 heartbeat IPC: 2.89354 cumulative IPC: 2.91498 (Simulation time: 0 hr 0 min 28 sec) 
Heartbeat CPU 0 instructions: 30000001 cycles: 10294010 heartbeat IPC: 2.91298 cumulative IPC: 2.91432 (Simulation time: 0 hr 0 min 49 sec) 
Heartbeat CPU 0 instructions: 40000002 cycles: 13727186 heartbeat IPC: 2.91276 cumulative IPC: 2.91393 (Simulation time: 0 hr 1 min 3 sec) 
Heartbeat CPU 0 instructions: 50000002 cycles: 17168162 heartbeat IPC: 2.90615 cumulative IPC: 2.91237 (Simulation time: 0 hr 1 min 17 sec) 

Warmup complete CPU 0 instructions: 50000002 cycles: 17168162 (Simulation time: 0 hr 1 min 17 sec) 

Heartbeat CPU 0 instructions: 60000002 cycles: 23260763 heartbeat IPC: 1.64134 cumulative IPC: 1.64134 (Simulation time: 0 hr 1 min 29 sec) 
Heartbeat CPU 0 instructions: 70000001 cycles: 29419775 heartbeat IPC: 1.62364 cumulative IPC: 1.63244 (Simulation time: 0 hr 1 min 40 sec) 
Heartbeat CPU 0 instructions: 80000003 cycles: 35444031 heartbeat IPC: 1.65996 cumulative IPC: 1.64151 (Simulation time: 0 hr 1 min 52 sec) 
Heartbeat CPU 0 instructions: 90000000 cycles: 42039229 heartbeat IPC: 1.51625 cumulative IPC: 1.60829 (Simulation time: 0 hr 2 min 4 sec) 
Heartbeat CPU 0 instructions: 100000003 cycles: 48122257 heartbeat IPC: 1.64392 cumulative IPC: 1.6153 (Simulation time: 0 hr 2 min 16 sec) 
Finished CPU 0 instructions: 50000001 cycles: 30954095 cumulative IPC: 1.6153 (Simulation time: 0 hr 2 min 16 sec) 

ChampSim completed all CPUs

Region of Interest Statistics

CPU 0 cumulative IPC: 1.6153 instructions: 50000001 cycles: 30954095
L1D TOTAL     ACCESS:   19230044  HIT:   18890625  MISS:     339419
L1D LOAD      ACCESS:    6535200  HIT:    6418684  MISS:     116516
L1D RFO       ACCESS:    6422179  HIT:    6332542  MISS:      89637
L1D PREFETCH  ACCESS:    6272665  HIT:    6139399  MISS:     133266
L1D WRITEBACK ACCESS:          0  HIT:          0  MISS:          0
L1D PREFETCH  REQUESTED:    6545364  ISSUED:    6341961  USEFUL:      54320  USELESS:      79089
L1D AVERAGE MISS LATENCY: 48.9101 cycles
L1I TOTAL     ACCESS:   12124660  HIT:   11125600  MISS:     999060
L1I LOAD      ACCESS:    9533251  HIT:    9359334  MISS:     173917
L1I RFO       ACCESS:          0  HIT:          0  MISS:          0
L1I PREFETCH  ACCESS:    2591409  HIT:    1766266  MISS:     825143
L1I WRITEBACK ACCESS:          0  HIT:          0  MISS:          0
L1I PREFETCH  REQUESTED:    2715368  ISSUED:    2715368  USEFUL:     545189  USELESS:     279953
L1I AVERAGE MISS LATENCY: 18.3037 cycles
L2C TOTAL     ACCESS:    1907570  HIT:    1647453  MISS:     260117
L2C LOAD      ACCESS:     258578  HIT:     190868  MISS:      67710
L2C RFO       ACCESS:      88741  HIT:      22381  MISS:      66360
L2C PREFETCH  ACCESS:    1434750  HIT:    1309187  MISS:     125563
L2C WRITEBACK ACCESS:     125501  HIT:     125017  MISS:        484
L2C PREFETCH  REQUESTED:    1517178  ISSUED:    1516887  USEFUL:      16421  USELESS:     108735
L2C AVERAGE MISS LATENCY: 62.6679 cycles
LLC TOTAL     ACCESS:     664095  HIT:     600328  MISS:      63767
LLC LOAD      ACCESS:      67708  HIT:      61751  MISS:       5957
LLC RFO       ACCESS:      66359  HIT:      37086  MISS:      29273
LLC PREFETCH  ACCESS:     444757  HIT:     416481  MISS:      28276
LLC WRITEBACK ACCESS:      85271  HIT:      85010  MISS:        261
LLC PREFETCH  REQUESTED:          0  ISSUED:          0  USEFUL:       6051  USELESS:      21160
LLC AVERAGE MISS LATENCY: 178.99 cycles
Major fault: 0 Minor fault: 3096
I-Shadow cache 408 bytes
Touched + WorthPF tables 6144 bytes 
MMA filter 174 bytes 
FNL filter 272 bytes 
TOTAL PREFETCHER STORAGE SIZE: 25174 bytes
CPU 0 L1I next line prefetcher final stats
CPU 0 L1D next line prefetcher final stats

DRAM Statistics
 CHANNEL 0
 RQ ROW_BUFFER_HIT:      22221  ROW_BUFFER_MISS:      41285
 DBUS_CONGESTED:      45646
 WQ ROW_BUFFER_HIT:       9018  ROW_BUFFER_MISS:      28052  FULL:          0

 AVG_CONGESTED_CYCLE: 6

CPU 0 Branch Prediction Accuracy: 99.2117% MPKI: 1.49752 Average ROB Occupancy at Mispredict: 106.095

Branch types
NOT_BRANCH: 40501616 81.0032%
BRANCH_DIRECT_JUMP: 517397 1.03479%
BRANCH_INDIRECT: 112348 0.224696%
BRANCH_CONDITIONAL: 6698737 13.3975%
BRANCH_DIRECT_CALL: 960974 1.92195%
BRANCH_INDIRECT_CALL: 123707 0.247414%
BRANCH_RETURN: 1084929 2.16986%
BRANCH_OTHER: 0 0%

