Initialize SIGNATURE TABLE
ST_SET: 1
ST_WAY: 256
ST_TAG_BIT: 16
ST_TAG_MASK: ffff

Initialize PATTERN TABLE
PT_SET: 512
PT_WAY: 4
SIG_DELTA_BIT: 7
C_SIG_BIT: 4
C_DELTA_BIT: 4

Initialize PREFETCH FILTER
FILTER_SET: 1024

*** ChampSim Multicore Out-of-Order Simulator ***

Warmup Instructions: 50000000
Simulation Instructions: 50000000
Number of CPUs: 1
LLC sets: 2048
LLC ways: 16
Off-chip DRAM Size: 4096 MB Channels: 1 Width: 64-bit Data Rate: 3200 MT/s

CPU 0 runs /Users/gandhardeshpande/Desktop/CSE240C/HW1/ChampSim/ipc1_public/server_039.champsimtrace.xz
CPU 0 L1I next line prefetcher
Running FNL-MMA for L1I
CPU 0 L1D next line prefetcher
Heartbeat CPU 0 instructions: 10000003 cycles: 3451498 heartbeat IPC: 2.89729 cumulative IPC: 2.89729 (Simulation time: 0 hr 0 min 15 sec) 
Heartbeat CPU 0 instructions: 20000002 cycles: 6896053 heartbeat IPC: 2.90313 cumulative IPC: 2.90021 (Simulation time: 0 hr 0 min 30 sec) 
Heartbeat CPU 0 instructions: 30000001 cycles: 10342436 heartbeat IPC: 2.90159 cumulative IPC: 2.90067 (Simulation time: 0 hr 0 min 45 sec) 
Heartbeat CPU 0 instructions: 40000002 cycles: 13784207 heartbeat IPC: 2.90548 cumulative IPC: 2.90187 (Simulation time: 0 hr 1 min 0 sec) 
Heartbeat CPU 0 instructions: 50000001 cycles: 17225340 heartbeat IPC: 2.90602 cumulative IPC: 2.9027 (Simulation time: 0 hr 1 min 15 sec) 

Warmup complete CPU 0 instructions: 50000001 cycles: 17225340 (Simulation time: 0 hr 1 min 15 sec) 

Heartbeat CPU 0 instructions: 60000000 cycles: 22999262 heartbeat IPC: 1.73192 cumulative IPC: 1.73192 (Simulation time: 0 hr 1 min 30 sec) 
Heartbeat CPU 0 instructions: 70000000 cycles: 28770999 heartbeat IPC: 1.73258 cumulative IPC: 1.73225 (Simulation time: 0 hr 1 min 44 sec) 
Heartbeat CPU 0 instructions: 80000000 cycles: 34541233 heartbeat IPC: 1.73303 cumulative IPC: 1.73251 (Simulation time: 0 hr 1 min 59 sec) 
Heartbeat CPU 0 instructions: 90000001 cycles: 40314223 heartbeat IPC: 1.7322 cumulative IPC: 1.73244 (Simulation time: 0 hr 2 min 14 sec) 
Heartbeat CPU 0 instructions: 100000002 cycles: 46094950 heartbeat IPC: 1.72989 cumulative IPC: 1.73193 (Simulation time: 0 hr 2 min 29 sec) 
Finished CPU 0 instructions: 50000001 cycles: 28869610 cumulative IPC: 1.73193 (Simulation time: 0 hr 2 min 29 sec) 

ChampSim completed all CPUs

Region of Interest Statistics

CPU 0 cumulative IPC: 1.73193 instructions: 50000001 cycles: 28869610
L1D TOTAL     ACCESS:   19878315  HIT:   19383761  MISS:     494554
L1D LOAD      ACCESS:    6488521  HIT:    6266941  MISS:     221580
L1D RFO       ACCESS:    7088912  HIT:    7022065  MISS:      66847
L1D PREFETCH  ACCESS:    6300882  HIT:    6094755  MISS:     206127
L1D WRITEBACK ACCESS:          0  HIT:          0  MISS:          0
L1D PREFETCH  REQUESTED:    6504399  ISSUED:    6371571  USEFUL:      50104  USELESS:     156027
L1D AVERAGE MISS LATENCY: 15.0964 cycles
L1I TOTAL     ACCESS:   16501910  HIT:   11518622  MISS:    4983288
L1I LOAD      ACCESS:    9356990  HIT:    9328542  MISS:      28448
L1I RFO       ACCESS:          0  HIT:          0  MISS:          0
L1I PREFETCH  ACCESS:    7144920  HIT:    2190080  MISS:    4954840
L1I WRITEBACK ACCESS:          0  HIT:          0  MISS:          0
L1I PREFETCH  REQUESTED:    7359871  ISSUED:    7359871  USEFUL:    4177089  USELESS:     777787
L1I AVERAGE MISS LATENCY: 14.8116 cycles
L2C TOTAL     ACCESS:    7550289  HIT:    7550202  MISS:         87
L2C LOAD      ACCESS:     229135  HIT:     229133  MISS:          2
L2C RFO       ACCESS:      66752  HIT:      66752  MISS:          0
L2C PREFETCH  ACCESS:    7074395  HIT:    7074310  MISS:         85
L2C WRITEBACK ACCESS:     180007  HIT:     180007  MISS:          0
L2C PREFETCH  REQUESTED:    6436109  ISSUED:    6434346  USEFUL:          2  USELESS:          0
L2C AVERAGE MISS LATENCY: 45.6897 cycles
LLC TOTAL     ACCESS:    1059150  HIT:    1058645  MISS:        505
LLC LOAD      ACCESS:          1  HIT:          1  MISS:          0
LLC RFO       ACCESS:          0  HIT:          0  MISS:          0
LLC PREFETCH  ACCESS:    1059149  HIT:    1058644  MISS:        505
LLC WRITEBACK ACCESS:          0  HIT:          0  MISS:          0
LLC PREFETCH  REQUESTED:          0  ISSUED:          0  USEFUL:          1  USELESS:          0
LLC AVERAGE MISS LATENCY: 181.812 cycles
Major fault: 0 Minor fault: 356
I-Shadow cache 408 bytes
Touched + WorthPF tables 6144 bytes 
MMA filter 174 bytes 
FNL filter 272 bytes 
TOTAL PREFETCHER STORAGE SIZE: 25174 bytes
CPU 0 L1I next line prefetcher final stats
CPU 0 L1D next line prefetcher final stats

DRAM Statistics
 CHANNEL 0
 RQ ROW_BUFFER_HIT:        111  ROW_BUFFER_MISS:        394
 DBUS_CONGESTED:        108
 WQ ROW_BUFFER_HIT:          0  ROW_BUFFER_MISS:          0  FULL:          0

 AVG_CONGESTED_CYCLE: 5

CPU 0 Branch Prediction Accuracy: 99.9091% MPKI: 0.1547 Average ROB Occupancy at Mispredict: 304.087

Branch types
NOT_BRANCH: 41495033 82.9901%
BRANCH_DIRECT_JUMP: 491309 0.982618%
BRANCH_INDIRECT: 0 0%
BRANCH_CONDITIONAL: 5595263 11.1905%
BRANCH_DIRECT_CALL: 1028409 2.05682%
BRANCH_INDIRECT_CALL: 180756 0.361512%
BRANCH_RETURN: 1209171 2.41834%
BRANCH_OTHER: 0 0%

