Initialize SIGNATURE TABLE
ST_SET: 1
ST_WAY: 256
ST_TAG_BIT: 16
ST_TAG_MASK: ffff

Initialize PATTERN TABLE
PT_SET: 512
PT_WAY: 4
SIG_DELTA_BIT: 7
C_SIG_BIT: 4
C_DELTA_BIT: 4

Initialize PREFETCH FILTER
FILTER_SET: 1024

*** ChampSim Multicore Out-of-Order Simulator ***

Warmup Instructions: 50000000
Simulation Instructions: 50000000
Number of CPUs: 1
LLC sets: 2048
LLC ways: 16
Off-chip DRAM Size: 4096 MB Channels: 1 Width: 64-bit Data Rate: 3200 MT/s

CPU 0 runs /Users/gandhardeshpande/Desktop/CSE240C/HW1/ChampSim/ipc1_public/server_034.champsimtrace.xz
CPU 0 L1I next line prefetcher
Running FNL-MMA for L1I
CPU 0 L1D next line prefetcher
Heartbeat CPU 0 instructions: 10000000 cycles: 3329534 heartbeat IPC: 3.00342 cumulative IPC: 3.00342 (Simulation time: 0 hr 0 min 15 sec) 
Heartbeat CPU 0 instructions: 20000002 cycles: 6652067 heartbeat IPC: 3.00975 cumulative IPC: 3.00658 (Simulation time: 0 hr 0 min 30 sec) 
Heartbeat CPU 0 instructions: 30000003 cycles: 9982680 heartbeat IPC: 3.00245 cumulative IPC: 3.00521 (Simulation time: 0 hr 0 min 44 sec) 
Heartbeat CPU 0 instructions: 40000001 cycles: 13311613 heartbeat IPC: 3.00396 cumulative IPC: 3.0049 (Simulation time: 0 hr 0 min 59 sec) 
Heartbeat CPU 0 instructions: 50000000 cycles: 16639543 heartbeat IPC: 3.00487 cumulative IPC: 3.00489 (Simulation time: 0 hr 1 min 14 sec) 

Warmup complete CPU 0 instructions: 50000002 cycles: 16639544 (Simulation time: 0 hr 1 min 14 sec) 

Heartbeat CPU 0 instructions: 60000002 cycles: 22578617 heartbeat IPC: 1.68376 cumulative IPC: 1.68376 (Simulation time: 0 hr 1 min 29 sec) 
Heartbeat CPU 0 instructions: 70000003 cycles: 28979679 heartbeat IPC: 1.56224 cumulative IPC: 1.62073 (Simulation time: 0 hr 1 min 44 sec) 
Heartbeat CPU 0 instructions: 80000002 cycles: 35009470 heartbeat IPC: 1.65843 cumulative IPC: 1.6331 (Simulation time: 0 hr 1 min 59 sec) 
Heartbeat CPU 0 instructions: 90000002 cycles: 41036889 heartbeat IPC: 1.65908 cumulative IPC: 1.63952 (Simulation time: 0 hr 2 min 15 sec) 
Heartbeat CPU 0 instructions: 100000002 cycles: 47045505 heartbeat IPC: 1.66428 cumulative IPC: 1.64441 (Simulation time: 0 hr 2 min 30 sec) 
Finished CPU 0 instructions: 50000000 cycles: 30405961 cumulative IPC: 1.64441 (Simulation time: 0 hr 2 min 30 sec) 

ChampSim completed all CPUs

Region of Interest Statistics

CPU 0 cumulative IPC: 1.64441 instructions: 50000000 cycles: 30405961
L1D TOTAL     ACCESS:   18228077  HIT:   16804057  MISS:    1424020
L1D LOAD      ACCESS:    6124414  HIT:    5467946  MISS:     656468
L1D RFO       ACCESS:    6161025  HIT:    6018517  MISS:     142508
L1D PREFETCH  ACCESS:    5942638  HIT:    5317594  MISS:     625044
L1D WRITEBACK ACCESS:          0  HIT:          0  MISS:          0
L1D PREFETCH  REQUESTED:    6158960  ISSUED:    6069342  USEFUL:     140649  USELESS:     484363
L1D AVERAGE MISS LATENCY: 17.8298 cycles
L1I TOTAL     ACCESS:   15693603  HIT:   11240899  MISS:    4452704
L1I LOAD      ACCESS:    9698058  HIT:    9644071  MISS:      53987
L1I RFO       ACCESS:          0  HIT:          0  MISS:          0
L1I PREFETCH  ACCESS:    5995545  HIT:    1596828  MISS:    4398717
L1I WRITEBACK ACCESS:          0  HIT:          0  MISS:          0
L1I PREFETCH  REQUESTED:    6205563  ISSUED:    6202361  USEFUL:    3371232  USELESS:    1027465
L1I AVERAGE MISS LATENCY: 15.1206 cycles
L2C TOTAL     ACCESS:    7881915  HIT:    7763656  MISS:     118259
L2C LOAD      ACCESS:     670588  HIT:     631468  MISS:      39120
L2C RFO       ACCESS:     140679  HIT:     130749  MISS:       9930
L2C PREFETCH  ACCESS:    6719950  HIT:    6651974  MISS:      67976
L2C WRITEBACK ACCESS:     350698  HIT:     349465  MISS:       1233
L2C PREFETCH  REQUESTED:    8275524  ISSUED:    8243266  USEFUL:       3312  USELESS:      63980
L2C AVERAGE MISS LATENCY: 43.4312 cycles
LLC TOTAL     ACCESS:    2588499  HIT:    2570291  MISS:      18208
LLC LOAD      ACCESS:      39012  HIT:      35713  MISS:       3299
LLC RFO       ACCESS:       9930  HIT:       9707  MISS:        223
LLC PREFETCH  ACCESS:    2498315  HIT:    2483747  MISS:      14568
LLC WRITEBACK ACCESS:      41242  HIT:      41124  MISS:        118
LLC PREFETCH  REQUESTED:          0  ISSUED:          0  USEFUL:       3590  USELESS:       8192
LLC AVERAGE MISS LATENCY: 168.774 cycles
Major fault: 0 Minor fault: 1170
I-Shadow cache 408 bytes
Touched + WorthPF tables 6144 bytes 
MMA filter 174 bytes 
FNL filter 272 bytes 
TOTAL PREFETCHER STORAGE SIZE: 25174 bytes
CPU 0 L1I next line prefetcher final stats
CPU 0 L1D next line prefetcher final stats

DRAM Statistics
 CHANNEL 0
 RQ ROW_BUFFER_HIT:       3963  ROW_BUFFER_MISS:      14120
 DBUS_CONGESTED:       8429
 WQ ROW_BUFFER_HIT:       1555  ROW_BUFFER_MISS:       4154  FULL:          0

 AVG_CONGESTED_CYCLE: 5

CPU 0 Branch Prediction Accuracy: 99.926% MPKI: 0.14472 Average ROB Occupancy at Mispredict: 260.762

Branch types
NOT_BRANCH: 40221093 80.4422%
BRANCH_DIRECT_JUMP: 771319 1.54264%
BRANCH_INDIRECT: 108663 0.217326%
BRANCH_CONDITIONAL: 6375046 12.7501%
BRANCH_DIRECT_CALL: 1049638 2.09928%
BRANCH_INDIRECT_CALL: 212283 0.424566%
BRANCH_RETURN: 1261926 2.52385%
BRANCH_OTHER: 0 0%

