Initialize SIGNATURE TABLE
ST_SET: 1
ST_WAY: 256
ST_TAG_BIT: 16
ST_TAG_MASK: ffff

Initialize PATTERN TABLE
PT_SET: 512
PT_WAY: 4
SIG_DELTA_BIT: 7
C_SIG_BIT: 4
C_DELTA_BIT: 4

Initialize PREFETCH FILTER
FILTER_SET: 1024

*** ChampSim Multicore Out-of-Order Simulator ***

Warmup Instructions: 50000000
Simulation Instructions: 50000000
Number of CPUs: 1
LLC sets: 2048
LLC ways: 16
Off-chip DRAM Size: 4096 MB Channels: 1 Width: 64-bit Data Rate: 3200 MT/s

CPU 0 runs /Users/gandhardeshpande/Desktop/CSE240C/HW1/ChampSim/ipc1_public/server_023.champsimtrace.xz
CPU 0 L1I next line prefetcher
Running FNL-MMA for L1I
CPU 0 L1D next line prefetcher
Heartbeat CPU 0 instructions: 10000000 cycles: 3503151 heartbeat IPC: 2.85457 cumulative IPC: 2.85457 (Simulation time: 0 hr 0 min 15 sec) 
Heartbeat CPU 0 instructions: 20000000 cycles: 7005541 heartbeat IPC: 2.85519 cumulative IPC: 2.85488 (Simulation time: 0 hr 0 min 30 sec) 
Heartbeat CPU 0 instructions: 30000001 cycles: 10502632 heartbeat IPC: 2.85952 cumulative IPC: 2.85643 (Simulation time: 0 hr 0 min 45 sec) 
Heartbeat CPU 0 instructions: 40000003 cycles: 14006246 heartbeat IPC: 2.8542 cumulative IPC: 2.85587 (Simulation time: 0 hr 0 min 59 sec) 
Heartbeat CPU 0 instructions: 50000001 cycles: 17510748 heartbeat IPC: 2.85347 cumulative IPC: 2.85539 (Simulation time: 0 hr 1 min 15 sec) 

Warmup complete CPU 0 instructions: 50000001 cycles: 17510748 (Simulation time: 0 hr 1 min 15 sec) 

Heartbeat CPU 0 instructions: 60000002 cycles: 24428587 heartbeat IPC: 1.44554 cumulative IPC: 1.44554 (Simulation time: 0 hr 1 min 30 sec) 
Heartbeat CPU 0 instructions: 70000002 cycles: 31540708 heartbeat IPC: 1.40605 cumulative IPC: 1.42552 (Simulation time: 0 hr 1 min 44 sec) 
Heartbeat CPU 0 instructions: 80000000 cycles: 38566714 heartbeat IPC: 1.42328 cumulative IPC: 1.42477 (Simulation time: 0 hr 1 min 59 sec) 
Heartbeat CPU 0 instructions: 90000000 cycles: 45597792 heartbeat IPC: 1.42226 cumulative IPC: 1.42414 (Simulation time: 0 hr 2 min 12 sec) 
Heartbeat CPU 0 instructions: 100000001 cycles: 52584376 heartbeat IPC: 1.43131 cumulative IPC: 1.42557 (Simulation time: 0 hr 2 min 27 sec) 
Finished CPU 0 instructions: 50000000 cycles: 35073628 cumulative IPC: 1.42557 (Simulation time: 0 hr 2 min 27 sec) 

ChampSim completed all CPUs

Region of Interest Statistics

CPU 0 cumulative IPC: 1.42557 instructions: 50000000 cycles: 35073628
L1D TOTAL     ACCESS:   19454876  HIT:   17987995  MISS:    1466881
L1D LOAD      ACCESS:    6896025  HIT:    6234948  MISS:     661077
L1D RFO       ACCESS:    5982511  HIT:    5721030  MISS:     261481
L1D PREFETCH  ACCESS:    6576340  HIT:    6032017  MISS:     544323
L1D WRITEBACK ACCESS:          0  HIT:          0  MISS:          0
L1D PREFETCH  REQUESTED:    6947506  ISSUED:    6828052  USEFUL:     129929  USELESS:     414401
L1D AVERAGE MISS LATENCY: 26.0511 cycles
L1I TOTAL     ACCESS:   14233007  HIT:   10532760  MISS:    3700247
L1I LOAD      ACCESS:    9387697  HIT:    9123115  MISS:     264582
L1I RFO       ACCESS:          0  HIT:          0  MISS:          0
L1I PREFETCH  ACCESS:    4845310  HIT:    1409645  MISS:    3435665
L1I WRITEBACK ACCESS:          0  HIT:          0  MISS:          0
L1I PREFETCH  REQUESTED:    5082340  ISSUED:    5081573  USEFUL:    2268053  USELESS:    1167656
L1I AVERAGE MISS LATENCY: 18.8796 cycles
L2C TOTAL     ACCESS:    6959913  HIT:    6044902  MISS:     915011
L2C LOAD      ACCESS:     784441  HIT:     594379  MISS:     190062
L2C RFO       ACCESS:     259393  HIT:     157885  MISS:     101508
L2C PREFETCH  ACCESS:    5416815  HIT:    4798265  MISS:     618550
L2C WRITEBACK ACCESS:     499264  HIT:     494373  MISS:       4891
L2C PREFETCH  REQUESTED:    6731777  ISSUED:    6723481  USEFUL:      26928  USELESS:     591779
L2C AVERAGE MISS LATENCY: 40.238 cycles
LLC TOTAL     ACCESS:    2470536  HIT:    2418655  MISS:      51881
LLC LOAD      ACCESS:     189729  HIT:     183244  MISS:       6485
LLC RFO       ACCESS:     101500  HIT:      83684  MISS:      17816
LLC PREFETCH  ACCESS:    2007206  HIT:    1979807  MISS:      27399
LLC WRITEBACK ACCESS:     172101  HIT:     171920  MISS:        181
LLC PREFETCH  REQUESTED:          0  ISSUED:          0  USEFUL:       2685  USELESS:      24533
LLC AVERAGE MISS LATENCY: 181.089 cycles
Major fault: 0 Minor fault: 2772
I-Shadow cache 408 bytes
Touched + WorthPF tables 6144 bytes 
MMA filter 174 bytes 
FNL filter 272 bytes 
TOTAL PREFETCHER STORAGE SIZE: 25174 bytes
CPU 0 L1I next line prefetcher final stats
CPU 0 L1D next line prefetcher final stats

DRAM Statistics
 CHANNEL 0
 RQ ROW_BUFFER_HIT:      15437  ROW_BUFFER_MISS:      36253
 DBUS_CONGESTED:      33656
 WQ ROW_BUFFER_HIT:       2513  ROW_BUFFER_MISS:      19211  FULL:          0

 AVG_CONGESTED_CYCLE: 6

CPU 0 Branch Prediction Accuracy: 99.6798% MPKI: 0.58608 Average ROB Occupancy at Mispredict: 137.194

Branch types
NOT_BRANCH: 40848317 81.6966%
BRANCH_DIRECT_JUMP: 548372 1.09674%
BRANCH_INDIRECT: 189802 0.379604%
BRANCH_CONDITIONAL: 6372771 12.7455%
BRANCH_DIRECT_CALL: 862207 1.72441%
BRANCH_INDIRECT_CALL: 158149 0.316298%
BRANCH_RETURN: 1020345 2.04069%
BRANCH_OTHER: 0 0%

