Initialize SIGNATURE TABLE
ST_SET: 1
ST_WAY: 256
ST_TAG_BIT: 16
ST_TAG_MASK: ffff

Initialize PATTERN TABLE
PT_SET: 512
PT_WAY: 4
SIG_DELTA_BIT: 7
C_SIG_BIT: 4
C_DELTA_BIT: 4

Initialize PREFETCH FILTER
FILTER_SET: 1024

*** ChampSim Multicore Out-of-Order Simulator ***

Warmup Instructions: 50000000
Simulation Instructions: 50000000
Number of CPUs: 1
LLC sets: 2048
LLC ways: 16
Off-chip DRAM Size: 4096 MB Channels: 1 Width: 64-bit Data Rate: 3200 MT/s

CPU 0 runs /Users/gandhardeshpande/Desktop/CSE240C/HW1/ChampSim/ipc1_public/server_038.champsimtrace.xz
CPU 0 L1I next line prefetcher
Running FNL-MMA for L1I
CPU 0 L1D next line prefetcher
Heartbeat CPU 0 instructions: 10000001 cycles: 3320590 heartbeat IPC: 3.01151 cumulative IPC: 3.01151 (Simulation time: 0 hr 0 min 15 sec) 
Heartbeat CPU 0 instructions: 20000003 cycles: 6644298 heartbeat IPC: 3.00869 cumulative IPC: 3.0101 (Simulation time: 0 hr 0 min 30 sec) 
Heartbeat CPU 0 instructions: 30000003 cycles: 9964074 heartbeat IPC: 3.01225 cumulative IPC: 3.01082 (Simulation time: 0 hr 0 min 45 sec) 
Heartbeat CPU 0 instructions: 40000001 cycles: 13288168 heartbeat IPC: 3.00834 cumulative IPC: 3.0102 (Simulation time: 0 hr 1 min 0 sec) 
Heartbeat CPU 0 instructions: 50000001 cycles: 16610334 heartbeat IPC: 3.01008 cumulative IPC: 3.01017 (Simulation time: 0 hr 1 min 15 sec) 

Warmup complete CPU 0 instructions: 50000001 cycles: 16610334 (Simulation time: 0 hr 1 min 15 sec) 

Heartbeat CPU 0 instructions: 60000002 cycles: 23050124 heartbeat IPC: 1.55285 cumulative IPC: 1.55285 (Simulation time: 0 hr 1 min 31 sec) 
Heartbeat CPU 0 instructions: 70000001 cycles: 29442053 heartbeat IPC: 1.56447 cumulative IPC: 1.55864 (Simulation time: 0 hr 1 min 47 sec) 
Heartbeat CPU 0 instructions: 80000000 cycles: 35851981 heartbeat IPC: 1.56008 cumulative IPC: 1.55912 (Simulation time: 0 hr 2 min 3 sec) 
Heartbeat CPU 0 instructions: 90000001 cycles: 42267969 heartbeat IPC: 1.55861 cumulative IPC: 1.55899 (Simulation time: 0 hr 2 min 19 sec) 
*** Reached end of trace for Core: 0 Repeating trace: /Users/gandhardeshpande/Desktop/CSE240C/HW1/ChampSim/ipc1_public/server_038.champsimtrace.xz
Heartbeat CPU 0 instructions: 100000002 cycles: 48695562 heartbeat IPC: 1.55579 cumulative IPC: 1.55835 (Simulation time: 0 hr 2 min 35 sec) 
Finished CPU 0 instructions: 50000001 cycles: 32085228 cumulative IPC: 1.55835 (Simulation time: 0 hr 2 min 35 sec) 

ChampSim completed all CPUs

Region of Interest Statistics

CPU 0 cumulative IPC: 1.55835 instructions: 50000001 cycles: 32085228
L1D TOTAL     ACCESS:   18692487  HIT:   17710137  MISS:     982350
L1D LOAD      ACCESS:    6359672  HIT:    5866374  MISS:     493298
L1D RFO       ACCESS:    6210904  HIT:    6146682  MISS:      64222
L1D PREFETCH  ACCESS:    6121911  HIT:    5697081  MISS:     424830
L1D WRITEBACK ACCESS:          0  HIT:          0  MISS:          0
L1D PREFETCH  REQUESTED:    6396524  ISSUED:    6243712  USEFUL:     118086  USELESS:     306747
L1D AVERAGE MISS LATENCY: 29.367 cycles
L1I TOTAL     ACCESS:   16063185  HIT:   11306677  MISS:    4756508
L1I LOAD      ACCESS:    9430036  HIT:    9415456  MISS:      14580
L1I RFO       ACCESS:          0  HIT:          0  MISS:          0
L1I PREFETCH  ACCESS:    6633149  HIT:    1891221  MISS:    4741928
L1I WRITEBACK ACCESS:          0  HIT:          0  MISS:          0
L1I PREFETCH  REQUESTED:    6883798  ISSUED:    6883798  USEFUL:    4107626  USELESS:     634321
L1I AVERAGE MISS LATENCY: 14.9074 cycles
L2C TOTAL     ACCESS:    8252152  HIT:    7926435  MISS:     325717
L2C LOAD      ACCESS:     495854  HIT:     350400  MISS:     145454
L2C RFO       ACCESS:      63961  HIT:      36389  MISS:      27572
L2C PREFETCH  ACCESS:    7400663  HIT:    7249263  MISS:     151400
L2C WRITEBACK ACCESS:     291674  HIT:     290383  MISS:       1291
L2C PREFETCH  REQUESTED:    7969709  ISSUED:    7956858  USEFUL:       7029  USELESS:     144255
L2C AVERAGE MISS LATENCY: 44.9848 cycles
LLC TOTAL     ACCESS:    1763742  HIT:    1708114  MISS:      55628
LLC LOAD      ACCESS:     145424  HIT:     132870  MISS:      12554
LLC RFO       ACCESS:      27567  HIT:      22562  MISS:       5005
LLC PREFETCH  ACCESS:    1443689  HIT:    1406109  MISS:      37580
LLC WRITEBACK ACCESS:     147062  HIT:     146573  MISS:        489
LLC PREFETCH  REQUESTED:          0  ISSUED:          0  USEFUL:       3817  USELESS:      33698
LLC AVERAGE MISS LATENCY: 167.066 cycles
Major fault: 0 Minor fault: 5528
I-Shadow cache 408 bytes
Touched + WorthPF tables 6144 bytes 
MMA filter 174 bytes 
FNL filter 272 bytes 
TOTAL PREFETCHER STORAGE SIZE: 25174 bytes
CPU 0 L1I next line prefetcher final stats
CPU 0 L1D next line prefetcher final stats

DRAM Statistics
 CHANNEL 0
 RQ ROW_BUFFER_HIT:       8777  ROW_BUFFER_MISS:      46362
 DBUS_CONGESTED:      25715
 WQ ROW_BUFFER_HIT:       1190  ROW_BUFFER_MISS:      11378  FULL:          0

 AVG_CONGESTED_CYCLE: 5

CPU 0 Branch Prediction Accuracy: 99.9279% MPKI: 0.12968 Average ROB Occupancy at Mispredict: 260.423

Branch types
NOT_BRANCH: 41006324 82.0126%
BRANCH_DIRECT_JUMP: 541914 1.08383%
BRANCH_INDIRECT: 59690 0.11938%
BRANCH_CONDITIONAL: 5915846 11.8317%
BRANCH_DIRECT_CALL: 1003588 2.00718%
BRANCH_INDIRECT_CALL: 234499 0.468998%
BRANCH_RETURN: 1238071 2.47614%
BRANCH_OTHER: 0 0%

