
*** ChampSim Multicore Out-of-Order Simulator ***

Warmup Instructions: 10000000
Simulation Instructions: 100000000
Configuration: 2
Number of CPUs: 1
LLC sets: 2048
LLC ways: 16
Off-chip DRAM Channels: 1 Width: 64-bit Data Rate: 1600 MT/s

CPU 0 runs /datasets/cs240c-wi22-a00-public/data/Assignment2-gz/mcf_46B.trace.gz
CPU 0 L1D next line prefetcher
CPU 0 L2C IP-based stride prefetcher
Initialize SRRIP state
Heartbeat CPU 0 instructions: 1000002 cycles: 492187 heartbeat IPC: 2.03175 cumulative IPC: 2.03175 (Simulation time: 0 hr 0 min 50 sec) 
Heartbeat CPU 0 instructions: 2000002 cycles: 987075 heartbeat IPC: 2.02066 cumulative IPC: 2.02619 (Simulation time: 0 hr 1 min 39 sec) 
Heartbeat CPU 0 instructions: 3000003 cycles: 1512973 heartbeat IPC: 1.90151 cumulative IPC: 1.98285 (Simulation time: 0 hr 2 min 29 sec) 
Heartbeat CPU 0 instructions: 4000000 cycles: 2030756 heartbeat IPC: 1.93131 cumulative IPC: 1.96971 (Simulation time: 0 hr 3 min 18 sec) 
Heartbeat CPU 0 instructions: 5000000 cycles: 2523661 heartbeat IPC: 2.02879 cumulative IPC: 1.98125 (Simulation time: 0 hr 4 min 8 sec) 
Heartbeat CPU 0 instructions: 6000002 cycles: 3026240 heartbeat IPC: 1.98974 cumulative IPC: 1.98266 (Simulation time: 0 hr 4 min 56 sec) 
Heartbeat CPU 0 instructions: 7000001 cycles: 3573107 heartbeat IPC: 1.8286 cumulative IPC: 1.95908 (Simulation time: 0 hr 5 min 46 sec) 
Heartbeat CPU 0 instructions: 8000000 cycles: 4063229 heartbeat IPC: 2.04031 cumulative IPC: 1.96888 (Simulation time: 0 hr 6 min 35 sec) 
Heartbeat CPU 0 instructions: 9000001 cycles: 4546063 heartbeat IPC: 2.07111 cumulative IPC: 1.97974 (Simulation time: 0 hr 7 min 21 sec) 
Heartbeat CPU 0 instructions: 10000001 cycles: 5084515 heartbeat IPC: 1.85718 cumulative IPC: 1.96676 (Simulation time: 0 hr 8 min 10 sec) 

Warmup complete CPU 0 instructions: 10000001 cycles: 5084515 (Simulation time: 0 hr 8 min 10 sec) 

Heartbeat CPU 0 instructions: 11000002 cycles: 15468321 heartbeat IPC: 0.0963039 cumulative IPC: 0.0963039 (Simulation time: 0 hr 9 min 35 sec) 
Heartbeat CPU 0 instructions: 12000000 cycles: 19581180 heartbeat IPC: 0.243139 cumulative IPC: 0.137963 (Simulation time: 0 hr 10 min 39 sec) 
Heartbeat CPU 0 instructions: 13000000 cycles: 26888196 heartbeat IPC: 0.136855 cumulative IPC: 0.137591 (Simulation time: 0 hr 11 min 52 sec) 
Heartbeat CPU 0 instructions: 14000003 cycles: 41282146 heartbeat IPC: 0.0694738 cumulative IPC: 0.110505 (Simulation time: 0 hr 13 min 34 sec) 
Heartbeat CPU 0 instructions: 15000000 cycles: 45488438 heartbeat IPC: 0.237738 cumulative IPC: 0.12375 (Simulation time: 0 hr 14 min 36 sec) 
Heartbeat CPU 0 instructions: 16000000 cycles: 49276634 heartbeat IPC: 0.263978 cumulative IPC: 0.135771 (Simulation time: 0 hr 15 min 45 sec) 
Heartbeat CPU 0 instructions: 17000002 cycles: 64992025 heartbeat IPC: 0.063632 cumulative IPC: 0.116847 (Simulation time: 0 hr 17 min 39 sec) 
Heartbeat CPU 0 instructions: 18000001 cycles: 70319813 heartbeat IPC: 0.187695 cumulative IPC: 0.122633 (Simulation time: 0 hr 18 min 48 sec) 
Heartbeat CPU 0 instructions: 19000002 cycles: 74907214 heartbeat IPC: 0.217989 cumulative IPC: 0.128898 (Simulation time: 0 hr 19 min 54 sec) 
Heartbeat CPU 0 instructions: 20000000 cycles: 86881696 heartbeat IPC: 0.0835107 cumulative IPC: 0.122254 (Simulation time: 0 hr 21 min 23 sec) 
Heartbeat CPU 0 instructions: 21000002 cycles: 102958145 heartbeat IPC: 0.0622029 cumulative IPC: 0.11239 (Simulation time: 0 hr 23 min 6 sec) 
Heartbeat CPU 0 instructions: 22000002 cycles: 107167341 heartbeat IPC: 0.237575 cumulative IPC: 0.117552 (Simulation time: 0 hr 24 min 9 sec) 
Heartbeat CPU 0 instructions: 23000001 cycles: 111006886 heartbeat IPC: 0.260447 cumulative IPC: 0.122731 (Simulation time: 0 hr 25 min 10 sec) 
Heartbeat CPU 0 instructions: 24000000 cycles: 123986361 heartbeat IPC: 0.0770446 cumulative IPC: 0.117744 (Simulation time: 0 hr 26 min 46 sec) 
Heartbeat CPU 0 instructions: 25000002 cycles: 131840987 heartbeat IPC: 0.127314 cumulative IPC: 0.118337 (Simulation time: 0 hr 28 min 9 sec) 
Heartbeat CPU 0 instructions: 26000001 cycles: 135679742 heartbeat IPC: 0.260501 cumulative IPC: 0.122516 (Simulation time: 0 hr 29 min 15 sec) 
Heartbeat CPU 0 instructions: 27000000 cycles: 145347206 heartbeat IPC: 0.10344 cumulative IPC: 0.121201 (Simulation time: 0 hr 30 min 38 sec) 
Heartbeat CPU 0 instructions: 28000000 cycles: 156950760 heartbeat IPC: 0.0861805 cumulative IPC: 0.118525 (Simulation time: 0 hr 32 min 7 sec) 
Heartbeat CPU 0 instructions: 29000001 cycles: 161268095 heartbeat IPC: 0.231625 cumulative IPC: 0.121652 (Simulation time: 0 hr 33 min 12 sec) 
Heartbeat CPU 0 instructions: 30000000 cycles: 168504589 heartbeat IPC: 0.138188 cumulative IPC: 0.122384 (Simulation time: 0 hr 34 min 25 sec) 
Heartbeat CPU 0 instructions: 31000002 cycles: 182319750 heartbeat IPC: 0.0723844 cumulative IPC: 0.118487 (Simulation time: 0 hr 36 min 0 sec) 
Heartbeat CPU 0 instructions: 32000000 cycles: 186638850 heartbeat IPC: 0.231529 cumulative IPC: 0.121176 (Simulation time: 0 hr 37 min 4 sec) 
Heartbeat CPU 0 instructions: 33000000 cycles: 192913881 heartbeat IPC: 0.159362 cumulative IPC: 0.122452 (Simulation time: 0 hr 38 min 5 sec) 
Heartbeat CPU 0 instructions: 34000000 cycles: 208132820 heartbeat IPC: 0.0657076 cumulative IPC: 0.118198 (Simulation time: 0 hr 39 min 43 sec) 
Heartbeat CPU 0 instructions: 35000000 cycles: 214185230 heartbeat IPC: 0.165223 cumulative IPC: 0.11956 (Simulation time: 0 hr 40 min 51 sec) 
Heartbeat CPU 0 instructions: 36000000 cycles: 220169368 heartbeat IPC: 0.167108 cumulative IPC: 0.120883 (Simulation time: 0 hr 41 min 59 sec) 
Heartbeat CPU 0 instructions: 37000002 cycles: 230098510 heartbeat IPC: 0.100714 cumulative IPC: 0.119993 (Simulation time: 0 hr 43 min 18 sec) 
Heartbeat CPU 0 instructions: 38000001 cycles: 241027526 heartbeat IPC: 0.0914995 cumulative IPC: 0.118673 (Simulation time: 0 hr 44 min 49 sec) 
Heartbeat CPU 0 instructions: 39000000 cycles: 245133821 heartbeat IPC: 0.243528 cumulative IPC: 0.120809 (Simulation time: 0 hr 45 min 49 sec) 
Heartbeat CPU 0 instructions: 40000000 cycles: 250938912 heartbeat IPC: 0.172263 cumulative IPC: 0.122023 (Simulation time: 0 hr 46 min 54 sec) 
Heartbeat CPU 0 instructions: 41000000 cycles: 265879760 heartbeat IPC: 0.0669306 cumulative IPC: 0.118867 (Simulation time: 0 hr 48 min 35 sec) 
Heartbeat CPU 0 instructions: 42000001 cycles: 270513084 heartbeat IPC: 0.215828 cumulative IPC: 0.12056 (Simulation time: 0 hr 49 min 35 sec) 
Heartbeat CPU 0 instructions: 43000000 cycles: 274470900 heartbeat IPC: 0.252664 cumulative IPC: 0.122501 (Simulation time: 0 hr 50 min 34 sec) 
Heartbeat CPU 0 instructions: 44000000 cycles: 288054679 heartbeat IPC: 0.0736172 cumulative IPC: 0.120154 (Simulation time: 0 hr 52 min 7 sec) 
Heartbeat CPU 0 instructions: 45000001 cycles: 295493502 heartbeat IPC: 0.13443 cumulative IPC: 0.12052 (Simulation time: 0 hr 53 min 22 sec) 
Heartbeat CPU 0 instructions: 46000001 cycles: 299586701 heartbeat IPC: 0.244308 cumulative IPC: 0.12224 (Simulation time: 0 hr 54 min 23 sec) 
Heartbeat CPU 0 instructions: 47000002 cycles: 308948015 heartbeat IPC: 0.106823 cumulative IPC: 0.121765 (Simulation time: 0 hr 55 min 42 sec) 
Heartbeat CPU 0 instructions: 48000000 cycles: 320924217 heartbeat IPC: 0.0834988 cumulative IPC: 0.120314 (Simulation time: 0 hr 57 min 11 sec) 
Heartbeat CPU 0 instructions: 49000000 cycles: 325389741 heartbeat IPC: 0.223938 cumulative IPC: 0.121759 (Simulation time: 0 hr 58 min 16 sec) 
Heartbeat CPU 0 instructions: 50000001 cycles: 331566587 heartbeat IPC: 0.161895 cumulative IPC: 0.122518 (Simulation time: 0 hr 59 min 22 sec) 
Heartbeat CPU 0 instructions: 51000001 cycles: 346290004 heartbeat IPC: 0.067919 cumulative IPC: 0.120162 (Simulation time: 1 hr 0 min 55 sec) 
Heartbeat CPU 0 instructions: 52000000 cycles: 350781081 heartbeat IPC: 0.222664 cumulative IPC: 0.121494 (Simulation time: 1 hr 1 min 53 sec) 
Heartbeat CPU 0 instructions: 53000000 cycles: 354864697 heartbeat IPC: 0.244881 cumulative IPC: 0.122934 (Simulation time: 1 hr 2 min 49 sec) 
Heartbeat CPU 0 instructions: 54000002 cycles: 370738634 heartbeat IPC: 0.0629965 cumulative IPC: 0.120332 (Simulation time: 1 hr 4 min 25 sec) 
Heartbeat CPU 0 instructions: 55000002 cycles: 375877206 heartbeat IPC: 0.194607 cumulative IPC: 0.121362 (Simulation time: 1 hr 5 min 22 sec) 
Heartbeat CPU 0 instructions: 56000000 cycles: 380080501 heartbeat IPC: 0.237908 cumulative IPC: 0.122668 (Simulation time: 1 hr 6 min 18 sec) 
Heartbeat CPU 0 instructions: 57000000 cycles: 393591335 heartbeat IPC: 0.0740147 cumulative IPC: 0.120976 (Simulation time: 1 hr 7 min 42 sec) 
Heartbeat CPU 0 instructions: 58000000 cycles: 401087463 heartbeat IPC: 0.133402 cumulative IPC: 0.121211 (Simulation time: 1 hr 8 min 46 sec) 
Heartbeat CPU 0 instructions: 59000002 cycles: 405218725 heartbeat IPC: 0.242057 cumulative IPC: 0.122459 (Simulation time: 1 hr 9 min 32 sec) 
Heartbeat CPU 0 instructions: 60000000 cycles: 416991532 heartbeat IPC: 0.0849413 cumulative IPC: 0.121387 (Simulation time: 1 hr 10 min 39 sec) 
Heartbeat CPU 0 instructions: 61000002 cycles: 426481456 heartbeat IPC: 0.105375 cumulative IPC: 0.121026 (Simulation time: 1 hr 11 min 40 sec) 
Heartbeat CPU 0 instructions: 62000001 cycles: 430606709 heartbeat IPC: 0.242409 cumulative IPC: 0.122203 (Simulation time: 1 hr 12 min 20 sec) 
Heartbeat CPU 0 instructions: 63000001 cycles: 440570146 heartbeat IPC: 0.100367 cumulative IPC: 0.121703 (Simulation time: 1 hr 13 min 15 sec) 
Heartbeat CPU 0 instructions: 64000000 cycles: 452065829 heartbeat IPC: 0.0869891 cumulative IPC: 0.12081 (Simulation time: 1 hr 14 min 9 sec) 
Heartbeat CPU 0 instructions: 65000002 cycles: 457468651 heartbeat IPC: 0.185089 cumulative IPC: 0.121578 (Simulation time: 1 hr 14 min 47 sec) 
Heartbeat CPU 0 instructions: 66000000 cycles: 463768483 heartbeat IPC: 0.158734 cumulative IPC: 0.122088 (Simulation time: 1 hr 15 min 29 sec) 
Heartbeat CPU 0 instructions: 67000002 cycles: 479965173 heartbeat IPC: 0.0617411 cumulative IPC: 0.12003 (Simulation time: 1 hr 16 min 32 sec) 
Heartbeat CPU 0 instructions: 68000000 cycles: 484383784 heartbeat IPC: 0.226315 cumulative IPC: 0.12101 (Simulation time: 1 hr 17 min 8 sec) 
Heartbeat CPU 0 instructions: 69000000 cycles: 488380177 heartbeat IPC: 0.250226 cumulative IPC: 0.122078 (Simulation time: 1 hr 17 min 40 sec) 
Heartbeat CPU 0 instructions: 70000001 cycles: 502730015 heartbeat IPC: 0.0696873 cumulative IPC: 0.120568 (Simulation time: 1 hr 18 min 25 sec) 
Heartbeat CPU 0 instructions: 71000002 cycles: 511080478 heartbeat IPC: 0.119754 cumulative IPC: 0.120554 (Simulation time: 1 hr 18 min 59 sec) 
Heartbeat CPU 0 instructions: 72000000 cycles: 515800530 heartbeat IPC: 0.211862 cumulative IPC: 0.121398 (Simulation time: 1 hr 19 min 25 sec) 
Heartbeat CPU 0 instructions: 73000002 cycles: 524787756 heartbeat IPC: 0.111269 cumulative IPC: 0.121223 (Simulation time: 1 hr 19 min 53 sec) 
Heartbeat CPU 0 instructions: 74000001 cycles: 536932154 heartbeat IPC: 0.0823424 cumulative IPC: 0.120335 (Simulation time: 1 hr 20 min 24 sec) 
Heartbeat CPU 0 instructions: 75000002 cycles: 541373320 heartbeat IPC: 0.225166 cumulative IPC: 0.121203 (Simulation time: 1 hr 20 min 43 sec) 
Heartbeat CPU 0 instructions: 76000000 cycles: 547268720 heartbeat IPC: 0.169623 cumulative IPC: 0.12173 (Simulation time: 1 hr 21 min 2 sec) 
Heartbeat CPU 0 instructions: 77000001 cycles: 563201838 heartbeat IPC: 0.0627624 cumulative IPC: 0.120046 (Simulation time: 1 hr 21 min 29 sec) 
Heartbeat CPU 0 instructions: 78000002 cycles: 567930587 heartbeat IPC: 0.211473 cumulative IPC: 0.120815 (Simulation time: 1 hr 21 min 45 sec) 
Heartbeat CPU 0 instructions: 79000001 cycles: 572187011 heartbeat IPC: 0.234939 cumulative IPC: 0.121671 (Simulation time: 1 hr 22 min 0 sec) 
Heartbeat CPU 0 instructions: 80000000 cycles: 585693587 heartbeat IPC: 0.0740379 cumulative IPC: 0.120563 (Simulation time: 1 hr 22 min 19 sec) 
Heartbeat CPU 0 instructions: 81000000 cycles: 593127676 heartbeat IPC: 0.134515 cumulative IPC: 0.120739 (Simulation time: 1 hr 22 min 32 sec) 
Heartbeat CPU 0 instructions: 82000000 cycles: 597883030 heartbeat IPC: 0.210289 cumulative IPC: 0.121458 (Simulation time: 1 hr 22 min 42 sec) 
Heartbeat CPU 0 instructions: 83000001 cycles: 607538819 heartbeat IPC: 0.103565 cumulative IPC: 0.121171 (Simulation time: 1 hr 22 min 54 sec) 
Heartbeat CPU 0 instructions: 84000000 cycles: 619245172 heartbeat IPC: 0.0854236 cumulative IPC: 0.12049 (Simulation time: 1 hr 23 min 5 sec) 
Heartbeat CPU 0 instructions: 85000001 cycles: 623439670 heartbeat IPC: 0.238408 cumulative IPC: 0.12129 (Simulation time: 1 hr 23 min 12 sec) 
Heartbeat CPU 0 instructions: 86000000 cycles: 631167112 heartbeat IPC: 0.129409 cumulative IPC: 0.12139 (Simulation time: 1 hr 23 min 20 sec) 
Heartbeat CPU 0 instructions: 87000000 cycles: 646148710 heartbeat IPC: 0.0667486 cumulative IPC: 0.120113 (Simulation time: 1 hr 23 min 32 sec) 
Heartbeat CPU 0 instructions: 88000000 cycles: 652255108 heartbeat IPC: 0.163763 cumulative IPC: 0.120525 (Simulation time: 1 hr 23 min 40 sec) 
Heartbeat CPU 0 instructions: 89000000 cycles: 656331717 heartbeat IPC: 0.245302 cumulative IPC: 0.121306 (Simulation time: 1 hr 23 min 47 sec) 
Heartbeat CPU 0 instructions: 90000003 cycles: 668310092 heartbeat IPC: 0.083484 cumulative IPC: 0.120623 (Simulation time: 1 hr 23 min 57 sec) 
Heartbeat CPU 0 instructions: 91000000 cycles: 677228510 heartbeat IPC: 0.112127 cumulative IPC: 0.12051 (Simulation time: 1 hr 24 min 6 sec) 
Heartbeat CPU 0 instructions: 92000000 cycles: 681380762 heartbeat IPC: 0.240833 cumulative IPC: 0.121249 (Simulation time: 1 hr 24 min 12 sec) 
Heartbeat CPU 0 instructions: 93000002 cycles: 690296479 heartbeat IPC: 0.112162 cumulative IPC: 0.12113 (Simulation time: 1 hr 24 min 21 sec) 
Heartbeat CPU 0 instructions: 94000002 cycles: 702397965 heartbeat IPC: 0.0826345 cumulative IPC: 0.120462 (Simulation time: 1 hr 24 min 31 sec) 
Heartbeat CPU 0 instructions: 95000000 cycles: 708089838 heartbeat IPC: 0.175689 cumulative IPC: 0.120909 (Simulation time: 1 hr 24 min 38 sec) 
Heartbeat CPU 0 instructions: 96000000 cycles: 713593982 heartbeat IPC: 0.181681 cumulative IPC: 0.121382 (Simulation time: 1 hr 24 min 46 sec) 
Heartbeat CPU 0 instructions: 97000000 cycles: 728983976 heartbeat IPC: 0.0649773 cumulative IPC: 0.120182 (Simulation time: 1 hr 24 min 57 sec) 
Heartbeat CPU 0 instructions: 98000002 cycles: 733644695 heartbeat IPC: 0.21456 cumulative IPC: 0.120786 (Simulation time: 1 hr 25 min 4 sec) 
Heartbeat CPU 0 instructions: 99000002 cycles: 738215109 heartbeat IPC: 0.218799 cumulative IPC: 0.121397 (Simulation time: 1 hr 25 min 11 sec) 
Heartbeat CPU 0 instructions: 100000000 cycles: 752448496 heartbeat IPC: 0.0702572 cumulative IPC: 0.120423 (Simulation time: 1 hr 25 min 21 sec) 
Heartbeat CPU 0 instructions: 101000000 cycles: 759105907 heartbeat IPC: 0.150209 cumulative IPC: 0.120686 (Simulation time: 1 hr 25 min 29 sec) 
Heartbeat CPU 0 instructions: 102000003 cycles: 763238607 heartbeat IPC: 0.241973 cumulative IPC: 0.121347 (Simulation time: 1 hr 25 min 35 sec) 
Heartbeat CPU 0 instructions: 103000003 cycles: 775329066 heartbeat IPC: 0.0827098 cumulative IPC: 0.120741 (Simulation time: 1 hr 25 min 44 sec) 
Heartbeat CPU 0 instructions: 104000000 cycles: 786368145 heartbeat IPC: 0.090587 cumulative IPC: 0.120315 (Simulation time: 1 hr 25 min 54 sec) 
Heartbeat CPU 0 instructions: 105000000 cycles: 791047082 heartbeat IPC: 0.213724 cumulative IPC: 0.120871 (Simulation time: 1 hr 26 min 1 sec) 
Heartbeat CPU 0 instructions: 106000000 cycles: 795132895 heartbeat IPC: 0.244749 cumulative IPC: 0.121512 (Simulation time: 1 hr 26 min 8 sec) 
Heartbeat CPU 0 instructions: 107000002 cycles: 811137737 heartbeat IPC: 0.0624812 cumulative IPC: 0.120339 (Simulation time: 1 hr 26 min 19 sec) 
Heartbeat CPU 0 instructions: 108000000 cycles: 816477635 heartbeat IPC: 0.187269 cumulative IPC: 0.12078 (Simulation time: 1 hr 26 min 26 sec) 
Heartbeat CPU 0 instructions: 109000001 cycles: 820714096 heartbeat IPC: 0.236046 cumulative IPC: 0.121379 (Simulation time: 1 hr 26 min 33 sec) 
Heartbeat CPU 0 instructions: 110000002 cycles: 830541679 heartbeat IPC: 0.101755 cumulative IPC: 0.121145 (Simulation time: 1 hr 26 min 42 sec) 
Finished CPU 0 instructions: 100000001 cycles: 825457164 cummulative IPC: 0.121145 (Simulation time: 1 hr 26 min 42 sec) 

ChampSim completed all CPUs

Region of Interest Statistics

CPU 0 cummulative IPC: 0.121145 instructions: 100000001 cycles: 825457164
LLC TOTAL     ACCESS:   18752295  HIT:    8228859  MISS:   10523436
LLC LOAD      ACCESS:    8468761  HIT:    4401234  MISS:    4067527
LLC RFO       ACCESS:     206415  HIT:      69375  MISS:     137040
LLC PREFETCH  ACCESS:    7969654  HIT:    2085891  MISS:    5883763
LLC WRITEBACK ACCESS:    2107465  HIT:    1672359  MISS:     435106
Insertion Distribution: 
	LOAD 844276 0 614280 2929416 
	RFO 64929 0 51966 32971 
	PREF 0 1436559 888773 4180879 
	WRITEBACK 0 0 0 485624 
Total Prefetch Downgrades: 1167756
