
*** ChampSim Multicore Out-of-Order Simulator ***

Warmup Instructions: 10000000
Simulation Instructions: 100000000
Configuration: 2
Number of CPUs: 1
LLC sets: 2048
LLC ways: 16
Off-chip DRAM Channels: 1 Width: 64-bit Data Rate: 1600 MT/s

CPU 0 runs /datasets/cs240c-wi22-a00-public/data/Assignment2-gz/mcf_158B.trace.gz
CPU 0 L1D next line prefetcher
CPU 0 L2C IP-based stride prefetcher
Initialize SRRIP state
Heartbeat CPU 0 instructions: 1000002 cycles: 512146 heartbeat IPC: 1.95257 cumulative IPC: 1.95257 (Simulation time: 0 hr 0 min 54 sec) 
Heartbeat CPU 0 instructions: 2000002 cycles: 1022995 heartbeat IPC: 1.95753 cumulative IPC: 1.95505 (Simulation time: 0 hr 1 min 47 sec) 
Heartbeat CPU 0 instructions: 3000000 cycles: 1535147 heartbeat IPC: 1.95254 cumulative IPC: 1.95421 (Simulation time: 0 hr 2 min 43 sec) 
Heartbeat CPU 0 instructions: 4000000 cycles: 2046261 heartbeat IPC: 1.95651 cumulative IPC: 1.95478 (Simulation time: 0 hr 3 min 38 sec) 
Heartbeat CPU 0 instructions: 5000002 cycles: 2553760 heartbeat IPC: 1.97045 cumulative IPC: 1.9579 (Simulation time: 0 hr 4 min 31 sec) 
Heartbeat CPU 0 instructions: 6000001 cycles: 3066525 heartbeat IPC: 1.95021 cumulative IPC: 1.95661 (Simulation time: 0 hr 5 min 26 sec) 
Heartbeat CPU 0 instructions: 7000001 cycles: 3575384 heartbeat IPC: 1.96518 cumulative IPC: 1.95783 (Simulation time: 0 hr 6 min 20 sec) 
Heartbeat CPU 0 instructions: 8000000 cycles: 4086313 heartbeat IPC: 1.95722 cumulative IPC: 1.95776 (Simulation time: 0 hr 7 min 12 sec) 
Heartbeat CPU 0 instructions: 9000000 cycles: 4604677 heartbeat IPC: 1.92915 cumulative IPC: 1.95453 (Simulation time: 0 hr 8 min 6 sec) 
Heartbeat CPU 0 instructions: 10000001 cycles: 5138790 heartbeat IPC: 1.87226 cumulative IPC: 1.94598 (Simulation time: 0 hr 9 min 1 sec) 

Warmup complete CPU 0 instructions: 10000001 cycles: 5138790 (Simulation time: 0 hr 9 min 1 sec) 

Heartbeat CPU 0 instructions: 11000001 cycles: 13629505 heartbeat IPC: 0.117776 cumulative IPC: 0.117776 (Simulation time: 0 hr 10 min 20 sec) 
Heartbeat CPU 0 instructions: 12000000 cycles: 21457942 heartbeat IPC: 0.127739 cumulative IPC: 0.122555 (Simulation time: 0 hr 11 min 30 sec) 
Heartbeat CPU 0 instructions: 13000001 cycles: 29633806 heartbeat IPC: 0.122311 cumulative IPC: 0.122474 (Simulation time: 0 hr 12 min 43 sec) 
Heartbeat CPU 0 instructions: 14000001 cycles: 36912344 heartbeat IPC: 0.13739 cumulative IPC: 0.125891 (Simulation time: 0 hr 13 min 58 sec) 
Heartbeat CPU 0 instructions: 15000000 cycles: 44945850 heartbeat IPC: 0.124479 cumulative IPC: 0.125606 (Simulation time: 0 hr 15 min 9 sec) 
Heartbeat CPU 0 instructions: 16000000 cycles: 60301319 heartbeat IPC: 0.0651234 cumulative IPC: 0.108769 (Simulation time: 0 hr 17 min 0 sec) 
Heartbeat CPU 0 instructions: 17000001 cycles: 70337868 heartbeat IPC: 0.0996359 cumulative IPC: 0.107363 (Simulation time: 0 hr 18 min 31 sec) 
Heartbeat CPU 0 instructions: 18000000 cycles: 78291764 heartbeat IPC: 0.125724 cumulative IPC: 0.10936 (Simulation time: 0 hr 19 min 46 sec) 
Heartbeat CPU 0 instructions: 19000001 cycles: 86842628 heartbeat IPC: 0.116947 cumulative IPC: 0.110154 (Simulation time: 0 hr 21 min 7 sec) 
Heartbeat CPU 0 instructions: 20000000 cycles: 95038076 heartbeat IPC: 0.122019 cumulative IPC: 0.111236 (Simulation time: 0 hr 22 min 32 sec) 
Heartbeat CPU 0 instructions: 21000000 cycles: 103011601 heartbeat IPC: 0.125415 cumulative IPC: 0.112391 (Simulation time: 0 hr 23 min 48 sec) 
Heartbeat CPU 0 instructions: 22000002 cycles: 111360503 heartbeat IPC: 0.119776 cumulative IPC: 0.112971 (Simulation time: 0 hr 25 min 1 sec) 
Heartbeat CPU 0 instructions: 23000002 cycles: 121457593 heartbeat IPC: 0.0990384 cumulative IPC: 0.111762 (Simulation time: 0 hr 26 min 21 sec) 
Heartbeat CPU 0 instructions: 24000000 cycles: 136534820 heartbeat IPC: 0.0663251 cumulative IPC: 0.106548 (Simulation time: 0 hr 27 min 59 sec) 
Heartbeat CPU 0 instructions: 25000000 cycles: 144470227 heartbeat IPC: 0.126017 cumulative IPC: 0.107657 (Simulation time: 0 hr 29 min 8 sec) 
Heartbeat CPU 0 instructions: 26000000 cycles: 151148967 heartbeat IPC: 0.149729 cumulative IPC: 0.109581 (Simulation time: 0 hr 30 min 9 sec) 
Heartbeat CPU 0 instructions: 27000002 cycles: 157913868 heartbeat IPC: 0.147822 cumulative IPC: 0.111275 (Simulation time: 0 hr 31 min 11 sec) 
Heartbeat CPU 0 instructions: 28000000 cycles: 172825967 heartbeat IPC: 0.0670595 cumulative IPC: 0.107343 (Simulation time: 0 hr 32 min 50 sec) 
Heartbeat CPU 0 instructions: 29000003 cycles: 181372475 heartbeat IPC: 0.117007 cumulative IPC: 0.107811 (Simulation time: 0 hr 34 min 5 sec) 
Heartbeat CPU 0 instructions: 30000003 cycles: 187468794 heartbeat IPC: 0.164033 cumulative IPC: 0.109691 (Simulation time: 0 hr 35 min 3 sec) 
Heartbeat CPU 0 instructions: 31000003 cycles: 195070022 heartbeat IPC: 0.131558 cumulative IPC: 0.110566 (Simulation time: 0 hr 36 min 11 sec) 
Heartbeat CPU 0 instructions: 32000000 cycles: 210209271 heartbeat IPC: 0.0660533 cumulative IPC: 0.10728 (Simulation time: 0 hr 37 min 50 sec) 
Heartbeat CPU 0 instructions: 33000000 cycles: 217025393 heartbeat IPC: 0.146711 cumulative IPC: 0.108549 (Simulation time: 0 hr 38 min 54 sec) 
Heartbeat CPU 0 instructions: 34000000 cycles: 224075645 heartbeat IPC: 0.141839 cumulative IPC: 0.109621 (Simulation time: 0 hr 39 min 57 sec) 
Heartbeat CPU 0 instructions: 35000001 cycles: 231742036 heartbeat IPC: 0.13044 cumulative IPC: 0.110325 (Simulation time: 0 hr 41 min 5 sec) 
Heartbeat CPU 0 instructions: 36000000 cycles: 247593707 heartbeat IPC: 0.0630848 cumulative IPC: 0.107236 (Simulation time: 0 hr 42 min 47 sec) 
Heartbeat CPU 0 instructions: 37000001 cycles: 255386348 heartbeat IPC: 0.128326 cumulative IPC: 0.107893 (Simulation time: 0 hr 43 min 56 sec) 
Heartbeat CPU 0 instructions: 38000000 cycles: 262644740 heartbeat IPC: 0.137771 cumulative IPC: 0.108735 (Simulation time: 0 hr 45 min 2 sec) 
Heartbeat CPU 0 instructions: 39000000 cycles: 268935374 heartbeat IPC: 0.158966 cumulative IPC: 0.109933 (Simulation time: 0 hr 46 min 5 sec) 
Heartbeat CPU 0 instructions: 40000000 cycles: 283325959 heartbeat IPC: 0.0694899 cumulative IPC: 0.107841 (Simulation time: 0 hr 47 min 34 sec) 
Heartbeat CPU 0 instructions: 41000003 cycles: 291913793 heartbeat IPC: 0.116444 cumulative IPC: 0.108099 (Simulation time: 0 hr 48 min 47 sec) 
Heartbeat CPU 0 instructions: 42000000 cycles: 298196018 heartbeat IPC: 0.159179 cumulative IPC: 0.109194 (Simulation time: 0 hr 49 min 48 sec) 
Heartbeat CPU 0 instructions: 43000001 cycles: 308478678 heartbeat IPC: 0.0972512 cumulative IPC: 0.108789 (Simulation time: 0 hr 51 min 3 sec) 
Heartbeat CPU 0 instructions: 44000000 cycles: 320607382 heartbeat IPC: 0.082449 cumulative IPC: 0.107776 (Simulation time: 0 hr 52 min 27 sec) 
Heartbeat CPU 0 instructions: 45000000 cycles: 326143443 heartbeat IPC: 0.180634 cumulative IPC: 0.109033 (Simulation time: 0 hr 53 min 27 sec) 
Heartbeat CPU 0 instructions: 46000002 cycles: 335815403 heartbeat IPC: 0.103392 cumulative IPC: 0.108868 (Simulation time: 0 hr 54 min 45 sec) 
Heartbeat CPU 0 instructions: 47000002 cycles: 348384470 heartbeat IPC: 0.0795604 cumulative IPC: 0.107795 (Simulation time: 0 hr 56 min 13 sec) 
Heartbeat CPU 0 instructions: 48000000 cycles: 354150314 heartbeat IPC: 0.173435 cumulative IPC: 0.108879 (Simulation time: 0 hr 57 min 11 sec) 
Heartbeat CPU 0 instructions: 49000003 cycles: 363842869 heartbeat IPC: 0.103172 cumulative IPC: 0.108725 (Simulation time: 0 hr 58 min 28 sec) 
Heartbeat CPU 0 instructions: 50000000 cycles: 376443955 heartbeat IPC: 0.079358 cumulative IPC: 0.107728 (Simulation time: 0 hr 59 min 57 sec) 
Heartbeat CPU 0 instructions: 51000000 cycles: 382052240 heartbeat IPC: 0.178308 cumulative IPC: 0.108778 (Simulation time: 1 hr 0 min 53 sec) 
Heartbeat CPU 0 instructions: 52000000 cycles: 390933461 heartbeat IPC: 0.112597 cumulative IPC: 0.108866 (Simulation time: 1 hr 2 min 3 sec) 
Heartbeat CPU 0 instructions: 53000000 cycles: 404407436 heartbeat IPC: 0.0742171 cumulative IPC: 0.107697 (Simulation time: 1 hr 3 min 22 sec) 
Heartbeat CPU 0 instructions: 54000000 cycles: 410213455 heartbeat IPC: 0.172235 cumulative IPC: 0.108622 (Simulation time: 1 hr 4 min 18 sec) 
Heartbeat CPU 0 instructions: 55000000 cycles: 417494779 heartbeat IPC: 0.137338 cumulative IPC: 0.109129 (Simulation time: 1 hr 5 min 24 sec) 
Heartbeat CPU 0 instructions: 56000000 cycles: 432383402 heartbeat IPC: 0.0671654 cumulative IPC: 0.107667 (Simulation time: 1 hr 6 min 56 sec) 
Heartbeat CPU 0 instructions: 57000001 cycles: 438161584 heartbeat IPC: 0.173065 cumulative IPC: 0.108539 (Simulation time: 1 hr 7 min 51 sec) 
Heartbeat CPU 0 instructions: 58000001 cycles: 443704273 heartbeat IPC: 0.180418 cumulative IPC: 0.109448 (Simulation time: 1 hr 8 min 42 sec) 
Heartbeat CPU 0 instructions: 59000000 cycles: 459588754 heartbeat IPC: 0.0629545 cumulative IPC: 0.107823 (Simulation time: 1 hr 9 min 58 sec) 
Heartbeat CPU 0 instructions: 60000000 cycles: 465993787 heartbeat IPC: 0.156127 cumulative IPC: 0.108494 (Simulation time: 1 hr 10 min 47 sec) 
Heartbeat CPU 0 instructions: 61000000 cycles: 472253131 heartbeat IPC: 0.159761 cumulative IPC: 0.109181 (Simulation time: 1 hr 11 min 31 sec) 
Heartbeat CPU 0 instructions: 62000001 cycles: 484358437 heartbeat IPC: 0.0826085 cumulative IPC: 0.10851 (Simulation time: 1 hr 12 min 25 sec) 
Heartbeat CPU 0 instructions: 63000001 cycles: 494330950 heartbeat IPC: 0.100276 cumulative IPC: 0.108342 (Simulation time: 1 hr 13 min 15 sec) 
Heartbeat CPU 0 instructions: 64000000 cycles: 499898078 heartbeat IPC: 0.179626 cumulative IPC: 0.109144 (Simulation time: 1 hr 13 min 55 sec) 
Heartbeat CPU 0 instructions: 65000000 cycles: 506670178 heartbeat IPC: 0.147665 cumulative IPC: 0.109664 (Simulation time: 1 hr 14 min 36 sec) 
Heartbeat CPU 0 instructions: 66000000 cycles: 521744941 heartbeat IPC: 0.066336 cumulative IPC: 0.1084 (Simulation time: 1 hr 15 min 40 sec) 
Heartbeat CPU 0 instructions: 67000002 cycles: 527431250 heartbeat IPC: 0.175861 cumulative IPC: 0.109134 (Simulation time: 1 hr 16 min 14 sec) 
Heartbeat CPU 0 instructions: 68000000 cycles: 532785118 heartbeat IPC: 0.18678 cumulative IPC: 0.109922 (Simulation time: 1 hr 16 min 46 sec) 
Heartbeat CPU 0 instructions: 69000000 cycles: 545847902 heartbeat IPC: 0.0765534 cumulative IPC: 0.109116 (Simulation time: 1 hr 17 min 33 sec) 
Heartbeat CPU 0 instructions: 70000000 cycles: 554814015 heartbeat IPC: 0.111531 cumulative IPC: 0.109155 (Simulation time: 1 hr 18 min 11 sec) 
Heartbeat CPU 0 instructions: 71000002 cycles: 560208623 heartbeat IPC: 0.185371 cumulative IPC: 0.109896 (Simulation time: 1 hr 18 min 40 sec) 
Heartbeat CPU 0 instructions: 72000000 cycles: 567536796 heartbeat IPC: 0.136459 cumulative IPC: 0.110242 (Simulation time: 1 hr 19 min 8 sec) 
Heartbeat CPU 0 instructions: 73000000 cycles: 582020260 heartbeat IPC: 0.0690443 cumulative IPC: 0.109208 (Simulation time: 1 hr 19 min 44 sec) 
Heartbeat CPU 0 instructions: 74000000 cycles: 587827448 heartbeat IPC: 0.1722 cumulative IPC: 0.109836 (Simulation time: 1 hr 20 min 6 sec) 
Heartbeat CPU 0 instructions: 75000001 cycles: 593526617 heartbeat IPC: 0.175464 cumulative IPC: 0.110471 (Simulation time: 1 hr 20 min 27 sec) 
Heartbeat CPU 0 instructions: 76000000 cycles: 605539237 heartbeat IPC: 0.0832457 cumulative IPC: 0.109927 (Simulation time: 1 hr 20 min 52 sec) 
Heartbeat CPU 0 instructions: 77000000 cycles: 616061630 heartbeat IPC: 0.0950354 cumulative IPC: 0.10967 (Simulation time: 1 hr 21 min 13 sec) 
Heartbeat CPU 0 instructions: 78000000 cycles: 622286288 heartbeat IPC: 0.160651 cumulative IPC: 0.110184 (Simulation time: 1 hr 21 min 30 sec) 
Heartbeat CPU 0 instructions: 79000001 cycles: 628959150 heartbeat IPC: 0.149861 cumulative IPC: 0.110609 (Simulation time: 1 hr 21 min 46 sec) 
Heartbeat CPU 0 instructions: 80000000 cycles: 644517988 heartbeat IPC: 0.0642721 cumulative IPC: 0.109481 (Simulation time: 1 hr 22 min 9 sec) 
Heartbeat CPU 0 instructions: 81000001 cycles: 651288035 heartbeat IPC: 0.14771 cumulative IPC: 0.109882 (Simulation time: 1 hr 22 min 23 sec) 
Heartbeat CPU 0 instructions: 82000001 cycles: 657486421 heartbeat IPC: 0.161332 cumulative IPC: 0.110371 (Simulation time: 1 hr 22 min 33 sec) 
Heartbeat CPU 0 instructions: 83000001 cycles: 669858383 heartbeat IPC: 0.0808279 cumulative IPC: 0.109821 (Simulation time: 1 hr 22 min 47 sec) 
Heartbeat CPU 0 instructions: 84000000 cycles: 680642262 heartbeat IPC: 0.0927309 cumulative IPC: 0.109548 (Simulation time: 1 hr 22 min 59 sec) 
Heartbeat CPU 0 instructions: 85000000 cycles: 686389840 heartbeat IPC: 0.173986 cumulative IPC: 0.110092 (Simulation time: 1 hr 23 min 6 sec) 
Heartbeat CPU 0 instructions: 86000002 cycles: 693587587 heartbeat IPC: 0.138933 cumulative IPC: 0.110393 (Simulation time: 1 hr 23 min 13 sec) 
Heartbeat CPU 0 instructions: 87000000 cycles: 708775965 heartbeat IPC: 0.0658397 cumulative IPC: 0.109431 (Simulation time: 1 hr 23 min 24 sec) 
Heartbeat CPU 0 instructions: 88000000 cycles: 715116482 heartbeat IPC: 0.157716 cumulative IPC: 0.109863 (Simulation time: 1 hr 23 min 31 sec) 
Heartbeat CPU 0 instructions: 89000000 cycles: 721615026 heartbeat IPC: 0.153881 cumulative IPC: 0.110262 (Simulation time: 1 hr 23 min 38 sec) 
Heartbeat CPU 0 instructions: 90000002 cycles: 735284585 heartbeat IPC: 0.0731554 cumulative IPC: 0.109567 (Simulation time: 1 hr 23 min 48 sec) 
Heartbeat CPU 0 instructions: 91000000 cycles: 744224428 heartbeat IPC: 0.111859 cumulative IPC: 0.109595 (Simulation time: 1 hr 23 min 56 sec) 
Heartbeat CPU 0 instructions: 92000000 cycles: 750179422 heartbeat IPC: 0.167926 cumulative IPC: 0.110061 (Simulation time: 1 hr 24 min 3 sec) 
Heartbeat CPU 0 instructions: 93000003 cycles: 760951969 heartbeat IPC: 0.0928288 cumulative IPC: 0.109816 (Simulation time: 1 hr 24 min 11 sec) 
Heartbeat CPU 0 instructions: 94000000 cycles: 772891992 heartbeat IPC: 0.0837517 cumulative IPC: 0.10941 (Simulation time: 1 hr 24 min 20 sec) 
Heartbeat CPU 0 instructions: 95000000 cycles: 779111309 heartbeat IPC: 0.160789 cumulative IPC: 0.109823 (Simulation time: 1 hr 24 min 28 sec) 
Heartbeat CPU 0 instructions: 96000000 cycles: 786097443 heartbeat IPC: 0.143141 cumulative IPC: 0.110121 (Simulation time: 1 hr 24 min 35 sec) 
Heartbeat CPU 0 instructions: 97000003 cycles: 801985973 heartbeat IPC: 0.0629387 cumulative IPC: 0.10918 (Simulation time: 1 hr 24 min 46 sec) 
Heartbeat CPU 0 instructions: 98000002 cycles: 808578338 heartbeat IPC: 0.15169 cumulative IPC: 0.109529 (Simulation time: 1 hr 24 min 53 sec) 
Heartbeat CPU 0 instructions: 99000000 cycles: 814810637 heartbeat IPC: 0.160454 cumulative IPC: 0.109921 (Simulation time: 1 hr 25 min 0 sec) 
Heartbeat CPU 0 instructions: 100000000 cycles: 828288838 heartbeat IPC: 0.0741939 cumulative IPC: 0.109336 (Simulation time: 1 hr 25 min 9 sec) 
Heartbeat CPU 0 instructions: 101000000 cycles: 838251176 heartbeat IPC: 0.100378 cumulative IPC: 0.109229 (Simulation time: 1 hr 25 min 17 sec) 
Heartbeat CPU 0 instructions: 102000000 cycles: 844855695 heartbeat IPC: 0.151411 cumulative IPC: 0.109561 (Simulation time: 1 hr 25 min 24 sec) 
Heartbeat CPU 0 instructions: 103000001 cycles: 851049358 heartbeat IPC: 0.161456 cumulative IPC: 0.109941 (Simulation time: 1 hr 25 min 31 sec) 
Heartbeat CPU 0 instructions: 104000000 cycles: 867024458 heartbeat IPC: 0.0625974 cumulative IPC: 0.109063 (Simulation time: 1 hr 25 min 43 sec) 
Heartbeat CPU 0 instructions: 105000000 cycles: 874549811 heartbeat IPC: 0.132884 cumulative IPC: 0.109269 (Simulation time: 1 hr 25 min 50 sec) 
Heartbeat CPU 0 instructions: 106000000 cycles: 881061840 heartbeat IPC: 0.153562 cumulative IPC: 0.109599 (Simulation time: 1 hr 25 min 57 sec) 
Heartbeat CPU 0 instructions: 107000000 cycles: 890534461 heartbeat IPC: 0.105567 cumulative IPC: 0.109556 (Simulation time: 1 hr 26 min 5 sec) 
Heartbeat CPU 0 instructions: 108000000 cycles: 904492381 heartbeat IPC: 0.0716439 cumulative IPC: 0.108967 (Simulation time: 1 hr 26 min 15 sec) 
Heartbeat CPU 0 instructions: 109000001 cycles: 911042667 heartbeat IPC: 0.152665 cumulative IPC: 0.109283 (Simulation time: 1 hr 26 min 22 sec) 
Heartbeat CPU 0 instructions: 110000000 cycles: 918103818 heartbeat IPC: 0.14162 cumulative IPC: 0.109533 (Simulation time: 1 hr 26 min 28 sec) 
Finished CPU 0 instructions: 100000002 cycles: 912965030 cummulative IPC: 0.109533 (Simulation time: 1 hr 26 min 28 sec) 

ChampSim completed all CPUs

Region of Interest Statistics

CPU 0 cummulative IPC: 0.109533 instructions: 100000002 cycles: 912965030
LLC TOTAL     ACCESS:   21077810  HIT:    9713086  MISS:   11364724
LLC LOAD      ACCESS:    9505353  HIT:    5899084  MISS:    3606269
LLC RFO       ACCESS:     164373  HIT:      54476  MISS:     109897
LLC PREFETCH  ACCESS:    9645144  HIT:    2291406  MISS:    7353738
LLC WRITEBACK ACCESS:    1762940  HIT:    1468120  MISS:     294820
Insertion Distribution: 
	LOAD 909699 0 624906 2320211 
	RFO 22157 0 21105 70596 
	PREF 0 1730485 1797494 4976055 
	WRITEBACK 0 0 0 308276 
Total Prefetch Downgrades: 1642487
