
*** ChampSim Multicore Out-of-Order Simulator ***

Warmup Instructions: 10000000
Simulation Instructions: 100000000
Configuration: 2
Number of CPUs: 1
LLC sets: 2048
LLC ways: 16
Off-chip DRAM Channels: 1 Width: 64-bit Data Rate: 1600 MT/s

CPU 0 runs /datasets/cs240c-wi22-a00-public/data/Assignment2-gz/leslie3d_1186B.trace.gz
CPU 0 L1D next line prefetcher
CPU 0 L2C IP-based stride prefetcher
Initialize SRRIP state
Heartbeat CPU 0 instructions: 1000002 cycles: 564509 heartbeat IPC: 1.77145 cumulative IPC: 1.77145 (Simulation time: 0 hr 0 min 47 sec) 
Heartbeat CPU 0 instructions: 2000000 cycles: 1215815 heartbeat IPC: 1.53537 cumulative IPC: 1.64499 (Simulation time: 0 hr 1 min 37 sec) 
Heartbeat CPU 0 instructions: 3000000 cycles: 1867547 heartbeat IPC: 1.53437 cumulative IPC: 1.60639 (Simulation time: 0 hr 2 min 29 sec) 
Heartbeat CPU 0 instructions: 4000000 cycles: 2473069 heartbeat IPC: 1.65147 cumulative IPC: 1.61742 (Simulation time: 0 hr 3 min 19 sec) 
Heartbeat CPU 0 instructions: 5000000 cycles: 3083384 heartbeat IPC: 1.6385 cumulative IPC: 1.6216 (Simulation time: 0 hr 4 min 9 sec) 
Heartbeat CPU 0 instructions: 6000000 cycles: 3735117 heartbeat IPC: 1.53437 cumulative IPC: 1.60638 (Simulation time: 0 hr 4 min 59 sec) 
Heartbeat CPU 0 instructions: 7000001 cycles: 4386365 heartbeat IPC: 1.53551 cumulative IPC: 1.59585 (Simulation time: 0 hr 5 min 47 sec) 
Heartbeat CPU 0 instructions: 8000000 cycles: 4950955 heartbeat IPC: 1.7712 cumulative IPC: 1.61585 (Simulation time: 0 hr 6 min 38 sec) 
Heartbeat CPU 0 instructions: 9000003 cycles: 5602259 heartbeat IPC: 1.53539 cumulative IPC: 1.6065 (Simulation time: 0 hr 7 min 28 sec) 
Heartbeat CPU 0 instructions: 10000001 cycles: 6253403 heartbeat IPC: 1.53576 cumulative IPC: 1.59913 (Simulation time: 0 hr 8 min 17 sec) 

Warmup complete CPU 0 instructions: 10000001 cycles: 6253403 (Simulation time: 0 hr 8 min 17 sec) 

Heartbeat CPU 0 instructions: 11000001 cycles: 7684755 heartbeat IPC: 0.69864 cumulative IPC: 0.69864 (Simulation time: 0 hr 9 min 5 sec) 
Heartbeat CPU 0 instructions: 12000000 cycles: 8925106 heartbeat IPC: 0.806223 cumulative IPC: 0.748586 (Simulation time: 0 hr 9 min 56 sec) 
Heartbeat CPU 0 instructions: 13000000 cycles: 10124359 heartbeat IPC: 0.833852 cumulative IPC: 0.775002 (Simulation time: 0 hr 10 min 45 sec) 
Heartbeat CPU 0 instructions: 14000000 cycles: 11348027 heartbeat IPC: 0.817215 cumulative IPC: 0.785141 (Simulation time: 0 hr 11 min 32 sec) 
Heartbeat CPU 0 instructions: 15000002 cycles: 12793556 heartbeat IPC: 0.69179 cumulative IPC: 0.764508 (Simulation time: 0 hr 12 min 25 sec) 
Heartbeat CPU 0 instructions: 16000000 cycles: 13991786 heartbeat IPC: 0.834563 cumulative IPC: 0.775356 (Simulation time: 0 hr 13 min 16 sec) 
Heartbeat CPU 0 instructions: 17000000 cycles: 15181733 heartbeat IPC: 0.840374 cumulative IPC: 0.784021 (Simulation time: 0 hr 14 min 4 sec) 
Heartbeat CPU 0 instructions: 18000001 cycles: 16626266 heartbeat IPC: 0.692266 cumulative IPC: 0.771243 (Simulation time: 0 hr 14 min 50 sec) 
Heartbeat CPU 0 instructions: 19000003 cycles: 17856533 heartbeat IPC: 0.812833 cumulative IPC: 0.775653 (Simulation time: 0 hr 15 min 39 sec) 
Heartbeat CPU 0 instructions: 20000000 cycles: 19075653 heartbeat IPC: 0.820261 cumulative IPC: 0.779894 (Simulation time: 0 hr 16 min 32 sec) 
Heartbeat CPU 0 instructions: 21000003 cycles: 20376751 heartbeat IPC: 0.768584 cumulative IPC: 0.778852 (Simulation time: 0 hr 17 min 22 sec) 
Heartbeat CPU 0 instructions: 22000003 cycles: 21702896 heartbeat IPC: 0.754065 cumulative IPC: 0.776725 (Simulation time: 0 hr 18 min 14 sec) 
Heartbeat CPU 0 instructions: 23000002 cycles: 22889269 heartbeat IPC: 0.842904 cumulative IPC: 0.781444 (Simulation time: 0 hr 19 min 2 sec) 
Heartbeat CPU 0 instructions: 24000000 cycles: 24077727 heartbeat IPC: 0.841425 cumulative IPC: 0.785443 (Simulation time: 0 hr 19 min 50 sec) 
Heartbeat CPU 0 instructions: 25000000 cycles: 25502042 heartbeat IPC: 0.702092 cumulative IPC: 0.779276 (Simulation time: 0 hr 20 min 30 sec) 
Heartbeat CPU 0 instructions: 26000000 cycles: 26686631 heartbeat IPC: 0.844175 cumulative IPC: 0.783038 (Simulation time: 0 hr 21 min 19 sec) 
Heartbeat CPU 0 instructions: 27000000 cycles: 27870126 heartbeat IPC: 0.844955 cumulative IPC: 0.786428 (Simulation time: 0 hr 22 min 5 sec) 
Heartbeat CPU 0 instructions: 28000000 cycles: 29269557 heartbeat IPC: 0.714576 cumulative IPC: 0.782059 (Simulation time: 0 hr 22 min 50 sec) 
Heartbeat CPU 0 instructions: 29000002 cycles: 30466208 heartbeat IPC: 0.835667 cumulative IPC: 0.784709 (Simulation time: 0 hr 23 min 44 sec) 
Heartbeat CPU 0 instructions: 30000002 cycles: 31638012 heartbeat IPC: 0.853385 cumulative IPC: 0.787879 (Simulation time: 0 hr 24 min 29 sec) 
Heartbeat CPU 0 instructions: 31000002 cycles: 32844904 heartbeat IPC: 0.828575 cumulative IPC: 0.789726 (Simulation time: 0 hr 25 min 18 sec) 
Heartbeat CPU 0 instructions: 32000000 cycles: 34228237 heartbeat IPC: 0.72289 cumulative IPC: 0.786421 (Simulation time: 0 hr 26 min 7 sec) 
Heartbeat CPU 0 instructions: 33000000 cycles: 35392394 heartbeat IPC: 0.858991 cumulative IPC: 0.78932 (Simulation time: 0 hr 26 min 53 sec) 
Heartbeat CPU 0 instructions: 34000000 cycles: 36555521 heartbeat IPC: 0.859751 cumulative IPC: 0.792024 (Simulation time: 0 hr 27 min 42 sec) 
Heartbeat CPU 0 instructions: 35000000 cycles: 37968085 heartbeat IPC: 0.707933 cumulative IPC: 0.788278 (Simulation time: 0 hr 28 min 29 sec) 
Heartbeat CPU 0 instructions: 36000000 cycles: 39168144 heartbeat IPC: 0.833292 cumulative IPC: 0.78992 (Simulation time: 0 hr 29 min 19 sec) 
Heartbeat CPU 0 instructions: 37000003 cycles: 40351020 heartbeat IPC: 0.8454 cumulative IPC: 0.791844 (Simulation time: 0 hr 30 min 8 sec) 
Heartbeat CPU 0 instructions: 38000003 cycles: 41667312 heartbeat IPC: 0.75971 cumulative IPC: 0.79065 (Simulation time: 0 hr 30 min 53 sec) 
Heartbeat CPU 0 instructions: 39000001 cycles: 42949643 heartbeat IPC: 0.779828 cumulative IPC: 0.790272 (Simulation time: 0 hr 31 min 44 sec) 
Heartbeat CPU 0 instructions: 40000000 cycles: 44127763 heartbeat IPC: 0.848809 cumulative IPC: 0.792093 (Simulation time: 0 hr 32 min 36 sec) 
Heartbeat CPU 0 instructions: 41000000 cycles: 45290882 heartbeat IPC: 0.859757 cumulative IPC: 0.794109 (Simulation time: 0 hr 33 min 26 sec) 
Heartbeat CPU 0 instructions: 42000000 cycles: 46704175 heartbeat IPC: 0.707567 cumulative IPC: 0.791085 (Simulation time: 0 hr 34 min 14 sec) 
Heartbeat CPU 0 instructions: 43000002 cycles: 47865461 heartbeat IPC: 0.861116 cumulative IPC: 0.793039 (Simulation time: 0 hr 35 min 6 sec) 
Heartbeat CPU 0 instructions: 44000000 cycles: 49033641 heartbeat IPC: 0.856031 cumulative IPC: 0.794759 (Simulation time: 0 hr 35 min 57 sec) 
Heartbeat CPU 0 instructions: 45000001 cycles: 50505035 heartbeat IPC: 0.679628 cumulative IPC: 0.790931 (Simulation time: 0 hr 36 min 42 sec) 
Heartbeat CPU 0 instructions: 46000001 cycles: 52154096 heartbeat IPC: 0.606406 cumulative IPC: 0.784302 (Simulation time: 0 hr 37 min 31 sec) 
Heartbeat CPU 0 instructions: 47000002 cycles: 53884443 heartbeat IPC: 0.577919 cumulative IPC: 0.776804 (Simulation time: 0 hr 38 min 18 sec) 
Heartbeat CPU 0 instructions: 48000000 cycles: 55666739 heartbeat IPC: 0.561073 cumulative IPC: 0.769023 (Simulation time: 0 hr 39 min 6 sec) 
Heartbeat CPU 0 instructions: 49000002 cycles: 57496729 heartbeat IPC: 0.546452 cumulative IPC: 0.761075 (Simulation time: 0 hr 39 min 55 sec) 
Heartbeat CPU 0 instructions: 50000002 cycles: 59292043 heartbeat IPC: 0.557006 cumulative IPC: 0.754167 (Simulation time: 0 hr 40 min 47 sec) 
Heartbeat CPU 0 instructions: 51000000 cycles: 61179982 heartbeat IPC: 0.529677 cumulative IPC: 0.746451 (Simulation time: 0 hr 41 min 38 sec) 
Heartbeat CPU 0 instructions: 52000000 cycles: 63058353 heartbeat IPC: 0.532376 cumulative IPC: 0.739372 (Simulation time: 0 hr 42 min 32 sec) 
Heartbeat CPU 0 instructions: 53000000 cycles: 64988882 heartbeat IPC: 0.517993 cumulative IPC: 0.732096 (Simulation time: 0 hr 43 min 30 sec) 
Heartbeat CPU 0 instructions: 54000003 cycles: 66899277 heartbeat IPC: 0.523454 cumulative IPC: 0.725523 (Simulation time: 0 hr 44 min 22 sec) 
Heartbeat CPU 0 instructions: 55000001 cycles: 68950342 heartbeat IPC: 0.487551 cumulative IPC: 0.717738 (Simulation time: 0 hr 45 min 15 sec) 
Heartbeat CPU 0 instructions: 56000000 cycles: 71281799 heartbeat IPC: 0.428916 cumulative IPC: 0.707383 (Simulation time: 0 hr 46 min 8 sec) 
Heartbeat CPU 0 instructions: 57000003 cycles: 73634474 heartbeat IPC: 0.425049 cumulative IPC: 0.697525 (Simulation time: 0 hr 47 min 1 sec) 
Heartbeat CPU 0 instructions: 58000001 cycles: 75923695 heartbeat IPC: 0.436829 cumulative IPC: 0.688959 (Simulation time: 0 hr 47 min 50 sec) 
Heartbeat CPU 0 instructions: 59000003 cycles: 78208926 heartbeat IPC: 0.437593 cumulative IPC: 0.680976 (Simulation time: 0 hr 48 min 47 sec) 
Heartbeat CPU 0 instructions: 60000000 cycles: 80519325 heartbeat IPC: 0.432824 cumulative IPC: 0.673256 (Simulation time: 0 hr 49 min 45 sec) 
Heartbeat CPU 0 instructions: 61000003 cycles: 82828013 heartbeat IPC: 0.433148 cumulative IPC: 0.666017 (Simulation time: 0 hr 50 min 45 sec) 
Heartbeat CPU 0 instructions: 62000001 cycles: 85135906 heartbeat IPC: 0.433295 cumulative IPC: 0.659208 (Simulation time: 0 hr 51 min 45 sec) 
Heartbeat CPU 0 instructions: 63000000 cycles: 87104553 heartbeat IPC: 0.507963 cumulative IPC: 0.655526 (Simulation time: 0 hr 52 min 42 sec) 
Heartbeat CPU 0 instructions: 64000000 cycles: 88326120 heartbeat IPC: 0.818621 cumulative IPC: 0.657953 (Simulation time: 0 hr 53 min 31 sec) 
Heartbeat CPU 0 instructions: 65000000 cycles: 89580440 heartbeat IPC: 0.797245 cumulative IPC: 0.66005 (Simulation time: 0 hr 54 min 20 sec) 
Heartbeat CPU 0 instructions: 66000002 cycles: 90833807 heartbeat IPC: 0.797853 cumulative IPC: 0.662092 (Simulation time: 0 hr 55 min 10 sec) 
Heartbeat CPU 0 instructions: 67000001 cycles: 92085848 heartbeat IPC: 0.798695 cumulative IPC: 0.664085 (Simulation time: 0 hr 55 min 58 sec) 
Heartbeat CPU 0 instructions: 68000000 cycles: 93403588 heartbeat IPC: 0.758874 cumulative IPC: 0.665518 (Simulation time: 0 hr 56 min 46 sec) 
Heartbeat CPU 0 instructions: 69000000 cycles: 94649290 heartbeat IPC: 0.80276 cumulative IPC: 0.667452 (Simulation time: 0 hr 57 min 32 sec) 
Heartbeat CPU 0 instructions: 70000000 cycles: 95936248 heartbeat IPC: 0.777026 cumulative IPC: 0.669024 (Simulation time: 0 hr 58 min 19 sec) 
Heartbeat CPU 0 instructions: 71000000 cycles: 97187955 heartbeat IPC: 0.798909 cumulative IPC: 0.670812 (Simulation time: 0 hr 59 min 7 sec) 
Heartbeat CPU 0 instructions: 72000000 cycles: 98467578 heartbeat IPC: 0.78148 cumulative IPC: 0.672348 (Simulation time: 0 hr 59 min 54 sec) 
Heartbeat CPU 0 instructions: 73000000 cycles: 99748360 heartbeat IPC: 0.780773 cumulative IPC: 0.673833 (Simulation time: 1 hr 0 min 37 sec) 
Heartbeat CPU 0 instructions: 74000000 cycles: 101000078 heartbeat IPC: 0.798902 cumulative IPC: 0.675485 (Simulation time: 1 hr 1 min 23 sec) 
Heartbeat CPU 0 instructions: 75000003 cycles: 102296715 heartbeat IPC: 0.771228 cumulative IPC: 0.676778 (Simulation time: 1 hr 2 min 11 sec) 
Heartbeat CPU 0 instructions: 76000000 cycles: 103552178 heartbeat IPC: 0.796516 cumulative IPC: 0.678323 (Simulation time: 1 hr 2 min 58 sec) 
Heartbeat CPU 0 instructions: 77000000 cycles: 104847414 heartbeat IPC: 0.77206 cumulative IPC: 0.679554 (Simulation time: 1 hr 3 min 44 sec) 
Heartbeat CPU 0 instructions: 78000001 cycles: 106119462 heartbeat IPC: 0.786135 cumulative IPC: 0.680912 (Simulation time: 1 hr 4 min 31 sec) 
Heartbeat CPU 0 instructions: 79000002 cycles: 107416989 heartbeat IPC: 0.770698 cumulative IPC: 0.682064 (Simulation time: 1 hr 5 min 18 sec) 
Heartbeat CPU 0 instructions: 80000000 cycles: 108711221 heartbeat IPC: 0.772657 cumulative IPC: 0.683208 (Simulation time: 1 hr 6 min 5 sec) 
Heartbeat CPU 0 instructions: 81000000 cycles: 109969438 heartbeat IPC: 0.794775 cumulative IPC: 0.684561 (Simulation time: 1 hr 6 min 54 sec) 
Heartbeat CPU 0 instructions: 82000003 cycles: 111269266 heartbeat IPC: 0.769335 cumulative IPC: 0.685611 (Simulation time: 1 hr 7 min 39 sec) 
Heartbeat CPU 0 instructions: 83000001 cycles: 112538734 heartbeat IPC: 0.78773 cumulative IPC: 0.68683 (Simulation time: 1 hr 8 min 25 sec) 
Heartbeat CPU 0 instructions: 84000000 cycles: 113826663 heartbeat IPC: 0.77644 cumulative IPC: 0.687903 (Simulation time: 1 hr 9 min 4 sec) 
Heartbeat CPU 0 instructions: 85000001 cycles: 115097210 heartbeat IPC: 0.787063 cumulative IPC: 0.689061 (Simulation time: 1 hr 9 min 44 sec) 
Heartbeat CPU 0 instructions: 86000003 cycles: 116386523 heartbeat IPC: 0.775608 cumulative IPC: 0.690074 (Simulation time: 1 hr 10 min 20 sec) 
Heartbeat CPU 0 instructions: 87000001 cycles: 117660412 heartbeat IPC: 0.784996 cumulative IPC: 0.691159 (Simulation time: 1 hr 10 min 55 sec) 
Heartbeat CPU 0 instructions: 88000000 cycles: 118945516 heartbeat IPC: 0.778146 cumulative IPC: 0.692151 (Simulation time: 1 hr 11 min 30 sec) 
Heartbeat CPU 0 instructions: 89000001 cycles: 120241254 heartbeat IPC: 0.771762 cumulative IPC: 0.693056 (Simulation time: 1 hr 12 min 1 sec) 
Heartbeat CPU 0 instructions: 90000002 cycles: 121522560 heartbeat IPC: 0.780454 cumulative IPC: 0.694028 (Simulation time: 1 hr 12 min 32 sec) 
Heartbeat CPU 0 instructions: 91000000 cycles: 122815177 heartbeat IPC: 0.773623 cumulative IPC: 0.69491 (Simulation time: 1 hr 13 min 5 sec) 
Heartbeat CPU 0 instructions: 92000000 cycles: 124078220 heartbeat IPC: 0.791739 cumulative IPC: 0.695948 (Simulation time: 1 hr 13 min 38 sec) 
Heartbeat CPU 0 instructions: 93000002 cycles: 125390092 heartbeat IPC: 0.762271 cumulative IPC: 0.696679 (Simulation time: 1 hr 14 min 9 sec) 
Heartbeat CPU 0 instructions: 94000000 cycles: 126645819 heartbeat IPC: 0.79635 cumulative IPC: 0.697718 (Simulation time: 1 hr 14 min 38 sec) 
Heartbeat CPU 0 instructions: 95000003 cycles: 127912023 heartbeat IPC: 0.789765 cumulative IPC: 0.698676 (Simulation time: 1 hr 15 min 8 sec) 
Heartbeat CPU 0 instructions: 96000000 cycles: 129209700 heartbeat IPC: 0.770605 cumulative IPC: 0.699435 (Simulation time: 1 hr 15 min 39 sec) 
Heartbeat CPU 0 instructions: 97000001 cycles: 130472312 heartbeat IPC: 0.79201 cumulative IPC: 0.700376 (Simulation time: 1 hr 16 min 6 sec) 
Heartbeat CPU 0 instructions: 98000002 cycles: 131780074 heartbeat IPC: 0.764666 cumulative IPC: 0.701046 (Simulation time: 1 hr 16 min 33 sec) 
Heartbeat CPU 0 instructions: 99000000 cycles: 133042832 heartbeat IPC: 0.791916 cumulative IPC: 0.701951 (Simulation time: 1 hr 16 min 58 sec) 
Heartbeat CPU 0 instructions: 100000000 cycles: 134354270 heartbeat IPC: 0.762522 cumulative IPC: 0.702571 (Simulation time: 1 hr 17 min 22 sec) 
Heartbeat CPU 0 instructions: 101000000 cycles: 135639530 heartbeat IPC: 0.778053 cumulative IPC: 0.703321 (Simulation time: 1 hr 17 min 47 sec) 
Heartbeat CPU 0 instructions: 102000001 cycles: 136905836 heartbeat IPC: 0.789699 cumulative IPC: 0.704158 (Simulation time: 1 hr 18 min 12 sec) 
Heartbeat CPU 0 instructions: 103000002 cycles: 138203996 heartbeat IPC: 0.770322 cumulative IPC: 0.704809 (Simulation time: 1 hr 18 min 35 sec) 
Heartbeat CPU 0 instructions: 104000000 cycles: 139451404 heartbeat IPC: 0.801661 cumulative IPC: 0.705716 (Simulation time: 1 hr 18 min 57 sec) 
Heartbeat CPU 0 instructions: 105000001 cycles: 140763800 heartbeat IPC: 0.761966 cumulative IPC: 0.706265 (Simulation time: 1 hr 19 min 17 sec) 
Heartbeat CPU 0 instructions: 106000002 cycles: 142026936 heartbeat IPC: 0.791681 cumulative IPC: 0.70706 (Simulation time: 1 hr 19 min 36 sec) 
Heartbeat CPU 0 instructions: 107000000 cycles: 143318166 heartbeat IPC: 0.774454 cumulative IPC: 0.707695 (Simulation time: 1 hr 19 min 53 sec) 
Heartbeat CPU 0 instructions: 108000000 cycles: 144590583 heartbeat IPC: 0.785906 cumulative IPC: 0.708414 (Simulation time: 1 hr 20 min 10 sec) 
Heartbeat CPU 0 instructions: 109000003 cycles: 145855201 heartbeat IPC: 0.790755 cumulative IPC: 0.70916 (Simulation time: 1 hr 20 min 26 sec) 
Heartbeat CPU 0 instructions: 110000001 cycles: 147167369 heartbeat IPC: 0.762096 cumulative IPC: 0.709653 (Simulation time: 1 hr 20 min 42 sec) 
Finished CPU 0 instructions: 100000000 cycles: 140913966 cummulative IPC: 0.709653 (Simulation time: 1 hr 20 min 42 sec) 

ChampSim completed all CPUs

Region of Interest Statistics

CPU 0 cummulative IPC: 0.709653 instructions: 100000000 cycles: 140913966
LLC TOTAL     ACCESS:    3757387  HIT:    1224373  MISS:    2533014
LLC LOAD      ACCESS:     403851  HIT:     120501  MISS:     283350
LLC RFO       ACCESS:     463750  HIT:     173990  MISS:     289760
LLC PREFETCH  ACCESS:    2140568  HIT:     596360  MISS:    1544208
LLC WRITEBACK ACCESS:     749218  HIT:     333522  MISS:     415696
Insertion Distribution: 
	LOAD 48871 0 50271 187779 
	RFO 1223 0 23803 267166 
	PREF 0 70750 260198 1386308 
	WRITEBACK 0 0 0 438762 
Total Prefetch Downgrades: 64555
