
*** ChampSim Multicore Out-of-Order Simulator ***

Warmup Instructions: 10000000
Simulation Instructions: 100000000
Configuration: 2
Number of CPUs: 1
LLC sets: 2048
LLC ways: 16
Off-chip DRAM Channels: 1 Width: 64-bit Data Rate: 1600 MT/s

CPU 0 runs /datasets/cs240c-wi22-a00-public/data/Assignment2-gz/soplex_66B.trace.gz
CPU 0 L1D next line prefetcher
CPU 0 L2C IP-based stride prefetcher
Initialize SRRIP state
Heartbeat CPU 0 instructions: 1000003 cycles: 415045 heartbeat IPC: 2.40938 cumulative IPC: 2.40938 (Simulation time: 0 hr 0 min 41 sec) 
Heartbeat CPU 0 instructions: 2000003 cycles: 837411 heartbeat IPC: 2.36761 cumulative IPC: 2.38832 (Simulation time: 0 hr 1 min 24 sec) 
Heartbeat CPU 0 instructions: 3000003 cycles: 1242472 heartbeat IPC: 2.46876 cumulative IPC: 2.41454 (Simulation time: 0 hr 2 min 5 sec) 
Heartbeat CPU 0 instructions: 4000000 cycles: 1626584 heartbeat IPC: 2.6034 cumulative IPC: 2.45914 (Simulation time: 0 hr 2 min 40 sec) 
Heartbeat CPU 0 instructions: 5000000 cycles: 2040757 heartbeat IPC: 2.41445 cumulative IPC: 2.45007 (Simulation time: 0 hr 3 min 15 sec) 
Heartbeat CPU 0 instructions: 6000000 cycles: 2514718 heartbeat IPC: 2.10988 cumulative IPC: 2.38595 (Simulation time: 0 hr 3 min 53 sec) 
Heartbeat CPU 0 instructions: 7000002 cycles: 2886879 heartbeat IPC: 2.68701 cumulative IPC: 2.42476 (Simulation time: 0 hr 4 min 33 sec) 
Heartbeat CPU 0 instructions: 8000000 cycles: 3312472 heartbeat IPC: 2.34966 cumulative IPC: 2.41511 (Simulation time: 0 hr 5 min 16 sec) 
Heartbeat CPU 0 instructions: 9000001 cycles: 3751008 heartbeat IPC: 2.28032 cumulative IPC: 2.39936 (Simulation time: 0 hr 5 min 50 sec) 
Heartbeat CPU 0 instructions: 10000002 cycles: 4163107 heartbeat IPC: 2.4266 cumulative IPC: 2.40205 (Simulation time: 0 hr 6 min 30 sec) 

Warmup complete CPU 0 instructions: 10000002 cycles: 4163107 (Simulation time: 0 hr 6 min 30 sec) 

Heartbeat CPU 0 instructions: 11000001 cycles: 7190158 heartbeat IPC: 0.330354 cumulative IPC: 0.330354 (Simulation time: 0 hr 7 min 18 sec) 
Heartbeat CPU 0 instructions: 12000000 cycles: 8521765 heartbeat IPC: 0.750972 cumulative IPC: 0.458856 (Simulation time: 0 hr 7 min 52 sec) 
Heartbeat CPU 0 instructions: 13000001 cycles: 11064252 heartbeat IPC: 0.393316 cumulative IPC: 0.43471 (Simulation time: 0 hr 8 min 35 sec) 
Heartbeat CPU 0 instructions: 14000002 cycles: 13557676 heartbeat IPC: 0.401055 cumulative IPC: 0.425778 (Simulation time: 0 hr 9 min 23 sec) 
Heartbeat CPU 0 instructions: 15000002 cycles: 16027019 heartbeat IPC: 0.404966 cumulative IPC: 0.421446 (Simulation time: 0 hr 9 min 59 sec) 
Heartbeat CPU 0 instructions: 16000000 cycles: 18894345 heartbeat IPC: 0.348756 cumulative IPC: 0.407298 (Simulation time: 0 hr 10 min 51 sec) 
Heartbeat CPU 0 instructions: 17000001 cycles: 21094682 heartbeat IPC: 0.454476 cumulative IPC: 0.413429 (Simulation time: 0 hr 11 min 40 sec) 
Heartbeat CPU 0 instructions: 18000000 cycles: 23039772 heartbeat IPC: 0.514114 cumulative IPC: 0.423804 (Simulation time: 0 hr 12 min 29 sec) 
Heartbeat CPU 0 instructions: 19000002 cycles: 26386448 heartbeat IPC: 0.298805 cumulative IPC: 0.40498 (Simulation time: 0 hr 13 min 23 sec) 
Heartbeat CPU 0 instructions: 20000000 cycles: 27692605 heartbeat IPC: 0.765603 cumulative IPC: 0.424998 (Simulation time: 0 hr 13 min 54 sec) 
Heartbeat CPU 0 instructions: 21000000 cycles: 29882491 heartbeat IPC: 0.456645 cumulative IPC: 0.427693 (Simulation time: 0 hr 14 min 36 sec) 
Heartbeat CPU 0 instructions: 22000000 cycles: 32589760 heartbeat IPC: 0.369376 cumulative IPC: 0.422139 (Simulation time: 0 hr 15 min 24 sec) 
Heartbeat CPU 0 instructions: 23000000 cycles: 35021999 heartbeat IPC: 0.411144 cumulative IPC: 0.421272 (Simulation time: 0 hr 16 min 4 sec) 
Heartbeat CPU 0 instructions: 24000000 cycles: 37544596 heartbeat IPC: 0.396417 cumulative IPC: 0.419394 (Simulation time: 0 hr 16 min 43 sec) 
Heartbeat CPU 0 instructions: 25000003 cycles: 40030595 heartbeat IPC: 0.402254 cumulative IPC: 0.418206 (Simulation time: 0 hr 17 min 39 sec) 
Heartbeat CPU 0 instructions: 26000001 cycles: 42188023 heartbeat IPC: 0.463514 cumulative IPC: 0.420777 (Simulation time: 0 hr 18 min 23 sec) 
Heartbeat CPU 0 instructions: 27000002 cycles: 45574804 heartbeat IPC: 0.295266 cumulative IPC: 0.410512 (Simulation time: 0 hr 19 min 16 sec) 
Heartbeat CPU 0 instructions: 28000000 cycles: 46875287 heartbeat IPC: 0.768944 cumulative IPC: 0.421425 (Simulation time: 0 hr 19 min 48 sec) 
Heartbeat CPU 0 instructions: 29000002 cycles: 48691441 heartbeat IPC: 0.550615 cumulative IPC: 0.426695 (Simulation time: 0 hr 20 min 28 sec) 
Heartbeat CPU 0 instructions: 30000000 cycles: 51574376 heartbeat IPC: 0.346868 cumulative IPC: 0.421841 (Simulation time: 0 hr 21 min 16 sec) 
Heartbeat CPU 0 instructions: 31000001 cycles: 54083454 heartbeat IPC: 0.398553 cumulative IPC: 0.42067 (Simulation time: 0 hr 21 min 50 sec) 
Heartbeat CPU 0 instructions: 32000000 cycles: 56515700 heartbeat IPC: 0.411142 cumulative IPC: 0.420227 (Simulation time: 0 hr 22 min 26 sec) 
Heartbeat CPU 0 instructions: 33000001 cycles: 59927985 heartbeat IPC: 0.293059 cumulative IPC: 0.412446 (Simulation time: 0 hr 23 min 23 sec) 
Heartbeat CPU 0 instructions: 34000003 cycles: 61894934 heartbeat IPC: 0.508403 cumulative IPC: 0.415715 (Simulation time: 0 hr 24 min 5 sec) 
Heartbeat CPU 0 instructions: 35000003 cycles: 64854810 heartbeat IPC: 0.337852 cumulative IPC: 0.411918 (Simulation time: 0 hr 24 min 52 sec) 
Heartbeat CPU 0 instructions: 36000000 cycles: 66133092 heartbeat IPC: 0.782298 cumulative IPC: 0.419558 (Simulation time: 0 hr 25 min 23 sec) 
Heartbeat CPU 0 instructions: 37000000 cycles: 68697787 heartbeat IPC: 0.38991 cumulative IPC: 0.41838 (Simulation time: 0 hr 26 min 7 sec) 
Heartbeat CPU 0 instructions: 38000001 cycles: 71175759 heartbeat IPC: 0.403556 cumulative IPC: 0.417832 (Simulation time: 0 hr 26 min 49 sec) 
Heartbeat CPU 0 instructions: 39000003 cycles: 73645095 heartbeat IPC: 0.404968 cumulative IPC: 0.417374 (Simulation time: 0 hr 27 min 26 sec) 
Heartbeat CPU 0 instructions: 40000000 cycles: 76434829 heartbeat IPC: 0.358456 cumulative IPC: 0.4151 (Simulation time: 0 hr 28 min 11 sec) 
Heartbeat CPU 0 instructions: 41000001 cycles: 78599111 heartbeat IPC: 0.462047 cumulative IPC: 0.416465 (Simulation time: 0 hr 28 min 57 sec) 
Heartbeat CPU 0 instructions: 42000003 cycles: 80549011 heartbeat IPC: 0.512848 cumulative IPC: 0.418925 (Simulation time: 0 hr 29 min 41 sec) 
Heartbeat CPU 0 instructions: 43000000 cycles: 83877903 heartbeat IPC: 0.300399 cumulative IPC: 0.413976 (Simulation time: 0 hr 30 min 32 sec) 
Heartbeat CPU 0 instructions: 44000000 cycles: 85214812 heartbeat IPC: 0.747994 cumulative IPC: 0.419485 (Simulation time: 0 hr 31 min 3 sec) 
Heartbeat CPU 0 instructions: 45000003 cycles: 87401299 heartbeat IPC: 0.457356 cumulative IPC: 0.42048 (Simulation time: 0 hr 31 min 40 sec) 
Heartbeat CPU 0 instructions: 46000003 cycles: 90104632 heartbeat IPC: 0.369914 cumulative IPC: 0.418889 (Simulation time: 0 hr 32 min 24 sec) 
Heartbeat CPU 0 instructions: 47000001 cycles: 92538224 heartbeat IPC: 0.410914 cumulative IPC: 0.41867 (Simulation time: 0 hr 33 min 1 sec) 
Heartbeat CPU 0 instructions: 48000000 cycles: 95041637 heartbeat IPC: 0.399454 cumulative IPC: 0.418141 (Simulation time: 0 hr 33 min 39 sec) 
Heartbeat CPU 0 instructions: 49000000 cycles: 98527209 heartbeat IPC: 0.286897 cumulative IPC: 0.413293 (Simulation time: 0 hr 34 min 42 sec) 
Heartbeat CPU 0 instructions: 50000003 cycles: 104384180 heartbeat IPC: 0.170737 cumulative IPC: 0.399118 (Simulation time: 0 hr 35 min 48 sec) 
Heartbeat CPU 0 instructions: 51000002 cycles: 106812169 heartbeat IPC: 0.411863 cumulative IPC: 0.399419 (Simulation time: 0 hr 36 min 43 sec) 
Heartbeat CPU 0 instructions: 52000000 cycles: 110585607 heartbeat IPC: 0.26501 cumulative IPC: 0.394653 (Simulation time: 0 hr 37 min 37 sec) 
Heartbeat CPU 0 instructions: 53000003 cycles: 113285243 heartbeat IPC: 0.370421 cumulative IPC: 0.394054 (Simulation time: 0 hr 38 min 27 sec) 
Heartbeat CPU 0 instructions: 54000000 cycles: 115766131 heartbeat IPC: 0.40308 cumulative IPC: 0.394255 (Simulation time: 0 hr 39 min 19 sec) 
Heartbeat CPU 0 instructions: 55000002 cycles: 119318112 heartbeat IPC: 0.281534 cumulative IPC: 0.390778 (Simulation time: 0 hr 40 min 9 sec) 
Heartbeat CPU 0 instructions: 56000000 cycles: 122612161 heartbeat IPC: 0.303577 cumulative IPC: 0.388353 (Simulation time: 0 hr 41 min 0 sec) 
Heartbeat CPU 0 instructions: 57000003 cycles: 125122613 heartbeat IPC: 0.398336 cumulative IPC: 0.38856 (Simulation time: 0 hr 41 min 45 sec) 
Heartbeat CPU 0 instructions: 58000002 cycles: 127293464 heartbeat IPC: 0.460648 cumulative IPC: 0.389831 (Simulation time: 0 hr 42 min 33 sec) 
Heartbeat CPU 0 instructions: 59000002 cycles: 128869884 heartbeat IPC: 0.634349 cumulative IPC: 0.392922 (Simulation time: 0 hr 43 min 18 sec) 
Heartbeat CPU 0 instructions: 60000000 cycles: 130149776 heartbeat IPC: 0.781314 cumulative IPC: 0.396867 (Simulation time: 0 hr 43 min 55 sec) 
Heartbeat CPU 0 instructions: 61000002 cycles: 132973931 heartbeat IPC: 0.354089 cumulative IPC: 0.395929 (Simulation time: 0 hr 44 min 46 sec) 
Heartbeat CPU 0 instructions: 62000000 cycles: 135597867 heartbeat IPC: 0.381106 cumulative IPC: 0.395634 (Simulation time: 0 hr 45 min 39 sec) 
Heartbeat CPU 0 instructions: 63000002 cycles: 137533949 heartbeat IPC: 0.516508 cumulative IPC: 0.397388 (Simulation time: 0 hr 46 min 25 sec) 
Heartbeat CPU 0 instructions: 64000000 cycles: 139964438 heartbeat IPC: 0.411439 cumulative IPC: 0.39764 (Simulation time: 0 hr 47 min 9 sec) 
Heartbeat CPU 0 instructions: 65000000 cycles: 143427408 heartbeat IPC: 0.288769 cumulative IPC: 0.394933 (Simulation time: 0 hr 48 min 3 sec) 
Heartbeat CPU 0 instructions: 66000001 cycles: 144716169 heartbeat IPC: 0.77594 cumulative IPC: 0.398426 (Simulation time: 0 hr 48 min 32 sec) 
Heartbeat CPU 0 instructions: 67000000 cycles: 146020951 heartbeat IPC: 0.766411 cumulative IPC: 0.401811 (Simulation time: 0 hr 49 min 4 sec) 
Heartbeat CPU 0 instructions: 68000000 cycles: 149255007 heartbeat IPC: 0.309209 cumulative IPC: 0.399747 (Simulation time: 0 hr 49 min 52 sec) 
Heartbeat CPU 0 instructions: 69000000 cycles: 151834564 heartbeat IPC: 0.387663 cumulative IPC: 0.399536 (Simulation time: 0 hr 50 min 31 sec) 
Heartbeat CPU 0 instructions: 70000003 cycles: 154240601 heartbeat IPC: 0.415622 cumulative IPC: 0.399793 (Simulation time: 0 hr 51 min 8 sec) 
Heartbeat CPU 0 instructions: 71000000 cycles: 156778920 heartbeat IPC: 0.39396 cumulative IPC: 0.399696 (Simulation time: 0 hr 52 min 0 sec) 
Heartbeat CPU 0 instructions: 72000000 cycles: 159496355 heartbeat IPC: 0.367994 cumulative IPC: 0.399142 (Simulation time: 0 hr 52 min 46 sec) 
Heartbeat CPU 0 instructions: 73000001 cycles: 162283328 heartbeat IPC: 0.358813 cumulative IPC: 0.398431 (Simulation time: 0 hr 53 min 38 sec) 
Heartbeat CPU 0 instructions: 74000000 cycles: 164245255 heartbeat IPC: 0.509702 cumulative IPC: 0.399795 (Simulation time: 0 hr 54 min 15 sec) 
Heartbeat CPU 0 instructions: 75000002 cycles: 165572273 heartbeat IPC: 0.753571 cumulative IPC: 0.402703 (Simulation time: 0 hr 54 min 46 sec) 
Heartbeat CPU 0 instructions: 76000000 cycles: 168697166 heartbeat IPC: 0.32001 cumulative IPC: 0.401133 (Simulation time: 0 hr 55 min 33 sec) 
Heartbeat CPU 0 instructions: 77000000 cycles: 171119682 heartbeat IPC: 0.412794 cumulative IPC: 0.401302 (Simulation time: 0 hr 56 min 11 sec) 
Heartbeat CPU 0 instructions: 78000003 cycles: 173545104 heartbeat IPC: 0.412301 cumulative IPC: 0.401459 (Simulation time: 0 hr 56 min 47 sec) 
Heartbeat CPU 0 instructions: 79000001 cycles: 176730936 heartbeat IPC: 0.313889 cumulative IPC: 0.399843 (Simulation time: 0 hr 57 min 40 sec) 
Heartbeat CPU 0 instructions: 80000000 cycles: 179307759 heartbeat IPC: 0.388074 cumulative IPC: 0.39967 (Simulation time: 0 hr 58 min 25 sec) 
Heartbeat CPU 0 instructions: 81000003 cycles: 182282295 heartbeat IPC: 0.336188 cumulative IPC: 0.398609 (Simulation time: 0 hr 59 min 16 sec) 
Heartbeat CPU 0 instructions: 82000000 cycles: 184006062 heartbeat IPC: 0.580123 cumulative IPC: 0.400349 (Simulation time: 0 hr 59 min 49 sec) 
Heartbeat CPU 0 instructions: 83000001 cycles: 185327214 heartbeat IPC: 0.756916 cumulative IPC: 0.40295 (Simulation time: 1 hr 0 min 20 sec) 
Heartbeat CPU 0 instructions: 84000000 cycles: 188492897 heartbeat IPC: 0.315887 cumulative IPC: 0.401454 (Simulation time: 1 hr 1 min 6 sec) 
Heartbeat CPU 0 instructions: 85000000 cycles: 190885850 heartbeat IPC: 0.417894 cumulative IPC: 0.401665 (Simulation time: 1 hr 1 min 41 sec) 
Heartbeat CPU 0 instructions: 86000000 cycles: 193347778 heartbeat IPC: 0.406186 cumulative IPC: 0.401724 (Simulation time: 1 hr 2 min 16 sec) 
Heartbeat CPU 0 instructions: 87000003 cycles: 196305073 heartbeat IPC: 0.338148 cumulative IPC: 0.400745 (Simulation time: 1 hr 3 min 6 sec) 
Heartbeat CPU 0 instructions: 88000000 cycles: 198551538 heartbeat IPC: 0.445142 cumulative IPC: 0.401258 (Simulation time: 1 hr 3 min 49 sec) 
Heartbeat CPU 0 instructions: 89000001 cycles: 201888671 heartbeat IPC: 0.299659 cumulative IPC: 0.399544 (Simulation time: 1 hr 4 min 39 sec) 
Heartbeat CPU 0 instructions: 90000002 cycles: 203205142 heartbeat IPC: 0.759607 cumulative IPC: 0.401925 (Simulation time: 1 hr 5 min 8 sec) 
Heartbeat CPU 0 instructions: 91000000 cycles: 204605187 heartbeat IPC: 0.714261 cumulative IPC: 0.404107 (Simulation time: 1 hr 5 min 40 sec) 
Heartbeat CPU 0 instructions: 92000000 cycles: 207715006 heartbeat IPC: 0.321562 cumulative IPC: 0.402846 (Simulation time: 1 hr 6 min 27 sec) 
Heartbeat CPU 0 instructions: 93000000 cycles: 210286484 heartbeat IPC: 0.388881 cumulative IPC: 0.402671 (Simulation time: 1 hr 7 min 5 sec) 
Heartbeat CPU 0 instructions: 94000001 cycles: 212694937 heartbeat IPC: 0.415205 cumulative IPC: 0.402816 (Simulation time: 1 hr 7 min 39 sec) 
Heartbeat CPU 0 instructions: 95000003 cycles: 215868586 heartbeat IPC: 0.315095 cumulative IPC: 0.401501 (Simulation time: 1 hr 8 min 31 sec) 
Heartbeat CPU 0 instructions: 96000000 cycles: 217762087 heartbeat IPC: 0.528121 cumulative IPC: 0.402624 (Simulation time: 1 hr 9 min 8 sec) 
Heartbeat CPU 0 instructions: 97000003 cycles: 220905913 heartbeat IPC: 0.318085 cumulative IPC: 0.401397 (Simulation time: 1 hr 9 min 48 sec) 
Heartbeat CPU 0 instructions: 98000003 cycles: 222240740 heartbeat IPC: 0.749161 cumulative IPC: 0.403526 (Simulation time: 1 hr 10 min 12 sec) 
Heartbeat CPU 0 instructions: 99000000 cycles: 224576794 heartbeat IPC: 0.428071 cumulative IPC: 0.403786 (Simulation time: 1 hr 10 min 40 sec) 
Heartbeat CPU 0 instructions: 100000000 cycles: 227188204 heartbeat IPC: 0.382935 cumulative IPC: 0.403542 (Simulation time: 1 hr 11 min 12 sec) 
Heartbeat CPU 0 instructions: 101000001 cycles: 229595810 heartbeat IPC: 0.415351 cumulative IPC: 0.403668 (Simulation time: 1 hr 11 min 39 sec) 
Heartbeat CPU 0 instructions: 102000002 cycles: 232179527 heartbeat IPC: 0.38704 cumulative IPC: 0.40348 (Simulation time: 1 hr 12 min 6 sec) 
Heartbeat CPU 0 instructions: 103000002 cycles: 235287801 heartbeat IPC: 0.321722 cumulative IPC: 0.40238 (Simulation time: 1 hr 12 min 42 sec) 
Heartbeat CPU 0 instructions: 104000000 cycles: 237465342 heartbeat IPC: 0.459233 cumulative IPC: 0.402911 (Simulation time: 1 hr 13 min 15 sec) 
Heartbeat CPU 0 instructions: 105000000 cycles: 239857434 heartbeat IPC: 0.418044 cumulative IPC: 0.403064 (Simulation time: 1 hr 13 min 41 sec) 
Heartbeat CPU 0 instructions: 106000001 cycles: 241181245 heartbeat IPC: 0.755396 cumulative IPC: 0.405032 (Simulation time: 1 hr 14 min 2 sec) 
Heartbeat CPU 0 instructions: 107000001 cycles: 244146430 heartbeat IPC: 0.337247 cumulative IPC: 0.404195 (Simulation time: 1 hr 14 min 32 sec) 
Heartbeat CPU 0 instructions: 108000000 cycles: 246386424 heartbeat IPC: 0.446429 cumulative IPC: 0.404585 (Simulation time: 1 hr 14 min 55 sec) 
Heartbeat CPU 0 instructions: 109000003 cycles: 248816586 heartbeat IPC: 0.411496 cumulative IPC: 0.404654 (Simulation time: 1 hr 15 min 18 sec) 
Heartbeat CPU 0 instructions: 110000001 cycles: 251865382 heartbeat IPC: 0.327998 cumulative IPC: 0.40371 (Simulation time: 1 hr 15 min 51 sec) 
Finished CPU 0 instructions: 100000003 cycles: 247702276 cummulative IPC: 0.40371 (Simulation time: 1 hr 15 min 51 sec) 

ChampSim completed all CPUs

Region of Interest Statistics

CPU 0 cummulative IPC: 0.40371 instructions: 100000003 cycles: 247702276
LLC TOTAL     ACCESS:    6595883  HIT:    3280761  MISS:    3315122
LLC LOAD      ACCESS:    1694006  HIT:     765491  MISS:     928515
LLC RFO       ACCESS:     658486  HIT:     250671  MISS:     407815
LLC PREFETCH  ACCESS:    2682726  HIT:    1092581  MISS:    1590145
LLC WRITEBACK ACCESS:    1560665  HIT:    1172018  MISS:     388647
Insertion Distribution: 
	LOAD 229397 0 150186 624814 
	RFO 170572 0 114593 181733 
	PREF 0 50222 311826 1421847 
	WRITEBACK 0 0 0 416027 
Total Prefetch Downgrades: 76654
