
*** ChampSim Multicore Out-of-Order Simulator ***

Warmup Instructions: 10000000
Simulation Instructions: 100000000
Configuration: 2
Number of CPUs: 1
LLC sets: 2048
LLC ways: 16
Off-chip DRAM Channels: 1 Width: 64-bit Data Rate: 1600 MT/s

CPU 0 runs /datasets/cs240c-wi22-a00-public/data/Assignment2-gz/omnetpp_17B.trace.gz
CPU 0 L1D next line prefetcher
CPU 0 L2C IP-based stride prefetcher
Initialize SRRIP state
Heartbeat CPU 0 instructions: 1000000 cycles: 559549 heartbeat IPC: 1.78715 cumulative IPC: 1.78715 (Simulation time: 0 hr 0 min 38 sec) 
Heartbeat CPU 0 instructions: 2000002 cycles: 1133684 heartbeat IPC: 1.74175 cumulative IPC: 1.76416 (Simulation time: 0 hr 1 min 11 sec) 
Heartbeat CPU 0 instructions: 3000001 cycles: 1768984 heartbeat IPC: 1.57406 cumulative IPC: 1.69589 (Simulation time: 0 hr 1 min 43 sec) 
Heartbeat CPU 0 instructions: 4000000 cycles: 2333866 heartbeat IPC: 1.77028 cumulative IPC: 1.71389 (Simulation time: 0 hr 2 min 18 sec) 
Heartbeat CPU 0 instructions: 5000002 cycles: 2892812 heartbeat IPC: 1.78909 cumulative IPC: 1.72842 (Simulation time: 0 hr 2 min 53 sec) 
Heartbeat CPU 0 instructions: 6000000 cycles: 3471226 heartbeat IPC: 1.72886 cumulative IPC: 1.7285 (Simulation time: 0 hr 3 min 26 sec) 
Heartbeat CPU 0 instructions: 7000000 cycles: 4035589 heartbeat IPC: 1.77191 cumulative IPC: 1.73457 (Simulation time: 0 hr 4 min 2 sec) 
Heartbeat CPU 0 instructions: 8000000 cycles: 4697323 heartbeat IPC: 1.51118 cumulative IPC: 1.7031 (Simulation time: 0 hr 4 min 34 sec) 
Heartbeat CPU 0 instructions: 9000000 cycles: 5359128 heartbeat IPC: 1.51102 cumulative IPC: 1.67938 (Simulation time: 0 hr 5 min 8 sec) 
Heartbeat CPU 0 instructions: 10000001 cycles: 6020697 heartbeat IPC: 1.51156 cumulative IPC: 1.66094 (Simulation time: 0 hr 5 min 43 sec) 

Warmup complete CPU 0 instructions: 10000001 cycles: 6020697 (Simulation time: 0 hr 5 min 43 sec) 

Heartbeat CPU 0 instructions: 11000001 cycles: 7065493 heartbeat IPC: 0.957125 cumulative IPC: 0.957125 (Simulation time: 0 hr 6 min 21 sec) 
Heartbeat CPU 0 instructions: 12000000 cycles: 8110036 heartbeat IPC: 0.957355 cumulative IPC: 0.95724 (Simulation time: 0 hr 6 min 57 sec) 
Heartbeat CPU 0 instructions: 13000000 cycles: 9179948 heartbeat IPC: 0.934656 cumulative IPC: 0.949592 (Simulation time: 0 hr 7 min 36 sec) 
Heartbeat CPU 0 instructions: 14000001 cycles: 10224199 heartbeat IPC: 0.957625 cumulative IPC: 0.951587 (Simulation time: 0 hr 8 min 15 sec) 
Heartbeat CPU 0 instructions: 15000000 cycles: 11268407 heartbeat IPC: 0.957663 cumulative IPC: 0.952796 (Simulation time: 0 hr 8 min 52 sec) 
Heartbeat CPU 0 instructions: 16000000 cycles: 12312574 heartbeat IPC: 0.957701 cumulative IPC: 0.95361 (Simulation time: 0 hr 9 min 26 sec) 
Heartbeat CPU 0 instructions: 17000000 cycles: 13358111 heartbeat IPC: 0.956446 cumulative IPC: 0.954014 (Simulation time: 0 hr 10 min 4 sec) 
Heartbeat CPU 0 instructions: 18000001 cycles: 14399455 heartbeat IPC: 0.960298 cumulative IPC: 0.954795 (Simulation time: 0 hr 10 min 39 sec) 
Heartbeat CPU 0 instructions: 19000002 cycles: 15434265 heartbeat IPC: 0.966362 cumulative IPC: 0.956067 (Simulation time: 0 hr 11 min 13 sec) 
Heartbeat CPU 0 instructions: 20000000 cycles: 18721767 heartbeat IPC: 0.304182 cumulative IPC: 0.787335 (Simulation time: 0 hr 12 min 1 sec) 
Heartbeat CPU 0 instructions: 21000000 cycles: 21160262 heartbeat IPC: 0.410089 cumulative IPC: 0.726573 (Simulation time: 0 hr 12 min 43 sec) 
Heartbeat CPU 0 instructions: 22000002 cycles: 22985523 heartbeat IPC: 0.547868 cumulative IPC: 0.707346 (Simulation time: 0 hr 13 min 24 sec) 
Heartbeat CPU 0 instructions: 23000000 cycles: 26192436 heartbeat IPC: 0.311826 cumulative IPC: 0.644466 (Simulation time: 0 hr 14 min 8 sec) 
Heartbeat CPU 0 instructions: 24000000 cycles: 29387285 heartbeat IPC: 0.313004 cumulative IPC: 0.599146 (Simulation time: 0 hr 14 min 54 sec) 
Heartbeat CPU 0 instructions: 25000001 cycles: 31943793 heartbeat IPC: 0.391159 cumulative IPC: 0.578635 (Simulation time: 0 hr 15 min 33 sec) 
Heartbeat CPU 0 instructions: 26000001 cycles: 33599864 heartbeat IPC: 0.603839 cumulative IPC: 0.580148 (Simulation time: 0 hr 16 min 11 sec) 
Heartbeat CPU 0 instructions: 27000000 cycles: 36797138 heartbeat IPC: 0.312766 cumulative IPC: 0.552371 (Simulation time: 0 hr 16 min 54 sec) 
Heartbeat CPU 0 instructions: 28000000 cycles: 39990253 heartbeat IPC: 0.313174 cumulative IPC: 0.529886 (Simulation time: 0 hr 17 min 38 sec) 
Heartbeat CPU 0 instructions: 29000000 cycles: 42721106 heartbeat IPC: 0.366186 cumulative IPC: 0.517705 (Simulation time: 0 hr 18 min 21 sec) 
Heartbeat CPU 0 instructions: 30000000 cycles: 44215619 heartbeat IPC: 0.669114 cumulative IPC: 0.52363 (Simulation time: 0 hr 18 min 56 sec) 
Heartbeat CPU 0 instructions: 31000000 cycles: 47397311 heartbeat IPC: 0.314298 cumulative IPC: 0.507533 (Simulation time: 0 hr 19 min 38 sec) 
Heartbeat CPU 0 instructions: 32000000 cycles: 50586022 heartbeat IPC: 0.313606 cumulative IPC: 0.493657 (Simulation time: 0 hr 20 min 21 sec) 
Heartbeat CPU 0 instructions: 33000001 cycles: 53496365 heartbeat IPC: 0.343602 cumulative IPC: 0.484459 (Simulation time: 0 hr 21 min 0 sec) 
Heartbeat CPU 0 instructions: 34000000 cycles: 54794967 heartbeat IPC: 0.770058 cumulative IPC: 0.492063 (Simulation time: 0 hr 21 min 34 sec) 
Heartbeat CPU 0 instructions: 35000003 cycles: 57976699 heartbeat IPC: 0.314295 cumulative IPC: 0.481176 (Simulation time: 0 hr 22 min 17 sec) 
Heartbeat CPU 0 instructions: 36000000 cycles: 61204049 heartbeat IPC: 0.309851 cumulative IPC: 0.471157 (Simulation time: 0 hr 23 min 0 sec) 
Heartbeat CPU 0 instructions: 37000001 cycles: 64021271 heartbeat IPC: 0.35496 cumulative IPC: 0.465513 (Simulation time: 0 hr 23 min 40 sec) 
Heartbeat CPU 0 instructions: 38000000 cycles: 65434936 heartbeat IPC: 0.70738 cumulative IPC: 0.471267 (Simulation time: 0 hr 24 min 14 sec) 
Heartbeat CPU 0 instructions: 39000000 cycles: 68615702 heartbeat IPC: 0.31439 cumulative IPC: 0.463296 (Simulation time: 0 hr 24 min 58 sec) 
Heartbeat CPU 0 instructions: 40000000 cycles: 71806564 heartbeat IPC: 0.313395 cumulative IPC: 0.456025 (Simulation time: 0 hr 25 min 41 sec) 
Heartbeat CPU 0 instructions: 41000002 cycles: 74511681 heartbeat IPC: 0.369671 cumulative IPC: 0.452614 (Simulation time: 0 hr 26 min 21 sec) 
Heartbeat CPU 0 instructions: 42000000 cycles: 76022733 heartbeat IPC: 0.661789 cumulative IPC: 0.45713 (Simulation time: 0 hr 26 min 56 sec) 
Heartbeat CPU 0 instructions: 43000003 cycles: 81265082 heartbeat IPC: 0.190755 cumulative IPC: 0.438571 (Simulation time: 0 hr 27 min 46 sec) 
Heartbeat CPU 0 instructions: 44000000 cycles: 82311631 heartbeat IPC: 0.955519 cumulative IPC: 0.445662 (Simulation time: 0 hr 28 min 21 sec) 
Heartbeat CPU 0 instructions: 45000003 cycles: 83354411 heartbeat IPC: 0.958978 cumulative IPC: 0.452584 (Simulation time: 0 hr 28 min 53 sec) 
Heartbeat CPU 0 instructions: 46000001 cycles: 84397478 heartbeat IPC: 0.958709 cumulative IPC: 0.45932 (Simulation time: 0 hr 29 min 29 sec) 
Heartbeat CPU 0 instructions: 47000001 cycles: 85442013 heartbeat IPC: 0.957364 cumulative IPC: 0.46587 (Simulation time: 0 hr 29 min 59 sec) 
Heartbeat CPU 0 instructions: 48000000 cycles: 86485191 heartbeat IPC: 0.958608 cumulative IPC: 0.472258 (Simulation time: 0 hr 30 min 31 sec) 
Heartbeat CPU 0 instructions: 49000000 cycles: 87526997 heartbeat IPC: 0.959872 cumulative IPC: 0.478491 (Simulation time: 0 hr 31 min 3 sec) 
Heartbeat CPU 0 instructions: 50000000 cycles: 88569785 heartbeat IPC: 0.958968 cumulative IPC: 0.48456 (Simulation time: 0 hr 31 min 35 sec) 
Heartbeat CPU 0 instructions: 51000002 cycles: 89612673 heartbeat IPC: 0.958878 cumulative IPC: 0.490478 (Simulation time: 0 hr 32 min 7 sec) 
Heartbeat CPU 0 instructions: 52000000 cycles: 90656912 heartbeat IPC: 0.957633 cumulative IPC: 0.496241 (Simulation time: 0 hr 32 min 40 sec) 
Heartbeat CPU 0 instructions: 53000001 cycles: 91699404 heartbeat IPC: 0.959241 cumulative IPC: 0.501875 (Simulation time: 0 hr 33 min 13 sec) 
Heartbeat CPU 0 instructions: 54000002 cycles: 92767509 heartbeat IPC: 0.936238 cumulative IPC: 0.507223 (Simulation time: 0 hr 33 min 46 sec) 
Heartbeat CPU 0 instructions: 55000003 cycles: 93807784 heartbeat IPC: 0.961285 cumulative IPC: 0.512604 (Simulation time: 0 hr 34 min 18 sec) 
Heartbeat CPU 0 instructions: 56000000 cycles: 95997933 heartbeat IPC: 0.456589 cumulative IPC: 0.51124 (Simulation time: 0 hr 34 min 59 sec) 
Heartbeat CPU 0 instructions: 57000003 cycles: 98011159 heartbeat IPC: 0.496717 cumulative IPC: 0.510923 (Simulation time: 0 hr 35 min 36 sec) 
Heartbeat CPU 0 instructions: 58000000 cycles: 101214366 heartbeat IPC: 0.312186 cumulative IPC: 0.504235 (Simulation time: 0 hr 36 min 15 sec) 
Heartbeat CPU 0 instructions: 59000003 cycles: 104418231 heartbeat IPC: 0.312124 cumulative IPC: 0.49798 (Simulation time: 0 hr 36 min 55 sec) 
Heartbeat CPU 0 instructions: 60000000 cycles: 106770056 heartbeat IPC: 0.4252 cumulative IPC: 0.496281 (Simulation time: 0 hr 37 min 32 sec) 
Heartbeat CPU 0 instructions: 61000001 cycles: 108637626 heartbeat IPC: 0.535456 cumulative IPC: 0.496994 (Simulation time: 0 hr 38 min 9 sec) 
Heartbeat CPU 0 instructions: 62000001 cycles: 111822292 heartbeat IPC: 0.314005 cumulative IPC: 0.491486 (Simulation time: 0 hr 38 min 48 sec) 
Heartbeat CPU 0 instructions: 63000000 cycles: 115014083 heartbeat IPC: 0.313303 cumulative IPC: 0.486268 (Simulation time: 0 hr 39 min 28 sec) 
Heartbeat CPU 0 instructions: 64000000 cycles: 117526412 heartbeat IPC: 0.398037 cumulative IPC: 0.48428 (Simulation time: 0 hr 40 min 5 sec) 
Heartbeat CPU 0 instructions: 65000000 cycles: 119232811 heartbeat IPC: 0.586029 cumulative IPC: 0.485814 (Simulation time: 0 hr 40 min 41 sec) 
Heartbeat CPU 0 instructions: 66000000 cycles: 122421566 heartbeat IPC: 0.313602 cumulative IPC: 0.481096 (Simulation time: 0 hr 41 min 21 sec) 
Heartbeat CPU 0 instructions: 67000001 cycles: 125617809 heartbeat IPC: 0.312868 cumulative IPC: 0.4766 (Simulation time: 0 hr 42 min 4 sec) 
Heartbeat CPU 0 instructions: 68000000 cycles: 128309409 heartbeat IPC: 0.371526 cumulative IPC: 0.474287 (Simulation time: 0 hr 42 min 44 sec) 
Heartbeat CPU 0 instructions: 69000001 cycles: 129840578 heartbeat IPC: 0.653096 cumulative IPC: 0.476499 (Simulation time: 0 hr 43 min 19 sec) 
Heartbeat CPU 0 instructions: 70000001 cycles: 133023170 heartbeat IPC: 0.314209 cumulative IPC: 0.472432 (Simulation time: 0 hr 44 min 1 sec) 
Heartbeat CPU 0 instructions: 71000001 cycles: 136211218 heartbeat IPC: 0.313672 cumulative IPC: 0.468544 (Simulation time: 0 hr 44 min 41 sec) 
Heartbeat CPU 0 instructions: 72000000 cycles: 138917559 heartbeat IPC: 0.369502 cumulative IPC: 0.466527 (Simulation time: 0 hr 45 min 20 sec) 
Heartbeat CPU 0 instructions: 73000000 cycles: 140454506 heartbeat IPC: 0.650641 cumulative IPC: 0.468632 (Simulation time: 0 hr 45 min 53 sec) 
Heartbeat CPU 0 instructions: 74000003 cycles: 143649305 heartbeat IPC: 0.31301 cumulative IPC: 0.46502 (Simulation time: 0 hr 46 min 32 sec) 
Heartbeat CPU 0 instructions: 75000001 cycles: 146852060 heartbeat IPC: 0.312231 cumulative IPC: 0.461545 (Simulation time: 0 hr 47 min 14 sec) 
Heartbeat CPU 0 instructions: 76000000 cycles: 149446975 heartbeat IPC: 0.385369 cumulative IPC: 0.460167 (Simulation time: 0 hr 47 min 51 sec) 
Heartbeat CPU 0 instructions: 77000001 cycles: 151079955 heartbeat IPC: 0.612378 cumulative IPC: 0.46188 (Simulation time: 0 hr 48 min 25 sec) 
Heartbeat CPU 0 instructions: 78000000 cycles: 154272959 heartbeat IPC: 0.313184 cumulative IPC: 0.458678 (Simulation time: 0 hr 49 min 6 sec) 
Heartbeat CPU 0 instructions: 79000000 cycles: 157625335 heartbeat IPC: 0.298296 cumulative IPC: 0.455131 (Simulation time: 0 hr 49 min 50 sec) 
Heartbeat CPU 0 instructions: 80000000 cycles: 159439877 heartbeat IPC: 0.551103 cumulative IPC: 0.456266 (Simulation time: 0 hr 50 min 25 sec) 
Heartbeat CPU 0 instructions: 81000001 cycles: 161845035 heartbeat IPC: 0.415774 cumulative IPC: 0.455641 (Simulation time: 0 hr 51 min 2 sec) 
Heartbeat CPU 0 instructions: 82000000 cycles: 165041431 heartbeat IPC: 0.312852 cumulative IPC: 0.452771 (Simulation time: 0 hr 51 min 43 sec) 
Heartbeat CPU 0 instructions: 83000000 cycles: 168231707 heartbeat IPC: 0.313453 cumulative IPC: 0.450031 (Simulation time: 0 hr 52 min 24 sec) 
Heartbeat CPU 0 instructions: 84000000 cycles: 170012950 heartbeat IPC: 0.561406 cumulative IPC: 0.451241 (Simulation time: 0 hr 52 min 59 sec) 
Heartbeat CPU 0 instructions: 85000003 cycles: 172439527 heartbeat IPC: 0.412104 cumulative IPC: 0.45067 (Simulation time: 0 hr 53 min 38 sec) 
Heartbeat CPU 0 instructions: 86000001 cycles: 175637762 heartbeat IPC: 0.312672 cumulative IPC: 0.448068 (Simulation time: 0 hr 54 min 18 sec) 
Heartbeat CPU 0 instructions: 87000000 cycles: 178832489 heartbeat IPC: 0.313015 cumulative IPC: 0.445571 (Simulation time: 0 hr 54 min 59 sec) 
Heartbeat CPU 0 instructions: 88000000 cycles: 180475178 heartbeat IPC: 0.608758 cumulative IPC: 0.447108 (Simulation time: 0 hr 55 min 34 sec) 
Heartbeat CPU 0 instructions: 89000000 cycles: 185103768 heartbeat IPC: 0.216049 cumulative IPC: 0.441136 (Simulation time: 0 hr 56 min 22 sec) 
Heartbeat CPU 0 instructions: 90000002 cycles: 186147212 heartbeat IPC: 0.958367 cumulative IPC: 0.444132 (Simulation time: 0 hr 56 min 55 sec) 
Heartbeat CPU 0 instructions: 91000001 cycles: 187191420 heartbeat IPC: 0.957663 cumulative IPC: 0.447092 (Simulation time: 0 hr 57 min 26 sec) 
Heartbeat CPU 0 instructions: 92000000 cycles: 188234991 heartbeat IPC: 0.958247 cumulative IPC: 0.45002 (Simulation time: 0 hr 57 min 58 sec) 
Heartbeat CPU 0 instructions: 93000002 cycles: 189279256 heartbeat IPC: 0.957613 cumulative IPC: 0.452912 (Simulation time: 0 hr 58 min 30 sec) 
Heartbeat CPU 0 instructions: 94000001 cycles: 190323084 heartbeat IPC: 0.958011 cumulative IPC: 0.455773 (Simulation time: 0 hr 59 min 4 sec) 
Heartbeat CPU 0 instructions: 95000000 cycles: 191367348 heartbeat IPC: 0.957611 cumulative IPC: 0.4586 (Simulation time: 0 hr 59 min 34 sec) 
Heartbeat CPU 0 instructions: 96000000 cycles: 192412143 heartbeat IPC: 0.957126 cumulative IPC: 0.461395 (Simulation time: 1 hr 0 min 8 sec) 
Heartbeat CPU 0 instructions: 97000002 cycles: 193482995 heartbeat IPC: 0.933838 cumulative IPC: 0.464093 (Simulation time: 1 hr 0 min 38 sec) 
Heartbeat CPU 0 instructions: 98000000 cycles: 194528623 heartbeat IPC: 0.956361 cumulative IPC: 0.466824 (Simulation time: 1 hr 1 min 11 sec) 
Heartbeat CPU 0 instructions: 99000003 cycles: 195566940 heartbeat IPC: 0.9631 cumulative IPC: 0.469542 (Simulation time: 1 hr 1 min 44 sec) 
Heartbeat CPU 0 instructions: 100000000 cycles: 196603394 heartbeat IPC: 0.964825 cumulative IPC: 0.472236 (Simulation time: 1 hr 2 min 17 sec) 
Heartbeat CPU 0 instructions: 101000001 cycles: 197644299 heartbeat IPC: 0.960703 cumulative IPC: 0.474889 (Simulation time: 1 hr 2 min 48 sec) 
Heartbeat CPU 0 instructions: 102000001 cycles: 200780194 heartbeat IPC: 0.318888 cumulative IPC: 0.472377 (Simulation time: 1 hr 3 min 28 sec) 
Heartbeat CPU 0 instructions: 103000001 cycles: 202162381 heartbeat IPC: 0.723491 cumulative IPC: 0.474147 (Simulation time: 1 hr 4 min 4 sec) 
Heartbeat CPU 0 instructions: 104000000 cycles: 205048768 heartbeat IPC: 0.346454 cumulative IPC: 0.472295 (Simulation time: 1 hr 4 min 46 sec) 
Heartbeat CPU 0 instructions: 105000000 cycles: 208236954 heartbeat IPC: 0.313658 cumulative IPC: 0.469794 (Simulation time: 1 hr 5 min 27 sec) 
Heartbeat CPU 0 instructions: 106000000 cycles: 211369800 heartbeat IPC: 0.319199 cumulative IPC: 0.467497 (Simulation time: 1 hr 6 min 8 sec) 
Heartbeat CPU 0 instructions: 107000001 cycles: 212903924 heartbeat IPC: 0.651838 cumulative IPC: 0.468864 (Simulation time: 1 hr 6 min 43 sec) 
Heartbeat CPU 0 instructions: 108000000 cycles: 215642679 heartbeat IPC: 0.365129 cumulative IPC: 0.467508 (Simulation time: 1 hr 7 min 22 sec) 
Heartbeat CPU 0 instructions: 109000000 cycles: 218835408 heartbeat IPC: 0.313212 cumulative IPC: 0.465193 (Simulation time: 1 hr 8 min 1 sec) 
Heartbeat CPU 0 instructions: 110000000 cycles: 222013748 heartbeat IPC: 0.31463 cumulative IPC: 0.462978 (Simulation time: 1 hr 8 min 40 sec) 
Finished CPU 0 instructions: 100000003 cycles: 215993056 cummulative IPC: 0.462978 (Simulation time: 1 hr 8 min 40 sec) 

ChampSim completed all CPUs

Region of Interest Statistics

CPU 0 cummulative IPC: 0.462978 instructions: 100000003 cycles: 215993056
LLC TOTAL     ACCESS:    3282805  HIT:    1546181  MISS:    1736624
LLC LOAD      ACCESS:    1562220  HIT:    1363769  MISS:     198451
LLC RFO       ACCESS:       5220  HIT:       2686  MISS:       2534
LLC PREFETCH  ACCESS:    1698517  HIT:     171572  MISS:    1526945
LLC WRITEBACK ACCESS:      16848  HIT:       8154  MISS:       8694
Insertion Distribution: 
	LOAD 9046 0 43791 226486 
	RFO 0 0 900 1964 
	PREF 0 1 35390 1647421 
	WRITEBACK 0 0 0 8896 
Total Prefetch Downgrades: 790
