
*** ChampSim Multicore Out-of-Order Simulator ***

Warmup Instructions: 10000000
Simulation Instructions: 100000000
Configuration: 2
Number of CPUs: 1
LLC sets: 2048
LLC ways: 16
Off-chip DRAM Channels: 1 Width: 64-bit Data Rate: 1600 MT/s

CPU 0 runs /datasets/cs240c-wi22-a00-public/data/Assignment2-gz/leslie3d_1116B.trace.gz
CPU 0 L1D next line prefetcher
CPU 0 L2C IP-based stride prefetcher
Initialize SRRIP state
Heartbeat CPU 0 instructions: 1000003 cycles: 535311 heartbeat IPC: 1.86808 cumulative IPC: 1.86808 (Simulation time: 0 hr 0 min 47 sec) 
Heartbeat CPU 0 instructions: 2000003 cycles: 1071193 heartbeat IPC: 1.86608 cumulative IPC: 1.86708 (Simulation time: 0 hr 1 min 36 sec) 
Heartbeat CPU 0 instructions: 3000003 cycles: 1607887 heartbeat IPC: 1.86326 cumulative IPC: 1.8658 (Simulation time: 0 hr 2 min 25 sec) 
Heartbeat CPU 0 instructions: 4000000 cycles: 2143303 heartbeat IPC: 1.8677 cumulative IPC: 1.86628 (Simulation time: 0 hr 3 min 13 sec) 
Heartbeat CPU 0 instructions: 5000001 cycles: 2678445 heartbeat IPC: 1.86866 cumulative IPC: 1.86676 (Simulation time: 0 hr 4 min 3 sec) 
Heartbeat CPU 0 instructions: 6000001 cycles: 3213986 heartbeat IPC: 1.86727 cumulative IPC: 1.86684 (Simulation time: 0 hr 4 min 47 sec) 
Heartbeat CPU 0 instructions: 7000001 cycles: 3749988 heartbeat IPC: 1.86566 cumulative IPC: 1.86667 (Simulation time: 0 hr 5 min 35 sec) 
Heartbeat CPU 0 instructions: 8000000 cycles: 4286050 heartbeat IPC: 1.86545 cumulative IPC: 1.86652 (Simulation time: 0 hr 6 min 20 sec) 
Heartbeat CPU 0 instructions: 9000003 cycles: 4821235 heartbeat IPC: 1.86852 cumulative IPC: 1.86674 (Simulation time: 0 hr 7 min 4 sec) 
Heartbeat CPU 0 instructions: 10000002 cycles: 5356399 heartbeat IPC: 1.86858 cumulative IPC: 1.86693 (Simulation time: 0 hr 7 min 45 sec) 

Warmup complete CPU 0 instructions: 10000002 cycles: 5356399 (Simulation time: 0 hr 7 min 45 sec) 

Heartbeat CPU 0 instructions: 11000001 cycles: 6419665 heartbeat IPC: 0.940497 cumulative IPC: 0.940497 (Simulation time: 0 hr 8 min 31 sec) 
Heartbeat CPU 0 instructions: 12000000 cycles: 7466516 heartbeat IPC: 0.955245 cumulative IPC: 0.947814 (Simulation time: 0 hr 9 min 18 sec) 
Heartbeat CPU 0 instructions: 13000002 cycles: 8510733 heartbeat IPC: 0.957657 cumulative IPC: 0.951072 (Simulation time: 0 hr 10 min 6 sec) 
Heartbeat CPU 0 instructions: 14000003 cycles: 9564662 heartbeat IPC: 0.948831 cumulative IPC: 0.950511 (Simulation time: 0 hr 10 min 54 sec) 
Heartbeat CPU 0 instructions: 15000000 cycles: 10642267 heartbeat IPC: 0.927981 cumulative IPC: 0.945918 (Simulation time: 0 hr 11 min 39 sec) 
Heartbeat CPU 0 instructions: 16000000 cycles: 11715760 heartbeat IPC: 0.931538 cumulative IPC: 0.943491 (Simulation time: 0 hr 12 min 28 sec) 
Heartbeat CPU 0 instructions: 17000003 cycles: 12745722 heartbeat IPC: 0.970913 cumulative IPC: 0.947313 (Simulation time: 0 hr 13 min 16 sec) 
Heartbeat CPU 0 instructions: 18000001 cycles: 13801324 heartbeat IPC: 0.947325 cumulative IPC: 0.947314 (Simulation time: 0 hr 14 min 5 sec) 
Heartbeat CPU 0 instructions: 19000001 cycles: 14864105 heartbeat IPC: 0.940928 cumulative IPC: 0.9466 (Simulation time: 0 hr 14 min 53 sec) 
Heartbeat CPU 0 instructions: 20000000 cycles: 15913724 heartbeat IPC: 0.952726 cumulative IPC: 0.947209 (Simulation time: 0 hr 15 min 41 sec) 
Heartbeat CPU 0 instructions: 21000000 cycles: 16973000 heartbeat IPC: 0.944041 cumulative IPC: 0.946921 (Simulation time: 0 hr 16 min 32 sec) 
Heartbeat CPU 0 instructions: 22000000 cycles: 18006273 heartbeat IPC: 0.967798 cumulative IPC: 0.948626 (Simulation time: 0 hr 17 min 17 sec) 
Heartbeat CPU 0 instructions: 23000003 cycles: 19056977 heartbeat IPC: 0.951746 cumulative IPC: 0.948865 (Simulation time: 0 hr 18 min 10 sec) 
Heartbeat CPU 0 instructions: 24000000 cycles: 20080890 heartbeat IPC: 0.976643 cumulative IPC: 0.950797 (Simulation time: 0 hr 18 min 57 sec) 
Heartbeat CPU 0 instructions: 25000002 cycles: 21111599 heartbeat IPC: 0.970208 cumulative IPC: 0.952067 (Simulation time: 0 hr 19 min 42 sec) 
Heartbeat CPU 0 instructions: 26000002 cycles: 22167606 heartbeat IPC: 0.946963 cumulative IPC: 0.951746 (Simulation time: 0 hr 20 min 27 sec) 
Heartbeat CPU 0 instructions: 27000001 cycles: 23212661 heartbeat IPC: 0.956886 cumulative IPC: 0.952047 (Simulation time: 0 hr 21 min 10 sec) 
Heartbeat CPU 0 instructions: 28000000 cycles: 24247965 heartbeat IPC: 0.965899 cumulative IPC: 0.952806 (Simulation time: 0 hr 21 min 50 sec) 
Heartbeat CPU 0 instructions: 29000003 cycles: 25299996 heartbeat IPC: 0.950545 cumulative IPC: 0.952687 (Simulation time: 0 hr 22 min 39 sec) 
Heartbeat CPU 0 instructions: 30000000 cycles: 26357395 heartbeat IPC: 0.945714 cumulative IPC: 0.952336 (Simulation time: 0 hr 23 min 22 sec) 
Heartbeat CPU 0 instructions: 31000001 cycles: 27405010 heartbeat IPC: 0.95455 cumulative IPC: 0.952441 (Simulation time: 0 hr 24 min 4 sec) 
Heartbeat CPU 0 instructions: 32000000 cycles: 28442857 heartbeat IPC: 0.963532 cumulative IPC: 0.95294 (Simulation time: 0 hr 24 min 48 sec) 
Heartbeat CPU 0 instructions: 33000002 cycles: 29503157 heartbeat IPC: 0.943131 cumulative IPC: 0.952509 (Simulation time: 0 hr 25 min 34 sec) 
Heartbeat CPU 0 instructions: 34000002 cycles: 30572733 heartbeat IPC: 0.93495 cumulative IPC: 0.951764 (Simulation time: 0 hr 26 min 21 sec) 
Heartbeat CPU 0 instructions: 35000000 cycles: 31624170 heartbeat IPC: 0.951077 cumulative IPC: 0.951737 (Simulation time: 0 hr 27 min 7 sec) 
Heartbeat CPU 0 instructions: 36000000 cycles: 32672652 heartbeat IPC: 0.95376 cumulative IPC: 0.951814 (Simulation time: 0 hr 27 min 51 sec) 
Heartbeat CPU 0 instructions: 37000003 cycles: 33921628 heartbeat IPC: 0.800658 cumulative IPC: 0.945205 (Simulation time: 0 hr 28 min 38 sec) 
Heartbeat CPU 0 instructions: 38000003 cycles: 35401992 heartbeat IPC: 0.67551 cumulative IPC: 0.931917 (Simulation time: 0 hr 29 min 27 sec) 
Heartbeat CPU 0 instructions: 39000003 cycles: 36939452 heartbeat IPC: 0.650423 cumulative IPC: 0.918214 (Simulation time: 0 hr 30 min 15 sec) 
Heartbeat CPU 0 instructions: 40000000 cycles: 38483820 heartbeat IPC: 0.647512 cumulative IPC: 0.905594 (Simulation time: 0 hr 31 min 4 sec) 
Heartbeat CPU 0 instructions: 41000002 cycles: 40017038 heartbeat IPC: 0.652224 cumulative IPC: 0.894386 (Simulation time: 0 hr 31 min 51 sec) 
Heartbeat CPU 0 instructions: 42000001 cycles: 41551873 heartbeat IPC: 0.651535 cumulative IPC: 0.884088 (Simulation time: 0 hr 32 min 38 sec) 
Heartbeat CPU 0 instructions: 43000003 cycles: 43081197 heartbeat IPC: 0.653885 cumulative IPC: 0.874756 (Simulation time: 0 hr 33 min 27 sec) 
Heartbeat CPU 0 instructions: 44000000 cycles: 44615178 heartbeat IPC: 0.651897 cumulative IPC: 0.866048 (Simulation time: 0 hr 34 min 14 sec) 
Heartbeat CPU 0 instructions: 45000002 cycles: 46151196 heartbeat IPC: 0.651035 cumulative IPC: 0.857953 (Simulation time: 0 hr 35 min 0 sec) 
Heartbeat CPU 0 instructions: 46000002 cycles: 47692844 heartbeat IPC: 0.648656 cumulative IPC: 0.850331 (Simulation time: 0 hr 35 min 46 sec) 
Heartbeat CPU 0 instructions: 47000001 cycles: 49227343 heartbeat IPC: 0.651678 cumulative IPC: 0.843383 (Simulation time: 0 hr 36 min 31 sec) 
Heartbeat CPU 0 instructions: 48000000 cycles: 50745499 heartbeat IPC: 0.658693 cumulative IPC: 0.837205 (Simulation time: 0 hr 37 min 18 sec) 
Heartbeat CPU 0 instructions: 49000002 cycles: 52852649 heartbeat IPC: 0.474576 cumulative IPC: 0.821117 (Simulation time: 0 hr 38 min 8 sec) 
Heartbeat CPU 0 instructions: 50000002 cycles: 55223215 heartbeat IPC: 0.42184 cumulative IPC: 0.802137 (Simulation time: 0 hr 39 min 2 sec) 
Heartbeat CPU 0 instructions: 51000003 cycles: 57545811 heartbeat IPC: 0.430553 cumulative IPC: 0.7856 (Simulation time: 0 hr 39 min 53 sec) 
Heartbeat CPU 0 instructions: 52000000 cycles: 59885129 heartbeat IPC: 0.427474 cumulative IPC: 0.770236 (Simulation time: 0 hr 40 min 46 sec) 
Heartbeat CPU 0 instructions: 53000003 cycles: 62328498 heartbeat IPC: 0.409272 cumulative IPC: 0.754755 (Simulation time: 0 hr 41 min 42 sec) 
Heartbeat CPU 0 instructions: 54000000 cycles: 64638539 heartbeat IPC: 0.432891 cumulative IPC: 0.742213 (Simulation time: 0 hr 42 min 42 sec) 
Heartbeat CPU 0 instructions: 55000002 cycles: 66922516 heartbeat IPC: 0.437834 cumulative IPC: 0.730922 (Simulation time: 0 hr 43 min 41 sec) 
Heartbeat CPU 0 instructions: 56000000 cycles: 69293787 heartbeat IPC: 0.421714 cumulative IPC: 0.719454 (Simulation time: 0 hr 44 min 43 sec) 
Heartbeat CPU 0 instructions: 57000002 cycles: 71631475 heartbeat IPC: 0.427774 cumulative IPC: 0.709166 (Simulation time: 0 hr 45 min 46 sec) 
Heartbeat CPU 0 instructions: 58000001 cycles: 73883049 heartbeat IPC: 0.444133 cumulative IPC: 0.700457 (Simulation time: 0 hr 46 min 46 sec) 
Heartbeat CPU 0 instructions: 59000000 cycles: 75170477 heartbeat IPC: 0.776742 cumulative IPC: 0.701864 (Simulation time: 0 hr 47 min 35 sec) 
Heartbeat CPU 0 instructions: 60000000 cycles: 76463412 heartbeat IPC: 0.773434 cumulative IPC: 0.703165 (Simulation time: 0 hr 48 min 26 sec) 
Heartbeat CPU 0 instructions: 61000003 cycles: 77846069 heartbeat IPC: 0.723247 cumulative IPC: 0.703549 (Simulation time: 0 hr 49 min 15 sec) 
Heartbeat CPU 0 instructions: 62000002 cycles: 79180497 heartbeat IPC: 0.749384 cumulative IPC: 0.704377 (Simulation time: 0 hr 50 min 2 sec) 
Heartbeat CPU 0 instructions: 63000003 cycles: 80394758 heartbeat IPC: 0.823547 cumulative IPC: 0.706305 (Simulation time: 0 hr 50 min 52 sec) 
Heartbeat CPU 0 instructions: 64000000 cycles: 81623878 heartbeat IPC: 0.813588 cumulative IPC: 0.708034 (Simulation time: 0 hr 51 min 43 sec) 
Heartbeat CPU 0 instructions: 65000001 cycles: 83171227 heartbeat IPC: 0.646267 cumulative IPC: 0.706806 (Simulation time: 0 hr 52 min 34 sec) 
Heartbeat CPU 0 instructions: 66000000 cycles: 84386289 heartbeat IPC: 0.823002 cumulative IPC: 0.708593 (Simulation time: 0 hr 53 min 30 sec) 
Heartbeat CPU 0 instructions: 67000001 cycles: 85619037 heartbeat IPC: 0.811197 cumulative IPC: 0.710169 (Simulation time: 0 hr 54 min 22 sec) 
Heartbeat CPU 0 instructions: 68000000 cycles: 87062246 heartbeat IPC: 0.6929 cumulative IPC: 0.709863 (Simulation time: 0 hr 55 min 8 sec) 
Heartbeat CPU 0 instructions: 69000002 cycles: 88354499 heartbeat IPC: 0.773844 cumulative IPC: 0.71086 (Simulation time: 0 hr 55 min 59 sec) 
Heartbeat CPU 0 instructions: 70000000 cycles: 89553058 heartbeat IPC: 0.834334 cumulative IPC: 0.712617 (Simulation time: 0 hr 56 min 50 sec) 
Heartbeat CPU 0 instructions: 71000002 cycles: 90772180 heartbeat IPC: 0.820264 cumulative IPC: 0.714154 (Simulation time: 0 hr 57 min 40 sec) 
Heartbeat CPU 0 instructions: 72000000 cycles: 92218386 heartbeat IPC: 0.691463 cumulative IPC: 0.713776 (Simulation time: 0 hr 58 min 28 sec) 
Heartbeat CPU 0 instructions: 73000000 cycles: 93398834 heartbeat IPC: 0.847136 cumulative IPC: 0.715564 (Simulation time: 0 hr 59 min 16 sec) 
Heartbeat CPU 0 instructions: 74000000 cycles: 94583270 heartbeat IPC: 0.844284 cumulative IPC: 0.717273 (Simulation time: 1 hr 0 min 6 sec) 
Heartbeat CPU 0 instructions: 75000002 cycles: 96018248 heartbeat IPC: 0.696876 cumulative IPC: 0.71695 (Simulation time: 1 hr 0 min 52 sec) 
Heartbeat CPU 0 instructions: 76000000 cycles: 97199268 heartbeat IPC: 0.846724 cumulative IPC: 0.718619 (Simulation time: 1 hr 1 min 39 sec) 
Heartbeat CPU 0 instructions: 77000001 cycles: 98363548 heartbeat IPC: 0.858901 cumulative IPC: 0.720375 (Simulation time: 1 hr 2 min 31 sec) 
Heartbeat CPU 0 instructions: 78000000 cycles: 99635359 heartbeat IPC: 0.78628 cumulative IPC: 0.721264 (Simulation time: 1 hr 3 min 13 sec) 
Heartbeat CPU 0 instructions: 79000001 cycles: 100946333 heartbeat IPC: 0.762792 cumulative IPC: 0.721833 (Simulation time: 1 hr 3 min 57 sec) 
Heartbeat CPU 0 instructions: 80000000 cycles: 102118769 heartbeat IPC: 0.852924 cumulative IPC: 0.723422 (Simulation time: 1 hr 4 min 46 sec) 
Heartbeat CPU 0 instructions: 81000003 cycles: 103297482 heartbeat IPC: 0.848386 cumulative IPC: 0.724926 (Simulation time: 1 hr 5 min 36 sec) 
Heartbeat CPU 0 instructions: 82000000 cycles: 104710989 heartbeat IPC: 0.707458 cumulative IPC: 0.724677 (Simulation time: 1 hr 6 min 21 sec) 
Heartbeat CPU 0 instructions: 83000001 cycles: 105892801 heartbeat IPC: 0.846159 cumulative IPC: 0.726105 (Simulation time: 1 hr 7 min 10 sec) 
Heartbeat CPU 0 instructions: 84000000 cycles: 107085878 heartbeat IPC: 0.838168 cumulative IPC: 0.727419 (Simulation time: 1 hr 7 min 52 sec) 
Heartbeat CPU 0 instructions: 85000003 cycles: 108468774 heartbeat IPC: 0.723122 cumulative IPC: 0.727362 (Simulation time: 1 hr 8 min 34 sec) 
Heartbeat CPU 0 instructions: 86000002 cycles: 109679226 heartbeat IPC: 0.826137 cumulative IPC: 0.728508 (Simulation time: 1 hr 9 min 14 sec) 
Heartbeat CPU 0 instructions: 87000001 cycles: 110861276 heartbeat IPC: 0.845987 cumulative IPC: 0.729824 (Simulation time: 1 hr 9 min 56 sec) 
Heartbeat CPU 0 instructions: 88000000 cycles: 112067483 heartbeat IPC: 0.829044 cumulative IPC: 0.730946 (Simulation time: 1 hr 10 min 32 sec) 
Heartbeat CPU 0 instructions: 89000001 cycles: 113471896 heartbeat IPC: 0.712042 cumulative IPC: 0.7307 (Simulation time: 1 hr 11 min 6 sec) 
Heartbeat CPU 0 instructions: 90000003 cycles: 114657033 heartbeat IPC: 0.843786 cumulative IPC: 0.731926 (Simulation time: 1 hr 11 min 41 sec) 
Heartbeat CPU 0 instructions: 91000000 cycles: 115847372 heartbeat IPC: 0.840094 cumulative IPC: 0.733092 (Simulation time: 1 hr 12 min 12 sec) 
Heartbeat CPU 0 instructions: 92000000 cycles: 117264792 heartbeat IPC: 0.705507 cumulative IPC: 0.732742 (Simulation time: 1 hr 12 min 43 sec) 
Heartbeat CPU 0 instructions: 93000002 cycles: 118452151 heartbeat IPC: 0.842207 cumulative IPC: 0.733891 (Simulation time: 1 hr 13 min 17 sec) 
Heartbeat CPU 0 instructions: 94000000 cycles: 119640356 heartbeat IPC: 0.841604 cumulative IPC: 0.735011 (Simulation time: 1 hr 13 min 50 sec) 
Heartbeat CPU 0 instructions: 95000003 cycles: 120953432 heartbeat IPC: 0.761573 cumulative IPC: 0.735313 (Simulation time: 1 hr 14 min 23 sec) 
Heartbeat CPU 0 instructions: 96000000 cycles: 122274196 heartbeat IPC: 0.757135 cumulative IPC: 0.73556 (Simulation time: 1 hr 14 min 53 sec) 
Heartbeat CPU 0 instructions: 97000000 cycles: 123446492 heartbeat IPC: 0.853027 cumulative IPC: 0.736726 (Simulation time: 1 hr 15 min 25 sec) 
Heartbeat CPU 0 instructions: 98000000 cycles: 124643960 heartbeat IPC: 0.835095 cumulative IPC: 0.737713 (Simulation time: 1 hr 15 min 57 sec) 
Heartbeat CPU 0 instructions: 99000003 cycles: 126059174 heartbeat IPC: 0.706609 cumulative IPC: 0.737348 (Simulation time: 1 hr 16 min 21 sec) 
Heartbeat CPU 0 instructions: 100000000 cycles: 127257881 heartbeat IPC: 0.83423 cumulative IPC: 0.738301 (Simulation time: 1 hr 16 min 48 sec) 
Heartbeat CPU 0 instructions: 101000001 cycles: 128453714 heartbeat IPC: 0.836238 cumulative IPC: 0.739253 (Simulation time: 1 hr 17 min 16 sec) 
Heartbeat CPU 0 instructions: 102000003 cycles: 129862976 heartbeat IPC: 0.709593 cumulative IPC: 0.738917 (Simulation time: 1 hr 17 min 41 sec) 
Heartbeat CPU 0 instructions: 103000002 cycles: 131066754 heartbeat IPC: 0.830717 cumulative IPC: 0.739796 (Simulation time: 1 hr 18 min 7 sec) 
Heartbeat CPU 0 instructions: 104000000 cycles: 132271359 heartbeat IPC: 0.830146 cumulative IPC: 0.740653 (Simulation time: 1 hr 18 min 31 sec) 
Heartbeat CPU 0 instructions: 105000000 cycles: 133492294 heartbeat IPC: 0.819044 cumulative IPC: 0.7414 (Simulation time: 1 hr 18 min 52 sec) 
Heartbeat CPU 0 instructions: 106000003 cycles: 135232893 heartbeat IPC: 0.574517 cumulative IPC: 0.739164 (Simulation time: 1 hr 19 min 12 sec) 
Heartbeat CPU 0 instructions: 107000002 cycles: 136861207 heartbeat IPC: 0.614132 cumulative IPC: 0.737616 (Simulation time: 1 hr 19 min 32 sec) 
Heartbeat CPU 0 instructions: 108000000 cycles: 138691719 heartbeat IPC: 0.546294 cumulative IPC: 0.734989 (Simulation time: 1 hr 19 min 50 sec) 
Heartbeat CPU 0 instructions: 109000003 cycles: 140446159 heartbeat IPC: 0.569984 cumulative IPC: 0.732846 (Simulation time: 1 hr 20 min 8 sec) 
Heartbeat CPU 0 instructions: 110000003 cycles: 142267511 heartbeat IPC: 0.549043 cumulative IPC: 0.730401 (Simulation time: 1 hr 20 min 25 sec) 
Finished CPU 0 instructions: 100000001 cycles: 136911112 cummulative IPC: 0.730401 (Simulation time: 1 hr 20 min 25 sec) 

ChampSim completed all CPUs

Region of Interest Statistics

CPU 0 cummulative IPC: 0.730401 instructions: 100000001 cycles: 136911112
LLC TOTAL     ACCESS:    3582873  HIT:     774511  MISS:    2808362
LLC LOAD      ACCESS:     297572  HIT:      67160  MISS:     230412
LLC RFO       ACCESS:     622483  HIT:     117119  MISS:     505364
LLC PREFETCH  ACCESS:    1899435  HIT:     340683  MISS:    1558752
LLC WRITEBACK ACCESS:     763383  HIT:     249549  MISS:     513834
Insertion Distribution: 
	LOAD 16008 0 49036 168031 
	RFO 1 0 70425 461331 
	PREF 0 38471 229789 1402668 
	WRITEBACK 0 0 0 532300 
Total Prefetch Downgrades: 35927
