
*** ChampSim Multicore Out-of-Order Simulator ***

Warmup Instructions: 10000000
Simulation Instructions: 100000000
Configuration: 2
Number of CPUs: 1
LLC sets: 2048
LLC ways: 16
Off-chip DRAM Channels: 1 Width: 64-bit Data Rate: 1600 MT/s

CPU 0 runs /datasets/cs240c-wi22-a00-public/data/Assignment2-gz/omnetpp_4B.trace.gz
CPU 0 L1D next line prefetcher
CPU 0 L2C IP-based stride prefetcher
Initialize SRRIP state
Heartbeat CPU 0 instructions: 1000001 cycles: 566984 heartbeat IPC: 1.76372 cumulative IPC: 1.76372 (Simulation time: 0 hr 0 min 38 sec) 
Heartbeat CPU 0 instructions: 2000001 cycles: 1135704 heartbeat IPC: 1.75833 cumulative IPC: 1.76102 (Simulation time: 0 hr 1 min 17 sec) 
Heartbeat CPU 0 instructions: 3000001 cycles: 1722891 heartbeat IPC: 1.70303 cumulative IPC: 1.74126 (Simulation time: 0 hr 1 min 56 sec) 
Heartbeat CPU 0 instructions: 4000000 cycles: 2292197 heartbeat IPC: 1.75652 cumulative IPC: 1.74505 (Simulation time: 0 hr 2 min 30 sec) 
Heartbeat CPU 0 instructions: 5000000 cycles: 2866338 heartbeat IPC: 1.74173 cumulative IPC: 1.74439 (Simulation time: 0 hr 3 min 6 sec) 
Heartbeat CPU 0 instructions: 6000000 cycles: 3442511 heartbeat IPC: 1.73559 cumulative IPC: 1.74291 (Simulation time: 0 hr 3 min 47 sec) 
Heartbeat CPU 0 instructions: 7000000 cycles: 4011821 heartbeat IPC: 1.75651 cumulative IPC: 1.74484 (Simulation time: 0 hr 4 min 27 sec) 
Heartbeat CPU 0 instructions: 8000000 cycles: 4565317 heartbeat IPC: 1.8067 cumulative IPC: 1.75234 (Simulation time: 0 hr 5 min 8 sec) 
Heartbeat CPU 0 instructions: 9000001 cycles: 5147428 heartbeat IPC: 1.71789 cumulative IPC: 1.74845 (Simulation time: 0 hr 5 min 50 sec) 
Heartbeat CPU 0 instructions: 10000000 cycles: 5701418 heartbeat IPC: 1.80508 cumulative IPC: 1.75395 (Simulation time: 0 hr 6 min 33 sec) 

Warmup complete CPU 0 instructions: 10000003 cycles: 5701419 (Simulation time: 0 hr 6 min 33 sec) 

Heartbeat CPU 0 instructions: 11000000 cycles: 8893076 heartbeat IPC: 0.313317 cumulative IPC: 0.313316 (Simulation time: 0 hr 7 min 20 sec) 
Heartbeat CPU 0 instructions: 12000000 cycles: 10048487 heartbeat IPC: 0.865493 cumulative IPC: 0.46008 (Simulation time: 0 hr 7 min 57 sec) 
Heartbeat CPU 0 instructions: 13000003 cycles: 11193437 heartbeat IPC: 0.873403 cumulative IPC: 0.546247 (Simulation time: 0 hr 8 min 34 sec) 
Heartbeat CPU 0 instructions: 14000000 cycles: 12313705 heartbeat IPC: 0.892641 cumulative IPC: 0.604934 (Simulation time: 0 hr 9 min 7 sec) 
Heartbeat CPU 0 instructions: 15000000 cycles: 13452907 heartbeat IPC: 0.877807 cumulative IPC: 0.645037 (Simulation time: 0 hr 9 min 41 sec) 
Heartbeat CPU 0 instructions: 16000000 cycles: 16307940 heartbeat IPC: 0.350259 cumulative IPC: 0.565689 (Simulation time: 0 hr 10 min 23 sec) 
Heartbeat CPU 0 instructions: 17000003 cycles: 19166171 heartbeat IPC: 0.349868 cumulative IPC: 0.519876 (Simulation time: 0 hr 11 min 9 sec) 
Heartbeat CPU 0 instructions: 18000002 cycles: 21973368 heartbeat IPC: 0.356227 cumulative IPC: 0.491644 (Simulation time: 0 hr 11 min 52 sec) 
Heartbeat CPU 0 instructions: 19000002 cycles: 24797483 heartbeat IPC: 0.354093 cumulative IPC: 0.471301 (Simulation time: 0 hr 12 min 39 sec) 
Heartbeat CPU 0 instructions: 20000000 cycles: 28158998 heartbeat IPC: 0.297484 cumulative IPC: 0.445284 (Simulation time: 0 hr 13 min 26 sec) 
Heartbeat CPU 0 instructions: 21000000 cycles: 31508033 heartbeat IPC: 0.298593 cumulative IPC: 0.426247 (Simulation time: 0 hr 14 min 12 sec) 
Heartbeat CPU 0 instructions: 22000001 cycles: 34727796 heartbeat IPC: 0.310582 cumulative IPC: 0.413417 (Simulation time: 0 hr 14 min 59 sec) 
Heartbeat CPU 0 instructions: 23000000 cycles: 37601773 heartbeat IPC: 0.34795 cumulative IPC: 0.407519 (Simulation time: 0 hr 15 min 44 sec) 
Heartbeat CPU 0 instructions: 24000000 cycles: 40414726 heartbeat IPC: 0.355498 cumulative IPC: 0.403303 (Simulation time: 0 hr 16 min 29 sec) 
Heartbeat CPU 0 instructions: 25000000 cycles: 43213491 heartbeat IPC: 0.3573 cumulative IPC: 0.399871 (Simulation time: 0 hr 17 min 19 sec) 
Heartbeat CPU 0 instructions: 26000002 cycles: 46007542 heartbeat IPC: 0.357904 cumulative IPC: 0.396962 (Simulation time: 0 hr 18 min 5 sec) 
Heartbeat CPU 0 instructions: 27000001 cycles: 48839514 heartbeat IPC: 0.35311 cumulative IPC: 0.394083 (Simulation time: 0 hr 18 min 51 sec) 
Heartbeat CPU 0 instructions: 28000000 cycles: 51603463 heartbeat IPC: 0.361801 cumulative IPC: 0.392139 (Simulation time: 0 hr 19 min 39 sec) 
Heartbeat CPU 0 instructions: 29000001 cycles: 54451932 heartbeat IPC: 0.351066 cumulative IPC: 0.389739 (Simulation time: 0 hr 20 min 26 sec) 
Heartbeat CPU 0 instructions: 30000000 cycles: 57265907 heartbeat IPC: 0.355369 cumulative IPC: 0.387864 (Simulation time: 0 hr 21 min 17 sec) 
Heartbeat CPU 0 instructions: 31000002 cycles: 60059000 heartbeat IPC: 0.358027 cumulative IPC: 0.386331 (Simulation time: 0 hr 21 min 59 sec) 
Heartbeat CPU 0 instructions: 32000000 cycles: 62888939 heartbeat IPC: 0.353364 cumulative IPC: 0.384699 (Simulation time: 0 hr 22 min 45 sec) 
Heartbeat CPU 0 instructions: 33000000 cycles: 66065615 heartbeat IPC: 0.314794 cumulative IPC: 0.381021 (Simulation time: 0 hr 23 min 35 sec) 
Heartbeat CPU 0 instructions: 34000001 cycles: 69375915 heartbeat IPC: 0.302088 cumulative IPC: 0.376917 (Simulation time: 0 hr 24 min 22 sec) 
Heartbeat CPU 0 instructions: 35000001 cycles: 72410757 heartbeat IPC: 0.329506 cumulative IPC: 0.37476 (Simulation time: 0 hr 25 min 8 sec) 
Heartbeat CPU 0 instructions: 36000000 cycles: 75707490 heartbeat IPC: 0.30333 cumulative IPC: 0.371396 (Simulation time: 0 hr 25 min 56 sec) 
Heartbeat CPU 0 instructions: 37000001 cycles: 78521273 heartbeat IPC: 0.355394 cumulative IPC: 0.370778 (Simulation time: 0 hr 26 min 37 sec) 
Heartbeat CPU 0 instructions: 38000001 cycles: 81725861 heartbeat IPC: 0.312053 cumulative IPC: 0.368303 (Simulation time: 0 hr 27 min 22 sec) 
Heartbeat CPU 0 instructions: 39000001 cycles: 84243706 heartbeat IPC: 0.397165 cumulative IPC: 0.369228 (Simulation time: 0 hr 27 min 59 sec) 
Heartbeat CPU 0 instructions: 40000000 cycles: 85366109 heartbeat IPC: 0.890945 cumulative IPC: 0.376578 (Simulation time: 0 hr 28 min 32 sec) 
Heartbeat CPU 0 instructions: 41000001 cycles: 86492382 heartbeat IPC: 0.887885 cumulative IPC: 0.383706 (Simulation time: 0 hr 29 min 4 sec) 
Heartbeat CPU 0 instructions: 42000001 cycles: 87626519 heartbeat IPC: 0.881728 cumulative IPC: 0.390601 (Simulation time: 0 hr 29 min 35 sec) 
Heartbeat CPU 0 instructions: 43000002 cycles: 88845259 heartbeat IPC: 0.82052 cumulative IPC: 0.396903 (Simulation time: 0 hr 30 min 9 sec) 
Heartbeat CPU 0 instructions: 44000000 cycles: 91775718 heartbeat IPC: 0.341243 cumulative IPC: 0.395008 (Simulation time: 0 hr 30 min 50 sec) 
Heartbeat CPU 0 instructions: 45000000 cycles: 94677111 heartbeat IPC: 0.344662 cumulative IPC: 0.393366 (Simulation time: 0 hr 31 min 28 sec) 
Heartbeat CPU 0 instructions: 46000000 cycles: 98045137 heartbeat IPC: 0.29691 cumulative IPC: 0.389848 (Simulation time: 0 hr 32 min 9 sec) 
Heartbeat CPU 0 instructions: 47000000 cycles: 101405297 heartbeat IPC: 0.297605 cumulative IPC: 0.386609 (Simulation time: 0 hr 32 min 49 sec) 
Heartbeat CPU 0 instructions: 48000000 cycles: 104569328 heartbeat IPC: 0.316053 cumulative IPC: 0.384351 (Simulation time: 0 hr 33 min 30 sec) 
Heartbeat CPU 0 instructions: 49000000 cycles: 107480981 heartbeat IPC: 0.343448 cumulative IPC: 0.383181 (Simulation time: 0 hr 34 min 12 sec) 
Heartbeat CPU 0 instructions: 50000001 cycles: 110288935 heartbeat IPC: 0.356132 cumulative IPC: 0.382455 (Simulation time: 0 hr 34 min 52 sec) 
Heartbeat CPU 0 instructions: 51000003 cycles: 113106570 heartbeat IPC: 0.354908 cumulative IPC: 0.381732 (Simulation time: 0 hr 35 min 34 sec) 
Heartbeat CPU 0 instructions: 52000000 cycles: 115901310 heartbeat IPC: 0.357814 cumulative IPC: 0.381126 (Simulation time: 0 hr 36 min 13 sec) 
Heartbeat CPU 0 instructions: 53000003 cycles: 118712325 heartbeat IPC: 0.355744 cumulative IPC: 0.380494 (Simulation time: 0 hr 36 min 53 sec) 
Heartbeat CPU 0 instructions: 54000001 cycles: 121494863 heartbeat IPC: 0.359383 cumulative IPC: 0.379987 (Simulation time: 0 hr 37 min 31 sec) 
Heartbeat CPU 0 instructions: 55000001 cycles: 124441353 heartbeat IPC: 0.339387 cumulative IPC: 0.378979 (Simulation time: 0 hr 38 min 13 sec) 
Heartbeat CPU 0 instructions: 56000000 cycles: 127255939 heartbeat IPC: 0.355292 cumulative IPC: 0.378431 (Simulation time: 0 hr 38 min 52 sec) 
Heartbeat CPU 0 instructions: 57000003 cycles: 130044783 heartbeat IPC: 0.358573 cumulative IPC: 0.377986 (Simulation time: 0 hr 39 min 32 sec) 
Heartbeat CPU 0 instructions: 58000001 cycles: 133030368 heartbeat IPC: 0.334942 cumulative IPC: 0.376976 (Simulation time: 0 hr 40 min 14 sec) 
Heartbeat CPU 0 instructions: 59000001 cycles: 136336324 heartbeat IPC: 0.302484 cumulative IPC: 0.375091 (Simulation time: 0 hr 40 min 54 sec) 
Heartbeat CPU 0 instructions: 60000000 cycles: 139325344 heartbeat IPC: 0.334557 cumulative IPC: 0.374184 (Simulation time: 0 hr 41 min 33 sec) 
Heartbeat CPU 0 instructions: 61000001 cycles: 142375492 heartbeat IPC: 0.327853 cumulative IPC: 0.37315 (Simulation time: 0 hr 42 min 16 sec) 
Heartbeat CPU 0 instructions: 62000000 cycles: 145721303 heartbeat IPC: 0.298881 cumulative IPC: 0.371376 (Simulation time: 0 hr 42 min 58 sec) 
Heartbeat CPU 0 instructions: 63000001 cycles: 148549658 heartbeat IPC: 0.353563 cumulative IPC: 0.371023 (Simulation time: 0 hr 43 min 37 sec) 
Heartbeat CPU 0 instructions: 64000000 cycles: 151373608 heartbeat IPC: 0.354114 cumulative IPC: 0.370695 (Simulation time: 0 hr 44 min 17 sec) 
Heartbeat CPU 0 instructions: 65000001 cycles: 154183244 heartbeat IPC: 0.355918 cumulative IPC: 0.370416 (Simulation time: 0 hr 44 min 54 sec) 
Heartbeat CPU 0 instructions: 66000002 cycles: 158331434 heartbeat IPC: 0.241069 cumulative IPC: 0.3669 (Simulation time: 0 hr 45 min 41 sec) 
Heartbeat CPU 0 instructions: 67000001 cycles: 159988889 heartbeat IPC: 0.603334 cumulative IPC: 0.36944 (Simulation time: 0 hr 46 min 14 sec) 
Heartbeat CPU 0 instructions: 68000000 cycles: 161114292 heartbeat IPC: 0.88857 cumulative IPC: 0.373199 (Simulation time: 0 hr 46 min 46 sec) 
Heartbeat CPU 0 instructions: 69000003 cycles: 162256315 heartbeat IPC: 0.875642 cumulative IPC: 0.376865 (Simulation time: 0 hr 47 min 18 sec) 
Heartbeat CPU 0 instructions: 70000000 cycles: 163376377 heartbeat IPC: 0.892805 cumulative IPC: 0.38053 (Simulation time: 0 hr 47 min 49 sec) 
Heartbeat CPU 0 instructions: 71000001 cycles: 164551883 heartbeat IPC: 0.850698 cumulative IPC: 0.384009 (Simulation time: 0 hr 48 min 20 sec) 
Heartbeat CPU 0 instructions: 72000000 cycles: 167917748 heartbeat IPC: 0.2971 cumulative IPC: 0.382206 (Simulation time: 0 hr 49 min 2 sec) 
Heartbeat CPU 0 instructions: 73000000 cycles: 171333393 heartbeat IPC: 0.29277 cumulative IPC: 0.380361 (Simulation time: 0 hr 49 min 42 sec) 
Heartbeat CPU 0 instructions: 74000001 cycles: 174673749 heartbeat IPC: 0.29937 cumulative IPC: 0.37876 (Simulation time: 0 hr 50 min 24 sec) 
Heartbeat CPU 0 instructions: 75000001 cycles: 177595281 heartbeat IPC: 0.342286 cumulative IPC: 0.37814 (Simulation time: 0 hr 51 min 5 sec) 
Heartbeat CPU 0 instructions: 76000000 cycles: 180391382 heartbeat IPC: 0.357641 cumulative IPC: 0.377812 (Simulation time: 0 hr 51 min 44 sec) 
Heartbeat CPU 0 instructions: 77000000 cycles: 183202403 heartbeat IPC: 0.355743 cumulative IPC: 0.377463 (Simulation time: 0 hr 52 min 21 sec) 
Heartbeat CPU 0 instructions: 78000001 cycles: 186007666 heartbeat IPC: 0.356473 cumulative IPC: 0.377136 (Simulation time: 0 hr 53 min 0 sec) 
Heartbeat CPU 0 instructions: 79000001 cycles: 188801357 heartbeat IPC: 0.357949 cumulative IPC: 0.376843 (Simulation time: 0 hr 53 min 39 sec) 
Heartbeat CPU 0 instructions: 80000000 cycles: 191569691 heartbeat IPC: 0.361228 cumulative IPC: 0.376611 (Simulation time: 0 hr 54 min 22 sec) 
Heartbeat CPU 0 instructions: 81000002 cycles: 194425321 heartbeat IPC: 0.350186 cumulative IPC: 0.376211 (Simulation time: 0 hr 55 min 7 sec) 
Heartbeat CPU 0 instructions: 82000001 cycles: 197265532 heartbeat IPC: 0.352086 cumulative IPC: 0.375853 (Simulation time: 0 hr 55 min 50 sec) 
Heartbeat CPU 0 instructions: 83000002 cycles: 200118896 heartbeat IPC: 0.350464 cumulative IPC: 0.375481 (Simulation time: 0 hr 56 min 32 sec) 
Heartbeat CPU 0 instructions: 84000000 cycles: 202984693 heartbeat IPC: 0.348942 cumulative IPC: 0.375095 (Simulation time: 0 hr 57 min 13 sec) 
Heartbeat CPU 0 instructions: 85000002 cycles: 206309546 heartbeat IPC: 0.300766 cumulative IPC: 0.373863 (Simulation time: 0 hr 57 min 58 sec) 
Heartbeat CPU 0 instructions: 86000002 cycles: 209601856 heartbeat IPC: 0.303738 cumulative IPC: 0.372731 (Simulation time: 0 hr 58 min 44 sec) 
Heartbeat CPU 0 instructions: 87000000 cycles: 212636699 heartbeat IPC: 0.329506 cumulative IPC: 0.372097 (Simulation time: 0 hr 59 min 31 sec) 
Heartbeat CPU 0 instructions: 88000000 cycles: 215673229 heartbeat IPC: 0.329323 cumulative IPC: 0.371478 (Simulation time: 1 hr 0 min 17 sec) 
Heartbeat CPU 0 instructions: 89000002 cycles: 218789661 heartbeat IPC: 0.32088 cumulative IPC: 0.370738 (Simulation time: 1 hr 1 min 10 sec) 
Heartbeat CPU 0 instructions: 90000001 cycles: 221586536 heartbeat IPC: 0.357542 cumulative IPC: 0.370567 (Simulation time: 1 hr 1 min 58 sec) 
Heartbeat CPU 0 instructions: 91000001 cycles: 224418784 heartbeat IPC: 0.353076 cumulative IPC: 0.370341 (Simulation time: 1 hr 2 min 47 sec) 
Heartbeat CPU 0 instructions: 92000000 cycles: 227314625 heartbeat IPC: 0.345322 cumulative IPC: 0.370014 (Simulation time: 1 hr 3 min 38 sec) 
Heartbeat CPU 0 instructions: 93000000 cycles: 230172421 heartbeat IPC: 0.34992 cumulative IPC: 0.369758 (Simulation time: 1 hr 4 min 27 sec) 
Heartbeat CPU 0 instructions: 94000000 cycles: 234723402 heartbeat IPC: 0.219733 cumulative IPC: 0.366777 (Simulation time: 1 hr 5 min 30 sec) 
Heartbeat CPU 0 instructions: 95000000 cycles: 235910236 heartbeat IPC: 0.842578 cumulative IPC: 0.36923 (Simulation time: 1 hr 6 min 10 sec) 
Heartbeat CPU 0 instructions: 96000000 cycles: 237053240 heartbeat IPC: 0.874888 cumulative IPC: 0.371728 (Simulation time: 1 hr 6 min 53 sec) 
Heartbeat CPU 0 instructions: 97000002 cycles: 238171920 heartbeat IPC: 0.893912 cumulative IPC: 0.374241 (Simulation time: 1 hr 7 min 31 sec) 
Heartbeat CPU 0 instructions: 98000001 cycles: 239313861 heartbeat IPC: 0.875701 cumulative IPC: 0.376692 (Simulation time: 1 hr 8 min 11 sec) 
Heartbeat CPU 0 instructions: 99000002 cycles: 241189666 heartbeat IPC: 0.533105 cumulative IPC: 0.377938 (Simulation time: 1 hr 8 min 54 sec) 
Heartbeat CPU 0 instructions: 100000000 cycles: 244557813 heartbeat IPC: 0.296899 cumulative IPC: 0.376795 (Simulation time: 1 hr 9 min 43 sec) 
Heartbeat CPU 0 instructions: 101000002 cycles: 247657554 heartbeat IPC: 0.322608 cumulative IPC: 0.376101 (Simulation time: 1 hr 10 min 27 sec) 
Heartbeat CPU 0 instructions: 102000001 cycles: 250674684 heartbeat IPC: 0.33144 cumulative IPC: 0.375551 (Simulation time: 1 hr 11 min 9 sec) 
Heartbeat CPU 0 instructions: 103000000 cycles: 253494240 heartbeat IPC: 0.354665 cumulative IPC: 0.375314 (Simulation time: 1 hr 11 min 48 sec) 
Heartbeat CPU 0 instructions: 104000000 cycles: 256312278 heartbeat IPC: 0.354857 cumulative IPC: 0.375084 (Simulation time: 1 hr 12 min 25 sec) 
Heartbeat CPU 0 instructions: 105000001 cycles: 259104408 heartbeat IPC: 0.35815 cumulative IPC: 0.374897 (Simulation time: 1 hr 13 min 0 sec) 
Heartbeat CPU 0 instructions: 106000000 cycles: 262008147 heartbeat IPC: 0.344383 cumulative IPC: 0.374551 (Simulation time: 1 hr 13 min 40 sec) 
Heartbeat CPU 0 instructions: 107000002 cycles: 264865092 heartbeat IPC: 0.350025 cumulative IPC: 0.374281 (Simulation time: 1 hr 14 min 15 sec) 
Heartbeat CPU 0 instructions: 108000000 cycles: 267697176 heartbeat IPC: 0.353096 cumulative IPC: 0.374052 (Simulation time: 1 hr 14 min 49 sec) 
Heartbeat CPU 0 instructions: 109000002 cycles: 270512648 heartbeat IPC: 0.355181 cumulative IPC: 0.373851 (Simulation time: 1 hr 15 min 20 sec) 
Heartbeat CPU 0 instructions: 110000001 cycles: 273350369 heartbeat IPC: 0.352395 cumulative IPC: 0.373624 (Simulation time: 1 hr 15 min 52 sec) 
Finished CPU 0 instructions: 100000001 cycles: 267648952 cummulative IPC: 0.373624 (Simulation time: 1 hr 15 min 52 sec) 

ChampSim completed all CPUs

Region of Interest Statistics

CPU 0 cummulative IPC: 0.373624 instructions: 100000001 cycles: 267648952
LLC TOTAL     ACCESS:    4665129  HIT:    2391509  MISS:    2273620
LLC LOAD      ACCESS:    2182642  HIT:    2005178  MISS:     177464
LLC RFO       ACCESS:      24958  HIT:      11784  MISS:      13174
LLC PREFETCH  ACCESS:    2377160  HIT:     310129  MISS:    2067031
LLC WRITEBACK ACCESS:      80369  HIT:      64418  MISS:      15951
Insertion Distribution: 
	LOAD 75325 0 118730 50202 
	RFO 3121 0 6969 4659 
	PREF 0 13132 71592 2195700 
	WRITEBACK 0 0 0 16675 
Total Prefetch Downgrades: 14197
