
*** ChampSim Multicore Out-of-Order Simulator ***

Warmup Instructions: 10000000
Simulation Instructions: 100000000
Configuration: 2
Number of CPUs: 1
LLC sets: 2048
LLC ways: 16
Off-chip DRAM Channels: 1 Width: 64-bit Data Rate: 1600 MT/s

CPU 0 runs /datasets/cs240c-wi22-a00-public/data/Assignment2-gz/bzip2_259B.trace.gz
CPU 0 L1D next line prefetcher
CPU 0 L2C IP-based stride prefetcher
Initialize SRRIP state
Heartbeat CPU 0 instructions: 1000002 cycles: 428875 heartbeat IPC: 2.33169 cumulative IPC: 2.33169 (Simulation time: 0 hr 0 min 48 sec) 
Heartbeat CPU 0 instructions: 2000003 cycles: 861057 heartbeat IPC: 2.31384 cumulative IPC: 2.32273 (Simulation time: 0 hr 1 min 30 sec) 
Heartbeat CPU 0 instructions: 3000001 cycles: 1286790 heartbeat IPC: 2.34889 cumulative IPC: 2.33138 (Simulation time: 0 hr 2 min 11 sec) 
Heartbeat CPU 0 instructions: 4000000 cycles: 1685062 heartbeat IPC: 2.51084 cumulative IPC: 2.3738 (Simulation time: 0 hr 2 min 52 sec) 
Heartbeat CPU 0 instructions: 5000001 cycles: 2103495 heartbeat IPC: 2.38987 cumulative IPC: 2.377 (Simulation time: 0 hr 3 min 35 sec) 
Heartbeat CPU 0 instructions: 6000001 cycles: 2532858 heartbeat IPC: 2.32903 cumulative IPC: 2.36887 (Simulation time: 0 hr 4 min 14 sec) 
Heartbeat CPU 0 instructions: 7000003 cycles: 2961906 heartbeat IPC: 2.33075 cumulative IPC: 2.36334 (Simulation time: 0 hr 4 min 56 sec) 
Heartbeat CPU 0 instructions: 8000000 cycles: 3391719 heartbeat IPC: 2.32659 cumulative IPC: 2.35869 (Simulation time: 0 hr 5 min 38 sec) 
Heartbeat CPU 0 instructions: 9000000 cycles: 3819845 heartbeat IPC: 2.33576 cumulative IPC: 2.35612 (Simulation time: 0 hr 6 min 21 sec) 
Heartbeat CPU 0 instructions: 10000002 cycles: 4193917 heartbeat IPC: 2.67329 cumulative IPC: 2.38441 (Simulation time: 0 hr 6 min 56 sec) 

Warmup complete CPU 0 instructions: 10000002 cycles: 4193917 (Simulation time: 0 hr 6 min 56 sec) 

Heartbeat CPU 0 instructions: 11000002 cycles: 5034789 heartbeat IPC: 1.18924 cumulative IPC: 1.18924 (Simulation time: 0 hr 7 min 38 sec) 
Heartbeat CPU 0 instructions: 12000000 cycles: 6140435 heartbeat IPC: 0.904447 cumulative IPC: 1.02747 (Simulation time: 0 hr 8 min 31 sec) 
Heartbeat CPU 0 instructions: 13000002 cycles: 7084320 heartbeat IPC: 1.05945 cumulative IPC: 1.03792 (Simulation time: 0 hr 9 min 21 sec) 
Heartbeat CPU 0 instructions: 14000003 cycles: 8001768 heartbeat IPC: 1.08998 cumulative IPC: 1.05046 (Simulation time: 0 hr 10 min 7 sec) 
Heartbeat CPU 0 instructions: 15000002 cycles: 9023519 heartbeat IPC: 0.978711 cumulative IPC: 1.03528 (Simulation time: 0 hr 10 min 58 sec) 
Heartbeat CPU 0 instructions: 16000000 cycles: 10008562 heartbeat IPC: 1.01518 cumulative IPC: 1.03188 (Simulation time: 0 hr 11 min 46 sec) 
Heartbeat CPU 0 instructions: 17000002 cycles: 11135086 heartbeat IPC: 0.887688 cumulative IPC: 1.00848 (Simulation time: 0 hr 12 min 38 sec) 
Heartbeat CPU 0 instructions: 18000001 cycles: 12229369 heartbeat IPC: 0.913839 cumulative IPC: 0.995588 (Simulation time: 0 hr 13 min 23 sec) 
Heartbeat CPU 0 instructions: 19000003 cycles: 13193099 heartbeat IPC: 1.03764 cumulative IPC: 1.00009 (Simulation time: 0 hr 14 min 6 sec) 
Heartbeat CPU 0 instructions: 20000000 cycles: 14206003 heartbeat IPC: 0.987257 cumulative IPC: 0.998793 (Simulation time: 0 hr 14 min 47 sec) 
Heartbeat CPU 0 instructions: 21000001 cycles: 15116908 heartbeat IPC: 1.09781 cumulative IPC: 1.00705 (Simulation time: 0 hr 15 min 26 sec) 
Heartbeat CPU 0 instructions: 22000001 cycles: 16033753 heartbeat IPC: 1.0907 cumulative IPC: 1.01353 (Simulation time: 0 hr 16 min 5 sec) 
Heartbeat CPU 0 instructions: 23000002 cycles: 16941202 heartbeat IPC: 1.10199 cumulative IPC: 1.01982 (Simulation time: 0 hr 16 min 44 sec) 
Heartbeat CPU 0 instructions: 24000000 cycles: 17847869 heartbeat IPC: 1.10294 cumulative IPC: 1.02534 (Simulation time: 0 hr 17 min 24 sec) 
Heartbeat CPU 0 instructions: 25000000 cycles: 18749325 heartbeat IPC: 1.10932 cumulative IPC: 1.03054 (Simulation time: 0 hr 18 min 6 sec) 
Heartbeat CPU 0 instructions: 26000000 cycles: 19687548 heartbeat IPC: 1.06584 cumulative IPC: 1.03268 (Simulation time: 0 hr 18 min 47 sec) 
Heartbeat CPU 0 instructions: 27000003 cycles: 20648078 heartbeat IPC: 1.0411 cumulative IPC: 1.03317 (Simulation time: 0 hr 19 min 25 sec) 
Heartbeat CPU 0 instructions: 28000000 cycles: 21571046 heartbeat IPC: 1.08346 cumulative IPC: 1.03584 (Simulation time: 0 hr 20 min 6 sec) 
Heartbeat CPU 0 instructions: 29000000 cycles: 22481179 heartbeat IPC: 1.09874 cumulative IPC: 1.03897 (Simulation time: 0 hr 20 min 47 sec) 
Heartbeat CPU 0 instructions: 30000000 cycles: 23453189 heartbeat IPC: 1.0288 cumulative IPC: 1.03846 (Simulation time: 0 hr 21 min 29 sec) 
Heartbeat CPU 0 instructions: 31000001 cycles: 24355815 heartbeat IPC: 1.10788 cumulative IPC: 1.04157 (Simulation time: 0 hr 22 min 6 sec) 
Heartbeat CPU 0 instructions: 32000000 cycles: 25249067 heartbeat IPC: 1.1195 cumulative IPC: 1.04487 (Simulation time: 0 hr 22 min 42 sec) 
Heartbeat CPU 0 instructions: 33000002 cycles: 26381976 heartbeat IPC: 0.882685 cumulative IPC: 1.03659 (Simulation time: 0 hr 23 min 22 sec) 
Heartbeat CPU 0 instructions: 34000003 cycles: 27601370 heartbeat IPC: 0.82008 cumulative IPC: 1.02531 (Simulation time: 0 hr 24 min 4 sec) 
Heartbeat CPU 0 instructions: 35000001 cycles: 28638180 heartbeat IPC: 0.964495 cumulative IPC: 1.02273 (Simulation time: 0 hr 24 min 45 sec) 
Heartbeat CPU 0 instructions: 36000000 cycles: 29812346 heartbeat IPC: 0.851667 cumulative IPC: 1.01489 (Simulation time: 0 hr 25 min 24 sec) 
Heartbeat CPU 0 instructions: 37000002 cycles: 30855357 heartbeat IPC: 0.958765 cumulative IPC: 1.0127 (Simulation time: 0 hr 26 min 2 sec) 
Heartbeat CPU 0 instructions: 38000003 cycles: 31970217 heartbeat IPC: 0.896975 cumulative IPC: 1.00805 (Simulation time: 0 hr 26 min 37 sec) 
Heartbeat CPU 0 instructions: 39000001 cycles: 33114190 heartbeat IPC: 0.874145 cumulative IPC: 1.00276 (Simulation time: 0 hr 27 min 12 sec) 
Heartbeat CPU 0 instructions: 40000000 cycles: 34184163 heartbeat IPC: 0.934602 cumulative IPC: 1.00033 (Simulation time: 0 hr 27 min 45 sec) 
Heartbeat CPU 0 instructions: 41000001 cycles: 35373843 heartbeat IPC: 0.840563 cumulative IPC: 0.994229 (Simulation time: 0 hr 28 min 21 sec) 
Heartbeat CPU 0 instructions: 42000000 cycles: 36583813 heartbeat IPC: 0.826466 cumulative IPC: 0.987962 (Simulation time: 0 hr 28 min 55 sec) 
Heartbeat CPU 0 instructions: 43000003 cycles: 37800324 heartbeat IPC: 0.822025 cumulative IPC: 0.981956 (Simulation time: 0 hr 29 min 30 sec) 
Heartbeat CPU 0 instructions: 44000000 cycles: 39014432 heartbeat IPC: 0.823647 cumulative IPC: 0.976436 (Simulation time: 0 hr 30 min 3 sec) 
Heartbeat CPU 0 instructions: 45000000 cycles: 40236177 heartbeat IPC: 0.818501 cumulative IPC: 0.971082 (Simulation time: 0 hr 30 min 39 sec) 
Heartbeat CPU 0 instructions: 46000002 cycles: 41476181 heartbeat IPC: 0.806451 cumulative IPC: 0.965607 (Simulation time: 0 hr 31 min 12 sec) 
Heartbeat CPU 0 instructions: 47000000 cycles: 42707809 heartbeat IPC: 0.811932 cumulative IPC: 0.960692 (Simulation time: 0 hr 31 min 46 sec) 
Heartbeat CPU 0 instructions: 48000000 cycles: 43945981 heartbeat IPC: 0.807642 cumulative IPC: 0.955925 (Simulation time: 0 hr 32 min 22 sec) 
Heartbeat CPU 0 instructions: 49000003 cycles: 45215498 heartbeat IPC: 0.787704 cumulative IPC: 0.950719 (Simulation time: 0 hr 32 min 55 sec) 
Heartbeat CPU 0 instructions: 50000001 cycles: 46254640 heartbeat IPC: 0.96233 cumulative IPC: 0.951006 (Simulation time: 0 hr 33 min 30 sec) 
Heartbeat CPU 0 instructions: 51000002 cycles: 47419273 heartbeat IPC: 0.85864 cumulative IPC: 0.948517 (Simulation time: 0 hr 34 min 5 sec) 
Heartbeat CPU 0 instructions: 52000000 cycles: 48537437 heartbeat IPC: 0.894321 cumulative IPC: 0.947151 (Simulation time: 0 hr 34 min 41 sec) 
Heartbeat CPU 0 instructions: 53000001 cycles: 49733298 heartbeat IPC: 0.836218 cumulative IPC: 0.944238 (Simulation time: 0 hr 35 min 16 sec) 
Heartbeat CPU 0 instructions: 54000000 cycles: 50959190 heartbeat IPC: 0.815732 cumulative IPC: 0.940869 (Simulation time: 0 hr 35 min 50 sec) 
Heartbeat CPU 0 instructions: 55000000 cycles: 52110797 heartbeat IPC: 0.868352 cumulative IPC: 0.939126 (Simulation time: 0 hr 36 min 25 sec) 
Heartbeat CPU 0 instructions: 56000000 cycles: 53334407 heartbeat IPC: 0.817254 cumulative IPC: 0.936092 (Simulation time: 0 hr 37 min 0 sec) 
Heartbeat CPU 0 instructions: 57000000 cycles: 54555451 heartbeat IPC: 0.818971 cumulative IPC: 0.933252 (Simulation time: 0 hr 37 min 34 sec) 
Heartbeat CPU 0 instructions: 58000002 cycles: 55588525 heartbeat IPC: 0.967987 cumulative IPC: 0.93395 (Simulation time: 0 hr 38 min 8 sec) 
Heartbeat CPU 0 instructions: 59000000 cycles: 56689425 heartbeat IPC: 0.908346 cumulative IPC: 0.933413 (Simulation time: 0 hr 38 min 42 sec) 
Heartbeat CPU 0 instructions: 60000000 cycles: 57869622 heartbeat IPC: 0.847316 cumulative IPC: 0.93152 (Simulation time: 0 hr 39 min 17 sec) 
Heartbeat CPU 0 instructions: 61000000 cycles: 59013764 heartbeat IPC: 0.874017 cumulative IPC: 0.93032 (Simulation time: 0 hr 39 min 51 sec) 
Heartbeat CPU 0 instructions: 62000002 cycles: 59859027 heartbeat IPC: 1.18307 cumulative IPC: 0.934158 (Simulation time: 0 hr 40 min 27 sec) 
Heartbeat CPU 0 instructions: 63000003 cycles: 60779017 heartbeat IPC: 1.08697 cumulative IPC: 0.936642 (Simulation time: 0 hr 41 min 8 sec) 
Heartbeat CPU 0 instructions: 64000000 cycles: 61874445 heartbeat IPC: 0.912882 cumulative IPC: 0.936191 (Simulation time: 0 hr 41 min 52 sec) 
Heartbeat CPU 0 instructions: 65000003 cycles: 62890973 heartbeat IPC: 0.983744 cumulative IPC: 0.937015 (Simulation time: 0 hr 42 min 41 sec) 
Heartbeat CPU 0 instructions: 66000003 cycles: 63851143 heartbeat IPC: 1.04148 cumulative IPC: 0.938696 (Simulation time: 0 hr 43 min 28 sec) 
Heartbeat CPU 0 instructions: 67000003 cycles: 64898398 heartbeat IPC: 0.954877 cumulative IPC: 0.938975 (Simulation time: 0 hr 44 min 13 sec) 
Heartbeat CPU 0 instructions: 68000000 cycles: 65970906 heartbeat IPC: 0.932391 cumulative IPC: 0.938861 (Simulation time: 0 hr 44 min 56 sec) 
Heartbeat CPU 0 instructions: 69000003 cycles: 67082614 heartbeat IPC: 0.89952 cumulative IPC: 0.938165 (Simulation time: 0 hr 45 min 42 sec) 
Heartbeat CPU 0 instructions: 70000003 cycles: 68344690 heartbeat IPC: 0.792345 cumulative IPC: 0.935297 (Simulation time: 0 hr 46 min 23 sec) 
Heartbeat CPU 0 instructions: 71000000 cycles: 69668321 heartbeat IPC: 0.755495 cumulative IPC: 0.931662 (Simulation time: 0 hr 47 min 7 sec) 
Heartbeat CPU 0 instructions: 72000000 cycles: 70821480 heartbeat IPC: 0.867183 cumulative IPC: 0.930546 (Simulation time: 0 hr 47 min 45 sec) 
Heartbeat CPU 0 instructions: 73000003 cycles: 72118789 heartbeat IPC: 0.770829 cumulative IPC: 0.927495 (Simulation time: 0 hr 48 min 25 sec) 
Heartbeat CPU 0 instructions: 74000001 cycles: 73340045 heartbeat IPC: 0.818828 cumulative IPC: 0.925576 (Simulation time: 0 hr 49 min 6 sec) 
Heartbeat CPU 0 instructions: 75000000 cycles: 74497303 heartbeat IPC: 0.864111 cumulative IPC: 0.924564 (Simulation time: 0 hr 49 min 46 sec) 
Heartbeat CPU 0 instructions: 76000000 cycles: 75570508 heartbeat IPC: 0.931788 cumulative IPC: 0.924673 (Simulation time: 0 hr 50 min 26 sec) 
Heartbeat CPU 0 instructions: 77000003 cycles: 76536702 heartbeat IPC: 1.03499 cumulative IPC: 0.926146 (Simulation time: 0 hr 51 min 3 sec) 
Heartbeat CPU 0 instructions: 78000000 cycles: 77495819 heartbeat IPC: 1.04262 cumulative IPC: 0.92767 (Simulation time: 0 hr 51 min 40 sec) 
Heartbeat CPU 0 instructions: 79000003 cycles: 78569063 heartbeat IPC: 0.931757 cumulative IPC: 0.927729 (Simulation time: 0 hr 52 min 17 sec) 
Heartbeat CPU 0 instructions: 80000000 cycles: 79798115 heartbeat IPC: 0.813633 cumulative IPC: 0.925874 (Simulation time: 0 hr 52 min 57 sec) 
Heartbeat CPU 0 instructions: 81000001 cycles: 80954193 heartbeat IPC: 0.864994 cumulative IPC: 0.924958 (Simulation time: 0 hr 53 min 37 sec) 
Heartbeat CPU 0 instructions: 82000000 cycles: 82067967 heartbeat IPC: 0.897847 cumulative IPC: 0.92457 (Simulation time: 0 hr 54 min 19 sec) 
Heartbeat CPU 0 instructions: 83000002 cycles: 83116536 heartbeat IPC: 0.953683 cumulative IPC: 0.924957 (Simulation time: 0 hr 55 min 0 sec) 
Heartbeat CPU 0 instructions: 84000000 cycles: 84062065 heartbeat IPC: 1.05761 cumulative IPC: 0.926527 (Simulation time: 0 hr 55 min 39 sec) 
Heartbeat CPU 0 instructions: 85000003 cycles: 85004870 heartbeat IPC: 1.06067 cumulative IPC: 0.928092 (Simulation time: 0 hr 56 min 15 sec) 
Heartbeat CPU 0 instructions: 86000003 cycles: 86047144 heartbeat IPC: 0.959441 cumulative IPC: 0.928491 (Simulation time: 0 hr 56 min 51 sec) 
Heartbeat CPU 0 instructions: 87000002 cycles: 87120695 heartbeat IPC: 0.931487 cumulative IPC: 0.92853 (Simulation time: 0 hr 57 min 26 sec) 
Heartbeat CPU 0 instructions: 88000000 cycles: 88223230 heartbeat IPC: 0.906999 cumulative IPC: 0.928247 (Simulation time: 0 hr 58 min 0 sec) 
Heartbeat CPU 0 instructions: 89000002 cycles: 89229602 heartbeat IPC: 0.99367 cumulative IPC: 0.929022 (Simulation time: 0 hr 58 min 33 sec) 
Heartbeat CPU 0 instructions: 90000001 cycles: 90352871 heartbeat IPC: 0.890258 cumulative IPC: 0.928516 (Simulation time: 0 hr 59 min 6 sec) 
Heartbeat CPU 0 instructions: 91000002 cycles: 91466629 heartbeat IPC: 0.897862 cumulative IPC: 0.928125 (Simulation time: 0 hr 59 min 39 sec) 
Heartbeat CPU 0 instructions: 92000000 cycles: 92505048 heartbeat IPC: 0.963 cumulative IPC: 0.928535 (Simulation time: 1 hr 0 min 12 sec) 
Heartbeat CPU 0 instructions: 93000000 cycles: 93693517 heartbeat IPC: 0.841419 cumulative IPC: 0.927378 (Simulation time: 1 hr 0 min 42 sec) 
Heartbeat CPU 0 instructions: 94000003 cycles: 94869717 heartbeat IPC: 0.850198 cumulative IPC: 0.926377 (Simulation time: 1 hr 1 min 14 sec) 
Heartbeat CPU 0 instructions: 95000002 cycles: 96054640 heartbeat IPC: 0.843936 cumulative IPC: 0.925314 (Simulation time: 1 hr 1 min 45 sec) 
Heartbeat CPU 0 instructions: 96000000 cycles: 97224258 heartbeat IPC: 0.854978 cumulative IPC: 0.92443 (Simulation time: 1 hr 2 min 20 sec) 
Heartbeat CPU 0 instructions: 97000002 cycles: 98441177 heartbeat IPC: 0.821749 cumulative IPC: 0.923104 (Simulation time: 1 hr 2 min 52 sec) 
Heartbeat CPU 0 instructions: 98000000 cycles: 99674996 heartbeat IPC: 0.81049 cumulative IPC: 0.921649 (Simulation time: 1 hr 3 min 25 sec) 
Heartbeat CPU 0 instructions: 99000000 cycles: 100914924 heartbeat IPC: 0.806498 cumulative IPC: 0.920172 (Simulation time: 1 hr 3 min 58 sec) 
Heartbeat CPU 0 instructions: 100000000 cycles: 102156993 heartbeat IPC: 0.805108 cumulative IPC: 0.918713 (Simulation time: 1 hr 4 min 31 sec) 
Heartbeat CPU 0 instructions: 101000003 cycles: 103304941 heartbeat IPC: 0.871122 cumulative IPC: 0.918162 (Simulation time: 1 hr 5 min 3 sec) 
Heartbeat CPU 0 instructions: 102000000 cycles: 104424257 heartbeat IPC: 0.8934 cumulative IPC: 0.917886 (Simulation time: 1 hr 5 min 36 sec) 
Heartbeat CPU 0 instructions: 103000000 cycles: 105525614 heartbeat IPC: 0.907971 cumulative IPC: 0.917778 (Simulation time: 1 hr 6 min 7 sec) 
Heartbeat CPU 0 instructions: 104000000 cycles: 106679417 heartbeat IPC: 0.866699 cumulative IPC: 0.917203 (Simulation time: 1 hr 6 min 41 sec) 
Heartbeat CPU 0 instructions: 105000002 cycles: 107891102 heartbeat IPC: 0.825299 cumulative IPC: 0.916129 (Simulation time: 1 hr 7 min 16 sec) 
Heartbeat CPU 0 instructions: 106000001 cycles: 109024659 heartbeat IPC: 0.882178 cumulative IPC: 0.915762 (Simulation time: 1 hr 7 min 47 sec) 
Heartbeat CPU 0 instructions: 107000000 cycles: 110227948 heartbeat IPC: 0.831055 cumulative IPC: 0.914801 (Simulation time: 1 hr 8 min 21 sec) 
Heartbeat CPU 0 instructions: 108000000 cycles: 111426286 heartbeat IPC: 0.834489 cumulative IPC: 0.913903 (Simulation time: 1 hr 8 min 49 sec) 
Heartbeat CPU 0 instructions: 109000000 cycles: 112438776 heartbeat IPC: 0.987664 cumulative IPC: 0.914593 (Simulation time: 1 hr 9 min 19 sec) 
Heartbeat CPU 0 instructions: 110000000 cycles: 113600310 heartbeat IPC: 0.86093 cumulative IPC: 0.914023 (Simulation time: 1 hr 9 min 47 sec) 
Finished CPU 0 instructions: 100000002 cycles: 109406395 cummulative IPC: 0.914023 (Simulation time: 1 hr 9 min 47 sec) 

ChampSim completed all CPUs

Region of Interest Statistics

CPU 0 cummulative IPC: 0.914023 instructions: 100000002 cycles: 109406395
LLC TOTAL     ACCESS:    1373528  HIT:    1055810  MISS:     317718
LLC LOAD      ACCESS:     396209  HIT:     348608  MISS:      47601
LLC RFO       ACCESS:     104382  HIT:      41260  MISS:      63122
LLC PREFETCH  ACCESS:     675955  HIT:     503843  MISS:     172112
LLC WRITEBACK ACCESS:     196982  HIT:     162099  MISS:      34883
Insertion Distribution: 
	LOAD 38258 0 9089 400 
	RFO 18221 0 34186 26669 
	PREF 0 14637 64770 93185 
	WRITEBACK 0 0 0 34887 
Total Prefetch Downgrades: 28196
