
*** ChampSim Multicore Out-of-Order Simulator ***

Warmup Instructions: 10000000
Simulation Instructions: 100000000
Configuration: 2
Number of CPUs: 1
LLC sets: 2048
LLC ways: 16
Off-chip DRAM Channels: 1 Width: 64-bit Data Rate: 1600 MT/s

CPU 0 runs /datasets/cs240c-wi22-a00-public/data/Assignment2-gz/GemsFDTD_712B.trace.gz
CPU 0 L1D next line prefetcher
CPU 0 L2C IP-based stride prefetcher
Initialize SRRIP state
Heartbeat CPU 0 instructions: 1000003 cycles: 634340 heartbeat IPC: 1.57645 cumulative IPC: 1.57645 (Simulation time: 0 hr 0 min 50 sec) 
Heartbeat CPU 0 instructions: 2000000 cycles: 1268244 heartbeat IPC: 1.57752 cumulative IPC: 1.57698 (Simulation time: 0 hr 1 min 36 sec) 
Heartbeat CPU 0 instructions: 3000000 cycles: 1902228 heartbeat IPC: 1.57733 cumulative IPC: 1.5771 (Simulation time: 0 hr 2 min 21 sec) 
Heartbeat CPU 0 instructions: 4000000 cycles: 2535942 heartbeat IPC: 1.578 cumulative IPC: 1.57732 (Simulation time: 0 hr 3 min 7 sec) 
Heartbeat CPU 0 instructions: 5000003 cycles: 3170096 heartbeat IPC: 1.57691 cumulative IPC: 1.57724 (Simulation time: 0 hr 3 min 56 sec) 
Heartbeat CPU 0 instructions: 6000002 cycles: 3803989 heartbeat IPC: 1.57755 cumulative IPC: 1.57729 (Simulation time: 0 hr 4 min 42 sec) 
Heartbeat CPU 0 instructions: 7000001 cycles: 4438129 heartbeat IPC: 1.57694 cumulative IPC: 1.57724 (Simulation time: 0 hr 5 min 31 sec) 
Heartbeat CPU 0 instructions: 8000000 cycles: 5071957 heartbeat IPC: 1.57771 cumulative IPC: 1.5773 (Simulation time: 0 hr 6 min 19 sec) 
Heartbeat CPU 0 instructions: 9000001 cycles: 5706065 heartbeat IPC: 1.57702 cumulative IPC: 1.57727 (Simulation time: 0 hr 7 min 9 sec) 
Heartbeat CPU 0 instructions: 10000002 cycles: 6339831 heartbeat IPC: 1.57787 cumulative IPC: 1.57733 (Simulation time: 0 hr 7 min 55 sec) 

Warmup complete CPU 0 instructions: 10000002 cycles: 6339831 (Simulation time: 0 hr 7 min 55 sec) 

Heartbeat CPU 0 instructions: 11000001 cycles: 7959112 heartbeat IPC: 0.617557 cumulative IPC: 0.617557 (Simulation time: 0 hr 8 min 52 sec) 
Heartbeat CPU 0 instructions: 12000000 cycles: 9590229 heartbeat IPC: 0.613076 cumulative IPC: 0.615309 (Simulation time: 0 hr 9 min 47 sec) 
Heartbeat CPU 0 instructions: 13000000 cycles: 11212653 heartbeat IPC: 0.616362 cumulative IPC: 0.615659 (Simulation time: 0 hr 10 min 45 sec) 
Heartbeat CPU 0 instructions: 14000001 cycles: 12818567 heartbeat IPC: 0.622699 cumulative IPC: 0.617404 (Simulation time: 0 hr 11 min 41 sec) 
Heartbeat CPU 0 instructions: 15000001 cycles: 14415543 heartbeat IPC: 0.626184 cumulative IPC: 0.61914 (Simulation time: 0 hr 12 min 36 sec) 
Heartbeat CPU 0 instructions: 16000000 cycles: 16045137 heartbeat IPC: 0.613649 cumulative IPC: 0.618218 (Simulation time: 0 hr 13 min 30 sec) 
Heartbeat CPU 0 instructions: 17000001 cycles: 17661011 heartbeat IPC: 0.618861 cumulative IPC: 0.61831 (Simulation time: 0 hr 14 min 24 sec) 
Heartbeat CPU 0 instructions: 18000001 cycles: 19298418 heartbeat IPC: 0.610722 cumulative IPC: 0.617351 (Simulation time: 0 hr 15 min 23 sec) 
Heartbeat CPU 0 instructions: 19000003 cycles: 20906618 heartbeat IPC: 0.621814 cumulative IPC: 0.617844 (Simulation time: 0 hr 16 min 22 sec) 
Heartbeat CPU 0 instructions: 20000000 cycles: 22509603 heartbeat IPC: 0.623834 cumulative IPC: 0.618438 (Simulation time: 0 hr 17 min 18 sec) 
Heartbeat CPU 0 instructions: 21000002 cycles: 24130162 heartbeat IPC: 0.617072 cumulative IPC: 0.618313 (Simulation time: 0 hr 18 min 22 sec) 
Heartbeat CPU 0 instructions: 22000001 cycles: 25759813 heartbeat IPC: 0.613628 cumulative IPC: 0.61792 (Simulation time: 0 hr 19 min 24 sec) 
Heartbeat CPU 0 instructions: 23000002 cycles: 27369163 heartbeat IPC: 0.621369 cumulative IPC: 0.618184 (Simulation time: 0 hr 20 min 23 sec) 
Heartbeat CPU 0 instructions: 24000000 cycles: 29017679 heartbeat IPC: 0.606605 cumulative IPC: 0.617342 (Simulation time: 0 hr 21 min 23 sec) 
Heartbeat CPU 0 instructions: 25000000 cycles: 30636424 heartbeat IPC: 0.617763 cumulative IPC: 0.61737 (Simulation time: 0 hr 22 min 19 sec) 
Heartbeat CPU 0 instructions: 26000002 cycles: 32250391 heartbeat IPC: 0.619593 cumulative IPC: 0.617509 (Simulation time: 0 hr 23 min 9 sec) 
Heartbeat CPU 0 instructions: 27000002 cycles: 33880724 heartbeat IPC: 0.613372 cumulative IPC: 0.617264 (Simulation time: 0 hr 24 min 1 sec) 
Heartbeat CPU 0 instructions: 28000000 cycles: 35493069 heartbeat IPC: 0.620213 cumulative IPC: 0.617427 (Simulation time: 0 hr 24 min 54 sec) 
Heartbeat CPU 0 instructions: 29000002 cycles: 37102940 heartbeat IPC: 0.621169 cumulative IPC: 0.617623 (Simulation time: 0 hr 25 min 48 sec) 
Heartbeat CPU 0 instructions: 30000003 cycles: 38704090 heartbeat IPC: 0.624552 cumulative IPC: 0.617966 (Simulation time: 0 hr 26 min 42 sec) 
Heartbeat CPU 0 instructions: 31000001 cycles: 40325277 heartbeat IPC: 0.616831 cumulative IPC: 0.617912 (Simulation time: 0 hr 27 min 35 sec) 
Heartbeat CPU 0 instructions: 32000000 cycles: 41956446 heartbeat IPC: 0.613057 cumulative IPC: 0.617689 (Simulation time: 0 hr 28 min 30 sec) 
Heartbeat CPU 0 instructions: 33000000 cycles: 43570510 heartbeat IPC: 0.619554 cumulative IPC: 0.61777 (Simulation time: 0 hr 29 min 23 sec) 
Heartbeat CPU 0 instructions: 34000001 cycles: 45159011 heartbeat IPC: 0.629525 cumulative IPC: 0.618251 (Simulation time: 0 hr 30 min 15 sec) 
Heartbeat CPU 0 instructions: 35000000 cycles: 46773128 heartbeat IPC: 0.619533 cumulative IPC: 0.618302 (Simulation time: 0 hr 31 min 6 sec) 
Heartbeat CPU 0 instructions: 36000000 cycles: 48398142 heartbeat IPC: 0.615379 cumulative IPC: 0.618189 (Simulation time: 0 hr 32 min 1 sec) 
Heartbeat CPU 0 instructions: 37000001 cycles: 49992217 heartbeat IPC: 0.627324 cumulative IPC: 0.618523 (Simulation time: 0 hr 32 min 52 sec) 
Heartbeat CPU 0 instructions: 38000003 cycles: 51590952 heartbeat IPC: 0.625496 cumulative IPC: 0.618769 (Simulation time: 0 hr 33 min 43 sec) 
Heartbeat CPU 0 instructions: 39000000 cycles: 53220672 heartbeat IPC: 0.6136 cumulative IPC: 0.61859 (Simulation time: 0 hr 34 min 37 sec) 
Heartbeat CPU 0 instructions: 40000000 cycles: 54802192 heartbeat IPC: 0.632303 cumulative IPC: 0.619037 (Simulation time: 0 hr 35 min 28 sec) 
Heartbeat CPU 0 instructions: 41000003 cycles: 56410372 heartbeat IPC: 0.621823 cumulative IPC: 0.619127 (Simulation time: 0 hr 36 min 20 sec) 
Heartbeat CPU 0 instructions: 42000000 cycles: 58030978 heartbeat IPC: 0.617051 cumulative IPC: 0.619061 (Simulation time: 0 hr 37 min 15 sec) 
Heartbeat CPU 0 instructions: 43000000 cycles: 59652172 heartbeat IPC: 0.616829 cumulative IPC: 0.618994 (Simulation time: 0 hr 38 min 7 sec) 
Heartbeat CPU 0 instructions: 44000000 cycles: 61254824 heartbeat IPC: 0.623966 cumulative IPC: 0.619139 (Simulation time: 0 hr 39 min 0 sec) 
Heartbeat CPU 0 instructions: 45000002 cycles: 62856145 heartbeat IPC: 0.624486 cumulative IPC: 0.61929 (Simulation time: 0 hr 39 min 53 sec) 
Heartbeat CPU 0 instructions: 46000002 cycles: 64443634 heartbeat IPC: 0.629926 cumulative IPC: 0.619581 (Simulation time: 0 hr 40 min 43 sec) 
Heartbeat CPU 0 instructions: 47000001 cycles: 66064826 heartbeat IPC: 0.616829 cumulative IPC: 0.619506 (Simulation time: 0 hr 41 min 37 sec) 
Heartbeat CPU 0 instructions: 48000000 cycles: 67681401 heartbeat IPC: 0.618591 cumulative IPC: 0.619482 (Simulation time: 0 hr 42 min 32 sec) 
Heartbeat CPU 0 instructions: 49000000 cycles: 69277443 heartbeat IPC: 0.62655 cumulative IPC: 0.619661 (Simulation time: 0 hr 43 min 24 sec) 
Heartbeat CPU 0 instructions: 50000001 cycles: 70897472 heartbeat IPC: 0.617274 cumulative IPC: 0.619601 (Simulation time: 0 hr 44 min 18 sec) 
Heartbeat CPU 0 instructions: 51000002 cycles: 72520664 heartbeat IPC: 0.616071 cumulative IPC: 0.619515 (Simulation time: 0 hr 45 min 8 sec) 
Heartbeat CPU 0 instructions: 52000000 cycles: 74135404 heartbeat IPC: 0.619294 cumulative IPC: 0.619509 (Simulation time: 0 hr 45 min 58 sec) 
Heartbeat CPU 0 instructions: 53000000 cycles: 75780286 heartbeat IPC: 0.607946 cumulative IPC: 0.619236 (Simulation time: 0 hr 46 min 51 sec) 
Heartbeat CPU 0 instructions: 54000000 cycles: 77365738 heartbeat IPC: 0.630735 cumulative IPC: 0.619492 (Simulation time: 0 hr 47 min 40 sec) 
Heartbeat CPU 0 instructions: 55000003 cycles: 78954837 heartbeat IPC: 0.629289 cumulative IPC: 0.619707 (Simulation time: 0 hr 48 min 33 sec) 
Heartbeat CPU 0 instructions: 56000000 cycles: 80571506 heartbeat IPC: 0.618554 cumulative IPC: 0.619682 (Simulation time: 0 hr 49 min 30 sec) 
Heartbeat CPU 0 instructions: 57000000 cycles: 82225782 heartbeat IPC: 0.604494 cumulative IPC: 0.61935 (Simulation time: 0 hr 50 min 28 sec) 
Heartbeat CPU 0 instructions: 58000001 cycles: 83846194 heartbeat IPC: 0.617128 cumulative IPC: 0.619304 (Simulation time: 0 hr 51 min 25 sec) 
Heartbeat CPU 0 instructions: 59000002 cycles: 85465841 heartbeat IPC: 0.617419 cumulative IPC: 0.619265 (Simulation time: 0 hr 52 min 21 sec) 
Heartbeat CPU 0 instructions: 60000000 cycles: 87095018 heartbeat IPC: 0.613806 cumulative IPC: 0.619155 (Simulation time: 0 hr 53 min 16 sec) 
Heartbeat CPU 0 instructions: 61000001 cycles: 88682452 heartbeat IPC: 0.629948 cumulative IPC: 0.619363 (Simulation time: 0 hr 54 min 8 sec) 
Heartbeat CPU 0 instructions: 62000000 cycles: 90280595 heartbeat IPC: 0.625726 cumulative IPC: 0.619484 (Simulation time: 0 hr 55 min 0 sec) 
Heartbeat CPU 0 instructions: 63000003 cycles: 91900098 heartbeat IPC: 0.617475 cumulative IPC: 0.619446 (Simulation time: 0 hr 55 min 52 sec) 
Heartbeat CPU 0 instructions: 64000000 cycles: 93522205 heartbeat IPC: 0.61648 cumulative IPC: 0.619391 (Simulation time: 0 hr 56 min 44 sec) 
Heartbeat CPU 0 instructions: 65000003 cycles: 95157499 heartbeat IPC: 0.611513 cumulative IPC: 0.619246 (Simulation time: 0 hr 57 min 37 sec) 
Heartbeat CPU 0 instructions: 66000000 cycles: 96749251 heartbeat IPC: 0.628237 cumulative IPC: 0.619404 (Simulation time: 0 hr 58 min 29 sec) 
Heartbeat CPU 0 instructions: 67000000 cycles: 98349628 heartbeat IPC: 0.624853 cumulative IPC: 0.619499 (Simulation time: 0 hr 59 min 20 sec) 
Heartbeat CPU 0 instructions: 68000000 cycles: 99953152 heartbeat IPC: 0.623626 cumulative IPC: 0.61957 (Simulation time: 1 hr 0 min 13 sec) 
Heartbeat CPU 0 instructions: 69000000 cycles: 101538622 heartbeat IPC: 0.630728 cumulative IPC: 0.619756 (Simulation time: 1 hr 1 min 3 sec) 
Heartbeat CPU 0 instructions: 70000002 cycles: 103175132 heartbeat IPC: 0.611058 cumulative IPC: 0.619609 (Simulation time: 1 hr 1 min 55 sec) 
Heartbeat CPU 0 instructions: 71000002 cycles: 104830763 heartbeat IPC: 0.603999 cumulative IPC: 0.619346 (Simulation time: 1 hr 2 min 47 sec) 
Heartbeat CPU 0 instructions: 72000000 cycles: 106523014 heartbeat IPC: 0.590928 cumulative IPC: 0.618866 (Simulation time: 1 hr 3 min 40 sec) 
Heartbeat CPU 0 instructions: 73000000 cycles: 108209428 heartbeat IPC: 0.592974 cumulative IPC: 0.618438 (Simulation time: 1 hr 4 min 34 sec) 
Heartbeat CPU 0 instructions: 74000001 cycles: 109927271 heartbeat IPC: 0.582126 cumulative IPC: 0.617836 (Simulation time: 1 hr 5 min 24 sec) 
Heartbeat CPU 0 instructions: 75000003 cycles: 111629632 heartbeat IPC: 0.587421 cumulative IPC: 0.617344 (Simulation time: 1 hr 6 min 19 sec) 
Heartbeat CPU 0 instructions: 76000000 cycles: 113325770 heartbeat IPC: 0.589573 cumulative IPC: 0.616903 (Simulation time: 1 hr 7 min 15 sec) 
Heartbeat CPU 0 instructions: 77000000 cycles: 115030278 heartbeat IPC: 0.58668 cumulative IPC: 0.61643 (Simulation time: 1 hr 8 min 8 sec) 
Heartbeat CPU 0 instructions: 78000001 cycles: 116724257 heartbeat IPC: 0.590327 cumulative IPC: 0.616029 (Simulation time: 1 hr 8 min 58 sec) 
Heartbeat CPU 0 instructions: 79000003 cycles: 118428390 heartbeat IPC: 0.58681 cumulative IPC: 0.615585 (Simulation time: 1 hr 9 min 46 sec) 
Heartbeat CPU 0 instructions: 80000000 cycles: 120137571 heartbeat IPC: 0.585074 cumulative IPC: 0.615126 (Simulation time: 1 hr 10 min 29 sec) 
Heartbeat CPU 0 instructions: 81000001 cycles: 121843386 heartbeat IPC: 0.586231 cumulative IPC: 0.6147 (Simulation time: 1 hr 11 min 11 sec) 
Heartbeat CPU 0 instructions: 82000000 cycles: 123554041 heartbeat IPC: 0.584571 cumulative IPC: 0.61426 (Simulation time: 1 hr 11 min 51 sec) 
Heartbeat CPU 0 instructions: 83000001 cycles: 125263096 heartbeat IPC: 0.585119 cumulative IPC: 0.613841 (Simulation time: 1 hr 12 min 29 sec) 
Heartbeat CPU 0 instructions: 84000000 cycles: 126978222 heartbeat IPC: 0.583047 cumulative IPC: 0.613403 (Simulation time: 1 hr 13 min 5 sec) 
Heartbeat CPU 0 instructions: 85000000 cycles: 128689416 heartbeat IPC: 0.584387 cumulative IPC: 0.612998 (Simulation time: 1 hr 13 min 43 sec) 
Heartbeat CPU 0 instructions: 86000000 cycles: 130387704 heartbeat IPC: 0.588828 cumulative IPC: 0.612667 (Simulation time: 1 hr 14 min 19 sec) 
Heartbeat CPU 0 instructions: 87000001 cycles: 132089176 heartbeat IPC: 0.587727 cumulative IPC: 0.612329 (Simulation time: 1 hr 14 min 53 sec) 
Heartbeat CPU 0 instructions: 88000000 cycles: 133777165 heartbeat IPC: 0.59242 cumulative IPC: 0.612065 (Simulation time: 1 hr 15 min 28 sec) 
Heartbeat CPU 0 instructions: 89000003 cycles: 135483143 heartbeat IPC: 0.586176 cumulative IPC: 0.611724 (Simulation time: 1 hr 16 min 2 sec) 
Heartbeat CPU 0 instructions: 90000000 cycles: 137194829 heartbeat IPC: 0.584218 cumulative IPC: 0.611364 (Simulation time: 1 hr 16 min 32 sec) 
Heartbeat CPU 0 instructions: 91000001 cycles: 138877754 heartbeat IPC: 0.594204 cumulative IPC: 0.611146 (Simulation time: 1 hr 17 min 2 sec) 
Heartbeat CPU 0 instructions: 92000000 cycles: 140572398 heartbeat IPC: 0.590094 cumulative IPC: 0.61088 (Simulation time: 1 hr 17 min 31 sec) 
Heartbeat CPU 0 instructions: 93000003 cycles: 142263009 heartbeat IPC: 0.591504 cumulative IPC: 0.610639 (Simulation time: 1 hr 17 min 59 sec) 
Heartbeat CPU 0 instructions: 94000002 cycles: 143969586 heartbeat IPC: 0.585968 cumulative IPC: 0.610333 (Simulation time: 1 hr 18 min 28 sec) 
Heartbeat CPU 0 instructions: 95000001 cycles: 145698875 heartbeat IPC: 0.578272 cumulative IPC: 0.609935 (Simulation time: 1 hr 18 min 53 sec) 
Heartbeat CPU 0 instructions: 96000000 cycles: 147412592 heartbeat IPC: 0.583526 cumulative IPC: 0.609614 (Simulation time: 1 hr 19 min 18 sec) 
Heartbeat CPU 0 instructions: 97000003 cycles: 149121629 heartbeat IPC: 0.585127 cumulative IPC: 0.609321 (Simulation time: 1 hr 19 min 40 sec) 
Heartbeat CPU 0 instructions: 98000000 cycles: 150816524 heartbeat IPC: 0.590005 cumulative IPC: 0.609095 (Simulation time: 1 hr 20 min 0 sec) 
Heartbeat CPU 0 instructions: 99000001 cycles: 152519264 heartbeat IPC: 0.587289 cumulative IPC: 0.608841 (Simulation time: 1 hr 20 min 19 sec) 
Heartbeat CPU 0 instructions: 100000000 cycles: 154239473 heartbeat IPC: 0.581324 cumulative IPC: 0.608521 (Simulation time: 1 hr 20 min 38 sec) 
Heartbeat CPU 0 instructions: 101000001 cycles: 155947814 heartbeat IPC: 0.585364 cumulative IPC: 0.608256 (Simulation time: 1 hr 20 min 55 sec) 
Heartbeat CPU 0 instructions: 102000002 cycles: 157654857 heartbeat IPC: 0.585809 cumulative IPC: 0.608003 (Simulation time: 1 hr 21 min 11 sec) 
Heartbeat CPU 0 instructions: 103000000 cycles: 159364154 heartbeat IPC: 0.585035 cumulative IPC: 0.607746 (Simulation time: 1 hr 21 min 26 sec) 
Heartbeat CPU 0 instructions: 104000000 cycles: 161081341 heartbeat IPC: 0.582348 cumulative IPC: 0.607465 (Simulation time: 1 hr 21 min 41 sec) 
Heartbeat CPU 0 instructions: 105000000 cycles: 162791393 heartbeat IPC: 0.584778 cumulative IPC: 0.607217 (Simulation time: 1 hr 21 min 56 sec) 
Heartbeat CPU 0 instructions: 106000002 cycles: 164482595 heartbeat IPC: 0.591297 cumulative IPC: 0.607046 (Simulation time: 1 hr 22 min 9 sec) 
Heartbeat CPU 0 instructions: 107000000 cycles: 166188797 heartbeat IPC: 0.586096 cumulative IPC: 0.606823 (Simulation time: 1 hr 22 min 21 sec) 
Heartbeat CPU 0 instructions: 108000000 cycles: 167889224 heartbeat IPC: 0.588088 cumulative IPC: 0.606626 (Simulation time: 1 hr 22 min 31 sec) 
Heartbeat CPU 0 instructions: 109000003 cycles: 169601878 heartbeat IPC: 0.583891 cumulative IPC: 0.606387 (Simulation time: 1 hr 22 min 41 sec) 
Heartbeat CPU 0 instructions: 110000001 cycles: 171302917 heartbeat IPC: 0.587875 cumulative IPC: 0.606196 (Simulation time: 1 hr 22 min 51 sec) 
Finished CPU 0 instructions: 100000003 cycles: 164963087 cummulative IPC: 0.606196 (Simulation time: 1 hr 22 min 51 sec) 

ChampSim completed all CPUs

Region of Interest Statistics

CPU 0 cummulative IPC: 0.606196 instructions: 100000003 cycles: 164963087
LLC TOTAL     ACCESS:    5145124  HIT:     261386  MISS:    4883738
LLC LOAD      ACCESS:     521239  HIT:     121949  MISS:     399290
LLC RFO       ACCESS:         18  HIT:          0  MISS:         18
LLC PREFETCH  ACCESS:    3246569  HIT:      58181  MISS:    3188388
LLC WRITEBACK ACCESS:    1377298  HIT:      81256  MISS:    1296042
Insertion Distribution: 
	LOAD 127877 0 15994 271816 
	RFO 0 0 18 0 
	PREF 0 11356 69385 3474836 
	WRITEBACK 0 0 0 1418725 
Total Prefetch Downgrades: 7016
