
*** ChampSim Multicore Out-of-Order Simulator ***

Warmup Instructions: 10000000
Simulation Instructions: 100000000
Configuration: 2
Number of CPUs: 1
LLC sets: 2048
LLC ways: 16
Off-chip DRAM Channels: 1 Width: 64-bit Data Rate: 1600 MT/s

CPU 0 runs /datasets/cs240c-wi22-a00-public/data/Assignment2-gz/zeusmp_300B.trace.gz
CPU 0 L1D next line prefetcher
CPU 0 L2C IP-based stride prefetcher
Initialize SRRIP state
Heartbeat CPU 0 instructions: 1000003 cycles: 509580 heartbeat IPC: 1.96241 cumulative IPC: 1.96241 (Simulation time: 0 hr 0 min 37 sec) 
Heartbeat CPU 0 instructions: 2000003 cycles: 1062148 heartbeat IPC: 1.80973 cumulative IPC: 1.88298 (Simulation time: 0 hr 1 min 17 sec) 
Heartbeat CPU 0 instructions: 3000002 cycles: 1606421 heartbeat IPC: 1.83731 cumulative IPC: 1.86751 (Simulation time: 0 hr 1 min 59 sec) 
Heartbeat CPU 0 instructions: 4000000 cycles: 2093210 heartbeat IPC: 2.05427 cumulative IPC: 1.91094 (Simulation time: 0 hr 2 min 38 sec) 
Heartbeat CPU 0 instructions: 5000001 cycles: 2575892 heartbeat IPC: 2.07176 cumulative IPC: 1.94108 (Simulation time: 0 hr 3 min 14 sec) 
Heartbeat CPU 0 instructions: 6000000 cycles: 3062581 heartbeat IPC: 2.0547 cumulative IPC: 1.95913 (Simulation time: 0 hr 3 min 50 sec) 
Heartbeat CPU 0 instructions: 7000001 cycles: 3590722 heartbeat IPC: 1.89344 cumulative IPC: 1.94947 (Simulation time: 0 hr 4 min 24 sec) 
Heartbeat CPU 0 instructions: 8000000 cycles: 4144747 heartbeat IPC: 1.80497 cumulative IPC: 1.93015 (Simulation time: 0 hr 5 min 1 sec) 
Heartbeat CPU 0 instructions: 9000000 cycles: 4672650 heartbeat IPC: 1.89429 cumulative IPC: 1.9261 (Simulation time: 0 hr 5 min 36 sec) 
Heartbeat CPU 0 instructions: 10000002 cycles: 5158945 heartbeat IPC: 2.05637 cumulative IPC: 1.93838 (Simulation time: 0 hr 6 min 13 sec) 

Warmup complete CPU 0 instructions: 10000002 cycles: 5158945 (Simulation time: 0 hr 6 min 13 sec) 

Heartbeat CPU 0 instructions: 11000003 cycles: 5846082 heartbeat IPC: 1.45532 cumulative IPC: 1.45532 (Simulation time: 0 hr 6 min 51 sec) 
Heartbeat CPU 0 instructions: 12000000 cycles: 6525512 heartbeat IPC: 1.47182 cumulative IPC: 1.46352 (Simulation time: 0 hr 7 min 29 sec) 
Heartbeat CPU 0 instructions: 13000000 cycles: 7323483 heartbeat IPC: 1.25318 cumulative IPC: 1.38598 (Simulation time: 0 hr 8 min 9 sec) 
Heartbeat CPU 0 instructions: 14000000 cycles: 8137199 heartbeat IPC: 1.22893 cumulative IPC: 1.34307 (Simulation time: 0 hr 8 min 49 sec) 
Heartbeat CPU 0 instructions: 15000002 cycles: 8866010 heartbeat IPC: 1.3721 cumulative IPC: 1.34878 (Simulation time: 0 hr 9 min 30 sec) 
Heartbeat CPU 0 instructions: 16000000 cycles: 9554602 heartbeat IPC: 1.45224 cumulative IPC: 1.36498 (Simulation time: 0 hr 10 min 9 sec) 
Heartbeat CPU 0 instructions: 17000003 cycles: 10246799 heartbeat IPC: 1.44468 cumulative IPC: 1.37583 (Simulation time: 0 hr 10 min 48 sec) 
Heartbeat CPU 0 instructions: 18000000 cycles: 10946825 heartbeat IPC: 1.42851 cumulative IPC: 1.3822 (Simulation time: 0 hr 11 min 25 sec) 
Heartbeat CPU 0 instructions: 19000003 cycles: 11765379 heartbeat IPC: 1.22167 cumulative IPC: 1.36231 (Simulation time: 0 hr 12 min 3 sec) 
Heartbeat CPU 0 instructions: 20000000 cycles: 12577798 heartbeat IPC: 1.23089 cumulative IPC: 1.34792 (Simulation time: 0 hr 12 min 41 sec) 
Heartbeat CPU 0 instructions: 21000001 cycles: 13273874 heartbeat IPC: 1.43663 cumulative IPC: 1.35553 (Simulation time: 0 hr 13 min 17 sec) 
Heartbeat CPU 0 instructions: 22000000 cycles: 13964965 heartbeat IPC: 1.44699 cumulative IPC: 1.3627 (Simulation time: 0 hr 13 min 54 sec) 
Heartbeat CPU 0 instructions: 23000001 cycles: 14656643 heartbeat IPC: 1.44576 cumulative IPC: 1.36875 (Simulation time: 0 hr 14 min 32 sec) 
Heartbeat CPU 0 instructions: 24000000 cycles: 15391675 heartbeat IPC: 1.36048 cumulative IPC: 1.36816 (Simulation time: 0 hr 15 min 9 sec) 
Heartbeat CPU 0 instructions: 25000000 cycles: 16204795 heartbeat IPC: 1.22983 cumulative IPC: 1.35798 (Simulation time: 0 hr 15 min 48 sec) 
Heartbeat CPU 0 instructions: 26000000 cycles: 17007500 heartbeat IPC: 1.24579 cumulative IPC: 1.35038 (Simulation time: 0 hr 16 min 25 sec) 
Heartbeat CPU 0 instructions: 27000002 cycles: 17694914 heartbeat IPC: 1.45473 cumulative IPC: 1.3561 (Simulation time: 0 hr 17 min 1 sec) 
Heartbeat CPU 0 instructions: 28000000 cycles: 18385965 heartbeat IPC: 1.44707 cumulative IPC: 1.36085 (Simulation time: 0 hr 17 min 36 sec) 
Heartbeat CPU 0 instructions: 29000003 cycles: 19076026 heartbeat IPC: 1.44915 cumulative IPC: 1.36523 (Simulation time: 0 hr 18 min 20 sec) 
Heartbeat CPU 0 instructions: 30000002 cycles: 19838043 heartbeat IPC: 1.31231 cumulative IPC: 1.36248 (Simulation time: 0 hr 18 min 58 sec) 
Heartbeat CPU 0 instructions: 31000001 cycles: 20655025 heartbeat IPC: 1.22402 cumulative IPC: 1.35518 (Simulation time: 0 hr 19 min 33 sec) 
Heartbeat CPU 0 instructions: 32000000 cycles: 21424479 heartbeat IPC: 1.29962 cumulative IPC: 1.35255 (Simulation time: 0 hr 20 min 8 sec) 
Heartbeat CPU 0 instructions: 33000000 cycles: 22108215 heartbeat IPC: 1.46255 cumulative IPC: 1.35699 (Simulation time: 0 hr 20 min 44 sec) 
Heartbeat CPU 0 instructions: 34000000 cycles: 22802782 heartbeat IPC: 1.43975 cumulative IPC: 1.36025 (Simulation time: 0 hr 21 min 20 sec) 
Heartbeat CPU 0 instructions: 35000002 cycles: 23490002 heartbeat IPC: 1.45514 cumulative IPC: 1.36381 (Simulation time: 0 hr 21 min 55 sec) 
Heartbeat CPU 0 instructions: 36000000 cycles: 24278827 heartbeat IPC: 1.26771 cumulative IPC: 1.35984 (Simulation time: 0 hr 22 min 30 sec) 
Heartbeat CPU 0 instructions: 37000003 cycles: 25093067 heartbeat IPC: 1.22814 cumulative IPC: 1.35446 (Simulation time: 0 hr 23 min 5 sec) 
Heartbeat CPU 0 instructions: 38000001 cycles: 25835584 heartbeat IPC: 1.34677 cumulative IPC: 1.35419 (Simulation time: 0 hr 23 min 40 sec) 
Heartbeat CPU 0 instructions: 39000002 cycles: 26521563 heartbeat IPC: 1.45777 cumulative IPC: 1.35751 (Simulation time: 0 hr 24 min 14 sec) 
Heartbeat CPU 0 instructions: 40000000 cycles: 27215051 heartbeat IPC: 1.44198 cumulative IPC: 1.36017 (Simulation time: 0 hr 24 min 53 sec) 
Heartbeat CPU 0 instructions: 41000001 cycles: 27899229 heartbeat IPC: 1.46161 cumulative IPC: 1.36322 (Simulation time: 0 hr 25 min 30 sec) 
Heartbeat CPU 0 instructions: 42000001 cycles: 28721538 heartbeat IPC: 1.21609 cumulative IPC: 1.35808 (Simulation time: 0 hr 26 min 10 sec) 
Heartbeat CPU 0 instructions: 43000000 cycles: 29533180 heartbeat IPC: 1.23207 cumulative IPC: 1.35389 (Simulation time: 0 hr 26 min 48 sec) 
Heartbeat CPU 0 instructions: 44000000 cycles: 30245544 heartbeat IPC: 1.40378 cumulative IPC: 1.35531 (Simulation time: 0 hr 27 min 24 sec) 
Heartbeat CPU 0 instructions: 45000002 cycles: 30934596 heartbeat IPC: 1.45127 cumulative IPC: 1.35787 (Simulation time: 0 hr 28 min 1 sec) 
Heartbeat CPU 0 instructions: 46000002 cycles: 31625319 heartbeat IPC: 1.44776 cumulative IPC: 1.36022 (Simulation time: 0 hr 28 min 37 sec) 
Heartbeat CPU 0 instructions: 47000001 cycles: 32344707 heartbeat IPC: 1.39007 cumulative IPC: 1.36101 (Simulation time: 0 hr 29 min 14 sec) 
Heartbeat CPU 0 instructions: 48000000 cycles: 33157761 heartbeat IPC: 1.22993 cumulative IPC: 1.3572 (Simulation time: 0 hr 29 min 54 sec) 
Heartbeat CPU 0 instructions: 49000003 cycles: 33964239 heartbeat IPC: 1.23996 cumulative IPC: 1.35392 (Simulation time: 0 hr 30 min 31 sec) 
Heartbeat CPU 0 instructions: 50000001 cycles: 34651236 heartbeat IPC: 1.45561 cumulative IPC: 1.35629 (Simulation time: 0 hr 31 min 8 sec) 
Heartbeat CPU 0 instructions: 51000002 cycles: 35339448 heartbeat IPC: 1.45304 cumulative IPC: 1.35849 (Simulation time: 0 hr 31 min 44 sec) 
Heartbeat CPU 0 instructions: 52000000 cycles: 36029324 heartbeat IPC: 1.44953 cumulative IPC: 1.36053 (Simulation time: 0 hr 32 min 19 sec) 
Heartbeat CPU 0 instructions: 53000000 cycles: 36779396 heartbeat IPC: 1.33321 cumulative IPC: 1.35988 (Simulation time: 0 hr 32 min 55 sec) 
Heartbeat CPU 0 instructions: 54000002 cycles: 37591819 heartbeat IPC: 1.23089 cumulative IPC: 1.35665 (Simulation time: 0 hr 33 min 35 sec) 
Heartbeat CPU 0 instructions: 55000001 cycles: 38370138 heartbeat IPC: 1.28482 cumulative IPC: 1.35496 (Simulation time: 0 hr 34 min 13 sec) 
Heartbeat CPU 0 instructions: 56000000 cycles: 39056650 heartbeat IPC: 1.45664 cumulative IPC: 1.35702 (Simulation time: 0 hr 34 min 50 sec) 
Heartbeat CPU 0 instructions: 57000000 cycles: 39745336 heartbeat IPC: 1.45204 cumulative IPC: 1.35892 (Simulation time: 0 hr 35 min 25 sec) 
Heartbeat CPU 0 instructions: 58000000 cycles: 40434895 heartbeat IPC: 1.4502 cumulative IPC: 1.3607 (Simulation time: 0 hr 36 min 1 sec) 
Heartbeat CPU 0 instructions: 59000003 cycles: 41210027 heartbeat IPC: 1.29011 cumulative IPC: 1.35918 (Simulation time: 0 hr 36 min 39 sec) 
Heartbeat CPU 0 instructions: 60000000 cycles: 42023003 heartbeat IPC: 1.23004 cumulative IPC: 1.35633 (Simulation time: 0 hr 37 min 16 sec) 
Heartbeat CPU 0 instructions: 61000000 cycles: 42774400 heartbeat IPC: 1.33085 cumulative IPC: 1.35583 (Simulation time: 0 hr 37 min 53 sec) 
Heartbeat CPU 0 instructions: 62000002 cycles: 43463060 heartbeat IPC: 1.4521 cumulative IPC: 1.35756 (Simulation time: 0 hr 38 min 29 sec) 
Heartbeat CPU 0 instructions: 63000003 cycles: 44151503 heartbeat IPC: 1.45255 cumulative IPC: 1.35923 (Simulation time: 0 hr 39 min 5 sec) 
Heartbeat CPU 0 instructions: 64000000 cycles: 44837064 heartbeat IPC: 1.45865 cumulative IPC: 1.36095 (Simulation time: 0 hr 39 min 43 sec) 
Heartbeat CPU 0 instructions: 65000003 cycles: 45644532 heartbeat IPC: 1.23844 cumulative IPC: 1.35851 (Simulation time: 0 hr 40 min 23 sec) 
Heartbeat CPU 0 instructions: 66000003 cycles: 46456670 heartbeat IPC: 1.23132 cumulative IPC: 1.35601 (Simulation time: 0 hr 41 min 2 sec) 
Heartbeat CPU 0 instructions: 67000002 cycles: 47178148 heartbeat IPC: 1.38604 cumulative IPC: 1.35652 (Simulation time: 0 hr 41 min 40 sec) 
Heartbeat CPU 0 instructions: 68000000 cycles: 47863261 heartbeat IPC: 1.45961 cumulative IPC: 1.35818 (Simulation time: 0 hr 42 min 15 sec) 
Heartbeat CPU 0 instructions: 69000000 cycles: 48553749 heartbeat IPC: 1.44825 cumulative IPC: 1.35961 (Simulation time: 0 hr 42 min 54 sec) 
Heartbeat CPU 0 instructions: 70000001 cycles: 49264354 heartbeat IPC: 1.40725 cumulative IPC: 1.36038 (Simulation time: 0 hr 43 min 33 sec) 
Heartbeat CPU 0 instructions: 71000001 cycles: 50072996 heartbeat IPC: 1.23664 cumulative IPC: 1.35815 (Simulation time: 0 hr 44 min 9 sec) 
Heartbeat CPU 0 instructions: 72000000 cycles: 50883942 heartbeat IPC: 1.23313 cumulative IPC: 1.35593 (Simulation time: 0 hr 44 min 47 sec) 
Heartbeat CPU 0 instructions: 73000003 cycles: 51578929 heartbeat IPC: 1.43888 cumulative IPC: 1.35717 (Simulation time: 0 hr 45 min 24 sec) 
Heartbeat CPU 0 instructions: 74000001 cycles: 52267151 heartbeat IPC: 1.45302 cumulative IPC: 1.35857 (Simulation time: 0 hr 46 min 0 sec) 
Heartbeat CPU 0 instructions: 75000003 cycles: 52957428 heartbeat IPC: 1.4487 cumulative IPC: 1.35988 (Simulation time: 0 hr 46 min 35 sec) 
Heartbeat CPU 0 instructions: 76000000 cycles: 53698929 heartbeat IPC: 1.34861 cumulative IPC: 1.3597 (Simulation time: 0 hr 47 min 13 sec) 
Heartbeat CPU 0 instructions: 77000001 cycles: 54511393 heartbeat IPC: 1.23082 cumulative IPC: 1.35758 (Simulation time: 0 hr 47 min 48 sec) 
Heartbeat CPU 0 instructions: 78000003 cycles: 55297125 heartbeat IPC: 1.2727 cumulative IPC: 1.35625 (Simulation time: 0 hr 48 min 26 sec) 
Heartbeat CPU 0 instructions: 79000001 cycles: 55984221 heartbeat IPC: 1.4554 cumulative IPC: 1.35759 (Simulation time: 0 hr 49 min 4 sec) 
Heartbeat CPU 0 instructions: 80000000 cycles: 56672886 heartbeat IPC: 1.45208 cumulative IPC: 1.35886 (Simulation time: 0 hr 49 min 40 sec) 
Heartbeat CPU 0 instructions: 81000000 cycles: 57361871 heartbeat IPC: 1.45141 cumulative IPC: 1.36008 (Simulation time: 0 hr 50 min 16 sec) 
Heartbeat CPU 0 instructions: 82000002 cycles: 58132773 heartbeat IPC: 1.29718 cumulative IPC: 1.35916 (Simulation time: 0 hr 50 min 53 sec) 
Heartbeat CPU 0 instructions: 83000001 cycles: 58944026 heartbeat IPC: 1.23266 cumulative IPC: 1.35725 (Simulation time: 0 hr 51 min 30 sec) 
Heartbeat CPU 0 instructions: 84000000 cycles: 59702857 heartbeat IPC: 1.31782 cumulative IPC: 1.3567 (Simulation time: 0 hr 52 min 8 sec) 
Heartbeat CPU 0 instructions: 85000001 cycles: 60390920 heartbeat IPC: 1.45336 cumulative IPC: 1.35791 (Simulation time: 0 hr 52 min 49 sec) 
Heartbeat CPU 0 instructions: 86000002 cycles: 61079570 heartbeat IPC: 1.45212 cumulative IPC: 1.35907 (Simulation time: 0 hr 53 min 27 sec) 
Heartbeat CPU 0 instructions: 87000000 cycles: 61767186 heartbeat IPC: 1.4543 cumulative IPC: 1.36023 (Simulation time: 0 hr 54 min 7 sec) 
Heartbeat CPU 0 instructions: 88000000 cycles: 62563234 heartbeat IPC: 1.25621 cumulative IPC: 1.35878 (Simulation time: 0 hr 54 min 47 sec) 
Heartbeat CPU 0 instructions: 89000000 cycles: 63376065 heartbeat IPC: 1.23027 cumulative IPC: 1.35699 (Simulation time: 0 hr 55 min 26 sec) 
Heartbeat CPU 0 instructions: 90000002 cycles: 64107823 heartbeat IPC: 1.36657 cumulative IPC: 1.35711 (Simulation time: 0 hr 56 min 2 sec) 
Heartbeat CPU 0 instructions: 91000002 cycles: 64796690 heartbeat IPC: 1.45166 cumulative IPC: 1.3582 (Simulation time: 0 hr 56 min 40 sec) 
Heartbeat CPU 0 instructions: 92000000 cycles: 65485463 heartbeat IPC: 1.45185 cumulative IPC: 1.35927 (Simulation time: 0 hr 57 min 15 sec) 
Heartbeat CPU 0 instructions: 93000001 cycles: 66169156 heartbeat IPC: 1.46265 cumulative IPC: 1.36043 (Simulation time: 0 hr 57 min 52 sec) 
Heartbeat CPU 0 instructions: 94000000 cycles: 66993559 heartbeat IPC: 1.213 cumulative IPC: 1.35846 (Simulation time: 0 hr 58 min 30 sec) 
Heartbeat CPU 0 instructions: 95000003 cycles: 67805896 heartbeat IPC: 1.23102 cumulative IPC: 1.35681 (Simulation time: 0 hr 59 min 7 sec) 
Heartbeat CPU 0 instructions: 96000000 cycles: 68513245 heartbeat IPC: 1.41373 cumulative IPC: 1.35745 (Simulation time: 0 hr 59 min 43 sec) 
Heartbeat CPU 0 instructions: 97000001 cycles: 69209189 heartbeat IPC: 1.4369 cumulative IPC: 1.35831 (Simulation time: 1 hr 0 min 19 sec) 
Heartbeat CPU 0 instructions: 98000000 cycles: 69906589 heartbeat IPC: 1.4339 cumulative IPC: 1.35912 (Simulation time: 1 hr 0 min 53 sec) 
Heartbeat CPU 0 instructions: 99000001 cycles: 70641115 heartbeat IPC: 1.36142 cumulative IPC: 1.35915 (Simulation time: 1 hr 1 min 29 sec) 
Heartbeat CPU 0 instructions: 100000000 cycles: 71454054 heartbeat IPC: 1.2301 cumulative IPC: 1.35757 (Simulation time: 1 hr 2 min 5 sec) 
Heartbeat CPU 0 instructions: 101000001 cycles: 72256140 heartbeat IPC: 1.24675 cumulative IPC: 1.35624 (Simulation time: 1 hr 2 min 41 sec) 
Heartbeat CPU 0 instructions: 102000003 cycles: 72945598 heartbeat IPC: 1.45042 cumulative IPC: 1.3572 (Simulation time: 1 hr 3 min 15 sec) 
Heartbeat CPU 0 instructions: 103000003 cycles: 73640073 heartbeat IPC: 1.43994 cumulative IPC: 1.35804 (Simulation time: 1 hr 3 min 51 sec) 
Heartbeat CPU 0 instructions: 104000000 cycles: 74334550 heartbeat IPC: 1.43993 cumulative IPC: 1.35886 (Simulation time: 1 hr 4 min 26 sec) 
Heartbeat CPU 0 instructions: 105000001 cycles: 75104147 heartbeat IPC: 1.29938 cumulative IPC: 1.35821 (Simulation time: 1 hr 5 min 0 sec) 
Heartbeat CPU 0 instructions: 106000002 cycles: 75912006 heartbeat IPC: 1.23784 cumulative IPC: 1.35683 (Simulation time: 1 hr 5 min 37 sec) 
Heartbeat CPU 0 instructions: 107000003 cycles: 76683018 heartbeat IPC: 1.297 cumulative IPC: 1.35619 (Simulation time: 1 hr 6 min 14 sec) 
Heartbeat CPU 0 instructions: 108000000 cycles: 77366523 heartbeat IPC: 1.46304 cumulative IPC: 1.3572 (Simulation time: 1 hr 6 min 52 sec) 
Heartbeat CPU 0 instructions: 109000001 cycles: 78052097 heartbeat IPC: 1.45863 cumulative IPC: 1.35815 (Simulation time: 1 hr 7 min 28 sec) 
Heartbeat CPU 0 instructions: 110000000 cycles: 78740404 heartbeat IPC: 1.45284 cumulative IPC: 1.35904 (Simulation time: 1 hr 8 min 4 sec) 
Finished CPU 0 instructions: 100000002 cycles: 73581460 cummulative IPC: 1.35904 (Simulation time: 1 hr 8 min 4 sec) 

ChampSim completed all CPUs

Region of Interest Statistics

CPU 0 cummulative IPC: 1.35904 instructions: 100000002 cycles: 73581460
LLC TOTAL     ACCESS:     631996  HIT:     293006  MISS:     338990
LLC LOAD      ACCESS:      37154  HIT:      23286  MISS:      13868
LLC RFO       ACCESS:     152074  HIT:      75875  MISS:      76199
LLC PREFETCH  ACCESS:     286957  HIT:      94630  MISS:     192327
LLC WRITEBACK ACCESS:     155811  HIT:      99215  MISS:      56596
Insertion Distribution: 
	LOAD 2788 0 4626 8053 
	RFO 68 0 8920 77466 
	PREF 0 17610 48897 148232 
	WRITEBACK 0 0 0 58338 
Total Prefetch Downgrades: 21984
