
*** ChampSim Multicore Out-of-Order Simulator ***

Warmup Instructions: 10000000
Simulation Instructions: 100000000
Configuration: 2
Number of CPUs: 1
LLC sets: 2048
LLC ways: 16
Off-chip DRAM Channels: 1 Width: 64-bit Data Rate: 1600 MT/s

CPU 0 runs /datasets/cs240c-wi22-a00-public/data/Assignment2-gz/cactusADM_1495B.trace.gz
CPU 0 L1D next line prefetcher
CPU 0 L2C IP-based stride prefetcher
Initialize SRRIP state
Heartbeat CPU 0 instructions: 1000003 cycles: 593383 heartbeat IPC: 1.68526 cumulative IPC: 1.68526 (Simulation time: 0 hr 0 min 53 sec) 
Heartbeat CPU 0 instructions: 2000000 cycles: 1186345 heartbeat IPC: 1.68644 cumulative IPC: 1.68585 (Simulation time: 0 hr 1 min 42 sec) 
Heartbeat CPU 0 instructions: 3000003 cycles: 1779703 heartbeat IPC: 1.68533 cumulative IPC: 1.68568 (Simulation time: 0 hr 2 min 34 sec) 
Heartbeat CPU 0 instructions: 4000000 cycles: 2372522 heartbeat IPC: 1.68685 cumulative IPC: 1.68597 (Simulation time: 0 hr 3 min 26 sec) 
Heartbeat CPU 0 instructions: 5000000 cycles: 2965579 heartbeat IPC: 1.68618 cumulative IPC: 1.68601 (Simulation time: 0 hr 4 min 21 sec) 
Heartbeat CPU 0 instructions: 6000001 cycles: 3558796 heartbeat IPC: 1.68573 cumulative IPC: 1.68596 (Simulation time: 0 hr 5 min 16 sec) 
Heartbeat CPU 0 instructions: 7000000 cycles: 4151738 heartbeat IPC: 1.6865 cumulative IPC: 1.68604 (Simulation time: 0 hr 6 min 10 sec) 
Heartbeat CPU 0 instructions: 8000000 cycles: 4906789 heartbeat IPC: 1.32441 cumulative IPC: 1.63039 (Simulation time: 0 hr 7 min 14 sec) 
Heartbeat CPU 0 instructions: 9000002 cycles: 5499990 heartbeat IPC: 1.68577 cumulative IPC: 1.63637 (Simulation time: 0 hr 8 min 6 sec) 
Heartbeat CPU 0 instructions: 10000002 cycles: 6092913 heartbeat IPC: 1.68656 cumulative IPC: 1.64125 (Simulation time: 0 hr 8 min 57 sec) 

Warmup complete CPU 0 instructions: 10000002 cycles: 6092913 (Simulation time: 0 hr 8 min 57 sec) 

Heartbeat CPU 0 instructions: 11000000 cycles: 7785069 heartbeat IPC: 0.590961 cumulative IPC: 0.590961 (Simulation time: 0 hr 9 min 51 sec) 
Heartbeat CPU 0 instructions: 12000000 cycles: 9529081 heartbeat IPC: 0.573391 cumulative IPC: 0.582043 (Simulation time: 0 hr 10 min 46 sec) 
Heartbeat CPU 0 instructions: 13000002 cycles: 11273533 heartbeat IPC: 0.573247 cumulative IPC: 0.579081 (Simulation time: 0 hr 11 min 41 sec) 
Heartbeat CPU 0 instructions: 14000001 cycles: 13009355 heartbeat IPC: 0.576095 cumulative IPC: 0.578332 (Simulation time: 0 hr 12 min 35 sec) 
Heartbeat CPU 0 instructions: 15000001 cycles: 14666072 heartbeat IPC: 0.603603 cumulative IPC: 0.583215 (Simulation time: 0 hr 13 min 35 sec) 
Heartbeat CPU 0 instructions: 16000000 cycles: 16387491 heartbeat IPC: 0.580916 cumulative IPC: 0.582831 (Simulation time: 0 hr 14 min 43 sec) 
Heartbeat CPU 0 instructions: 17000003 cycles: 18131123 heartbeat IPC: 0.573517 cumulative IPC: 0.581482 (Simulation time: 0 hr 15 min 44 sec) 
Heartbeat CPU 0 instructions: 18000000 cycles: 19876546 heartbeat IPC: 0.572925 cumulative IPC: 0.580398 (Simulation time: 0 hr 16 min 45 sec) 
Heartbeat CPU 0 instructions: 19000002 cycles: 21587488 heartbeat IPC: 0.584475 cumulative IPC: 0.580848 (Simulation time: 0 hr 17 min 47 sec) 
Heartbeat CPU 0 instructions: 20000000 cycles: 23253696 heartbeat IPC: 0.600164 cumulative IPC: 0.582724 (Simulation time: 0 hr 18 min 46 sec) 
Heartbeat CPU 0 instructions: 21000001 cycles: 29564773 heartbeat IPC: 0.158452 cumulative IPC: 0.468646 (Simulation time: 0 hr 19 min 52 sec) 
Heartbeat CPU 0 instructions: 22000000 cycles: 31654835 heartbeat IPC: 0.478454 cumulative IPC: 0.469448 (Simulation time: 0 hr 20 min 48 sec) 
Heartbeat CPU 0 instructions: 23000001 cycles: 33386490 heartbeat IPC: 0.577483 cumulative IPC: 0.476303 (Simulation time: 0 hr 21 min 43 sec) 
Heartbeat CPU 0 instructions: 24000000 cycles: 35042116 heartbeat IPC: 0.604001 cumulative IPC: 0.483606 (Simulation time: 0 hr 22 min 37 sec) 
Heartbeat CPU 0 instructions: 25000002 cycles: 36768392 heartbeat IPC: 0.579283 cumulative IPC: 0.48899 (Simulation time: 0 hr 23 min 29 sec) 
Heartbeat CPU 0 instructions: 26000000 cycles: 38521737 heartbeat IPC: 0.570337 cumulative IPC: 0.493388 (Simulation time: 0 hr 24 min 32 sec) 
Heartbeat CPU 0 instructions: 27000002 cycles: 40261000 heartbeat IPC: 0.574957 cumulative IPC: 0.49754 (Simulation time: 0 hr 25 min 32 sec) 
Heartbeat CPU 0 instructions: 28000000 cycles: 41968677 heartbeat IPC: 0.58559 cumulative IPC: 0.501731 (Simulation time: 0 hr 26 min 42 sec) 
Heartbeat CPU 0 instructions: 29000003 cycles: 43625731 heartbeat IPC: 0.603482 cumulative IPC: 0.506224 (Simulation time: 0 hr 27 min 52 sec) 
Heartbeat CPU 0 instructions: 30000000 cycles: 45393203 heartbeat IPC: 0.565778 cumulative IPC: 0.508902 (Simulation time: 0 hr 28 min 57 sec) 
Heartbeat CPU 0 instructions: 31000003 cycles: 47133643 heartbeat IPC: 0.574569 cumulative IPC: 0.511687 (Simulation time: 0 hr 29 min 56 sec) 
Heartbeat CPU 0 instructions: 32000000 cycles: 48871787 heartbeat IPC: 0.575325 cumulative IPC: 0.514273 (Simulation time: 0 hr 30 min 59 sec) 
Heartbeat CPU 0 instructions: 33000001 cycles: 50550840 heartbeat IPC: 0.595574 cumulative IPC: 0.517343 (Simulation time: 0 hr 31 min 55 sec) 
Heartbeat CPU 0 instructions: 34000002 cycles: 55970912 heartbeat IPC: 0.1845 cumulative IPC: 0.481174 (Simulation time: 0 hr 33 min 4 sec) 
Heartbeat CPU 0 instructions: 35000002 cycles: 58956941 heartbeat IPC: 0.334893 cumulative IPC: 0.472911 (Simulation time: 0 hr 34 min 9 sec) 
Heartbeat CPU 0 instructions: 36000000 cycles: 60694118 heartbeat IPC: 0.575645 cumulative IPC: 0.47618 (Simulation time: 0 hr 35 min 21 sec) 
Heartbeat CPU 0 instructions: 37000001 cycles: 62408300 heartbeat IPC: 0.583369 cumulative IPC: 0.479443 (Simulation time: 0 hr 36 min 20 sec) 
Heartbeat CPU 0 instructions: 38000003 cycles: 64061778 heartbeat IPC: 0.604787 cumulative IPC: 0.483018 (Simulation time: 0 hr 37 min 29 sec) 
Heartbeat CPU 0 instructions: 39000003 cycles: 65792146 heartbeat IPC: 0.577912 cumulative IPC: 0.485768 (Simulation time: 0 hr 38 min 44 sec) 
Heartbeat CPU 0 instructions: 40000000 cycles: 67531308 heartbeat IPC: 0.574988 cumulative IPC: 0.488294 (Simulation time: 0 hr 39 min 53 sec) 
Heartbeat CPU 0 instructions: 41000002 cycles: 69267835 heartbeat IPC: 0.575863 cumulative IPC: 0.490701 (Simulation time: 0 hr 40 min 51 sec) 
Heartbeat CPU 0 instructions: 42000000 cycles: 70947651 heartbeat IPC: 0.595302 cumulative IPC: 0.49341 (Simulation time: 0 hr 41 min 46 sec) 
Heartbeat CPU 0 instructions: 43000000 cycles: 72628898 heartbeat IPC: 0.594797 cumulative IPC: 0.495972 (Simulation time: 0 hr 42 min 42 sec) 
Heartbeat CPU 0 instructions: 44000000 cycles: 74366706 heartbeat IPC: 0.575438 cumulative IPC: 0.497995 (Simulation time: 0 hr 43 min 32 sec) 
Heartbeat CPU 0 instructions: 45000003 cycles: 76105992 heartbeat IPC: 0.57495 cumulative IPC: 0.499907 (Simulation time: 0 hr 44 min 23 sec) 
Heartbeat CPU 0 instructions: 46000002 cycles: 77836649 heartbeat IPC: 0.577815 cumulative IPC: 0.501786 (Simulation time: 0 hr 45 min 16 sec) 
Heartbeat CPU 0 instructions: 47000002 cycles: 82215496 heartbeat IPC: 0.228371 cumulative IPC: 0.486058 (Simulation time: 0 hr 46 min 20 sec) 
Heartbeat CPU 0 instructions: 48000000 cycles: 86180723 heartbeat IPC: 0.252192 cumulative IPC: 0.474479 (Simulation time: 0 hr 47 min 17 sec) 
Heartbeat CPU 0 instructions: 49000000 cycles: 87916894 heartbeat IPC: 0.57598 cumulative IPC: 0.476633 (Simulation time: 0 hr 48 min 8 sec) 
Heartbeat CPU 0 instructions: 50000000 cycles: 89655415 heartbeat IPC: 0.575202 cumulative IPC: 0.478684 (Simulation time: 0 hr 48 min 57 sec) 
Heartbeat CPU 0 instructions: 51000000 cycles: 91341116 heartbeat IPC: 0.593225 cumulative IPC: 0.480949 (Simulation time: 0 hr 49 min 47 sec) 
Heartbeat CPU 0 instructions: 52000000 cycles: 93019243 heartbeat IPC: 0.595902 cumulative IPC: 0.483168 (Simulation time: 0 hr 50 min 38 sec) 
Heartbeat CPU 0 instructions: 53000003 cycles: 94755345 heartbeat IPC: 0.576005 cumulative IPC: 0.484986 (Simulation time: 0 hr 51 min 29 sec) 
Heartbeat CPU 0 instructions: 54000001 cycles: 96491521 heartbeat IPC: 0.575977 cumulative IPC: 0.486733 (Simulation time: 0 hr 52 min 20 sec) 
Heartbeat CPU 0 instructions: 55000000 cycles: 98225513 heartbeat IPC: 0.576703 cumulative IPC: 0.488426 (Simulation time: 0 hr 53 min 13 sec) 
Heartbeat CPU 0 instructions: 56000000 cycles: 99881970 heartbeat IPC: 0.603698 cumulative IPC: 0.490462 (Simulation time: 0 hr 54 min 1 sec) 
Heartbeat CPU 0 instructions: 57000000 cycles: 101592105 heartbeat IPC: 0.584749 cumulative IPC: 0.492151 (Simulation time: 0 hr 54 min 56 sec) 
Heartbeat CPU 0 instructions: 58000002 cycles: 103330180 heartbeat IPC: 0.57535 cumulative IPC: 0.493638 (Simulation time: 0 hr 55 min 50 sec) 
Heartbeat CPU 0 instructions: 59000001 cycles: 105068343 heartbeat IPC: 0.575319 cumulative IPC: 0.495072 (Simulation time: 0 hr 56 min 47 sec) 
Heartbeat CPU 0 instructions: 60000000 cycles: 108428340 heartbeat IPC: 0.297619 cumulative IPC: 0.488589 (Simulation time: 0 hr 57 min 40 sec) 
Heartbeat CPU 0 instructions: 61000001 cycles: 113399505 heartbeat IPC: 0.20116 cumulative IPC: 0.475274 (Simulation time: 0 hr 58 min 45 sec) 
Heartbeat CPU 0 instructions: 62000000 cycles: 115134168 heartbeat IPC: 0.57648 cumulative IPC: 0.476884 (Simulation time: 0 hr 59 min 34 sec) 
Heartbeat CPU 0 instructions: 63000000 cycles: 116873122 heartbeat IPC: 0.575058 cumulative IPC: 0.478425 (Simulation time: 1 hr 0 min 24 sec) 
Heartbeat CPU 0 instructions: 64000000 cycles: 118605176 heartbeat IPC: 0.577349 cumulative IPC: 0.479948 (Simulation time: 1 hr 1 min 12 sec) 
Heartbeat CPU 0 instructions: 65000002 cycles: 120265533 heartbeat IPC: 0.602281 cumulative IPC: 0.481727 (Simulation time: 1 hr 2 min 1 sec) 
Heartbeat CPU 0 instructions: 66000003 cycles: 121970020 heartbeat IPC: 0.586687 cumulative IPC: 0.483271 (Simulation time: 1 hr 2 min 49 sec) 
Heartbeat CPU 0 instructions: 67000001 cycles: 123707451 heartbeat IPC: 0.575561 cumulative IPC: 0.484634 (Simulation time: 1 hr 3 min 38 sec) 
Heartbeat CPU 0 instructions: 68000000 cycles: 125446514 heartbeat IPC: 0.575022 cumulative IPC: 0.485951 (Simulation time: 1 hr 4 min 30 sec) 
Heartbeat CPU 0 instructions: 69000003 cycles: 127162894 heartbeat IPC: 0.582623 cumulative IPC: 0.487321 (Simulation time: 1 hr 5 min 20 sec) 
Heartbeat CPU 0 instructions: 70000000 cycles: 128816278 heartbeat IPC: 0.604818 cumulative IPC: 0.488904 (Simulation time: 1 hr 6 min 8 sec) 
Heartbeat CPU 0 instructions: 71000002 cycles: 130544604 heartbeat IPC: 0.578596 cumulative IPC: 0.49015 (Simulation time: 1 hr 6 min 57 sec) 
Heartbeat CPU 0 instructions: 72000000 cycles: 132283271 heartbeat IPC: 0.575152 cumulative IPC: 0.491321 (Simulation time: 1 hr 7 min 46 sec) 
Heartbeat CPU 0 instructions: 73000001 cycles: 134751675 heartbeat IPC: 0.40512 cumulative IPC: 0.489667 (Simulation time: 1 hr 8 min 35 sec) 
Heartbeat CPU 0 instructions: 74000002 cycles: 140675214 heartbeat IPC: 0.168818 cumulative IPC: 0.475545 (Simulation time: 1 hr 9 min 25 sec) 
Heartbeat CPU 0 instructions: 75000002 cycles: 142373609 heartbeat IPC: 0.588791 cumulative IPC: 0.476957 (Simulation time: 1 hr 10 min 6 sec) 
Heartbeat CPU 0 instructions: 76000000 cycles: 144112968 heartbeat IPC: 0.574923 cumulative IPC: 0.478191 (Simulation time: 1 hr 10 min 44 sec) 
Heartbeat CPU 0 instructions: 77000001 cycles: 145851259 heartbeat IPC: 0.575278 cumulative IPC: 0.479399 (Simulation time: 1 hr 11 min 22 sec) 
Heartbeat CPU 0 instructions: 78000000 cycles: 147573551 heartbeat IPC: 0.580621 cumulative IPC: 0.480631 (Simulation time: 1 hr 11 min 55 sec) 
Heartbeat CPU 0 instructions: 79000003 cycles: 149220726 heartbeat IPC: 0.607102 cumulative IPC: 0.482087 (Simulation time: 1 hr 12 min 28 sec) 
Heartbeat CPU 0 instructions: 80000000 cycles: 150951697 heartbeat IPC: 0.577709 cumulative IPC: 0.483229 (Simulation time: 1 hr 13 min 0 sec) 
Heartbeat CPU 0 instructions: 81000002 cycles: 152690667 heartbeat IPC: 0.575054 cumulative IPC: 0.484318 (Simulation time: 1 hr 13 min 34 sec) 
Heartbeat CPU 0 instructions: 82000000 cycles: 154429567 heartbeat IPC: 0.575075 cumulative IPC: 0.485382 (Simulation time: 1 hr 14 min 6 sec) 
Heartbeat CPU 0 instructions: 83000000 cycles: 156116649 heartbeat IPC: 0.592739 cumulative IPC: 0.48659 (Simulation time: 1 hr 14 min 37 sec) 
Heartbeat CPU 0 instructions: 84000000 cycles: 157792945 heartbeat IPC: 0.596553 cumulative IPC: 0.487805 (Simulation time: 1 hr 15 min 6 sec) 
Heartbeat CPU 0 instructions: 85000003 cycles: 159553490 heartbeat IPC: 0.568008 cumulative IPC: 0.488725 (Simulation time: 1 hr 15 min 37 sec) 
Heartbeat CPU 0 instructions: 86000000 cycles: 161292941 heartbeat IPC: 0.574892 cumulative IPC: 0.489691 (Simulation time: 1 hr 16 min 6 sec) 
Heartbeat CPU 0 instructions: 87000001 cycles: 168045464 heartbeat IPC: 0.148093 cumulative IPC: 0.475448 (Simulation time: 1 hr 16 min 41 sec) 
Heartbeat CPU 0 instructions: 88000000 cycles: 169691706 heartbeat IPC: 0.607444 cumulative IPC: 0.476776 (Simulation time: 1 hr 17 min 8 sec) 
Heartbeat CPU 0 instructions: 89000002 cycles: 171419126 heartbeat IPC: 0.578899 cumulative IPC: 0.477843 (Simulation time: 1 hr 17 min 35 sec) 
Heartbeat CPU 0 instructions: 90000001 cycles: 173184165 heartbeat IPC: 0.566559 cumulative IPC: 0.47878 (Simulation time: 1 hr 18 min 1 sec) 
Heartbeat CPU 0 instructions: 91000002 cycles: 174922769 heartbeat IPC: 0.575175 cumulative IPC: 0.479773 (Simulation time: 1 hr 18 min 24 sec) 
Heartbeat CPU 0 instructions: 92000000 cycles: 176617278 heartbeat IPC: 0.59014 cumulative IPC: 0.48087 (Simulation time: 1 hr 18 min 46 sec) 
Heartbeat CPU 0 instructions: 93000002 cycles: 178288603 heartbeat IPC: 0.598329 cumulative IPC: 0.48201 (Simulation time: 1 hr 19 min 8 sec) 
Heartbeat CPU 0 instructions: 94000002 cycles: 180023779 heartbeat IPC: 0.57631 cumulative IPC: 0.482951 (Simulation time: 1 hr 19 min 29 sec) 
Heartbeat CPU 0 instructions: 95000003 cycles: 181763273 heartbeat IPC: 0.57488 cumulative IPC: 0.483861 (Simulation time: 1 hr 19 min 47 sec) 
Heartbeat CPU 0 instructions: 96000000 cycles: 183498387 heartbeat IPC: 0.576329 cumulative IPC: 0.484765 (Simulation time: 1 hr 20 min 5 sec) 
Heartbeat CPU 0 instructions: 97000003 cycles: 185160164 heartbeat IPC: 0.601767 cumulative IPC: 0.485851 (Simulation time: 1 hr 20 min 22 sec) 
Heartbeat CPU 0 instructions: 98000003 cycles: 186861283 heartbeat IPC: 0.587848 cumulative IPC: 0.486811 (Simulation time: 1 hr 20 min 38 sec) 
Heartbeat CPU 0 instructions: 99000000 cycles: 188599090 heartbeat IPC: 0.575436 cumulative IPC: 0.487655 (Simulation time: 1 hr 20 min 53 sec) 
Heartbeat CPU 0 instructions: 100000000 cycles: 195364015 heartbeat IPC: 0.147821 cumulative IPC: 0.475508 (Simulation time: 1 hr 21 min 9 sec) 
Heartbeat CPU 0 instructions: 101000000 cycles: 197060905 heartbeat IPC: 0.589313 cumulative IPC: 0.47652 (Simulation time: 1 hr 21 min 23 sec) 
Heartbeat CPU 0 instructions: 102000003 cycles: 198729187 heartbeat IPC: 0.599421 cumulative IPC: 0.477584 (Simulation time: 1 hr 21 min 36 sec) 
Heartbeat CPU 0 instructions: 103000000 cycles: 200462195 heartbeat IPC: 0.57703 cumulative IPC: 0.478471 (Simulation time: 1 hr 21 min 49 sec) 
Heartbeat CPU 0 instructions: 104000000 cycles: 202201235 heartbeat IPC: 0.57503 cumulative IPC: 0.479327 (Simulation time: 1 hr 22 min 1 sec) 
Heartbeat CPU 0 instructions: 105000001 cycles: 203936228 heartbeat IPC: 0.576372 cumulative IPC: 0.480178 (Simulation time: 1 hr 22 min 12 sec) 
Heartbeat CPU 0 instructions: 106000000 cycles: 205603892 heartbeat IPC: 0.599641 cumulative IPC: 0.481177 (Simulation time: 1 hr 22 min 23 sec) 
Heartbeat CPU 0 instructions: 107000001 cycles: 207299833 heartbeat IPC: 0.589644 cumulative IPC: 0.482091 (Simulation time: 1 hr 22 min 32 sec) 
Heartbeat CPU 0 instructions: 108000000 cycles: 209038538 heartbeat IPC: 0.57514 cumulative IPC: 0.482888 (Simulation time: 1 hr 22 min 40 sec) 
Heartbeat CPU 0 instructions: 109000002 cycles: 210777946 heartbeat IPC: 0.574909 cumulative IPC: 0.48367 (Simulation time: 1 hr 22 min 48 sec) 
Heartbeat CPU 0 instructions: 110000001 cycles: 212503710 heartbeat IPC: 0.579453 cumulative IPC: 0.484471 (Simulation time: 1 hr 22 min 56 sec) 
Finished CPU 0 instructions: 100000003 cycles: 206410798 cummulative IPC: 0.484471 (Simulation time: 1 hr 22 min 56 sec) 

ChampSim completed all CPUs

Region of Interest Statistics

CPU 0 cummulative IPC: 0.484471 instructions: 100000003 cycles: 206410798
LLC TOTAL     ACCESS:    1107525  HIT:     334454  MISS:     773071
LLC LOAD      ACCESS:      23223  HIT:       3601  MISS:      19622
LLC RFO       ACCESS:     245174  HIT:      66503  MISS:     178671
LLC PREFETCH  ACCESS:     593617  HIT:     161213  MISS:     432404
LLC WRITEBACK ACCESS:     245511  HIT:     103137  MISS:     142374
Insertion Distribution: 
	LOAD 0 0 3894 17246 
	RFO 20391 0 22334 166630 
	PREF 0 33552 69117 395194 
	WRITEBACK 0 0 0 151137 
Total Prefetch Downgrades: 36350
