Initialize SIGNATURE TABLE
ST_SET: 1
ST_WAY: 256
ST_TAG_BIT: 16
ST_TAG_MASK: ffff

Initialize PATTERN TABLE
PT_SET: 512
PT_WAY: 4
SIG_DELTA_BIT: 7
C_SIG_BIT: 4
C_DELTA_BIT: 4

Initialize PREFETCH FILTER
FILTER_SET: 1024

*** ChampSim Multicore Out-of-Order Simulator ***

Warmup Instructions: 50000000
Simulation Instructions: 50000000
Number of CPUs: 1
LLC sets: 2048
LLC ways: 16
Off-chip DRAM Size: 4096 MB Channels: 1 Width: 64-bit Data Rate: 3200 MT/s

CPU 0 runs /Users/gandhardeshpande/Desktop/CSE240C/HW1/ChampSim/ipc1_public/client_001.champsimtrace.xz
CPU 0 L1D next line prefetcher
Heartbeat CPU 0 instructions: 10000003 cycles: 3409986 heartbeat IPC: 2.93256 cumulative IPC: 2.93256 (Simulation time: 0 hr 0 min 17 sec) 
Heartbeat CPU 0 instructions: 20000001 cycles: 7118116 heartbeat IPC: 2.69678 cumulative IPC: 2.80973 (Simulation time: 0 hr 0 min 34 sec) 
Heartbeat CPU 0 instructions: 30000001 cycles: 10480314 heartbeat IPC: 2.97424 cumulative IPC: 2.86251 (Simulation time: 0 hr 0 min 49 sec) 
Heartbeat CPU 0 instructions: 40000003 cycles: 14349762 heartbeat IPC: 2.58435 cumulative IPC: 2.7875 (Simulation time: 0 hr 1 min 7 sec) 
Heartbeat CPU 0 instructions: 50000003 cycles: 17646290 heartbeat IPC: 3.03349 cumulative IPC: 2.83346 (Simulation time: 0 hr 1 min 22 sec) 

Warmup complete CPU 0 instructions: 50000003 cycles: 17646290 (Simulation time: 0 hr 1 min 22 sec) 

Heartbeat CPU 0 instructions: 60000000 cycles: 26667321 heartbeat IPC: 1.10852 cumulative IPC: 1.10852 (Simulation time: 0 hr 1 min 40 sec) 
Heartbeat CPU 0 instructions: 70000000 cycles: 32980455 heartbeat IPC: 1.584 cumulative IPC: 1.30428 (Simulation time: 0 hr 1 min 53 sec) 
Heartbeat CPU 0 instructions: 80000002 cycles: 42312604 heartbeat IPC: 1.07156 cumulative IPC: 1.21623 (Simulation time: 0 hr 2 min 14 sec) 
Heartbeat CPU 0 instructions: 90000000 cycles: 48479262 heartbeat IPC: 1.62162 cumulative IPC: 1.29731 (Simulation time: 0 hr 2 min 26 sec) 
Heartbeat CPU 0 instructions: 100000002 cycles: 57336717 heartbeat IPC: 1.12899 cumulative IPC: 1.25975 (Simulation time: 0 hr 2 min 43 sec) 
Finished CPU 0 instructions: 50000003 cycles: 39690428 cumulative IPC: 1.25975 (Simulation time: 0 hr 2 min 43 sec) 

ChampSim completed all CPUs

Region of Interest Statistics

CPU 0 cumulative IPC: 1.25975 instructions: 50000003 cycles: 39690428
L1D TOTAL     ACCESS:   21241301  HIT:   20404880  MISS:     836421
L1D LOAD      ACCESS:    8822103  HIT:    8427490  MISS:     394613
L1D RFO       ACCESS:    4040180  HIT:    3981126  MISS:      59054
L1D PREFETCH  ACCESS:    8379018  HIT:    7996264  MISS:     382754
L1D WRITEBACK ACCESS:          0  HIT:          0  MISS:          0
L1D PREFETCH  REQUESTED:    8867520  ISSUED:    8557802  USEFUL:     129746  USELESS:     252982
L1D AVERAGE MISS LATENCY: 47.5314 cycles
L1I TOTAL     ACCESS:    9322362  HIT:    8958391  MISS:     363971
L1I LOAD      ACCESS:    8916424  HIT:    8886754  MISS:      29670
L1I RFO       ACCESS:          0  HIT:          0  MISS:          0
L1I PREFETCH  ACCESS:     405938  HIT:      71637  MISS:     334301
L1I WRITEBACK ACCESS:          0  HIT:          0  MISS:          0
L1I PREFETCH  REQUESTED:     459239  ISSUED:     459239  USEFUL:     270411  USELESS:      63906
L1I AVERAGE MISS LATENCY: 20.4071 cycles
L2C TOTAL     ACCESS:    1846437  HIT:    1540696  MISS:     305741
L2C LOAD      ACCESS:     381690  HIT:     268783  MISS:     112907
L2C RFO       ACCESS:      58277  HIT:      21116  MISS:      37161
L2C PREFETCH  ACCESS:    1216888  HIT:    1061417  MISS:     155471
L2C WRITEBACK ACCESS:     189582  HIT:     189380  MISS:        202
L2C PREFETCH  REQUESTED:    1484806  ISSUED:    1481019  USEFUL:      13575  USELESS:     140876
L2C AVERAGE MISS LATENCY: 104.261 cycles
LLC TOTAL     ACCESS:     808775  HIT:     612526  MISS:     196249
LLC LOAD      ACCESS:     112585  HIT:      71119  MISS:      41466
LLC RFO       ACCESS:      37160  HIT:       8987  MISS:      28173
LLC PREFETCH  ACCESS:     552616  HIT:     426626  MISS:     125990
LLC WRITEBACK ACCESS:     106414  HIT:     105794  MISS:        620
LLC PREFETCH  REQUESTED:          0  ISSUED:          0  USEFUL:      28467  USELESS:      99579
LLC AVERAGE MISS LATENCY: 187.088 cycles
Major fault: 0 Minor fault: 3433
CPU 0 L1D next line prefetcher final stats

DRAM Statistics
 CHANNEL 0
 RQ ROW_BUFFER_HIT:      47887  ROW_BUFFER_MISS:     147736
 DBUS_CONGESTED:     118031
 WQ ROW_BUFFER_HIT:      15721  ROW_BUFFER_MISS:      65181  FULL:          0

 AVG_CONGESTED_CYCLE: 5

CPU 0 Branch Prediction Accuracy: 97.9037% MPKI: 3.63418 Average ROB Occupancy at Mispredict: 86.6358

Branch types
NOT_BRANCH: 41331383 82.6628%
BRANCH_DIRECT_JUMP: 455615 0.91123%
BRANCH_INDIRECT: 20390 0.04078%
BRANCH_CONDITIONAL: 6745374 13.4907%
BRANCH_DIRECT_CALL: 494532 0.989064%
BRANCH_INDIRECT_CALL: 228815 0.45763%
BRANCH_RETURN: 723560 1.44712%
BRANCH_OTHER: 0 0%

