Initialize SIGNATURE TABLE
ST_SET: 1
ST_WAY: 256
ST_TAG_BIT: 16
ST_TAG_MASK: ffff

Initialize PATTERN TABLE
PT_SET: 512
PT_WAY: 4
SIG_DELTA_BIT: 7
C_SIG_BIT: 4
C_DELTA_BIT: 4

Initialize PREFETCH FILTER
FILTER_SET: 1024

*** ChampSim Multicore Out-of-Order Simulator ***

Warmup Instructions: 50000000
Simulation Instructions: 50000000
Number of CPUs: 1
LLC sets: 2048
LLC ways: 16
Off-chip DRAM Size: 4096 MB Channels: 1 Width: 64-bit Data Rate: 3200 MT/s

CPU 0 runs /Users/gandhardeshpande/Desktop/CSE240C/HW1/ChampSim/ipc1_public/client_005.champsimtrace.xz
CPU 0 L1D next line prefetcher
Heartbeat CPU 0 instructions: 10000001 cycles: 3291739 heartbeat IPC: 3.03791 cumulative IPC: 3.03791 (Simulation time: 0 hr 0 min 17 sec) 
Heartbeat CPU 0 instructions: 20000002 cycles: 6699541 heartbeat IPC: 2.93444 cumulative IPC: 2.98528 (Simulation time: 0 hr 0 min 36 sec) 
Heartbeat CPU 0 instructions: 30000001 cycles: 10392827 heartbeat IPC: 2.70762 cumulative IPC: 2.88661 (Simulation time: 0 hr 0 min 57 sec) 
Heartbeat CPU 0 instructions: 40000000 cycles: 14070729 heartbeat IPC: 2.71894 cumulative IPC: 2.84278 (Simulation time: 0 hr 1 min 17 sec) 
Heartbeat CPU 0 instructions: 50000001 cycles: 17344541 heartbeat IPC: 3.05454 cumulative IPC: 2.88275 (Simulation time: 0 hr 1 min 36 sec) 

Warmup complete CPU 0 instructions: 50000001 cycles: 17344541 (Simulation time: 0 hr 1 min 36 sec) 

Heartbeat CPU 0 instructions: 60000002 cycles: 24963831 heartbeat IPC: 1.31246 cumulative IPC: 1.31246 (Simulation time: 0 hr 1 min 53 sec) 
Heartbeat CPU 0 instructions: 70000003 cycles: 32239408 heartbeat IPC: 1.37446 cumulative IPC: 1.34274 (Simulation time: 0 hr 2 min 11 sec) 
Heartbeat CPU 0 instructions: 80000001 cycles: 39101645 heartbeat IPC: 1.45725 cumulative IPC: 1.37886 (Simulation time: 0 hr 2 min 31 sec) 
Heartbeat CPU 0 instructions: 90000002 cycles: 48601910 heartbeat IPC: 1.0526 cumulative IPC: 1.2797 (Simulation time: 0 hr 2 min 52 sec) 
Heartbeat CPU 0 instructions: 100000002 cycles: 56158457 heartbeat IPC: 1.32336 cumulative IPC: 1.2882 (Simulation time: 0 hr 3 min 9 sec) 
Finished CPU 0 instructions: 50000001 cycles: 38813916 cumulative IPC: 1.2882 (Simulation time: 0 hr 3 min 9 sec) 

ChampSim completed all CPUs

Region of Interest Statistics

CPU 0 cumulative IPC: 1.2882 instructions: 50000001 cycles: 38813916
L1D TOTAL     ACCESS:   19604040  HIT:   19068319  MISS:     535721
L1D LOAD      ACCESS:    6632956  HIT:    6461042  MISS:     171914
L1D RFO       ACCESS:    6789097  HIT:    6604416  MISS:     184681
L1D PREFETCH  ACCESS:    6181987  HIT:    6002861  MISS:     179126
L1D WRITEBACK ACCESS:          0  HIT:          0  MISS:          0
L1D PREFETCH  REQUESTED:    6656665  ISSUED:    6288257  USEFUL:      59089  USELESS:     119926
L1D AVERAGE MISS LATENCY: 94.9524 cycles
L1I TOTAL     ACCESS:   10935254  HIT:    9541218  MISS:    1394036
L1I LOAD      ACCESS:    9312227  HIT:    9166236  MISS:     145991
L1I RFO       ACCESS:          0  HIT:          0  MISS:          0
L1I PREFETCH  ACCESS:    1623027  HIT:     374982  MISS:    1248045
L1I WRITEBACK ACCESS:          0  HIT:          0  MISS:          0
L1I PREFETCH  REQUESTED:    1851596  ISSUED:    1851596  USEFUL:     728714  USELESS:     519293
L1I AVERAGE MISS LATENCY: 17.7449 cycles
L2C TOTAL     ACCESS:    2693068  HIT:    2311852  MISS:     381216
L2C LOAD      ACCESS:     218442  HIT:     133216  MISS:      85226
L2C RFO       ACCESS:     180976  HIT:      31418  MISS:     149558
L2C PREFETCH  ACCESS:    2040589  HIT:    1895198  MISS:     145391
L2C WRITEBACK ACCESS:     253061  HIT:     252020  MISS:       1041
L2C PREFETCH  REQUESTED:    1206893  ISSUED:    1206704  USEFUL:      10478  USELESS:     132700
L2C AVERAGE MISS LATENCY: 131.382 cycles
LLC TOTAL     ACCESS:     854662  HIT:     561201  MISS:     293461
LLC LOAD      ACCESS:      85204  HIT:      41871  MISS:      43333
LLC RFO       ACCESS:     149554  HIT:      15312  MISS:     134242
LLC PREFETCH  ACCESS:     420524  HIT:     305462  MISS:     115062
LLC WRITEBACK ACCESS:     199380  HIT:     198556  MISS:        824
LLC PREFETCH  REQUESTED:          0  ISSUED:          0  USEFUL:      21900  USELESS:      89600
LLC AVERAGE MISS LATENCY: 169.516 cycles
Major fault: 0 Minor fault: 6084
CPU 0 L1D next line prefetcher final stats

DRAM Statistics
 CHANNEL 0
 RQ ROW_BUFFER_HIT:      95347  ROW_BUFFER_MISS:     197285
 DBUS_CONGESTED:     230653
 WQ ROW_BUFFER_HIT:      53096  ROW_BUFFER_MISS:     128676  FULL:          0

 AVG_CONGESTED_CYCLE: 6

CPU 0 Branch Prediction Accuracy: 97.8666% MPKI: 3.9013 Average ROB Occupancy at Mispredict: 90.7405

Branch types
NOT_BRANCH: 40856330 81.7127%
BRANCH_DIRECT_JUMP: 484667 0.969334%
BRANCH_INDIRECT: 85086 0.170172%
BRANCH_CONDITIONAL: 6230887 12.4618%
BRANCH_DIRECT_CALL: 1028917 2.05783%
BRANCH_INDIRECT_CALL: 141825 0.28365%
BRANCH_RETURN: 1171986 2.34397%
BRANCH_OTHER: 0 0%

