Initialize SIGNATURE TABLE
ST_SET: 1
ST_WAY: 256
ST_TAG_BIT: 16
ST_TAG_MASK: ffff

Initialize PATTERN TABLE
PT_SET: 512
PT_WAY: 4
SIG_DELTA_BIT: 7
C_SIG_BIT: 4
C_DELTA_BIT: 4

Initialize PREFETCH FILTER
FILTER_SET: 1024

*** ChampSim Multicore Out-of-Order Simulator ***

Warmup Instructions: 50000000
Simulation Instructions: 50000000
Number of CPUs: 1
LLC sets: 2048
LLC ways: 16
Off-chip DRAM Size: 4096 MB Channels: 1 Width: 64-bit Data Rate: 3200 MT/s

CPU 0 runs /Users/gandhardeshpande/Desktop/CSE240C/HW1/ChampSim/ipc1_public/server_036.champsimtrace.xz
CPU 0 L1D next line prefetcher
Heartbeat CPU 0 instructions: 10000000 cycles: 3459009 heartbeat IPC: 2.891 cumulative IPC: 2.891 (Simulation time: 0 hr 0 min 18 sec) 
Heartbeat CPU 0 instructions: 20000000 cycles: 6924804 heartbeat IPC: 2.88534 cumulative IPC: 2.88817 (Simulation time: 0 hr 0 min 36 sec) 
Heartbeat CPU 0 instructions: 30000003 cycles: 10432961 heartbeat IPC: 2.8505 cumulative IPC: 2.8755 (Simulation time: 0 hr 0 min 54 sec) 
Heartbeat CPU 0 instructions: 40000000 cycles: 13895473 heartbeat IPC: 2.88808 cumulative IPC: 2.87864 (Simulation time: 0 hr 1 min 12 sec) 
Heartbeat CPU 0 instructions: 50000002 cycles: 17357190 heartbeat IPC: 2.88874 cumulative IPC: 2.88065 (Simulation time: 0 hr 1 min 30 sec) 

Warmup complete CPU 0 instructions: 50000002 cycles: 17357190 (Simulation time: 0 hr 1 min 30 sec) 

Heartbeat CPU 0 instructions: 60000002 cycles: 23128668 heartbeat IPC: 1.73266 cumulative IPC: 1.73266 (Simulation time: 0 hr 1 min 46 sec) 
Heartbeat CPU 0 instructions: 70000001 cycles: 28856951 heartbeat IPC: 1.74572 cumulative IPC: 1.73917 (Simulation time: 0 hr 2 min 1 sec) 
Heartbeat CPU 0 instructions: 80000001 cycles: 34598866 heartbeat IPC: 1.74158 cumulative IPC: 1.73997 (Simulation time: 0 hr 2 min 17 sec) 
Heartbeat CPU 0 instructions: 90000002 cycles: 40306064 heartbeat IPC: 1.75217 cumulative IPC: 1.743 (Simulation time: 0 hr 2 min 33 sec) 
Heartbeat CPU 0 instructions: 100000001 cycles: 46015257 heartbeat IPC: 1.75156 cumulative IPC: 1.74471 (Simulation time: 0 hr 2 min 48 sec) 
Finished CPU 0 instructions: 50000003 cycles: 28658068 cumulative IPC: 1.74471 (Simulation time: 0 hr 2 min 48 sec) 

ChampSim completed all CPUs

Region of Interest Statistics

CPU 0 cumulative IPC: 1.74471 instructions: 50000003 cycles: 28658068
L1D TOTAL     ACCESS:   20977201  HIT:   20917221  MISS:      59980
L1D LOAD      ACCESS:    6907273  HIT:    6872553  MISS:      34720
L1D RFO       ACCESS:    7352385  HIT:    7345182  MISS:       7203
L1D PREFETCH  ACCESS:    6717543  HIT:    6699486  MISS:      18057
L1D WRITEBACK ACCESS:          0  HIT:          0  MISS:          0
L1D PREFETCH  REQUESTED:    6908240  ISSUED:    6750522  USEFUL:       5446  USELESS:      12612
L1D AVERAGE MISS LATENCY: 18.753 cycles
L1I TOTAL     ACCESS:   13597497  HIT:    9431345  MISS:    4166152
L1I LOAD      ACCESS:    8835707  HIT:    8371420  MISS:     464287
L1I RFO       ACCESS:          0  HIT:          0  MISS:          0
L1I PREFETCH  ACCESS:    4761790  HIT:    1059925  MISS:    3701865
L1I WRITEBACK ACCESS:          0  HIT:          0  MISS:          0
L1I PREFETCH  REQUESTED:    5645239  ISSUED:    5645239  USEFUL:    3391005  USELESS:     310869
L1I AVERAGE MISS LATENCY: 13.3775 cycles
L2C TOTAL     ACCESS:    5816245  HIT:    5814010  MISS:       2235
L2C LOAD      ACCESS:     143660  HIT:     143291  MISS:        369
L2C RFO       ACCESS:       7196  HIT:       7147  MISS:         49
L2C PREFETCH  ACCESS:    5649795  HIT:    5647988  MISS:       1807
L2C WRITEBACK ACCESS:      15594  HIT:      15584  MISS:         10
L2C PREFETCH  REQUESTED:    3931926  ISSUED:    3930999  USEFUL:        137  USELESS:        973
L2C AVERAGE MISS LATENCY: 179.945 cycles
LLC TOTAL     ACCESS:     837753  HIT:     834661  MISS:       3092
LLC LOAD      ACCESS:        368  HIT:        126  MISS:        242
LLC RFO       ACCESS:         49  HIT:         20  MISS:         29
LLC PREFETCH  ACCESS:     836501  HIT:     833690  MISS:       2811
LLC WRITEBACK ACCESS:        835  HIT:        825  MISS:         10
LLC PREFETCH  REQUESTED:          0  ISSUED:          0  USEFUL:         51  USELESS:        787
LLC AVERAGE MISS LATENCY: 259.358 cycles
Major fault: 0 Minor fault: 1926
CPU 0 L1D next line prefetcher final stats

DRAM Statistics
 CHANNEL 0
 RQ ROW_BUFFER_HIT:        628  ROW_BUFFER_MISS:       2454
 DBUS_CONGESTED:       1619
 WQ ROW_BUFFER_HIT:        231  ROW_BUFFER_MISS:       1717  FULL:          0

 AVG_CONGESTED_CYCLE: 6

CPU 0 Branch Prediction Accuracy: 99.8717% MPKI: 0.21174 Average ROB Occupancy at Mispredict: 209.962

Branch types
NOT_BRANCH: 41748435 83.4969%
BRANCH_DIRECT_JUMP: 468563 0.937126%
BRANCH_INDIRECT: 0 0%
BRANCH_CONDITIONAL: 5599754 11.1995%
BRANCH_DIRECT_CALL: 885105 1.77021%
BRANCH_INDIRECT_CALL: 206338 0.412676%
BRANCH_RETURN: 1091467 2.18293%
BRANCH_OTHER: 0 0%

