Initialize SIGNATURE TABLE
ST_SET: 1
ST_WAY: 256
ST_TAG_BIT: 16
ST_TAG_MASK: ffff

Initialize PATTERN TABLE
PT_SET: 512
PT_WAY: 4
SIG_DELTA_BIT: 7
C_SIG_BIT: 4
C_DELTA_BIT: 4

Initialize PREFETCH FILTER
FILTER_SET: 1024

*** ChampSim Multicore Out-of-Order Simulator ***

Warmup Instructions: 50000000
Simulation Instructions: 50000000
Number of CPUs: 1
LLC sets: 2048
LLC ways: 16
Off-chip DRAM Size: 4096 MB Channels: 1 Width: 64-bit Data Rate: 3200 MT/s

CPU 0 runs /Users/gandhardeshpande/Desktop/CSE240C/HW1/ChampSim/ipc1_public/server_023.champsimtrace.xz
CPU 0 L1D next line prefetcher
Heartbeat CPU 0 instructions: 10000000 cycles: 3500149 heartbeat IPC: 2.85702 cumulative IPC: 2.85702 (Simulation time: 0 hr 0 min 19 sec) 
Heartbeat CPU 0 instructions: 20000000 cycles: 7000489 heartbeat IPC: 2.85687 cumulative IPC: 2.85694 (Simulation time: 0 hr 0 min 37 sec) 
Heartbeat CPU 0 instructions: 30000001 cycles: 10494040 heartbeat IPC: 2.86242 cumulative IPC: 2.85877 (Simulation time: 0 hr 0 min 56 sec) 
Heartbeat CPU 0 instructions: 40000003 cycles: 13993334 heartbeat IPC: 2.85772 cumulative IPC: 2.8585 (Simulation time: 0 hr 1 min 15 sec) 
Heartbeat CPU 0 instructions: 50000001 cycles: 17494977 heartbeat IPC: 2.8558 cumulative IPC: 2.85796 (Simulation time: 0 hr 1 min 33 sec) 

Warmup complete CPU 0 instructions: 50000001 cycles: 17494977 (Simulation time: 0 hr 1 min 33 sec) 

Heartbeat CPU 0 instructions: 60000002 cycles: 24278422 heartbeat IPC: 1.47418 cumulative IPC: 1.47418 (Simulation time: 0 hr 1 min 52 sec) 
Heartbeat CPU 0 instructions: 70000002 cycles: 31282563 heartbeat IPC: 1.42773 cumulative IPC: 1.45058 (Simulation time: 0 hr 2 min 10 sec) 
Heartbeat CPU 0 instructions: 80000000 cycles: 38185759 heartbeat IPC: 1.4486 cumulative IPC: 1.44992 (Simulation time: 0 hr 2 min 29 sec) 
Heartbeat CPU 0 instructions: 90000000 cycles: 45105427 heartbeat IPC: 1.44516 cumulative IPC: 1.44873 (Simulation time: 0 hr 2 min 46 sec) 
Heartbeat CPU 0 instructions: 100000001 cycles: 51980745 heartbeat IPC: 1.45448 cumulative IPC: 1.44987 (Simulation time: 0 hr 3 min 10 sec) 
Finished CPU 0 instructions: 50000000 cycles: 34485768 cumulative IPC: 1.44987 (Simulation time: 0 hr 3 min 10 sec) 

ChampSim completed all CPUs

Region of Interest Statistics

CPU 0 cumulative IPC: 1.44987 instructions: 50000000 cycles: 34485768
L1D TOTAL     ACCESS:   19445891  HIT:   17979192  MISS:    1466699
L1D LOAD      ACCESS:    6889435  HIT:    6228541  MISS:     660894
L1D RFO       ACCESS:    5986722  HIT:    5725239  MISS:     261483
L1D PREFETCH  ACCESS:    6569734  HIT:    6025412  MISS:     544322
L1D WRITEBACK ACCESS:          0  HIT:          0  MISS:          0
L1D PREFETCH  REQUESTED:    6938861  ISSUED:    6820666  USEFUL:     130072  USELESS:     414258
L1D AVERAGE MISS LATENCY: 24.2611 cycles
L1I TOTAL     ACCESS:   12700714  HIT:    9561021  MISS:    3139693
L1I LOAD      ACCESS:    9337713  HIT:    8989452  MISS:     348261
L1I RFO       ACCESS:          0  HIT:          0  MISS:          0
L1I PREFETCH  ACCESS:    3363001  HIT:     571569  MISS:    2791432
L1I WRITEBACK ACCESS:          0  HIT:          0  MISS:          0
L1I PREFETCH  REQUESTED:    3975139  ISSUED:    3975139  USEFUL:    2130626  USELESS:     660764
L1I AVERAGE MISS LATENCY: 16.0818 cycles
L2C TOTAL     ACCESS:    6233575  HIT:    5586621  MISS:     646954
L2C LOAD      ACCESS:     688050  HIT:     562011  MISS:     126039
L2C RFO       ACCESS:     259305  HIT:     176756  MISS:      82549
L2C PREFETCH  ACCESS:    4787007  HIT:    4351508  MISS:     435499
L2C WRITEBACK ACCESS:     499213  HIT:     496346  MISS:       2867
L2C PREFETCH  REQUESTED:    3419473  ISSUED:    3417116  USEFUL:      15484  USELESS:     419854
L2C AVERAGE MISS LATENCY: 41.1708 cycles
LLC TOTAL     ACCESS:    1738123  HIT:    1689599  MISS:      48524
LLC LOAD      ACCESS:     125900  HIT:     119725  MISS:       6175
LLC RFO       ACCESS:      82546  HIT:      64513  MISS:      18033
LLC PREFETCH  ACCESS:    1392389  HIT:    1368278  MISS:      24111
LLC WRITEBACK ACCESS:     137288  HIT:     137083  MISS:        205
LLC PREFETCH  REQUESTED:          0  ISSUED:          0  USEFUL:       2117  USELESS:      21923
LLC AVERAGE MISS LATENCY: 181.237 cycles
Major fault: 0 Minor fault: 2766
CPU 0 L1D next line prefetcher final stats

DRAM Statistics
 CHANNEL 0
 RQ ROW_BUFFER_HIT:      14806  ROW_BUFFER_MISS:      33507
 DBUS_CONGESTED:      30260
 WQ ROW_BUFFER_HIT:       2439  ROW_BUFFER_MISS:      18818  FULL:          0

 AVG_CONGESTED_CYCLE: 6

CPU 0 Branch Prediction Accuracy: 99.6798% MPKI: 0.58608 Average ROB Occupancy at Mispredict: 138.145

Branch types
NOT_BRANCH: 40848312 81.6966%
BRANCH_DIRECT_JUMP: 548372 1.09674%
BRANCH_INDIRECT: 189802 0.379604%
BRANCH_CONDITIONAL: 6372768 12.7455%
BRANCH_DIRECT_CALL: 862207 1.72441%
BRANCH_INDIRECT_CALL: 158149 0.316298%
BRANCH_RETURN: 1020345 2.04069%
BRANCH_OTHER: 0 0%

