
*** ChampSim Multicore Out-of-Order Simulator ***

Warmup Instructions: 10000000
Simulation Instructions: 100000000
Configuration: 2
Number of CPUs: 1
LLC sets: 2048
LLC ways: 16
Off-chip DRAM Channels: 1 Width: 64-bit Data Rate: 1600 MT/s

CPU 0 runs /datasets/cs240c-wi22-a00-public/data/Assignment2-gz/sphinx3_883B.trace.gz
CPU 0 L1D next line prefetcher
CPU 0 L2C IP-based stride prefetcher
Initialize SRRIP state
Heartbeat CPU 0 instructions: 1000003 cycles: 414388 heartbeat IPC: 2.4132 cumulative IPC: 2.4132 (Simulation time: 0 hr 0 min 42 sec) 
Heartbeat CPU 0 instructions: 2000000 cycles: 823945 heartbeat IPC: 2.44166 cumulative IPC: 2.42735 (Simulation time: 0 hr 1 min 23 sec) 
Heartbeat CPU 0 instructions: 3000003 cycles: 1298783 heartbeat IPC: 2.10599 cumulative IPC: 2.30986 (Simulation time: 0 hr 1 min 58 sec) 
Heartbeat CPU 0 instructions: 4000000 cycles: 1637673 heartbeat IPC: 2.9508 cumulative IPC: 2.44249 (Simulation time: 0 hr 2 min 33 sec) 
Heartbeat CPU 0 instructions: 5000000 cycles: 1992323 heartbeat IPC: 2.81968 cumulative IPC: 2.50963 (Simulation time: 0 hr 3 min 11 sec) 
Heartbeat CPU 0 instructions: 6000003 cycles: 2406748 heartbeat IPC: 2.41299 cumulative IPC: 2.49299 (Simulation time: 0 hr 3 min 50 sec) 
Heartbeat CPU 0 instructions: 7000002 cycles: 2815524 heartbeat IPC: 2.44633 cumulative IPC: 2.48622 (Simulation time: 0 hr 4 min 31 sec) 
Heartbeat CPU 0 instructions: 8000000 cycles: 3291687 heartbeat IPC: 2.10012 cumulative IPC: 2.43036 (Simulation time: 0 hr 5 min 5 sec) 
Heartbeat CPU 0 instructions: 9000001 cycles: 3630687 heartbeat IPC: 2.94986 cumulative IPC: 2.47887 (Simulation time: 0 hr 5 min 40 sec) 
Heartbeat CPU 0 instructions: 10000000 cycles: 3984757 heartbeat IPC: 2.8243 cumulative IPC: 2.50956 (Simulation time: 0 hr 6 min 13 sec) 

Warmup complete CPU 0 instructions: 10000004 cycles: 3984758 (Simulation time: 0 hr 6 min 13 sec) 

Heartbeat CPU 0 instructions: 11000002 cycles: 5716727 heartbeat IPC: 0.577378 cumulative IPC: 0.577376 (Simulation time: 0 hr 6 min 57 sec) 
Heartbeat CPU 0 instructions: 12000000 cycles: 7339225 heartbeat IPC: 0.616332 cumulative IPC: 0.596219 (Simulation time: 0 hr 7 min 37 sec) 
Heartbeat CPU 0 instructions: 13000001 cycles: 8526312 heartbeat IPC: 0.842399 cumulative IPC: 0.660566 (Simulation time: 0 hr 8 min 16 sec) 
Heartbeat CPU 0 instructions: 14000002 cycles: 9248123 heartbeat IPC: 1.38541 cumulative IPC: 0.75997 (Simulation time: 0 hr 8 min 54 sec) 
Heartbeat CPU 0 instructions: 15000000 cycles: 10106772 heartbeat IPC: 1.16462 cumulative IPC: 0.816724 (Simulation time: 0 hr 9 min 34 sec) 
Heartbeat CPU 0 instructions: 16000000 cycles: 11821282 heartbeat IPC: 0.583257 cumulative IPC: 0.765645 (Simulation time: 0 hr 10 min 16 sec) 
Heartbeat CPU 0 instructions: 17000000 cycles: 13430650 heartbeat IPC: 0.621362 cumulative IPC: 0.741062 (Simulation time: 0 hr 10 min 57 sec) 
Heartbeat CPU 0 instructions: 18000002 cycles: 14716369 heartbeat IPC: 0.777776 cumulative IPC: 0.745461 (Simulation time: 0 hr 11 min 37 sec) 
Heartbeat CPU 0 instructions: 19000003 cycles: 15528232 heartbeat IPC: 1.23174 cumulative IPC: 0.779661 (Simulation time: 0 hr 12 min 12 sec) 
Heartbeat CPU 0 instructions: 20000000 cycles: 16301225 heartbeat IPC: 1.29367 cumulative IPC: 0.811921 (Simulation time: 0 hr 12 min 43 sec) 
Heartbeat CPU 0 instructions: 21000000 cycles: 17900739 heartbeat IPC: 0.62519 cumulative IPC: 0.790458 (Simulation time: 0 hr 13 min 26 sec) 
Heartbeat CPU 0 instructions: 22000002 cycles: 19539226 heartbeat IPC: 0.61032 cumulative IPC: 0.771482 (Simulation time: 0 hr 13 min 59 sec) 
Heartbeat CPU 0 instructions: 23000001 cycles: 21071269 heartbeat IPC: 0.652723 cumulative IPC: 0.760834 (Simulation time: 0 hr 14 min 35 sec) 
Heartbeat CPU 0 instructions: 24000000 cycles: 21964747 heartbeat IPC: 1.11922 cumulative IPC: 0.778643 (Simulation time: 0 hr 15 min 5 sec) 
Heartbeat CPU 0 instructions: 25000001 cycles: 22743481 heartbeat IPC: 1.28414 cumulative IPC: 0.799628 (Simulation time: 0 hr 15 min 41 sec) 
Heartbeat CPU 0 instructions: 26000001 cycles: 23976231 heartbeat IPC: 0.811194 cumulative IPC: 0.800341 (Simulation time: 0 hr 16 min 20 sec) 
Heartbeat CPU 0 instructions: 27000001 cycles: 25606186 heartbeat IPC: 0.613514 cumulative IPC: 0.786257 (Simulation time: 0 hr 16 min 57 sec) 
Heartbeat CPU 0 instructions: 28000000 cycles: 27200906 heartbeat IPC: 0.627069 cumulative IPC: 0.775322 (Simulation time: 0 hr 17 min 31 sec) 
Heartbeat CPU 0 instructions: 29000000 cycles: 28223977 heartbeat IPC: 0.977449 cumulative IPC: 0.783853 (Simulation time: 0 hr 18 min 5 sec) 
Heartbeat CPU 0 instructions: 30000002 cycles: 29013469 heartbeat IPC: 1.26664 cumulative IPC: 0.799082 (Simulation time: 0 hr 18 min 33 sec) 
Heartbeat CPU 0 instructions: 31000003 cycles: 30096598 heartbeat IPC: 0.923252 cumulative IPC: 0.804233 (Simulation time: 0 hr 19 min 9 sec) 
Heartbeat CPU 0 instructions: 32000000 cycles: 31724770 heartbeat IPC: 0.614184 cumulative IPC: 0.793078 (Simulation time: 0 hr 19 min 44 sec) 
Heartbeat CPU 0 instructions: 33000000 cycles: 33282760 heartbeat IPC: 0.641853 cumulative IPC: 0.785036 (Simulation time: 0 hr 20 min 25 sec) 
Heartbeat CPU 0 instructions: 34000000 cycles: 34399655 heartbeat IPC: 0.895339 cumulative IPC: 0.789087 (Simulation time: 0 hr 20 min 56 sec) 
Heartbeat CPU 0 instructions: 35000003 cycles: 35195204 heartbeat IPC: 1.257 cumulative IPC: 0.801014 (Simulation time: 0 hr 21 min 26 sec) 
Heartbeat CPU 0 instructions: 36000000 cycles: 36234886 heartbeat IPC: 0.96183 cumulative IPC: 0.806198 (Simulation time: 0 hr 21 min 59 sec) 
Heartbeat CPU 0 instructions: 37000001 cycles: 37878693 heartbeat IPC: 0.608345 cumulative IPC: 0.796603 (Simulation time: 0 hr 22 min 32 sec) 
Heartbeat CPU 0 instructions: 38000000 cycles: 39441736 heartbeat IPC: 0.639777 cumulative IPC: 0.789689 (Simulation time: 0 hr 23 min 6 sec) 
Heartbeat CPU 0 instructions: 39000003 cycles: 40557422 heartbeat IPC: 0.896312 cumulative IPC: 0.792942 (Simulation time: 0 hr 23 min 37 sec) 
Heartbeat CPU 0 instructions: 40000000 cycles: 41383054 heartbeat IPC: 1.21119 cumulative IPC: 0.802175 (Simulation time: 0 hr 24 min 16 sec) 
Heartbeat CPU 0 instructions: 41000003 cycles: 42433948 heartbeat IPC: 0.951574 cumulative IPC: 0.806259 (Simulation time: 0 hr 24 min 55 sec) 
Heartbeat CPU 0 instructions: 42000000 cycles: 44092049 heartbeat IPC: 0.603098 cumulative IPC: 0.79786 (Simulation time: 0 hr 25 min 38 sec) 
Heartbeat CPU 0 instructions: 43000003 cycles: 45680723 heartbeat IPC: 0.629458 cumulative IPC: 0.791443 (Simulation time: 0 hr 26 min 11 sec) 
Heartbeat CPU 0 instructions: 44000000 cycles: 46707124 heartbeat IPC: 0.974275 cumulative IPC: 0.795836 (Simulation time: 0 hr 26 min 43 sec) 
Heartbeat CPU 0 instructions: 45000002 cycles: 47528424 heartbeat IPC: 1.21758 cumulative IPC: 0.803791 (Simulation time: 0 hr 27 min 16 sec) 
Heartbeat CPU 0 instructions: 46000001 cycles: 48617197 heartbeat IPC: 0.918464 cumulative IPC: 0.806588 (Simulation time: 0 hr 27 min 58 sec) 
Heartbeat CPU 0 instructions: 47000002 cycles: 50256950 heartbeat IPC: 0.609849 cumulative IPC: 0.799616 (Simulation time: 0 hr 28 min 30 sec) 
Heartbeat CPU 0 instructions: 48000000 cycles: 51838947 heartbeat IPC: 0.632111 cumulative IPC: 0.794079 (Simulation time: 0 hr 29 min 4 sec) 
Heartbeat CPU 0 instructions: 49000001 cycles: 52772879 heartbeat IPC: 1.07074 cumulative IPC: 0.799375 (Simulation time: 0 hr 29 min 35 sec) 
Heartbeat CPU 0 instructions: 50000000 cycles: 53576013 heartbeat IPC: 1.24512 cumulative IPC: 0.806594 (Simulation time: 0 hr 30 min 4 sec) 
Heartbeat CPU 0 instructions: 51000003 cycles: 54717717 heartbeat IPC: 0.875886 cumulative IPC: 0.808153 (Simulation time: 0 hr 30 min 37 sec) 
Heartbeat CPU 0 instructions: 52000000 cycles: 56394042 heartbeat IPC: 0.596541 cumulative IPC: 0.801385 (Simulation time: 0 hr 31 min 11 sec) 
Heartbeat CPU 0 instructions: 53000000 cycles: 58186375 heartbeat IPC: 0.557932 cumulative IPC: 0.793334 (Simulation time: 0 hr 31 min 43 sec) 
Heartbeat CPU 0 instructions: 54000003 cycles: 59468358 heartbeat IPC: 0.780044 cumulative IPC: 0.793027 (Simulation time: 0 hr 32 min 21 sec) 
Heartbeat CPU 0 instructions: 55000003 cycles: 60346728 heartbeat IPC: 1.13847 cumulative IPC: 0.798411 (Simulation time: 0 hr 32 min 56 sec) 
Heartbeat CPU 0 instructions: 56000000 cycles: 61221351 heartbeat IPC: 1.14335 cumulative IPC: 0.803682 (Simulation time: 0 hr 33 min 32 sec) 
Heartbeat CPU 0 instructions: 57000002 cycles: 62406466 heartbeat IPC: 0.843802 cumulative IPC: 0.804495 (Simulation time: 0 hr 34 min 10 sec) 
Heartbeat CPU 0 instructions: 58000001 cycles: 63445077 heartbeat IPC: 0.962823 cumulative IPC: 0.807261 (Simulation time: 0 hr 34 min 39 sec) 
Heartbeat CPU 0 instructions: 59000003 cycles: 64295706 heartbeat IPC: 1.1756 cumulative IPC: 0.812456 (Simulation time: 0 hr 35 min 11 sec) 
Heartbeat CPU 0 instructions: 60000000 cycles: 65189341 heartbeat IPC: 1.11902 cumulative IPC: 0.816932 (Simulation time: 0 hr 35 min 42 sec) 
Heartbeat CPU 0 instructions: 61000001 cycles: 66418741 heartbeat IPC: 0.813406 cumulative IPC: 0.816863 (Simulation time: 0 hr 36 min 17 sec) 
Heartbeat CPU 0 instructions: 62000001 cycles: 67267844 heartbeat IPC: 1.17771 cumulative IPC: 0.821705 (Simulation time: 0 hr 36 min 48 sec) 
Heartbeat CPU 0 instructions: 63000003 cycles: 68088055 heartbeat IPC: 1.2192 cumulative IPC: 0.826791 (Simulation time: 0 hr 37 min 22 sec) 
Heartbeat CPU 0 instructions: 64000000 cycles: 69377945 heartbeat IPC: 0.775258 cumulative IPC: 0.825774 (Simulation time: 0 hr 37 min 55 sec) 
Heartbeat CPU 0 instructions: 65000003 cycles: 70251413 heartbeat IPC: 1.14487 cumulative IPC: 0.82998 (Simulation time: 0 hr 38 min 32 sec) 
Heartbeat CPU 0 instructions: 66000002 cycles: 71089842 heartbeat IPC: 1.19271 cumulative IPC: 0.834512 (Simulation time: 0 hr 39 min 5 sec) 
Heartbeat CPU 0 instructions: 67000000 cycles: 72350790 heartbeat IPC: 0.793053 cumulative IPC: 0.833747 (Simulation time: 0 hr 39 min 43 sec) 
Heartbeat CPU 0 instructions: 68000000 cycles: 74007646 heartbeat IPC: 0.603553 cumulative IPC: 0.828301 (Simulation time: 0 hr 40 min 19 sec) 
Heartbeat CPU 0 instructions: 69000003 cycles: 74877828 heartbeat IPC: 1.14919 cumulative IPC: 0.832239 (Simulation time: 0 hr 40 min 50 sec) 
Heartbeat CPU 0 instructions: 70000000 cycles: 75720836 heartbeat IPC: 1.18622 cumulative IPC: 0.836399 (Simulation time: 0 hr 41 min 25 sec) 
Heartbeat CPU 0 instructions: 71000000 cycles: 76872864 heartbeat IPC: 0.868034 cumulative IPC: 0.836899 (Simulation time: 0 hr 41 min 56 sec) 
Heartbeat CPU 0 instructions: 72000000 cycles: 78357174 heartbeat IPC: 0.673714 cumulative IPC: 0.833642 (Simulation time: 0 hr 42 min 30 sec) 
Heartbeat CPU 0 instructions: 73000000 cycles: 79226433 heartbeat IPC: 1.15041 cumulative IPC: 0.837302 (Simulation time: 0 hr 43 min 4 sec) 
Heartbeat CPU 0 instructions: 74000000 cycles: 80066170 heartbeat IPC: 1.19085 cumulative IPC: 0.841204 (Simulation time: 0 hr 43 min 36 sec) 
Heartbeat CPU 0 instructions: 75000000 cycles: 81272612 heartbeat IPC: 0.828884 cumulative IPC: 0.841012 (Simulation time: 0 hr 44 min 13 sec) 
Heartbeat CPU 0 instructions: 76000000 cycles: 82581906 heartbeat IPC: 0.76377 cumulative IPC: 0.839725 (Simulation time: 0 hr 44 min 44 sec) 
Heartbeat CPU 0 instructions: 77000003 cycles: 83459801 heartbeat IPC: 1.13909 cumulative IPC: 0.843032 (Simulation time: 0 hr 45 min 18 sec) 
Heartbeat CPU 0 instructions: 78000000 cycles: 84283346 heartbeat IPC: 1.21426 cumulative IPC: 0.846839 (Simulation time: 0 hr 45 min 52 sec) 
Heartbeat CPU 0 instructions: 79000001 cycles: 85633031 heartbeat IPC: 0.740914 cumulative IPC: 0.845088 (Simulation time: 0 hr 46 min 32 sec) 
Heartbeat CPU 0 instructions: 80000000 cycles: 86801409 heartbeat IPC: 0.855887 cumulative IPC: 0.845241 (Simulation time: 0 hr 47 min 6 sec) 
Heartbeat CPU 0 instructions: 81000000 cycles: 87677052 heartbeat IPC: 1.14202 cumulative IPC: 0.848346 (Simulation time: 0 hr 47 min 43 sec) 
Heartbeat CPU 0 instructions: 82000000 cycles: 88488983 heartbeat IPC: 1.23163 cumulative IPC: 0.852028 (Simulation time: 0 hr 48 min 13 sec) 
Heartbeat CPU 0 instructions: 83000000 cycles: 89973936 heartbeat IPC: 0.673422 cumulative IPC: 0.848944 (Simulation time: 0 hr 48 min 51 sec) 
Heartbeat CPU 0 instructions: 84000000 cycles: 90891787 heartbeat IPC: 1.0895 cumulative IPC: 0.851485 (Simulation time: 0 hr 49 min 27 sec) 
Heartbeat CPU 0 instructions: 85000001 cycles: 91725609 heartbeat IPC: 1.1993 cumulative IPC: 0.85479 (Simulation time: 0 hr 50 min 3 sec) 
Heartbeat CPU 0 instructions: 86000001 cycles: 92763485 heartbeat IPC: 0.963506 cumulative IPC: 0.856061 (Simulation time: 0 hr 50 min 40 sec) 
Heartbeat CPU 0 instructions: 87000000 cycles: 93980159 heartbeat IPC: 0.821912 cumulative IPC: 0.855599 (Simulation time: 0 hr 51 min 14 sec) 
Heartbeat CPU 0 instructions: 88000000 cycles: 94844896 heartbeat IPC: 1.15642 cumulative IPC: 0.858462 (Simulation time: 0 hr 51 min 49 sec) 
Heartbeat CPU 0 instructions: 89000000 cycles: 95644834 heartbeat IPC: 1.2501 cumulative IPC: 0.86188 (Simulation time: 0 hr 52 min 19 sec) 
Heartbeat CPU 0 instructions: 90000000 cycles: 97000405 heartbeat IPC: 0.737697 cumulative IPC: 0.86007 (Simulation time: 0 hr 52 min 55 sec) 
Heartbeat CPU 0 instructions: 91000003 cycles: 98255245 heartbeat IPC: 0.796917 cumulative IPC: 0.85923 (Simulation time: 0 hr 53 min 29 sec) 
Heartbeat CPU 0 instructions: 92000000 cycles: 99212620 heartbeat IPC: 1.04452 cumulative IPC: 0.861093 (Simulation time: 0 hr 54 min 2 sec) 
Heartbeat CPU 0 instructions: 93000000 cycles: 100048902 heartbeat IPC: 1.19577 cumulative IPC: 0.864006 (Simulation time: 0 hr 54 min 36 sec) 
Heartbeat CPU 0 instructions: 94000002 cycles: 100851428 heartbeat IPC: 1.24607 cumulative IPC: 0.867171 (Simulation time: 0 hr 55 min 10 sec) 
Heartbeat CPU 0 instructions: 95000001 cycles: 102289172 heartbeat IPC: 0.695533 cumulative IPC: 0.864661 (Simulation time: 0 hr 55 min 46 sec) 
Heartbeat CPU 0 instructions: 96000000 cycles: 103151013 heartbeat IPC: 1.16031 cumulative IPC: 0.86723 (Simulation time: 0 hr 56 min 20 sec) 
Heartbeat CPU 0 instructions: 97000002 cycles: 103977058 heartbeat IPC: 1.21059 cumulative IPC: 0.870067 (Simulation time: 0 hr 56 min 52 sec) 
Heartbeat CPU 0 instructions: 98000003 cycles: 105189126 heartbeat IPC: 0.825037 cumulative IPC: 0.869528 (Simulation time: 0 hr 57 min 26 sec) 
Heartbeat CPU 0 instructions: 99000000 cycles: 106275738 heartbeat IPC: 0.920289 cumulative IPC: 0.870067 (Simulation time: 0 hr 57 min 57 sec) 
Heartbeat CPU 0 instructions: 100000000 cycles: 107110855 heartbeat IPC: 1.19744 cumulative IPC: 0.872718 (Simulation time: 0 hr 58 min 22 sec) 
Heartbeat CPU 0 instructions: 101000000 cycles: 107922271 heartbeat IPC: 1.23241 cumulative IPC: 0.875526 (Simulation time: 0 hr 58 min 47 sec) 
Heartbeat CPU 0 instructions: 102000003 cycles: 109465115 heartbeat IPC: 0.648156 cumulative IPC: 0.8722 (Simulation time: 0 hr 59 min 14 sec) 
Heartbeat CPU 0 instructions: 103000000 cycles: 110406576 heartbeat IPC: 1.06218 cumulative IPC: 0.873881 (Simulation time: 0 hr 59 min 41 sec) 
Heartbeat CPU 0 instructions: 104000000 cycles: 111226705 heartbeat IPC: 1.21932 cumulative IPC: 0.876523 (Simulation time: 1 hr 0 min 8 sec) 
Heartbeat CPU 0 instructions: 105000002 cycles: 112311041 heartbeat IPC: 0.922225 cumulative IPC: 0.87698 (Simulation time: 1 hr 0 min 33 sec) 
Heartbeat CPU 0 instructions: 106000003 cycles: 113819074 heartbeat IPC: 0.663116 cumulative IPC: 0.874044 (Simulation time: 1 hr 1 min 0 sec) 
Heartbeat CPU 0 instructions: 107000001 cycles: 114686870 heartbeat IPC: 1.15234 cumulative IPC: 0.876225 (Simulation time: 1 hr 1 min 20 sec) 
Heartbeat CPU 0 instructions: 108000000 cycles: 115507327 heartbeat IPC: 1.21883 cumulative IPC: 0.878746 (Simulation time: 1 hr 1 min 41 sec) 
Heartbeat CPU 0 instructions: 109000001 cycles: 116666528 heartbeat IPC: 0.862664 cumulative IPC: 0.87858 (Simulation time: 1 hr 2 min 9 sec) 
Heartbeat CPU 0 instructions: 110000000 cycles: 118068377 heartbeat IPC: 0.713343 cumulative IPC: 0.87655 (Simulation time: 1 hr 2 min 28 sec) 
Finished CPU 0 instructions: 100000000 cycles: 114083620 cummulative IPC: 0.87655 (Simulation time: 1 hr 2 min 28 sec) 

ChampSim completed all CPUs

Region of Interest Statistics

CPU 0 cummulative IPC: 0.87655 instructions: 100000000 cycles: 114083620
LLC TOTAL     ACCESS:    1795726  HIT:     719361  MISS:    1076365
LLC LOAD      ACCESS:     315537  HIT:     203342  MISS:     112195
LLC RFO       ACCESS:      99618  HIT:      76610  MISS:      23008
LLC PREFETCH  ACCESS:    1239151  HIT:     312440  MISS:     926711
LLC WRITEBACK ACCESS:     141420  HIT:     126969  MISS:      14451
Insertion Distribution: 
	LOAD 11149 0 24843 100608 
	RFO 8054 0 6280 12530 
	PREF 0 4283 85628 945258 
	WRITEBACK 0 0 0 15631 
Total Prefetch Downgrades: 6523
