
*** ChampSim Multicore Out-of-Order Simulator ***

Warmup Instructions: 10000000
Simulation Instructions: 100000000
Configuration: 2
Number of CPUs: 1
LLC sets: 2048
LLC ways: 16
Off-chip DRAM Channels: 1 Width: 64-bit Data Rate: 1600 MT/s

CPU 0 runs /datasets/cs240c-wi22-a00-public/data/Assignment2-gz/gcc_56B.trace.gz
CPU 0 L1D next line prefetcher
CPU 0 L2C IP-based stride prefetcher
Initialize SRRIP state
Heartbeat CPU 0 instructions: 1000003 cycles: 954151 heartbeat IPC: 1.04806 cumulative IPC: 1.04806 (Simulation time: 0 hr 0 min 37 sec) 
Heartbeat CPU 0 instructions: 2000001 cycles: 1898349 heartbeat IPC: 1.0591 cumulative IPC: 1.05355 (Simulation time: 0 hr 1 min 13 sec) 
Heartbeat CPU 0 instructions: 3000001 cycles: 2885593 heartbeat IPC: 1.01292 cumulative IPC: 1.03965 (Simulation time: 0 hr 1 min 50 sec) 
Heartbeat CPU 0 instructions: 4000000 cycles: 3848221 heartbeat IPC: 1.03882 cumulative IPC: 1.03944 (Simulation time: 0 hr 2 min 28 sec) 
Heartbeat CPU 0 instructions: 5000002 cycles: 4737701 heartbeat IPC: 1.12425 cumulative IPC: 1.05536 (Simulation time: 0 hr 3 min 5 sec) 
Heartbeat CPU 0 instructions: 6000000 cycles: 5685656 heartbeat IPC: 1.0549 cumulative IPC: 1.05529 (Simulation time: 0 hr 3 min 48 sec) 
Heartbeat CPU 0 instructions: 7000000 cycles: 6649892 heartbeat IPC: 1.03709 cumulative IPC: 1.05265 (Simulation time: 0 hr 4 min 25 sec) 
Heartbeat CPU 0 instructions: 8000000 cycles: 7611115 heartbeat IPC: 1.04034 cumulative IPC: 1.05109 (Simulation time: 0 hr 5 min 2 sec) 
Heartbeat CPU 0 instructions: 9000000 cycles: 8622587 heartbeat IPC: 0.988658 cumulative IPC: 1.04377 (Simulation time: 0 hr 5 min 40 sec) 
Heartbeat CPU 0 instructions: 10000002 cycles: 9583098 heartbeat IPC: 1.04111 cumulative IPC: 1.0435 (Simulation time: 0 hr 6 min 13 sec) 

Warmup complete CPU 0 instructions: 10000002 cycles: 9583098 (Simulation time: 0 hr 6 min 13 sec) 

Heartbeat CPU 0 instructions: 11000000 cycles: 10925644 heartbeat IPC: 0.744852 cumulative IPC: 0.744852 (Simulation time: 0 hr 6 min 48 sec) 
Heartbeat CPU 0 instructions: 12000000 cycles: 12345245 heartbeat IPC: 0.704423 cumulative IPC: 0.724074 (Simulation time: 0 hr 7 min 25 sec) 
Heartbeat CPU 0 instructions: 13000001 cycles: 13726403 heartbeat IPC: 0.724031 cumulative IPC: 0.724059 (Simulation time: 0 hr 8 min 1 sec) 
Heartbeat CPU 0 instructions: 14000000 cycles: 15053234 heartbeat IPC: 0.753675 cumulative IPC: 0.731243 (Simulation time: 0 hr 8 min 40 sec) 
Heartbeat CPU 0 instructions: 15000003 cycles: 16421751 heartbeat IPC: 0.73072 cumulative IPC: 0.731138 (Simulation time: 0 hr 9 min 24 sec) 
Heartbeat CPU 0 instructions: 16000000 cycles: 17740013 heartbeat IPC: 0.758572 cumulative IPC: 0.735572 (Simulation time: 0 hr 10 min 5 sec) 
Heartbeat CPU 0 instructions: 17000001 cycles: 19053423 heartbeat IPC: 0.761378 cumulative IPC: 0.739151 (Simulation time: 0 hr 10 min 46 sec) 
Heartbeat CPU 0 instructions: 18000000 cycles: 20434841 heartbeat IPC: 0.723893 cumulative IPC: 0.737209 (Simulation time: 0 hr 11 min 23 sec) 
Heartbeat CPU 0 instructions: 19000000 cycles: 21802344 heartbeat IPC: 0.73126 cumulative IPC: 0.736543 (Simulation time: 0 hr 12 min 4 sec) 
Heartbeat CPU 0 instructions: 20000000 cycles: 23158727 heartbeat IPC: 0.737255 cumulative IPC: 0.736614 (Simulation time: 0 hr 12 min 42 sec) 
Heartbeat CPU 0 instructions: 21000000 cycles: 24494378 heartbeat IPC: 0.748699 cumulative IPC: 0.737696 (Simulation time: 0 hr 13 min 28 sec) 
Heartbeat CPU 0 instructions: 22000000 cycles: 25812412 heartbeat IPC: 0.758706 cumulative IPC: 0.739403 (Simulation time: 0 hr 14 min 6 sec) 
Heartbeat CPU 0 instructions: 23000000 cycles: 27138862 heartbeat IPC: 0.753892 cumulative IPC: 0.740497 (Simulation time: 0 hr 14 min 46 sec) 
Heartbeat CPU 0 instructions: 24000000 cycles: 28488245 heartbeat IPC: 0.741079 cumulative IPC: 0.740539 (Simulation time: 0 hr 15 min 24 sec) 
Heartbeat CPU 0 instructions: 25000000 cycles: 29849139 heartbeat IPC: 0.734811 cumulative IPC: 0.740154 (Simulation time: 0 hr 16 min 0 sec) 
Heartbeat CPU 0 instructions: 26000002 cycles: 31248602 heartbeat IPC: 0.714561 cumulative IPC: 0.738501 (Simulation time: 0 hr 16 min 38 sec) 
Heartbeat CPU 0 instructions: 27000000 cycles: 32624478 heartbeat IPC: 0.726808 cumulative IPC: 0.737803 (Simulation time: 0 hr 17 min 14 sec) 
Heartbeat CPU 0 instructions: 28000000 cycles: 33952715 heartbeat IPC: 0.752878 cumulative IPC: 0.738625 (Simulation time: 0 hr 17 min 52 sec) 
Heartbeat CPU 0 instructions: 29000000 cycles: 35285285 heartbeat IPC: 0.75043 cumulative IPC: 0.739237 (Simulation time: 0 hr 18 min 29 sec) 
Heartbeat CPU 0 instructions: 30000000 cycles: 36621730 heartbeat IPC: 0.748254 cumulative IPC: 0.739682 (Simulation time: 0 hr 19 min 6 sec) 
Heartbeat CPU 0 instructions: 31000000 cycles: 37966709 heartbeat IPC: 0.743506 cumulative IPC: 0.739864 (Simulation time: 0 hr 19 min 44 sec) 
Heartbeat CPU 0 instructions: 32000000 cycles: 39334519 heartbeat IPC: 0.731096 cumulative IPC: 0.73946 (Simulation time: 0 hr 20 min 20 sec) 
Heartbeat CPU 0 instructions: 33000002 cycles: 40735389 heartbeat IPC: 0.713844 cumulative IPC: 0.738308 (Simulation time: 0 hr 20 min 59 sec) 
Heartbeat CPU 0 instructions: 34000002 cycles: 42092528 heartbeat IPC: 0.736844 cumulative IPC: 0.738247 (Simulation time: 0 hr 21 min 36 sec) 
Heartbeat CPU 0 instructions: 35000002 cycles: 43436515 heartbeat IPC: 0.744055 cumulative IPC: 0.738478 (Simulation time: 0 hr 22 min 13 sec) 
Heartbeat CPU 0 instructions: 36000000 cycles: 44758469 heartbeat IPC: 0.756454 cumulative IPC: 0.739154 (Simulation time: 0 hr 22 min 52 sec) 
Heartbeat CPU 0 instructions: 37000000 cycles: 46066408 heartbeat IPC: 0.764562 cumulative IPC: 0.740064 (Simulation time: 0 hr 23 min 32 sec) 
Heartbeat CPU 0 instructions: 38000002 cycles: 47396380 heartbeat IPC: 0.751897 cumulative IPC: 0.740481 (Simulation time: 0 hr 24 min 9 sec) 
Heartbeat CPU 0 instructions: 39000000 cycles: 48794754 heartbeat IPC: 0.715115 cumulative IPC: 0.739576 (Simulation time: 0 hr 24 min 46 sec) 
Heartbeat CPU 0 instructions: 40000000 cycles: 50154067 heartbeat IPC: 0.735666 cumulative IPC: 0.739445 (Simulation time: 0 hr 25 min 22 sec) 
Heartbeat CPU 0 instructions: 41000001 cycles: 51492848 heartbeat IPC: 0.746949 cumulative IPC: 0.739685 (Simulation time: 0 hr 25 min 56 sec) 
Heartbeat CPU 0 instructions: 42000003 cycles: 52818954 heartbeat IPC: 0.754089 cumulative IPC: 0.740126 (Simulation time: 0 hr 26 min 35 sec) 
Heartbeat CPU 0 instructions: 43000001 cycles: 54151176 heartbeat IPC: 0.750624 cumulative IPC: 0.74044 (Simulation time: 0 hr 27 min 14 sec) 
Heartbeat CPU 0 instructions: 44000000 cycles: 55476393 heartbeat IPC: 0.754593 cumulative IPC: 0.740849 (Simulation time: 0 hr 27 min 55 sec) 
Heartbeat CPU 0 instructions: 45000000 cycles: 56841246 heartbeat IPC: 0.73268 cumulative IPC: 0.740613 (Simulation time: 0 hr 28 min 38 sec) 
Heartbeat CPU 0 instructions: 46000000 cycles: 58231496 heartbeat IPC: 0.719295 cumulative IPC: 0.740004 (Simulation time: 0 hr 29 min 16 sec) 
Heartbeat CPU 0 instructions: 47000002 cycles: 59602896 heartbeat IPC: 0.729183 cumulative IPC: 0.739707 (Simulation time: 0 hr 29 min 57 sec) 
Heartbeat CPU 0 instructions: 48000000 cycles: 60947650 heartbeat IPC: 0.743629 cumulative IPC: 0.73981 (Simulation time: 0 hr 30 min 34 sec) 
Heartbeat CPU 0 instructions: 49000002 cycles: 62272757 heartbeat IPC: 0.754658 cumulative IPC: 0.740183 (Simulation time: 0 hr 31 min 12 sec) 
Heartbeat CPU 0 instructions: 50000000 cycles: 63592003 heartbeat IPC: 0.758007 cumulative IPC: 0.740619 (Simulation time: 0 hr 31 min 52 sec) 
Heartbeat CPU 0 instructions: 51000000 cycles: 64945224 heartbeat IPC: 0.738978 cumulative IPC: 0.740578 (Simulation time: 0 hr 32 min 31 sec) 
Heartbeat CPU 0 instructions: 52000000 cycles: 66335949 heartbeat IPC: 0.719049 cumulative IPC: 0.740051 (Simulation time: 0 hr 33 min 7 sec) 
Heartbeat CPU 0 instructions: 53000001 cycles: 67671931 heartbeat IPC: 0.748514 cumulative IPC: 0.740246 (Simulation time: 0 hr 33 min 48 sec) 
Heartbeat CPU 0 instructions: 54000000 cycles: 68986358 heartbeat IPC: 0.760787 cumulative IPC: 0.7407 (Simulation time: 0 hr 34 min 33 sec) 
Heartbeat CPU 0 instructions: 55000001 cycles: 70292544 heartbeat IPC: 0.765589 cumulative IPC: 0.741236 (Simulation time: 0 hr 35 min 22 sec) 
Heartbeat CPU 0 instructions: 56000000 cycles: 71614670 heartbeat IPC: 0.756357 cumulative IPC: 0.741558 (Simulation time: 0 hr 36 min 5 sec) 
Heartbeat CPU 0 instructions: 57000001 cycles: 72948878 heartbeat IPC: 0.749509 cumulative IPC: 0.741725 (Simulation time: 0 hr 36 min 50 sec) 
Heartbeat CPU 0 instructions: 58000000 cycles: 74322784 heartbeat IPC: 0.727851 cumulative IPC: 0.741431 (Simulation time: 0 hr 37 min 36 sec) 
Heartbeat CPU 0 instructions: 59000000 cycles: 75715877 heartbeat IPC: 0.717827 cumulative IPC: 0.740934 (Simulation time: 0 hr 38 min 25 sec) 
Heartbeat CPU 0 instructions: 60000000 cycles: 77090739 heartbeat IPC: 0.727346 cumulative IPC: 0.740657 (Simulation time: 0 hr 39 min 11 sec) 
Heartbeat CPU 0 instructions: 61000000 cycles: 78420241 heartbeat IPC: 0.752161 cumulative IPC: 0.740879 (Simulation time: 0 hr 39 min 56 sec) 
Heartbeat CPU 0 instructions: 62000002 cycles: 79780420 heartbeat IPC: 0.735199 cumulative IPC: 0.740769 (Simulation time: 0 hr 40 min 41 sec) 
Heartbeat CPU 0 instructions: 63000003 cycles: 81095286 heartbeat IPC: 0.760535 cumulative IPC: 0.741132 (Simulation time: 0 hr 41 min 28 sec) 
Heartbeat CPU 0 instructions: 64000000 cycles: 82414263 heartbeat IPC: 0.758161 cumulative IPC: 0.741441 (Simulation time: 0 hr 42 min 14 sec) 
Heartbeat CPU 0 instructions: 65000000 cycles: 83757077 heartbeat IPC: 0.744705 cumulative IPC: 0.7415 (Simulation time: 0 hr 42 min 59 sec) 
Heartbeat CPU 0 instructions: 66000002 cycles: 85146710 heartbeat IPC: 0.719616 cumulative IPC: 0.741097 (Simulation time: 0 hr 43 min 43 sec) 
Heartbeat CPU 0 instructions: 67000002 cycles: 86532325 heartbeat IPC: 0.721701 cumulative IPC: 0.740748 (Simulation time: 0 hr 44 min 30 sec) 
Heartbeat CPU 0 instructions: 68000000 cycles: 87882265 heartbeat IPC: 0.740772 cumulative IPC: 0.740749 (Simulation time: 0 hr 45 min 14 sec) 
Heartbeat CPU 0 instructions: 69000000 cycles: 89209686 heartbeat IPC: 0.75334 cumulative IPC: 0.740959 (Simulation time: 0 hr 45 min 58 sec) 
Heartbeat CPU 0 instructions: 70000000 cycles: 90535088 heartbeat IPC: 0.754488 cumulative IPC: 0.74118 (Simulation time: 0 hr 46 min 43 sec) 
Heartbeat CPU 0 instructions: 71000003 cycles: 91876203 heartbeat IPC: 0.74565 cumulative IPC: 0.741253 (Simulation time: 0 hr 47 min 30 sec) 
Heartbeat CPU 0 instructions: 72000000 cycles: 93213447 heartbeat IPC: 0.747804 cumulative IPC: 0.741358 (Simulation time: 0 hr 48 min 16 sec) 
Heartbeat CPU 0 instructions: 73000003 cycles: 94579081 heartbeat IPC: 0.732263 cumulative IPC: 0.741212 (Simulation time: 0 hr 48 min 57 sec) 
Heartbeat CPU 0 instructions: 74000001 cycles: 95977779 heartbeat IPC: 0.714949 cumulative IPC: 0.740786 (Simulation time: 0 hr 49 min 43 sec) 
Heartbeat CPU 0 instructions: 75000003 cycles: 97350858 heartbeat IPC: 0.728292 cumulative IPC: 0.740591 (Simulation time: 0 hr 50 min 28 sec) 
Heartbeat CPU 0 instructions: 76000000 cycles: 98692432 heartbeat IPC: 0.745391 cumulative IPC: 0.740663 (Simulation time: 0 hr 51 min 10 sec) 
Heartbeat CPU 0 instructions: 77000003 cycles: 100025126 heartbeat IPC: 0.750362 cumulative IPC: 0.740806 (Simulation time: 0 hr 51 min 51 sec) 
Heartbeat CPU 0 instructions: 78000001 cycles: 101355666 heartbeat IPC: 0.751573 cumulative IPC: 0.740962 (Simulation time: 0 hr 52 min 35 sec) 
Heartbeat CPU 0 instructions: 79000000 cycles: 102710785 heartbeat IPC: 0.737942 cumulative IPC: 0.740918 (Simulation time: 0 hr 53 min 17 sec) 
Heartbeat CPU 0 instructions: 80000000 cycles: 104056835 heartbeat IPC: 0.742914 cumulative IPC: 0.740947 (Simulation time: 0 hr 53 min 57 sec) 
Heartbeat CPU 0 instructions: 81000002 cycles: 105434143 heartbeat IPC: 0.726055 cumulative IPC: 0.740733 (Simulation time: 0 hr 54 min 39 sec) 
Heartbeat CPU 0 instructions: 82000000 cycles: 106803776 heartbeat IPC: 0.730121 cumulative IPC: 0.740583 (Simulation time: 0 hr 55 min 19 sec) 
Heartbeat CPU 0 instructions: 83000003 cycles: 108135178 heartbeat IPC: 0.75109 cumulative IPC: 0.740725 (Simulation time: 0 hr 56 min 1 sec) 
Heartbeat CPU 0 instructions: 84000000 cycles: 109476261 heartbeat IPC: 0.745664 cumulative IPC: 0.740791 (Simulation time: 0 hr 56 min 40 sec) 
Heartbeat CPU 0 instructions: 85000002 cycles: 110789663 heartbeat IPC: 0.761383 cumulative IPC: 0.741059 (Simulation time: 0 hr 57 min 18 sec) 
Heartbeat CPU 0 instructions: 86000003 cycles: 112090979 heartbeat IPC: 0.768454 cumulative IPC: 0.741406 (Simulation time: 0 hr 57 min 54 sec) 
Heartbeat CPU 0 instructions: 87000000 cycles: 113472199 heartbeat IPC: 0.723995 cumulative IPC: 0.741175 (Simulation time: 0 hr 58 min 28 sec) 
Heartbeat CPU 0 instructions: 88000000 cycles: 114821349 heartbeat IPC: 0.741207 cumulative IPC: 0.741175 (Simulation time: 0 hr 58 min 58 sec) 
Heartbeat CPU 0 instructions: 89000000 cycles: 116181219 heartbeat IPC: 0.735364 cumulative IPC: 0.741101 (Simulation time: 0 hr 59 min 27 sec) 
Heartbeat CPU 0 instructions: 90000000 cycles: 117498497 heartbeat IPC: 0.759141 cumulative IPC: 0.741321 (Simulation time: 0 hr 59 min 55 sec) 
Heartbeat CPU 0 instructions: 91000001 cycles: 118805604 heartbeat IPC: 0.765049 cumulative IPC: 0.741605 (Simulation time: 1 hr 0 min 22 sec) 
Heartbeat CPU 0 instructions: 92000000 cycles: 120122331 heartbeat IPC: 0.759458 cumulative IPC: 0.741818 (Simulation time: 1 hr 0 min 50 sec) 
Heartbeat CPU 0 instructions: 93000003 cycles: 121503283 heartbeat IPC: 0.72414 cumulative IPC: 0.7416 (Simulation time: 1 hr 1 min 18 sec) 
Heartbeat CPU 0 instructions: 94000000 cycles: 122845333 heartbeat IPC: 0.745126 cumulative IPC: 0.741642 (Simulation time: 1 hr 1 min 44 sec) 
Heartbeat CPU 0 instructions: 95000000 cycles: 124196141 heartbeat IPC: 0.740298 cumulative IPC: 0.741626 (Simulation time: 1 hr 2 min 11 sec) 
Heartbeat CPU 0 instructions: 96000000 cycles: 125528333 heartbeat IPC: 0.750643 cumulative IPC: 0.741729 (Simulation time: 1 hr 2 min 37 sec) 
Heartbeat CPU 0 instructions: 97000000 cycles: 126838875 heartbeat IPC: 0.763043 cumulative IPC: 0.741968 (Simulation time: 1 hr 3 min 5 sec) 
Heartbeat CPU 0 instructions: 98000003 cycles: 128146708 heartbeat IPC: 0.764626 cumulative IPC: 0.742218 (Simulation time: 1 hr 3 min 31 sec) 
Heartbeat CPU 0 instructions: 99000000 cycles: 129533260 heartbeat IPC: 0.721211 cumulative IPC: 0.741975 (Simulation time: 1 hr 3 min 55 sec) 
Heartbeat CPU 0 instructions: 100000000 cycles: 130875872 heartbeat IPC: 0.744817 cumulative IPC: 0.742006 (Simulation time: 1 hr 4 min 18 sec) 
Heartbeat CPU 0 instructions: 101000000 cycles: 132222705 heartbeat IPC: 0.742483 cumulative IPC: 0.742011 (Simulation time: 1 hr 4 min 43 sec) 
Heartbeat CPU 0 instructions: 102000001 cycles: 133536444 heartbeat IPC: 0.761187 cumulative IPC: 0.742215 (Simulation time: 1 hr 5 min 8 sec) 
Heartbeat CPU 0 instructions: 103000001 cycles: 134838448 heartbeat IPC: 0.768047 cumulative IPC: 0.742483 (Simulation time: 1 hr 5 min 30 sec) 
Heartbeat CPU 0 instructions: 104000000 cycles: 136141242 heartbeat IPC: 0.76758 cumulative IPC: 0.742742 (Simulation time: 1 hr 5 min 49 sec) 
Heartbeat CPU 0 instructions: 105000002 cycles: 137518669 heartbeat IPC: 0.725993 cumulative IPC: 0.742561 (Simulation time: 1 hr 6 min 8 sec) 
Heartbeat CPU 0 instructions: 106000000 cycles: 138923276 heartbeat IPC: 0.711941 cumulative IPC: 0.742229 (Simulation time: 1 hr 6 min 27 sec) 
Heartbeat CPU 0 instructions: 107000002 cycles: 140313529 heartbeat IPC: 0.719295 cumulative IPC: 0.741985 (Simulation time: 1 hr 6 min 47 sec) 
Heartbeat CPU 0 instructions: 108000000 cycles: 141669455 heartbeat IPC: 0.737502 cumulative IPC: 0.741939 (Simulation time: 1 hr 7 min 5 sec) 
Heartbeat CPU 0 instructions: 109000000 cycles: 143004967 heartbeat IPC: 0.748776 cumulative IPC: 0.742007 (Simulation time: 1 hr 7 min 23 sec) 
Heartbeat CPU 0 instructions: 110000000 cycles: 144333644 heartbeat IPC: 0.752628 cumulative IPC: 0.742112 (Simulation time: 1 hr 7 min 40 sec) 
Finished CPU 0 instructions: 100000003 cycles: 134750548 cummulative IPC: 0.742112 (Simulation time: 1 hr 7 min 40 sec) 

ChampSim completed all CPUs

Region of Interest Statistics

CPU 0 cummulative IPC: 0.742112 instructions: 100000003 cycles: 134750548
LLC TOTAL     ACCESS:   21346126  HIT:   21272287  MISS:      73839
LLC LOAD      ACCESS:     165897  HIT:     131116  MISS:      34781
LLC RFO       ACCESS:   10463422  HIT:   10457724  MISS:       5698
LLC PREFETCH  ACCESS:     183319  HIT:     150142  MISS:      33177
LLC WRITEBACK ACCESS:   10533488  HIT:   10533305  MISS:        183
Insertion Distribution: 
	LOAD 6146 0 0 0 15022 17274 
	RFO 0 0 0 0 10472 3473 
	PREF 0 3553 0 0 14265 18401 
	WRITEBACK 0 0 0 0 0 185 
Total Prefetch Downgrades: 5307
