
*** ChampSim Multicore Out-of-Order Simulator ***

Warmup Instructions: 10000000
Simulation Instructions: 100000000
Configuration: 2
Number of CPUs: 1
LLC sets: 2048
LLC ways: 16
Off-chip DRAM Channels: 1 Width: 64-bit Data Rate: 1600 MT/s

CPU 0 runs /datasets/cs240c-wi22-a00-public/data/Assignment2-gz/bzip2_183B.trace.gz
CPU 0 L1D next line prefetcher
CPU 0 L2C IP-based stride prefetcher
Initialize SRRIP state
Heartbeat CPU 0 instructions: 1000000 cycles: 447972 heartbeat IPC: 2.23228 cumulative IPC: 2.23228 (Simulation time: 0 hr 0 min 28 sec) 
Heartbeat CPU 0 instructions: 2000001 cycles: 951246 heartbeat IPC: 1.98699 cumulative IPC: 2.10251 (Simulation time: 0 hr 0 min 59 sec) 
Heartbeat CPU 0 instructions: 3000001 cycles: 1457933 heartbeat IPC: 1.97361 cumulative IPC: 2.05771 (Simulation time: 0 hr 1 min 27 sec) 
Heartbeat CPU 0 instructions: 4000000 cycles: 1928626 heartbeat IPC: 2.12452 cumulative IPC: 2.07402 (Simulation time: 0 hr 1 min 54 sec) 
Heartbeat CPU 0 instructions: 5000000 cycles: 2425933 heartbeat IPC: 2.01083 cumulative IPC: 2.06106 (Simulation time: 0 hr 2 min 23 sec) 
Heartbeat CPU 0 instructions: 6000001 cycles: 2887533 heartbeat IPC: 2.16638 cumulative IPC: 2.0779 (Simulation time: 0 hr 2 min 51 sec) 
Heartbeat CPU 0 instructions: 7000002 cycles: 3343396 heartbeat IPC: 2.19364 cumulative IPC: 2.09368 (Simulation time: 0 hr 3 min 21 sec) 
Heartbeat CPU 0 instructions: 8000000 cycles: 3812995 heartbeat IPC: 2.12947 cumulative IPC: 2.09809 (Simulation time: 0 hr 3 min 51 sec) 
Heartbeat CPU 0 instructions: 9000003 cycles: 4278250 heartbeat IPC: 2.14937 cumulative IPC: 2.10366 (Simulation time: 0 hr 4 min 18 sec) 
Heartbeat CPU 0 instructions: 10000000 cycles: 4746655 heartbeat IPC: 2.1349 cumulative IPC: 2.10675 (Simulation time: 0 hr 4 min 49 sec) 

Warmup complete CPU 0 instructions: 10000001 cycles: 4746656 (Simulation time: 0 hr 4 min 49 sec) 

Heartbeat CPU 0 instructions: 11000000 cycles: 6253541 heartbeat IPC: 0.66362 cumulative IPC: 0.66362 (Simulation time: 0 hr 5 min 16 sec) 
Heartbeat CPU 0 instructions: 12000000 cycles: 7709562 heartbeat IPC: 0.686803 cumulative IPC: 0.675013 (Simulation time: 0 hr 5 min 44 sec) 
Heartbeat CPU 0 instructions: 13000000 cycles: 8935326 heartbeat IPC: 0.815818 cumulative IPC: 0.716218 (Simulation time: 0 hr 6 min 10 sec) 
Heartbeat CPU 0 instructions: 14000003 cycles: 9983519 heartbeat IPC: 0.954026 cumulative IPC: 0.763816 (Simulation time: 0 hr 6 min 40 sec) 
Heartbeat CPU 0 instructions: 15000000 cycles: 11374642 heartbeat IPC: 0.718842 cumulative IPC: 0.754377 (Simulation time: 0 hr 7 min 9 sec) 
Heartbeat CPU 0 instructions: 16000000 cycles: 12351125 heartbeat IPC: 1.02408 cumulative IPC: 0.78901 (Simulation time: 0 hr 7 min 37 sec) 
Heartbeat CPU 0 instructions: 17000003 cycles: 13250011 heartbeat IPC: 1.11249 cumulative IPC: 0.823205 (Simulation time: 0 hr 8 min 4 sec) 
Heartbeat CPU 0 instructions: 18000001 cycles: 14171260 heartbeat IPC: 1.08548 cumulative IPC: 0.848842 (Simulation time: 0 hr 8 min 31 sec) 
Heartbeat CPU 0 instructions: 19000002 cycles: 15117762 heartbeat IPC: 1.05652 cumulative IPC: 0.867796 (Simulation time: 0 hr 8 min 58 sec) 
Heartbeat CPU 0 instructions: 20000000 cycles: 16318875 heartbeat IPC: 0.832559 cumulative IPC: 0.864138 (Simulation time: 0 hr 9 min 26 sec) 
Heartbeat CPU 0 instructions: 21000000 cycles: 17815483 heartbeat IPC: 0.668178 cumulative IPC: 0.841698 (Simulation time: 0 hr 9 min 54 sec) 
Heartbeat CPU 0 instructions: 22000000 cycles: 19226648 heartbeat IPC: 0.708634 cumulative IPC: 0.82873 (Simulation time: 0 hr 10 min 22 sec) 
Heartbeat CPU 0 instructions: 23000000 cycles: 20361785 heartbeat IPC: 0.880951 cumulative IPC: 0.832526 (Simulation time: 0 hr 10 min 51 sec) 
Heartbeat CPU 0 instructions: 24000000 cycles: 21620025 heartbeat IPC: 0.794761 cumulative IPC: 0.82971 (Simulation time: 0 hr 11 min 19 sec) 
Heartbeat CPU 0 instructions: 25000001 cycles: 22964177 heartbeat IPC: 0.743964 cumulative IPC: 0.823383 (Simulation time: 0 hr 11 min 47 sec) 
Heartbeat CPU 0 instructions: 26000002 cycles: 23944026 heartbeat IPC: 1.02057 cumulative IPC: 0.833448 (Simulation time: 0 hr 12 min 15 sec) 
Heartbeat CPU 0 instructions: 27000000 cycles: 24945852 heartbeat IPC: 0.998175 cumulative IPC: 0.841618 (Simulation time: 0 hr 12 min 42 sec) 
Heartbeat CPU 0 instructions: 28000000 cycles: 26228801 heartbeat IPC: 0.779454 cumulative IPC: 0.837905 (Simulation time: 0 hr 13 min 10 sec) 
Heartbeat CPU 0 instructions: 29000003 cycles: 27300883 heartbeat IPC: 0.932767 cumulative IPC: 0.842414 (Simulation time: 0 hr 13 min 37 sec) 
Heartbeat CPU 0 instructions: 30000000 cycles: 28618935 heartbeat IPC: 0.758693 cumulative IPC: 0.837792 (Simulation time: 0 hr 14 min 4 sec) 
Heartbeat CPU 0 instructions: 31000000 cycles: 29912506 heartbeat IPC: 0.773054 cumulative IPC: 0.834464 (Simulation time: 0 hr 14 min 29 sec) 
Heartbeat CPU 0 instructions: 32000000 cycles: 31532193 heartbeat IPC: 0.617403 cumulative IPC: 0.821339 (Simulation time: 0 hr 14 min 55 sec) 
Heartbeat CPU 0 instructions: 33000000 cycles: 32595217 heartbeat IPC: 0.940713 cumulative IPC: 0.825895 (Simulation time: 0 hr 15 min 24 sec) 
Heartbeat CPU 0 instructions: 34000001 cycles: 33601651 heartbeat IPC: 0.993608 cumulative IPC: 0.831745 (Simulation time: 0 hr 15 min 53 sec) 
Heartbeat CPU 0 instructions: 35000003 cycles: 34616803 heartbeat IPC: 0.985076 cumulative IPC: 0.836956 (Simulation time: 0 hr 16 min 19 sec) 
Heartbeat CPU 0 instructions: 36000000 cycles: 35625814 heartbeat IPC: 0.991067 cumulative IPC: 0.841992 (Simulation time: 0 hr 16 min 46 sec) 
Heartbeat CPU 0 instructions: 37000003 cycles: 36866815 heartbeat IPC: 0.805804 cumulative IPC: 0.840594 (Simulation time: 0 hr 17 min 13 sec) 
Heartbeat CPU 0 instructions: 38000001 cycles: 38382265 heartbeat IPC: 0.659869 cumulative IPC: 0.832451 (Simulation time: 0 hr 17 min 41 sec) 
Heartbeat CPU 0 instructions: 39000002 cycles: 39497012 heartbeat IPC: 0.897065 cumulative IPC: 0.834524 (Simulation time: 0 hr 18 min 8 sec) 
Heartbeat CPU 0 instructions: 40000000 cycles: 40534436 heartbeat IPC: 0.963924 cumulative IPC: 0.838275 (Simulation time: 0 hr 18 min 36 sec) 
Heartbeat CPU 0 instructions: 41000002 cycles: 41999588 heartbeat IPC: 0.682524 cumulative IPC: 0.832149 (Simulation time: 0 hr 19 min 3 sec) 
Heartbeat CPU 0 instructions: 42000000 cycles: 43280427 heartbeat IPC: 0.780737 cumulative IPC: 0.83044 (Simulation time: 0 hr 19 min 30 sec) 
Heartbeat CPU 0 instructions: 43000001 cycles: 44425484 heartbeat IPC: 0.87332 cumulative IPC: 0.831678 (Simulation time: 0 hr 20 min 3 sec) 
Heartbeat CPU 0 instructions: 44000000 cycles: 45572205 heartbeat IPC: 0.872051 cumulative IPC: 0.832812 (Simulation time: 0 hr 20 min 31 sec) 
Heartbeat CPU 0 instructions: 45000000 cycles: 46636992 heartbeat IPC: 0.939155 cumulative IPC: 0.835515 (Simulation time: 0 hr 21 min 1 sec) 
Heartbeat CPU 0 instructions: 46000000 cycles: 47748882 heartbeat IPC: 0.89937 cumulative IPC: 0.837166 (Simulation time: 0 hr 21 min 28 sec) 
Heartbeat CPU 0 instructions: 47000003 cycles: 48752395 heartbeat IPC: 0.996502 cumulative IPC: 0.840799 (Simulation time: 0 hr 21 min 54 sec) 
Heartbeat CPU 0 instructions: 48000000 cycles: 50322268 heartbeat IPC: 0.636992 cumulative IPC: 0.833779 (Simulation time: 0 hr 22 min 23 sec) 
Heartbeat CPU 0 instructions: 49000003 cycles: 51923026 heartbeat IPC: 0.624706 cumulative IPC: 0.826685 (Simulation time: 0 hr 22 min 51 sec) 
Heartbeat CPU 0 instructions: 50000000 cycles: 53051600 heartbeat IPC: 0.886071 cumulative IPC: 0.828073 (Simulation time: 0 hr 23 min 21 sec) 
Heartbeat CPU 0 instructions: 51000000 cycles: 54080715 heartbeat IPC: 0.971709 cumulative IPC: 0.831069 (Simulation time: 0 hr 23 min 50 sec) 
Heartbeat CPU 0 instructions: 52000000 cycles: 55097169 heartbeat IPC: 0.983812 cumulative IPC: 0.834152 (Simulation time: 0 hr 24 min 16 sec) 
Heartbeat CPU 0 instructions: 53000001 cycles: 56064029 heartbeat IPC: 1.03428 cumulative IPC: 0.837923 (Simulation time: 0 hr 24 min 44 sec) 
Heartbeat CPU 0 instructions: 54000001 cycles: 57072853 heartbeat IPC: 0.991253 cumulative IPC: 0.840879 (Simulation time: 0 hr 25 min 12 sec) 
Heartbeat CPU 0 instructions: 55000001 cycles: 58300726 heartbeat IPC: 0.814416 cumulative IPC: 0.840272 (Simulation time: 0 hr 25 min 38 sec) 
Heartbeat CPU 0 instructions: 56000000 cycles: 59486734 heartbeat IPC: 0.843164 cumulative IPC: 0.840335 (Simulation time: 0 hr 26 min 4 sec) 
Heartbeat CPU 0 instructions: 57000003 cycles: 60859597 heartbeat IPC: 0.728407 cumulative IPC: 0.837596 (Simulation time: 0 hr 26 min 33 sec) 
Heartbeat CPU 0 instructions: 58000001 cycles: 62433625 heartbeat IPC: 0.635311 cumulative IPC: 0.832077 (Simulation time: 0 hr 26 min 59 sec) 
Heartbeat CPU 0 instructions: 59000003 cycles: 63741252 heartbeat IPC: 0.764746 cumulative IPC: 0.830585 (Simulation time: 0 hr 27 min 26 sec) 
Heartbeat CPU 0 instructions: 60000000 cycles: 65318023 heartbeat IPC: 0.634206 cumulative IPC: 0.825473 (Simulation time: 0 hr 27 min 53 sec) 
Heartbeat CPU 0 instructions: 61000003 cycles: 67034972 heartbeat IPC: 0.58243 cumulative IPC: 0.818773 (Simulation time: 0 hr 28 min 19 sec) 
Heartbeat CPU 0 instructions: 62000002 cycles: 68577691 heartbeat IPC: 0.648206 cumulative IPC: 0.814651 (Simulation time: 0 hr 28 min 46 sec) 
Heartbeat CPU 0 instructions: 63000003 cycles: 69965129 heartbeat IPC: 0.720754 cumulative IPC: 0.812653 (Simulation time: 0 hr 29 min 14 sec) 
Heartbeat CPU 0 instructions: 64000000 cycles: 71532201 heartbeat IPC: 0.638131 cumulative IPC: 0.808558 (Simulation time: 0 hr 29 min 42 sec) 
Heartbeat CPU 0 instructions: 65000003 cycles: 72788430 heartbeat IPC: 0.796036 cumulative IPC: 0.808327 (Simulation time: 0 hr 30 min 9 sec) 
Heartbeat CPU 0 instructions: 66000000 cycles: 74112005 heartbeat IPC: 0.755527 cumulative IPC: 0.80732 (Simulation time: 0 hr 30 min 37 sec) 
Heartbeat CPU 0 instructions: 67000000 cycles: 75050639 heartbeat IPC: 1.06538 cumulative IPC: 0.810765 (Simulation time: 0 hr 31 min 4 sec) 
Heartbeat CPU 0 instructions: 68000000 cycles: 76448722 heartbeat IPC: 0.715265 cumulative IPC: 0.808903 (Simulation time: 0 hr 31 min 31 sec) 
Heartbeat CPU 0 instructions: 69000000 cycles: 78020222 heartbeat IPC: 0.636335 cumulative IPC: 0.805202 (Simulation time: 0 hr 31 min 58 sec) 
Heartbeat CPU 0 instructions: 70000002 cycles: 79491087 heartbeat IPC: 0.679873 cumulative IPC: 0.802735 (Simulation time: 0 hr 32 min 28 sec) 
Heartbeat CPU 0 instructions: 71000000 cycles: 81054532 heartbeat IPC: 0.639612 cumulative IPC: 0.799393 (Simulation time: 0 hr 32 min 57 sec) 
Heartbeat CPU 0 instructions: 72000000 cycles: 82423111 heartbeat IPC: 0.730685 cumulative IPC: 0.798183 (Simulation time: 0 hr 33 min 26 sec) 
Heartbeat CPU 0 instructions: 73000001 cycles: 83708470 heartbeat IPC: 0.777994 cumulative IPC: 0.797854 (Simulation time: 0 hr 33 min 59 sec) 
Heartbeat CPU 0 instructions: 74000000 cycles: 84861050 heartbeat IPC: 0.867618 cumulative IPC: 0.798858 (Simulation time: 0 hr 34 min 33 sec) 
Heartbeat CPU 0 instructions: 75000001 cycles: 86275918 heartbeat IPC: 0.70678 cumulative IPC: 0.79726 (Simulation time: 0 hr 35 min 5 sec) 
Heartbeat CPU 0 instructions: 76000000 cycles: 87415162 heartbeat IPC: 0.877774 cumulative IPC: 0.798369 (Simulation time: 0 hr 35 min 38 sec) 
Heartbeat CPU 0 instructions: 77000003 cycles: 88589863 heartbeat IPC: 0.851283 cumulative IPC: 0.799111 (Simulation time: 0 hr 36 min 12 sec) 
Heartbeat CPU 0 instructions: 78000000 cycles: 89921455 heartbeat IPC: 0.750979 cumulative IPC: 0.798358 (Simulation time: 0 hr 36 min 46 sec) 
Heartbeat CPU 0 instructions: 79000000 cycles: 91260777 heartbeat IPC: 0.746646 cumulative IPC: 0.797558 (Simulation time: 0 hr 37 min 22 sec) 
Heartbeat CPU 0 instructions: 80000000 cycles: 92646526 heartbeat IPC: 0.721631 cumulative IPC: 0.796361 (Simulation time: 0 hr 37 min 54 sec) 
Heartbeat CPU 0 instructions: 81000000 cycles: 94334355 heartbeat IPC: 0.592477 cumulative IPC: 0.79252 (Simulation time: 0 hr 38 min 25 sec) 
Heartbeat CPU 0 instructions: 82000002 cycles: 95878487 heartbeat IPC: 0.647614 cumulative IPC: 0.790064 (Simulation time: 0 hr 38 min 57 sec) 
Heartbeat CPU 0 instructions: 83000000 cycles: 97033445 heartbeat IPC: 0.865831 cumulative IPC: 0.791012 (Simulation time: 0 hr 39 min 33 sec) 
Heartbeat CPU 0 instructions: 84000000 cycles: 97990006 heartbeat IPC: 1.04541 cumulative IPC: 0.793622 (Simulation time: 0 hr 40 min 8 sec) 
Heartbeat CPU 0 instructions: 85000002 cycles: 99035907 heartbeat IPC: 0.956115 cumulative IPC: 0.795425 (Simulation time: 0 hr 40 min 42 sec) 
Heartbeat CPU 0 instructions: 86000002 cycles: 100012326 heartbeat IPC: 1.02415 cumulative IPC: 0.797769 (Simulation time: 0 hr 41 min 14 sec) 
Heartbeat CPU 0 instructions: 87000001 cycles: 101013095 heartbeat IPC: 0.999231 cumulative IPC: 0.799863 (Simulation time: 0 hr 41 min 49 sec) 
Heartbeat CPU 0 instructions: 88000000 cycles: 102307933 heartbeat IPC: 0.772297 cumulative IPC: 0.799498 (Simulation time: 0 hr 42 min 20 sec) 
Heartbeat CPU 0 instructions: 89000000 cycles: 103808122 heartbeat IPC: 0.666583 cumulative IPC: 0.797485 (Simulation time: 0 hr 42 min 56 sec) 
Heartbeat CPU 0 instructions: 90000002 cycles: 105297691 heartbeat IPC: 0.671336 cumulative IPC: 0.795616 (Simulation time: 0 hr 43 min 27 sec) 
Heartbeat CPU 0 instructions: 91000000 cycles: 106993778 heartbeat IPC: 0.589591 cumulative IPC: 0.792198 (Simulation time: 0 hr 43 min 59 sec) 
Heartbeat CPU 0 instructions: 92000000 cycles: 108486535 heartbeat IPC: 0.669901 cumulative IPC: 0.790439 (Simulation time: 0 hr 44 min 32 sec) 
Heartbeat CPU 0 instructions: 93000001 cycles: 109739896 heartbeat IPC: 0.797855 cumulative IPC: 0.790527 (Simulation time: 0 hr 45 min 7 sec) 
Heartbeat CPU 0 instructions: 94000000 cycles: 111477902 heartbeat IPC: 0.575371 cumulative IPC: 0.787023 (Simulation time: 0 hr 45 min 41 sec) 
Heartbeat CPU 0 instructions: 95000002 cycles: 113079410 heartbeat IPC: 0.624413 cumulative IPC: 0.78462 (Simulation time: 0 hr 46 min 12 sec) 
Heartbeat CPU 0 instructions: 96000000 cycles: 114683664 heartbeat IPC: 0.623341 cumulative IPC: 0.782266 (Simulation time: 0 hr 46 min 44 sec) 
Heartbeat CPU 0 instructions: 97000000 cycles: 116077429 heartbeat IPC: 0.717481 cumulative IPC: 0.781455 (Simulation time: 0 hr 47 min 16 sec) 
Heartbeat CPU 0 instructions: 98000000 cycles: 117355747 heartbeat IPC: 0.782278 cumulative IPC: 0.781464 (Simulation time: 0 hr 47 min 48 sec) 
Heartbeat CPU 0 instructions: 99000003 cycles: 118477984 heartbeat IPC: 0.89108 cumulative IPC: 0.782546 (Simulation time: 0 hr 48 min 24 sec) 
Heartbeat CPU 0 instructions: 100000000 cycles: 119950000 heartbeat IPC: 0.679338 cumulative IPC: 0.781227 (Simulation time: 0 hr 48 min 54 sec) 
Heartbeat CPU 0 instructions: 101000000 cycles: 121458087 heartbeat IPC: 0.663092 cumulative IPC: 0.779701 (Simulation time: 0 hr 49 min 24 sec) 
Heartbeat CPU 0 instructions: 102000001 cycles: 123151609 heartbeat IPC: 0.590486 cumulative IPC: 0.776995 (Simulation time: 0 hr 49 min 56 sec) 
Heartbeat CPU 0 instructions: 103000002 cycles: 124463593 heartbeat IPC: 0.762205 cumulative IPC: 0.776832 (Simulation time: 0 hr 50 min 31 sec) 
Heartbeat CPU 0 instructions: 104000000 cycles: 126167784 heartbeat IPC: 0.586788 cumulative IPC: 0.774165 (Simulation time: 0 hr 51 min 2 sec) 
Heartbeat CPU 0 instructions: 105000002 cycles: 127147739 heartbeat IPC: 1.02046 cumulative IPC: 0.776137 (Simulation time: 0 hr 51 min 31 sec) 
Heartbeat CPU 0 instructions: 106000000 cycles: 128683476 heartbeat IPC: 0.651152 cumulative IPC: 0.774588 (Simulation time: 0 hr 52 min 1 sec) 
Heartbeat CPU 0 instructions: 107000002 cycles: 130241506 heartbeat IPC: 0.641837 cumulative IPC: 0.77294 (Simulation time: 0 hr 52 min 31 sec) 
Heartbeat CPU 0 instructions: 108000000 cycles: 131559889 heartbeat IPC: 0.758503 cumulative IPC: 0.77279 (Simulation time: 0 hr 53 min 5 sec) 
Heartbeat CPU 0 instructions: 109000002 cycles: 133258707 heartbeat IPC: 0.588646 cumulative IPC: 0.770356 (Simulation time: 0 hr 53 min 35 sec) 
Heartbeat CPU 0 instructions: 110000000 cycles: 134491964 heartbeat IPC: 0.810859 cumulative IPC: 0.770741 (Simulation time: 0 hr 54 min 5 sec) 
Finished CPU 0 instructions: 100000003 cycles: 129745309 cummulative IPC: 0.770741 (Simulation time: 0 hr 54 min 5 sec) 

ChampSim completed all CPUs

Region of Interest Statistics

CPU 0 cummulative IPC: 0.770741 instructions: 100000003 cycles: 129745309
LLC TOTAL     ACCESS:    1571474  HIT:    1424397  MISS:     147077
LLC LOAD      ACCESS:     429742  HIT:     407975  MISS:      21767
LLC RFO       ACCESS:     294161  HIT:     233590  MISS:      60571
LLC PREFETCH  ACCESS:     521596  HIT:     466477  MISS:      55119
LLC WRITEBACK ACCESS:     325975  HIT:     316355  MISS:       9620
Insertion Distribution: 
	LOAD 24137 0 0 0 7245 284 
	RFO 33475 0 0 0 26303 13477 
	PREF 0 13717 0 0 22832 32390 
	WRITEBACK 0 0 0 0 0 10446 
Total Prefetch Downgrades: 19866
