
*** ChampSim Multicore Out-of-Order Simulator ***

Warmup Instructions: 10000000
Simulation Instructions: 100000000
Configuration: 2
Number of CPUs: 1
LLC sets: 2048
LLC ways: 16
Off-chip DRAM Channels: 1 Width: 64-bit Data Rate: 1600 MT/s

CPU 0 runs /datasets/cs240c-wi22-a00-public/data/Assignment2-gz/cactusADM_1495B.trace.gz
CPU 0 L1D next line prefetcher
CPU 0 L2C IP-based stride prefetcher
Initialize SRRIP state
Heartbeat CPU 0 instructions: 1000003 cycles: 593383 heartbeat IPC: 1.68526 cumulative IPC: 1.68526 (Simulation time: 0 hr 0 min 38 sec) 
Heartbeat CPU 0 instructions: 2000000 cycles: 1186345 heartbeat IPC: 1.68644 cumulative IPC: 1.68585 (Simulation time: 0 hr 1 min 13 sec) 
Heartbeat CPU 0 instructions: 3000003 cycles: 1779703 heartbeat IPC: 1.68533 cumulative IPC: 1.68568 (Simulation time: 0 hr 1 min 49 sec) 
Heartbeat CPU 0 instructions: 4000000 cycles: 2372522 heartbeat IPC: 1.68685 cumulative IPC: 1.68597 (Simulation time: 0 hr 2 min 25 sec) 
Heartbeat CPU 0 instructions: 5000000 cycles: 2965579 heartbeat IPC: 1.68618 cumulative IPC: 1.68601 (Simulation time: 0 hr 3 min 2 sec) 
Heartbeat CPU 0 instructions: 6000001 cycles: 3558796 heartbeat IPC: 1.68573 cumulative IPC: 1.68596 (Simulation time: 0 hr 3 min 38 sec) 
Heartbeat CPU 0 instructions: 7000000 cycles: 4151738 heartbeat IPC: 1.6865 cumulative IPC: 1.68604 (Simulation time: 0 hr 4 min 14 sec) 
Heartbeat CPU 0 instructions: 8000000 cycles: 4906787 heartbeat IPC: 1.32442 cumulative IPC: 1.63039 (Simulation time: 0 hr 4 min 55 sec) 
Heartbeat CPU 0 instructions: 9000002 cycles: 5499988 heartbeat IPC: 1.68577 cumulative IPC: 1.63637 (Simulation time: 0 hr 5 min 30 sec) 
Heartbeat CPU 0 instructions: 10000002 cycles: 6092912 heartbeat IPC: 1.68656 cumulative IPC: 1.64125 (Simulation time: 0 hr 6 min 5 sec) 

Warmup complete CPU 0 instructions: 10000002 cycles: 6092912 (Simulation time: 0 hr 6 min 5 sec) 

Heartbeat CPU 0 instructions: 11000000 cycles: 7785032 heartbeat IPC: 0.590973 cumulative IPC: 0.590973 (Simulation time: 0 hr 6 min 45 sec) 
Heartbeat CPU 0 instructions: 12000000 cycles: 9528488 heartbeat IPC: 0.573573 cumulative IPC: 0.582143 (Simulation time: 0 hr 7 min 25 sec) 
Heartbeat CPU 0 instructions: 13000002 cycles: 11273015 heartbeat IPC: 0.573222 cumulative IPC: 0.579139 (Simulation time: 0 hr 8 min 2 sec) 
Heartbeat CPU 0 instructions: 14000001 cycles: 13008483 heartbeat IPC: 0.576213 cumulative IPC: 0.578405 (Simulation time: 0 hr 8 min 40 sec) 
Heartbeat CPU 0 instructions: 15000001 cycles: 14665216 heartbeat IPC: 0.603598 cumulative IPC: 0.583274 (Simulation time: 0 hr 9 min 20 sec) 
Heartbeat CPU 0 instructions: 16000000 cycles: 16386688 heartbeat IPC: 0.580898 cumulative IPC: 0.582876 (Simulation time: 0 hr 10 min 3 sec) 
Heartbeat CPU 0 instructions: 17000003 cycles: 18130797 heartbeat IPC: 0.57336 cumulative IPC: 0.581498 (Simulation time: 0 hr 10 min 42 sec) 
Heartbeat CPU 0 instructions: 18000000 cycles: 19876307 heartbeat IPC: 0.572897 cumulative IPC: 0.580408 (Simulation time: 0 hr 11 min 21 sec) 
Heartbeat CPU 0 instructions: 19000002 cycles: 21586612 heartbeat IPC: 0.584692 cumulative IPC: 0.580881 (Simulation time: 0 hr 11 min 58 sec) 
Heartbeat CPU 0 instructions: 20000000 cycles: 23252787 heartbeat IPC: 0.600176 cumulative IPC: 0.582755 (Simulation time: 0 hr 12 min 37 sec) 
Heartbeat CPU 0 instructions: 21000001 cycles: 29567881 heartbeat IPC: 0.158351 cumulative IPC: 0.468584 (Simulation time: 0 hr 13 min 18 sec) 
Heartbeat CPU 0 instructions: 22000000 cycles: 31657236 heartbeat IPC: 0.478616 cumulative IPC: 0.469404 (Simulation time: 0 hr 13 min 53 sec) 
Heartbeat CPU 0 instructions: 23000001 cycles: 33388907 heartbeat IPC: 0.577477 cumulative IPC: 0.47626 (Simulation time: 0 hr 14 min 35 sec) 
Heartbeat CPU 0 instructions: 24000000 cycles: 35043912 heartbeat IPC: 0.604227 cumulative IPC: 0.483576 (Simulation time: 0 hr 15 min 13 sec) 
Heartbeat CPU 0 instructions: 25000002 cycles: 36769888 heartbeat IPC: 0.579383 cumulative IPC: 0.488966 (Simulation time: 0 hr 16 min 1 sec) 
Heartbeat CPU 0 instructions: 26000000 cycles: 38523328 heartbeat IPC: 0.570306 cumulative IPC: 0.493364 (Simulation time: 0 hr 16 min 41 sec) 
Heartbeat CPU 0 instructions: 27000002 cycles: 40262614 heartbeat IPC: 0.57495 cumulative IPC: 0.497517 (Simulation time: 0 hr 17 min 19 sec) 
Heartbeat CPU 0 instructions: 28000000 cycles: 41970249 heartbeat IPC: 0.585604 cumulative IPC: 0.501709 (Simulation time: 0 hr 18 min 3 sec) 
Heartbeat CPU 0 instructions: 29000003 cycles: 43627601 heartbeat IPC: 0.603374 cumulative IPC: 0.506198 (Simulation time: 0 hr 18 min 40 sec) 
Heartbeat CPU 0 instructions: 30000000 cycles: 45394493 heartbeat IPC: 0.565964 cumulative IPC: 0.508885 (Simulation time: 0 hr 19 min 19 sec) 
Heartbeat CPU 0 instructions: 31000003 cycles: 47135674 heartbeat IPC: 0.574325 cumulative IPC: 0.511661 (Simulation time: 0 hr 20 min 0 sec) 
Heartbeat CPU 0 instructions: 32000000 cycles: 48873791 heartbeat IPC: 0.575334 cumulative IPC: 0.514248 (Simulation time: 0 hr 20 min 41 sec) 
Heartbeat CPU 0 instructions: 33000001 cycles: 50552620 heartbeat IPC: 0.595654 cumulative IPC: 0.517322 (Simulation time: 0 hr 21 min 21 sec) 
Heartbeat CPU 0 instructions: 34000002 cycles: 55973398 heartbeat IPC: 0.184476 cumulative IPC: 0.48115 (Simulation time: 0 hr 22 min 4 sec) 
Heartbeat CPU 0 instructions: 35000002 cycles: 58961476 heartbeat IPC: 0.334663 cumulative IPC: 0.472871 (Simulation time: 0 hr 22 min 51 sec) 
Heartbeat CPU 0 instructions: 36000000 cycles: 60698392 heartbeat IPC: 0.575732 cumulative IPC: 0.476143 (Simulation time: 0 hr 23 min 32 sec) 
Heartbeat CPU 0 instructions: 37000001 cycles: 62412567 heartbeat IPC: 0.583372 cumulative IPC: 0.479406 (Simulation time: 0 hr 24 min 9 sec) 
Heartbeat CPU 0 instructions: 38000003 cycles: 64065845 heartbeat IPC: 0.60486 cumulative IPC: 0.482984 (Simulation time: 0 hr 24 min 47 sec) 
Heartbeat CPU 0 instructions: 39000003 cycles: 65796273 heartbeat IPC: 0.577892 cumulative IPC: 0.485735 (Simulation time: 0 hr 25 min 27 sec) 
Heartbeat CPU 0 instructions: 40000000 cycles: 67535313 heartbeat IPC: 0.575028 cumulative IPC: 0.488262 (Simulation time: 0 hr 26 min 5 sec) 
Heartbeat CPU 0 instructions: 41000002 cycles: 69271842 heartbeat IPC: 0.575863 cumulative IPC: 0.49067 (Simulation time: 0 hr 26 min 44 sec) 
Heartbeat CPU 0 instructions: 42000000 cycles: 70951372 heartbeat IPC: 0.595403 cumulative IPC: 0.493382 (Simulation time: 0 hr 27 min 24 sec) 
Heartbeat CPU 0 instructions: 43000000 cycles: 72632038 heartbeat IPC: 0.595002 cumulative IPC: 0.495949 (Simulation time: 0 hr 28 min 8 sec) 
Heartbeat CPU 0 instructions: 44000000 cycles: 74369672 heartbeat IPC: 0.575495 cumulative IPC: 0.497973 (Simulation time: 0 hr 28 min 49 sec) 
Heartbeat CPU 0 instructions: 45000003 cycles: 76108302 heartbeat IPC: 0.575167 cumulative IPC: 0.49989 (Simulation time: 0 hr 29 min 28 sec) 
Heartbeat CPU 0 instructions: 46000002 cycles: 77839080 heartbeat IPC: 0.577774 cumulative IPC: 0.501769 (Simulation time: 0 hr 30 min 8 sec) 
Heartbeat CPU 0 instructions: 47000002 cycles: 82216431 heartbeat IPC: 0.228449 cumulative IPC: 0.486052 (Simulation time: 0 hr 30 min 50 sec) 
Heartbeat CPU 0 instructions: 48000000 cycles: 86180852 heartbeat IPC: 0.252243 cumulative IPC: 0.474478 (Simulation time: 0 hr 31 min 32 sec) 
Heartbeat CPU 0 instructions: 49000000 cycles: 87917425 heartbeat IPC: 0.575847 cumulative IPC: 0.47663 (Simulation time: 0 hr 32 min 11 sec) 
Heartbeat CPU 0 instructions: 50000000 cycles: 89655594 heartbeat IPC: 0.575318 cumulative IPC: 0.478683 (Simulation time: 0 hr 32 min 52 sec) 
Heartbeat CPU 0 instructions: 51000000 cycles: 91342000 heartbeat IPC: 0.592977 cumulative IPC: 0.480944 (Simulation time: 0 hr 33 min 33 sec) 
Heartbeat CPU 0 instructions: 52000000 cycles: 93020025 heartbeat IPC: 0.595939 cumulative IPC: 0.483163 (Simulation time: 0 hr 34 min 21 sec) 
Heartbeat CPU 0 instructions: 53000003 cycles: 94756069 heartbeat IPC: 0.576024 cumulative IPC: 0.484982 (Simulation time: 0 hr 35 min 9 sec) 
Heartbeat CPU 0 instructions: 54000001 cycles: 96492283 heartbeat IPC: 0.575965 cumulative IPC: 0.486729 (Simulation time: 0 hr 35 min 58 sec) 
Heartbeat CPU 0 instructions: 55000000 cycles: 98225634 heartbeat IPC: 0.576917 cumulative IPC: 0.488426 (Simulation time: 0 hr 36 min 48 sec) 
Heartbeat CPU 0 instructions: 56000000 cycles: 99881649 heartbeat IPC: 0.603859 cumulative IPC: 0.490464 (Simulation time: 0 hr 37 min 36 sec) 
Heartbeat CPU 0 instructions: 57000000 cycles: 101591233 heartbeat IPC: 0.584938 cumulative IPC: 0.492155 (Simulation time: 0 hr 38 min 22 sec) 
Heartbeat CPU 0 instructions: 58000002 cycles: 103328566 heartbeat IPC: 0.575596 cumulative IPC: 0.493646 (Simulation time: 0 hr 39 min 10 sec) 
Heartbeat CPU 0 instructions: 59000001 cycles: 105066789 heartbeat IPC: 0.5753 cumulative IPC: 0.49508 (Simulation time: 0 hr 39 min 57 sec) 
Heartbeat CPU 0 instructions: 60000000 cycles: 108423455 heartbeat IPC: 0.297914 cumulative IPC: 0.488613 (Simulation time: 0 hr 40 min 47 sec) 
Heartbeat CPU 0 instructions: 61000001 cycles: 113391589 heartbeat IPC: 0.201283 cumulative IPC: 0.475309 (Simulation time: 0 hr 41 min 43 sec) 
Heartbeat CPU 0 instructions: 62000000 cycles: 115126186 heartbeat IPC: 0.576502 cumulative IPC: 0.476919 (Simulation time: 0 hr 42 min 40 sec) 
Heartbeat CPU 0 instructions: 63000000 cycles: 116865659 heartbeat IPC: 0.574887 cumulative IPC: 0.478457 (Simulation time: 0 hr 43 min 46 sec) 
Heartbeat CPU 0 instructions: 64000000 cycles: 118596890 heartbeat IPC: 0.577624 cumulative IPC: 0.479983 (Simulation time: 0 hr 44 min 46 sec) 
Heartbeat CPU 0 instructions: 65000002 cycles: 120256455 heartbeat IPC: 0.602569 cumulative IPC: 0.481765 (Simulation time: 0 hr 45 min 50 sec) 
Heartbeat CPU 0 instructions: 66000003 cycles: 121960769 heartbeat IPC: 0.586747 cumulative IPC: 0.483309 (Simulation time: 0 hr 46 min 50 sec) 
Heartbeat CPU 0 instructions: 67000001 cycles: 123698395 heartbeat IPC: 0.575497 cumulative IPC: 0.484671 (Simulation time: 0 hr 47 min 52 sec) 
Heartbeat CPU 0 instructions: 68000000 cycles: 125436082 heartbeat IPC: 0.575477 cumulative IPC: 0.485993 (Simulation time: 0 hr 48 min 52 sec) 
Heartbeat CPU 0 instructions: 69000003 cycles: 127152162 heartbeat IPC: 0.582725 cumulative IPC: 0.487365 (Simulation time: 0 hr 49 min 53 sec) 
Heartbeat CPU 0 instructions: 70000000 cycles: 128805063 heartbeat IPC: 0.604995 cumulative IPC: 0.488949 (Simulation time: 0 hr 50 min 55 sec) 
Heartbeat CPU 0 instructions: 71000002 cycles: 130533222 heartbeat IPC: 0.578652 cumulative IPC: 0.490195 (Simulation time: 0 hr 51 min 55 sec) 
Heartbeat CPU 0 instructions: 72000000 cycles: 132273027 heartbeat IPC: 0.574776 cumulative IPC: 0.491361 (Simulation time: 0 hr 52 min 52 sec) 
Heartbeat CPU 0 instructions: 73000001 cycles: 134739821 heartbeat IPC: 0.405385 cumulative IPC: 0.489713 (Simulation time: 0 hr 53 min 42 sec) 
Heartbeat CPU 0 instructions: 74000002 cycles: 140662261 heartbeat IPC: 0.168849 cumulative IPC: 0.475591 (Simulation time: 0 hr 54 min 36 sec) 
Heartbeat CPU 0 instructions: 75000002 cycles: 142361149 heartbeat IPC: 0.58862 cumulative IPC: 0.477 (Simulation time: 0 hr 55 min 21 sec) 
Heartbeat CPU 0 instructions: 76000000 cycles: 144100458 heartbeat IPC: 0.57494 cumulative IPC: 0.478235 (Simulation time: 0 hr 56 min 5 sec) 
Heartbeat CPU 0 instructions: 77000001 cycles: 145839472 heartbeat IPC: 0.575039 cumulative IPC: 0.479439 (Simulation time: 0 hr 56 min 47 sec) 
Heartbeat CPU 0 instructions: 78000000 cycles: 147561747 heartbeat IPC: 0.580627 cumulative IPC: 0.480671 (Simulation time: 0 hr 57 min 26 sec) 
Heartbeat CPU 0 instructions: 79000003 cycles: 149208677 heartbeat IPC: 0.607192 cumulative IPC: 0.482127 (Simulation time: 0 hr 58 min 3 sec) 
Heartbeat CPU 0 instructions: 80000000 cycles: 150939802 heartbeat IPC: 0.577657 cumulative IPC: 0.483269 (Simulation time: 0 hr 58 min 38 sec) 
Heartbeat CPU 0 instructions: 81000002 cycles: 152677747 heartbeat IPC: 0.575393 cumulative IPC: 0.484361 (Simulation time: 0 hr 59 min 10 sec) 
Heartbeat CPU 0 instructions: 82000000 cycles: 154416676 heartbeat IPC: 0.575065 cumulative IPC: 0.485425 (Simulation time: 0 hr 59 min 41 sec) 
Heartbeat CPU 0 instructions: 83000000 cycles: 156102953 heartbeat IPC: 0.593022 cumulative IPC: 0.486634 (Simulation time: 1 hr 0 min 10 sec) 
Heartbeat CPU 0 instructions: 84000000 cycles: 157778623 heartbeat IPC: 0.596776 cumulative IPC: 0.487851 (Simulation time: 1 hr 0 min 41 sec) 
Heartbeat CPU 0 instructions: 85000003 cycles: 159540338 heartbeat IPC: 0.56763 cumulative IPC: 0.488767 (Simulation time: 1 hr 1 min 11 sec) 
Heartbeat CPU 0 instructions: 86000000 cycles: 161279086 heartbeat IPC: 0.575125 cumulative IPC: 0.489734 (Simulation time: 1 hr 1 min 40 sec) 
Heartbeat CPU 0 instructions: 87000001 cycles: 168029400 heartbeat IPC: 0.148141 cumulative IPC: 0.475495 (Simulation time: 1 hr 2 min 14 sec) 
Heartbeat CPU 0 instructions: 88000000 cycles: 169675673 heartbeat IPC: 0.607432 cumulative IPC: 0.476823 (Simulation time: 1 hr 2 min 44 sec) 
Heartbeat CPU 0 instructions: 89000002 cycles: 171402716 heartbeat IPC: 0.579026 cumulative IPC: 0.477891 (Simulation time: 1 hr 3 min 14 sec) 
Heartbeat CPU 0 instructions: 90000001 cycles: 173167983 heartbeat IPC: 0.566486 cumulative IPC: 0.478827 (Simulation time: 1 hr 3 min 41 sec) 
Heartbeat CPU 0 instructions: 91000002 cycles: 174906729 heartbeat IPC: 0.575128 cumulative IPC: 0.479819 (Simulation time: 1 hr 4 min 8 sec) 
Heartbeat CPU 0 instructions: 92000000 cycles: 176601601 heartbeat IPC: 0.590014 cumulative IPC: 0.480914 (Simulation time: 1 hr 4 min 35 sec) 
Heartbeat CPU 0 instructions: 93000002 cycles: 178271924 heartbeat IPC: 0.598688 cumulative IPC: 0.482056 (Simulation time: 1 hr 4 min 59 sec) 
Heartbeat CPU 0 instructions: 94000002 cycles: 180006259 heartbeat IPC: 0.57659 cumulative IPC: 0.482999 (Simulation time: 1 hr 5 min 23 sec) 
Heartbeat CPU 0 instructions: 95000003 cycles: 181745685 heartbeat IPC: 0.574903 cumulative IPC: 0.483909 (Simulation time: 1 hr 5 min 45 sec) 
Heartbeat CPU 0 instructions: 96000000 cycles: 183479576 heartbeat IPC: 0.576736 cumulative IPC: 0.484817 (Simulation time: 1 hr 6 min 6 sec) 
Heartbeat CPU 0 instructions: 97000003 cycles: 185140863 heartbeat IPC: 0.601945 cumulative IPC: 0.485903 (Simulation time: 1 hr 6 min 26 sec) 
Heartbeat CPU 0 instructions: 98000003 cycles: 186841816 heartbeat IPC: 0.587906 cumulative IPC: 0.486863 (Simulation time: 1 hr 6 min 47 sec) 
Heartbeat CPU 0 instructions: 99000000 cycles: 188579041 heartbeat IPC: 0.575629 cumulative IPC: 0.487708 (Simulation time: 1 hr 7 min 6 sec) 
Heartbeat CPU 0 instructions: 100000000 cycles: 195345888 heartbeat IPC: 0.147779 cumulative IPC: 0.475554 (Simulation time: 1 hr 7 min 29 sec) 
Heartbeat CPU 0 instructions: 101000000 cycles: 197043922 heartbeat IPC: 0.588916 cumulative IPC: 0.476562 (Simulation time: 1 hr 7 min 46 sec) 
Heartbeat CPU 0 instructions: 102000003 cycles: 198711875 heartbeat IPC: 0.599539 cumulative IPC: 0.477627 (Simulation time: 1 hr 8 min 3 sec) 
Heartbeat CPU 0 instructions: 103000000 cycles: 200444548 heartbeat IPC: 0.577141 cumulative IPC: 0.478514 (Simulation time: 1 hr 8 min 19 sec) 
Heartbeat CPU 0 instructions: 104000000 cycles: 202183509 heartbeat IPC: 0.575056 cumulative IPC: 0.47937 (Simulation time: 1 hr 8 min 35 sec) 
Heartbeat CPU 0 instructions: 105000001 cycles: 203917907 heartbeat IPC: 0.576569 cumulative IPC: 0.480222 (Simulation time: 1 hr 8 min 50 sec) 
Heartbeat CPU 0 instructions: 106000000 cycles: 205585356 heartbeat IPC: 0.599718 cumulative IPC: 0.481221 (Simulation time: 1 hr 9 min 5 sec) 
Heartbeat CPU 0 instructions: 107000001 cycles: 207281407 heartbeat IPC: 0.589606 cumulative IPC: 0.482135 (Simulation time: 1 hr 9 min 19 sec) 
Heartbeat CPU 0 instructions: 108000000 cycles: 209020272 heartbeat IPC: 0.575087 cumulative IPC: 0.482931 (Simulation time: 1 hr 9 min 31 sec) 
Heartbeat CPU 0 instructions: 109000002 cycles: 210758071 heartbeat IPC: 0.575442 cumulative IPC: 0.483717 (Simulation time: 1 hr 9 min 43 sec) 
Heartbeat CPU 0 instructions: 110000001 cycles: 212483290 heartbeat IPC: 0.579636 cumulative IPC: 0.484519 (Simulation time: 1 hr 9 min 54 sec) 
Finished CPU 0 instructions: 100000003 cycles: 206390379 cummulative IPC: 0.484519 (Simulation time: 1 hr 9 min 54 sec) 

ChampSim completed all CPUs

Region of Interest Statistics

CPU 0 cummulative IPC: 0.484519 instructions: 100000003 cycles: 206390379
LLC TOTAL     ACCESS:    1107567  HIT:     335256  MISS:     772311
LLC LOAD      ACCESS:      23120  HIT:       3680  MISS:      19440
LLC RFO       ACCESS:     245174  HIT:      67003  MISS:     178171
LLC PREFETCH  ACCESS:     593762  HIT:     161374  MISS:     432388
LLC WRITEBACK ACCESS:     245511  HIT:     103199  MISS:     142312
Insertion Distribution: 
	LOAD 0 0 0 0 3745 17212 
	RFO 19866 0 0 0 21831 167195 
	PREF 0 31768 0 0 65596 400480 
	WRITEBACK 0 0 0 0 0 151578 
Total Prefetch Downgrades: 36302
