
*** ChampSim Multicore Out-of-Order Simulator ***

Warmup Instructions: 10000000
Simulation Instructions: 100000000
Configuration: 2
Number of CPUs: 1
LLC sets: 2048
LLC ways: 16
Off-chip DRAM Channels: 1 Width: 64-bit Data Rate: 1600 MT/s

CPU 0 runs /datasets/cs240c-wi22-a00-public/data/Assignment2-gz/sphinx3_883B.trace.gz
CPU 0 L1D next line prefetcher
CPU 0 L2C IP-based stride prefetcher
Initialize SRRIP state
Heartbeat CPU 0 instructions: 1000003 cycles: 414388 heartbeat IPC: 2.4132 cumulative IPC: 2.4132 (Simulation time: 0 hr 0 min 43 sec) 
Heartbeat CPU 0 instructions: 2000000 cycles: 823945 heartbeat IPC: 2.44166 cumulative IPC: 2.42735 (Simulation time: 0 hr 1 min 32 sec) 
Heartbeat CPU 0 instructions: 3000003 cycles: 1298783 heartbeat IPC: 2.10599 cumulative IPC: 2.30986 (Simulation time: 0 hr 2 min 19 sec) 
Heartbeat CPU 0 instructions: 4000000 cycles: 1637673 heartbeat IPC: 2.9508 cumulative IPC: 2.44249 (Simulation time: 0 hr 3 min 3 sec) 
Heartbeat CPU 0 instructions: 5000000 cycles: 1992324 heartbeat IPC: 2.81967 cumulative IPC: 2.50963 (Simulation time: 0 hr 3 min 50 sec) 
Heartbeat CPU 0 instructions: 6000003 cycles: 2406749 heartbeat IPC: 2.41299 cumulative IPC: 2.49299 (Simulation time: 0 hr 4 min 35 sec) 
Heartbeat CPU 0 instructions: 7000002 cycles: 2815526 heartbeat IPC: 2.44632 cumulative IPC: 2.48621 (Simulation time: 0 hr 5 min 24 sec) 
Heartbeat CPU 0 instructions: 8000000 cycles: 3291701 heartbeat IPC: 2.10006 cumulative IPC: 2.43035 (Simulation time: 0 hr 6 min 6 sec) 
Heartbeat CPU 0 instructions: 9000001 cycles: 3630701 heartbeat IPC: 2.94986 cumulative IPC: 2.47886 (Simulation time: 0 hr 6 min 38 sec) 
Heartbeat CPU 0 instructions: 10000000 cycles: 3984781 heartbeat IPC: 2.82422 cumulative IPC: 2.50955 (Simulation time: 0 hr 7 min 24 sec) 

Warmup complete CPU 0 instructions: 10000004 cycles: 3984782 (Simulation time: 0 hr 7 min 24 sec) 

Heartbeat CPU 0 instructions: 11000002 cycles: 5717201 heartbeat IPC: 0.577228 cumulative IPC: 0.577226 (Simulation time: 0 hr 8 min 21 sec) 
Heartbeat CPU 0 instructions: 12000000 cycles: 7337750 heartbeat IPC: 0.617074 cumulative IPC: 0.596485 (Simulation time: 0 hr 9 min 18 sec) 
Heartbeat CPU 0 instructions: 13000001 cycles: 8521901 heartbeat IPC: 0.844488 cumulative IPC: 0.661212 (Simulation time: 0 hr 10 min 9 sec) 
Heartbeat CPU 0 instructions: 14000002 cycles: 9238485 heartbeat IPC: 1.39551 cumulative IPC: 0.761367 (Simulation time: 0 hr 10 min 56 sec) 
Heartbeat CPU 0 instructions: 15000000 cycles: 10100000 heartbeat IPC: 1.16074 cumulative IPC: 0.817632 (Simulation time: 0 hr 11 min 45 sec) 
Heartbeat CPU 0 instructions: 16000000 cycles: 11811992 heartbeat IPC: 0.584115 cumulative IPC: 0.766556 (Simulation time: 0 hr 12 min 38 sec) 
Heartbeat CPU 0 instructions: 17000000 cycles: 13420777 heartbeat IPC: 0.621587 cumulative IPC: 0.74184 (Simulation time: 0 hr 13 min 25 sec) 
Heartbeat CPU 0 instructions: 18000002 cycles: 14702743 heartbeat IPC: 0.780053 cumulative IPC: 0.74641 (Simulation time: 0 hr 14 min 5 sec) 
Heartbeat CPU 0 instructions: 19000001 cycles: 15496222 heartbeat IPC: 1.26027 cumulative IPC: 0.781831 (Simulation time: 0 hr 14 min 35 sec) 
Heartbeat CPU 0 instructions: 20000000 cycles: 16254337 heartbeat IPC: 1.31906 cumulative IPC: 0.815025 (Simulation time: 0 hr 15 min 6 sec) 
Heartbeat CPU 0 instructions: 21000000 cycles: 17853118 heartbeat IPC: 0.625477 cumulative IPC: 0.793173 (Simulation time: 0 hr 15 min 40 sec) 
Heartbeat CPU 0 instructions: 22000002 cycles: 19492629 heartbeat IPC: 0.609939 cumulative IPC: 0.773802 (Simulation time: 0 hr 16 min 14 sec) 
Heartbeat CPU 0 instructions: 23000001 cycles: 21025634 heartbeat IPC: 0.652313 cumulative IPC: 0.762872 (Simulation time: 0 hr 16 min 44 sec) 
Heartbeat CPU 0 instructions: 24000000 cycles: 21931655 heartbeat IPC: 1.10373 cumulative IPC: 0.78008 (Simulation time: 0 hr 17 min 13 sec) 
Heartbeat CPU 0 instructions: 25000001 cycles: 22722448 heartbeat IPC: 1.26455 cumulative IPC: 0.800526 (Simulation time: 0 hr 17 min 42 sec) 
Heartbeat CPU 0 instructions: 26000001 cycles: 23966639 heartbeat IPC: 0.803735 cumulative IPC: 0.800726 (Simulation time: 0 hr 18 min 13 sec) 
Heartbeat CPU 0 instructions: 27000001 cycles: 25597888 heartbeat IPC: 0.613027 cumulative IPC: 0.78656 (Simulation time: 0 hr 18 min 43 sec) 
Heartbeat CPU 0 instructions: 28000000 cycles: 27194836 heartbeat IPC: 0.626194 cumulative IPC: 0.775526 (Simulation time: 0 hr 19 min 20 sec) 
Heartbeat CPU 0 instructions: 29000000 cycles: 28213178 heartbeat IPC: 0.981988 cumulative IPC: 0.784204 (Simulation time: 0 hr 19 min 51 sec) 
Heartbeat CPU 0 instructions: 30000002 cycles: 29016163 heartbeat IPC: 1.24536 cumulative IPC: 0.798997 (Simulation time: 0 hr 20 min 25 sec) 
Heartbeat CPU 0 instructions: 31000003 cycles: 30111696 heartbeat IPC: 0.912799 cumulative IPC: 0.803769 (Simulation time: 0 hr 20 min 56 sec) 
Heartbeat CPU 0 instructions: 32000000 cycles: 31741718 heartbeat IPC: 0.613487 cumulative IPC: 0.792595 (Simulation time: 0 hr 21 min 33 sec) 
Heartbeat CPU 0 instructions: 33000000 cycles: 33301281 heartbeat IPC: 0.641205 cumulative IPC: 0.784541 (Simulation time: 0 hr 22 min 5 sec) 
Heartbeat CPU 0 instructions: 34000000 cycles: 34416166 heartbeat IPC: 0.896954 cumulative IPC: 0.788659 (Simulation time: 0 hr 22 min 39 sec) 
Heartbeat CPU 0 instructions: 35000003 cycles: 35225694 heartbeat IPC: 1.23529 cumulative IPC: 0.800233 (Simulation time: 0 hr 23 min 8 sec) 
Heartbeat CPU 0 instructions: 36000000 cycles: 36271373 heartbeat IPC: 0.956314 cumulative IPC: 0.805288 (Simulation time: 0 hr 23 min 39 sec) 
Heartbeat CPU 0 instructions: 37000001 cycles: 37915257 heartbeat IPC: 0.608316 cumulative IPC: 0.795745 (Simulation time: 0 hr 24 min 13 sec) 
Heartbeat CPU 0 instructions: 38000000 cycles: 39478689 heartbeat IPC: 0.639618 cumulative IPC: 0.788868 (Simulation time: 0 hr 24 min 43 sec) 
Heartbeat CPU 0 instructions: 39000003 cycles: 40578760 heartbeat IPC: 0.909035 cumulative IPC: 0.79248 (Simulation time: 0 hr 25 min 14 sec) 
Heartbeat CPU 0 instructions: 40000000 cycles: 41397125 heartbeat IPC: 1.22194 cumulative IPC: 0.801874 (Simulation time: 0 hr 25 min 41 sec) 
Heartbeat CPU 0 instructions: 41000003 cycles: 42434619 heartbeat IPC: 0.963864 cumulative IPC: 0.806245 (Simulation time: 0 hr 26 min 11 sec) 
Heartbeat CPU 0 instructions: 42000000 cycles: 44090334 heartbeat IPC: 0.603967 cumulative IPC: 0.797894 (Simulation time: 0 hr 26 min 45 sec) 
Heartbeat CPU 0 instructions: 43000003 cycles: 45681748 heartbeat IPC: 0.628374 cumulative IPC: 0.791424 (Simulation time: 0 hr 27 min 16 sec) 
Heartbeat CPU 0 instructions: 44000000 cycles: 46717969 heartbeat IPC: 0.965042 cumulative IPC: 0.795634 (Simulation time: 0 hr 27 min 47 sec) 
Heartbeat CPU 0 instructions: 45000002 cycles: 47526289 heartbeat IPC: 1.23714 cumulative IPC: 0.803831 (Simulation time: 0 hr 28 min 16 sec) 
Heartbeat CPU 0 instructions: 46000001 cycles: 48600108 heartbeat IPC: 0.931255 cumulative IPC: 0.806898 (Simulation time: 0 hr 28 min 46 sec) 
Heartbeat CPU 0 instructions: 47000002 cycles: 50238225 heartbeat IPC: 0.610458 cumulative IPC: 0.79994 (Simulation time: 0 hr 29 min 22 sec) 
Heartbeat CPU 0 instructions: 48000000 cycles: 51825343 heartbeat IPC: 0.630072 cumulative IPC: 0.794305 (Simulation time: 0 hr 29 min 55 sec) 
Heartbeat CPU 0 instructions: 49000001 cycles: 52774386 heartbeat IPC: 1.05369 cumulative IPC: 0.799351 (Simulation time: 0 hr 30 min 23 sec) 
Heartbeat CPU 0 instructions: 50000000 cycles: 53582967 heartbeat IPC: 1.23673 cumulative IPC: 0.806481 (Simulation time: 0 hr 30 min 50 sec) 
Heartbeat CPU 0 instructions: 51000003 cycles: 54703855 heartbeat IPC: 0.892152 cumulative IPC: 0.808374 (Simulation time: 0 hr 31 min 20 sec) 
Heartbeat CPU 0 instructions: 52000000 cycles: 56379714 heartbeat IPC: 0.596707 cumulative IPC: 0.801604 (Simulation time: 0 hr 31 min 53 sec) 
Heartbeat CPU 0 instructions: 53000000 cycles: 58173120 heartbeat IPC: 0.557598 cumulative IPC: 0.793529 (Simulation time: 0 hr 32 min 24 sec) 
Heartbeat CPU 0 instructions: 54000003 cycles: 59455844 heartbeat IPC: 0.779593 cumulative IPC: 0.793206 (Simulation time: 0 hr 32 min 58 sec) 
Heartbeat CPU 0 instructions: 55000003 cycles: 60331053 heartbeat IPC: 1.14258 cumulative IPC: 0.798633 (Simulation time: 0 hr 33 min 32 sec) 
Heartbeat CPU 0 instructions: 56000000 cycles: 61203462 heartbeat IPC: 1.14625 cumulative IPC: 0.803933 (Simulation time: 0 hr 34 min 8 sec) 
Heartbeat CPU 0 instructions: 57000002 cycles: 62391765 heartbeat IPC: 0.841538 cumulative IPC: 0.804698 (Simulation time: 0 hr 34 min 46 sec) 
Heartbeat CPU 0 instructions: 58000001 cycles: 63433567 heartbeat IPC: 0.959874 cumulative IPC: 0.807418 (Simulation time: 0 hr 35 min 21 sec) 
Heartbeat CPU 0 instructions: 59000003 cycles: 64275180 heartbeat IPC: 1.1882 cumulative IPC: 0.812733 (Simulation time: 0 hr 35 min 55 sec) 
Heartbeat CPU 0 instructions: 60000000 cycles: 65164579 heartbeat IPC: 1.12435 cumulative IPC: 0.817263 (Simulation time: 0 hr 36 min 31 sec) 
Heartbeat CPU 0 instructions: 61000001 cycles: 66381608 heartbeat IPC: 0.821674 cumulative IPC: 0.817349 (Simulation time: 0 hr 37 min 12 sec) 
Heartbeat CPU 0 instructions: 62000001 cycles: 67223369 heartbeat IPC: 1.18799 cumulative IPC: 0.822283 (Simulation time: 0 hr 37 min 50 sec) 
Heartbeat CPU 0 instructions: 63000003 cycles: 68045304 heartbeat IPC: 1.21664 cumulative IPC: 0.827343 (Simulation time: 0 hr 38 min 28 sec) 
Heartbeat CPU 0 instructions: 64000000 cycles: 69320897 heartbeat IPC: 0.783947 cumulative IPC: 0.826495 (Simulation time: 0 hr 39 min 6 sec) 
Heartbeat CPU 0 instructions: 65000003 cycles: 70187872 heartbeat IPC: 1.15344 cumulative IPC: 0.830777 (Simulation time: 0 hr 39 min 42 sec) 
Heartbeat CPU 0 instructions: 66000002 cycles: 71025165 heartbeat IPC: 1.19432 cumulative IPC: 0.835317 (Simulation time: 0 hr 40 min 18 sec) 
Heartbeat CPU 0 instructions: 67000000 cycles: 72279657 heartbeat IPC: 0.797134 cumulative IPC: 0.834616 (Simulation time: 0 hr 40 min 57 sec) 
Heartbeat CPU 0 instructions: 68000000 cycles: 73939282 heartbeat IPC: 0.602546 cumulative IPC: 0.82911 (Simulation time: 0 hr 41 min 37 sec) 
Heartbeat CPU 0 instructions: 69000003 cycles: 74799767 heartbeat IPC: 1.16214 cumulative IPC: 0.833157 (Simulation time: 0 hr 42 min 14 sec) 
Heartbeat CPU 0 instructions: 70000000 cycles: 75651727 heartbeat IPC: 1.17376 cumulative IPC: 0.837206 (Simulation time: 0 hr 42 min 55 sec) 
Heartbeat CPU 0 instructions: 71000000 cycles: 76813823 heartbeat IPC: 0.860514 cumulative IPC: 0.837578 (Simulation time: 0 hr 43 min 44 sec) 
Heartbeat CPU 0 instructions: 72000000 cycles: 78302030 heartbeat IPC: 0.67195 cumulative IPC: 0.834261 (Simulation time: 0 hr 44 min 29 sec) 
Heartbeat CPU 0 instructions: 73000000 cycles: 79155756 heartbeat IPC: 1.17134 cumulative IPC: 0.838089 (Simulation time: 0 hr 45 min 11 sec) 
Heartbeat CPU 0 instructions: 74000000 cycles: 80006715 heartbeat IPC: 1.17514 cumulative IPC: 0.841862 (Simulation time: 0 hr 45 min 50 sec) 
Heartbeat CPU 0 instructions: 75000000 cycles: 81227216 heartbeat IPC: 0.819336 cumulative IPC: 0.841506 (Simulation time: 0 hr 46 min 41 sec) 
Heartbeat CPU 0 instructions: 76000000 cycles: 82543790 heartbeat IPC: 0.759547 cumulative IPC: 0.840133 (Simulation time: 0 hr 47 min 31 sec) 
Heartbeat CPU 0 instructions: 77000003 cycles: 83412709 heartbeat IPC: 1.15086 cumulative IPC: 0.843532 (Simulation time: 0 hr 48 min 15 sec) 
Heartbeat CPU 0 instructions: 78000000 cycles: 84259435 heartbeat IPC: 1.18102 cumulative IPC: 0.847092 (Simulation time: 0 hr 49 min 3 sec) 
Heartbeat CPU 0 instructions: 79000001 cycles: 85638412 heartbeat IPC: 0.725176 cumulative IPC: 0.845033 (Simulation time: 0 hr 49 min 57 sec) 
Heartbeat CPU 0 instructions: 80000000 cycles: 86816521 heartbeat IPC: 0.848817 cumulative IPC: 0.845087 (Simulation time: 0 hr 50 min 47 sec) 
Heartbeat CPU 0 instructions: 81000000 cycles: 87669403 heartbeat IPC: 1.1725 cumulative IPC: 0.848423 (Simulation time: 0 hr 51 min 33 sec) 
Heartbeat CPU 0 instructions: 82000000 cycles: 88500969 heartbeat IPC: 1.20255 cumulative IPC: 0.851908 (Simulation time: 0 hr 52 min 22 sec) 
Heartbeat CPU 0 instructions: 83000000 cycles: 89998507 heartbeat IPC: 0.667763 cumulative IPC: 0.848702 (Simulation time: 0 hr 53 min 15 sec) 
Heartbeat CPU 0 instructions: 84000000 cycles: 90907767 heartbeat IPC: 1.0998 cumulative IPC: 0.851328 (Simulation time: 0 hr 53 min 59 sec) 
Heartbeat CPU 0 instructions: 85000001 cycles: 91726240 heartbeat IPC: 1.22179 cumulative IPC: 0.854784 (Simulation time: 0 hr 54 min 39 sec) 
Heartbeat CPU 0 instructions: 86000001 cycles: 92788185 heartbeat IPC: 0.941668 cumulative IPC: 0.855823 (Simulation time: 0 hr 55 min 12 sec) 
Heartbeat CPU 0 instructions: 87000000 cycles: 94008059 heartbeat IPC: 0.819756 cumulative IPC: 0.855334 (Simulation time: 0 hr 55 min 44 sec) 
Heartbeat CPU 0 instructions: 88000000 cycles: 94851354 heartbeat IPC: 1.18582 cumulative IPC: 0.858401 (Simulation time: 0 hr 56 min 16 sec) 
Heartbeat CPU 0 instructions: 89000000 cycles: 95671241 heartbeat IPC: 1.21968 cumulative IPC: 0.861632 (Simulation time: 0 hr 56 min 46 sec) 
Heartbeat CPU 0 instructions: 90000000 cycles: 97038954 heartbeat IPC: 0.731148 cumulative IPC: 0.859714 (Simulation time: 0 hr 57 min 17 sec) 
Heartbeat CPU 0 instructions: 91000003 cycles: 98292198 heartbeat IPC: 0.797932 cumulative IPC: 0.858893 (Simulation time: 0 hr 57 min 48 sec) 
Heartbeat CPU 0 instructions: 92000000 cycles: 99244470 heartbeat IPC: 1.05012 cumulative IPC: 0.860805 (Simulation time: 0 hr 58 min 14 sec) 
Heartbeat CPU 0 instructions: 93000000 cycles: 100064865 heartbeat IPC: 1.21892 cumulative IPC: 0.863863 (Simulation time: 0 hr 58 min 38 sec) 
Heartbeat CPU 0 instructions: 94000002 cycles: 100892078 heartbeat IPC: 1.20888 cumulative IPC: 0.866808 (Simulation time: 0 hr 59 min 4 sec) 
Heartbeat CPU 0 instructions: 95000001 cycles: 102333222 heartbeat IPC: 0.693892 cumulative IPC: 0.864274 (Simulation time: 0 hr 59 min 28 sec) 
Heartbeat CPU 0 instructions: 96000000 cycles: 103182255 heartbeat IPC: 1.17781 cumulative IPC: 0.866958 (Simulation time: 0 hr 59 min 51 sec) 
Heartbeat CPU 0 instructions: 97000002 cycles: 104013666 heartbeat IPC: 1.20278 cumulative IPC: 0.869749 (Simulation time: 1 hr 0 min 14 sec) 
Heartbeat CPU 0 instructions: 98000003 cycles: 105235190 heartbeat IPC: 0.81865 cumulative IPC: 0.869132 (Simulation time: 1 hr 0 min 40 sec) 
Heartbeat CPU 0 instructions: 99000000 cycles: 106323481 heartbeat IPC: 0.918869 cumulative IPC: 0.869661 (Simulation time: 1 hr 1 min 3 sec) 
Heartbeat CPU 0 instructions: 100000000 cycles: 107155660 heartbeat IPC: 1.20166 cumulative IPC: 0.872339 (Simulation time: 1 hr 1 min 25 sec) 
Heartbeat CPU 0 instructions: 101000000 cycles: 107989122 heartbeat IPC: 1.19981 cumulative IPC: 0.874963 (Simulation time: 1 hr 1 min 47 sec) 
Heartbeat CPU 0 instructions: 102000003 cycles: 109531422 heartbeat IPC: 0.648384 cumulative IPC: 0.871653 (Simulation time: 1 hr 2 min 10 sec) 
Heartbeat CPU 0 instructions: 103000001 cycles: 110468119 heartbeat IPC: 1.06758 cumulative IPC: 0.873376 (Simulation time: 1 hr 2 min 32 sec) 
Heartbeat CPU 0 instructions: 104000000 cycles: 111309192 heartbeat IPC: 1.18896 cumulative IPC: 0.875849 (Simulation time: 1 hr 2 min 54 sec) 
Heartbeat CPU 0 instructions: 105000002 cycles: 112417293 heartbeat IPC: 0.902447 cumulative IPC: 0.876121 (Simulation time: 1 hr 3 min 17 sec) 
Heartbeat CPU 0 instructions: 106000003 cycles: 113930567 heartbeat IPC: 0.66082 cumulative IPC: 0.873158 (Simulation time: 1 hr 3 min 41 sec) 
Heartbeat CPU 0 instructions: 107000003 cycles: 114758361 heartbeat IPC: 1.20803 cumulative IPC: 0.87566 (Simulation time: 1 hr 4 min 1 sec) 
Heartbeat CPU 0 instructions: 108000000 cycles: 115583487 heartbeat IPC: 1.21193 cumulative IPC: 0.878146 (Simulation time: 1 hr 4 min 20 sec) 
Heartbeat CPU 0 instructions: 109000001 cycles: 116765292 heartbeat IPC: 0.846164 cumulative IPC: 0.877811 (Simulation time: 1 hr 4 min 41 sec) 
Heartbeat CPU 0 instructions: 110000000 cycles: 118176836 heartbeat IPC: 0.708443 cumulative IPC: 0.875718 (Simulation time: 1 hr 5 min 1 sec) 
Finished CPU 0 instructions: 100000000 cycles: 114192055 cummulative IPC: 0.875718 (Simulation time: 1 hr 5 min 1 sec) 

ChampSim completed all CPUs

Region of Interest Statistics

CPU 0 cummulative IPC: 0.875718 instructions: 100000000 cycles: 114192055
LLC TOTAL     ACCESS:    1795748  HIT:     716356  MISS:    1079392
LLC LOAD      ACCESS:     315545  HIT:     202467  MISS:     113078
LLC RFO       ACCESS:      99614  HIT:      79413  MISS:      20201
LLC PREFETCH  ACCESS:    1239168  HIT:     303211  MISS:     935957
LLC WRITEBACK ACCESS:     141421  HIT:     131265  MISS:      10156
Insertion Distribution: 
	LOAD 11240 0 0 0 22853 103404 
	RFO 10589 0 0 0 3588 9870 
	PREF 0 3713 0 0 89415 950829 
	WRITEBACK 0 0 0 0 0 11303 
Total Prefetch Downgrades: 6527
