
*** ChampSim Multicore Out-of-Order Simulator ***

Warmup Instructions: 10000000
Simulation Instructions: 100000000
Configuration: 2
Number of CPUs: 1
LLC sets: 2048
LLC ways: 16
Off-chip DRAM Channels: 1 Width: 64-bit Data Rate: 1600 MT/s

CPU 0 runs /datasets/cs240c-wi22-a00-public/data/Assignment2-gz/omnetpp_4B.trace.gz
CPU 0 L1D next line prefetcher
CPU 0 L2C IP-based stride prefetcher
Initialize SRRIP state
Heartbeat CPU 0 instructions: 1000001 cycles: 566984 heartbeat IPC: 1.76372 cumulative IPC: 1.76372 (Simulation time: 0 hr 0 min 30 sec) 
Heartbeat CPU 0 instructions: 2000001 cycles: 1135714 heartbeat IPC: 1.7583 cumulative IPC: 1.76101 (Simulation time: 0 hr 1 min 0 sec) 
Heartbeat CPU 0 instructions: 3000001 cycles: 1722945 heartbeat IPC: 1.70291 cumulative IPC: 1.74121 (Simulation time: 0 hr 1 min 30 sec) 
Heartbeat CPU 0 instructions: 4000000 cycles: 2292439 heartbeat IPC: 1.75594 cumulative IPC: 1.74487 (Simulation time: 0 hr 1 min 57 sec) 
Heartbeat CPU 0 instructions: 5000000 cycles: 2866661 heartbeat IPC: 1.74149 cumulative IPC: 1.74419 (Simulation time: 0 hr 2 min 27 sec) 
Heartbeat CPU 0 instructions: 6000000 cycles: 3442833 heartbeat IPC: 1.73559 cumulative IPC: 1.74275 (Simulation time: 0 hr 2 min 55 sec) 
Heartbeat CPU 0 instructions: 7000000 cycles: 4012138 heartbeat IPC: 1.75653 cumulative IPC: 1.74471 (Simulation time: 0 hr 3 min 22 sec) 
Heartbeat CPU 0 instructions: 8000000 cycles: 4565613 heartbeat IPC: 1.80677 cumulative IPC: 1.75223 (Simulation time: 0 hr 3 min 52 sec) 
Heartbeat CPU 0 instructions: 9000001 cycles: 5147697 heartbeat IPC: 1.71797 cumulative IPC: 1.74835 (Simulation time: 0 hr 4 min 19 sec) 
Heartbeat CPU 0 instructions: 10000000 cycles: 5701660 heartbeat IPC: 1.80517 cumulative IPC: 1.75388 (Simulation time: 0 hr 4 min 43 sec) 

Warmup complete CPU 0 instructions: 10000003 cycles: 5701661 (Simulation time: 0 hr 4 min 43 sec) 

Heartbeat CPU 0 instructions: 11000000 cycles: 8872946 heartbeat IPC: 0.315329 cumulative IPC: 0.315329 (Simulation time: 0 hr 5 min 17 sec) 
Heartbeat CPU 0 instructions: 12000000 cycles: 10027320 heartbeat IPC: 0.86627 cumulative IPC: 0.462357 (Simulation time: 0 hr 5 min 40 sec) 
Heartbeat CPU 0 instructions: 13000003 cycles: 11172269 heartbeat IPC: 0.873404 cumulative IPC: 0.548385 (Simulation time: 0 hr 6 min 5 sec) 
Heartbeat CPU 0 instructions: 14000000 cycles: 12292515 heartbeat IPC: 0.892658 cumulative IPC: 0.606901 (Simulation time: 0 hr 6 min 29 sec) 
Heartbeat CPU 0 instructions: 15000000 cycles: 13431686 heartbeat IPC: 0.877831 cumulative IPC: 0.646828 (Simulation time: 0 hr 6 min 56 sec) 
Heartbeat CPU 0 instructions: 16000000 cycles: 16276172 heartbeat IPC: 0.351557 cumulative IPC: 0.567402 (Simulation time: 0 hr 7 min 30 sec) 
Heartbeat CPU 0 instructions: 17000003 cycles: 19129729 heartbeat IPC: 0.350441 cumulative IPC: 0.521296 (Simulation time: 0 hr 8 min 3 sec) 
Heartbeat CPU 0 instructions: 18000002 cycles: 21915105 heartbeat IPC: 0.359018 cumulative IPC: 0.493418 (Simulation time: 0 hr 8 min 36 sec) 
Heartbeat CPU 0 instructions: 19000002 cycles: 24712459 heartbeat IPC: 0.357481 cumulative IPC: 0.473415 (Simulation time: 0 hr 9 min 7 sec) 
Heartbeat CPU 0 instructions: 20000000 cycles: 28039638 heartbeat IPC: 0.300554 cumulative IPC: 0.447668 (Simulation time: 0 hr 9 min 39 sec) 
Heartbeat CPU 0 instructions: 21000000 cycles: 31352886 heartbeat IPC: 0.301819 cumulative IPC: 0.428829 (Simulation time: 0 hr 10 min 11 sec) 
Heartbeat CPU 0 instructions: 22000001 cycles: 34538655 heartbeat IPC: 0.313896 cumulative IPC: 0.416132 (Simulation time: 0 hr 10 min 49 sec) 
Heartbeat CPU 0 instructions: 23000000 cycles: 37366122 heartbeat IPC: 0.353673 cumulative IPC: 0.410555 (Simulation time: 0 hr 11 min 18 sec) 
Heartbeat CPU 0 instructions: 24000000 cycles: 40161729 heartbeat IPC: 0.357704 cumulative IPC: 0.406267 (Simulation time: 0 hr 11 min 48 sec) 
Heartbeat CPU 0 instructions: 25000000 cycles: 42961365 heartbeat IPC: 0.357189 cumulative IPC: 0.40258 (Simulation time: 0 hr 12 min 20 sec) 
Heartbeat CPU 0 instructions: 26000002 cycles: 45723939 heartbeat IPC: 0.361982 cumulative IPC: 0.399777 (Simulation time: 0 hr 12 min 51 sec) 
Heartbeat CPU 0 instructions: 27000001 cycles: 48536468 heartbeat IPC: 0.355552 cumulative IPC: 0.396873 (Simulation time: 0 hr 13 min 23 sec) 
Heartbeat CPU 0 instructions: 28000000 cycles: 51290612 heartbeat IPC: 0.363089 cumulative IPC: 0.394832 (Simulation time: 0 hr 13 min 49 sec) 
Heartbeat CPU 0 instructions: 29000001 cycles: 54126897 heartbeat IPC: 0.352574 cumulative IPC: 0.392357 (Simulation time: 0 hr 14 min 18 sec) 
Heartbeat CPU 0 instructions: 30000000 cycles: 56926212 heartbeat IPC: 0.35723 cumulative IPC: 0.390438 (Simulation time: 0 hr 14 min 49 sec) 
Heartbeat CPU 0 instructions: 31000002 cycles: 59703431 heartbeat IPC: 0.360073 cumulative IPC: 0.388876 (Simulation time: 0 hr 15 min 17 sec) 
Heartbeat CPU 0 instructions: 32000000 cycles: 62522256 heartbeat IPC: 0.354757 cumulative IPC: 0.387184 (Simulation time: 0 hr 15 min 44 sec) 
Heartbeat CPU 0 instructions: 33000000 cycles: 65677601 heartbeat IPC: 0.316923 cumulative IPC: 0.383487 (Simulation time: 0 hr 16 min 12 sec) 
Heartbeat CPU 0 instructions: 34000001 cycles: 68984148 heartbeat IPC: 0.302431 cumulative IPC: 0.379252 (Simulation time: 0 hr 16 min 43 sec) 
Heartbeat CPU 0 instructions: 35000001 cycles: 72014114 heartbeat IPC: 0.330037 cumulative IPC: 0.377003 (Simulation time: 0 hr 17 min 17 sec) 
Heartbeat CPU 0 instructions: 36000000 cycles: 75297855 heartbeat IPC: 0.30453 cumulative IPC: 0.373584 (Simulation time: 0 hr 17 min 51 sec) 
Heartbeat CPU 0 instructions: 37000001 cycles: 78099881 heartbeat IPC: 0.356885 cumulative IPC: 0.372937 (Simulation time: 0 hr 18 min 21 sec) 
Heartbeat CPU 0 instructions: 38000001 cycles: 81286260 heartbeat IPC: 0.313836 cumulative IPC: 0.370446 (Simulation time: 0 hr 18 min 55 sec) 
Heartbeat CPU 0 instructions: 39000001 cycles: 83805865 heartbeat IPC: 0.396888 cumulative IPC: 0.371299 (Simulation time: 0 hr 19 min 21 sec) 
Heartbeat CPU 0 instructions: 40000000 cycles: 84928080 heartbeat IPC: 0.891094 cumulative IPC: 0.378662 (Simulation time: 0 hr 19 min 48 sec) 
Heartbeat CPU 0 instructions: 41000001 cycles: 86054353 heartbeat IPC: 0.887885 cumulative IPC: 0.385799 (Simulation time: 0 hr 20 min 14 sec) 
Heartbeat CPU 0 instructions: 42000001 cycles: 87188674 heartbeat IPC: 0.881585 cumulative IPC: 0.392701 (Simulation time: 0 hr 20 min 40 sec) 
Heartbeat CPU 0 instructions: 43000002 cycles: 88407390 heartbeat IPC: 0.820537 cumulative IPC: 0.399005 (Simulation time: 0 hr 21 min 10 sec) 
Heartbeat CPU 0 instructions: 44000000 cycles: 91309360 heartbeat IPC: 0.344593 cumulative IPC: 0.397161 (Simulation time: 0 hr 21 min 42 sec) 
Heartbeat CPU 0 instructions: 45000000 cycles: 94191166 heartbeat IPC: 0.347005 cumulative IPC: 0.395527 (Simulation time: 0 hr 22 min 15 sec) 
Heartbeat CPU 0 instructions: 46000000 cycles: 97534218 heartbeat IPC: 0.299128 cumulative IPC: 0.392018 (Simulation time: 0 hr 22 min 48 sec) 
Heartbeat CPU 0 instructions: 47000000 cycles: 100865969 heartbeat IPC: 0.300142 cumulative IPC: 0.388801 (Simulation time: 0 hr 23 min 21 sec) 
Heartbeat CPU 0 instructions: 48000000 cycles: 104016223 heartbeat IPC: 0.317435 cumulative IPC: 0.386514 (Simulation time: 0 hr 23 min 57 sec) 
Heartbeat CPU 0 instructions: 49000000 cycles: 106921972 heartbeat IPC: 0.344145 cumulative IPC: 0.385298 (Simulation time: 0 hr 24 min 28 sec) 
Heartbeat CPU 0 instructions: 50000001 cycles: 109725982 heartbeat IPC: 0.356632 cumulative IPC: 0.384525 (Simulation time: 0 hr 25 min 1 sec) 
Heartbeat CPU 0 instructions: 51000003 cycles: 112524290 heartbeat IPC: 0.35736 cumulative IPC: 0.383814 (Simulation time: 0 hr 25 min 32 sec) 
Heartbeat CPU 0 instructions: 52000000 cycles: 115304351 heartbeat IPC: 0.359703 cumulative IPC: 0.383202 (Simulation time: 0 hr 26 min 3 sec) 
Heartbeat CPU 0 instructions: 53000003 cycles: 118095077 heartbeat IPC: 0.358331 cumulative IPC: 0.382585 (Simulation time: 0 hr 26 min 36 sec) 
Heartbeat CPU 0 instructions: 54000001 cycles: 120861641 heartbeat IPC: 0.361458 cumulative IPC: 0.382077 (Simulation time: 0 hr 27 min 7 sec) 
Heartbeat CPU 0 instructions: 55000001 cycles: 123789749 heartbeat IPC: 0.341517 cumulative IPC: 0.381071 (Simulation time: 0 hr 27 min 39 sec) 
Heartbeat CPU 0 instructions: 56000000 cycles: 126609765 heartbeat IPC: 0.354608 cumulative IPC: 0.380454 (Simulation time: 0 hr 28 min 14 sec) 
Heartbeat CPU 0 instructions: 57000003 cycles: 129385785 heartbeat IPC: 0.360229 cumulative IPC: 0.38 (Simulation time: 0 hr 28 min 49 sec) 
Heartbeat CPU 0 instructions: 58000001 cycles: 132364959 heartbeat IPC: 0.335663 cumulative IPC: 0.378957 (Simulation time: 0 hr 29 min 20 sec) 
Heartbeat CPU 0 instructions: 59000001 cycles: 135655624 heartbeat IPC: 0.30389 cumulative IPC: 0.377057 (Simulation time: 0 hr 29 min 53 sec) 
Heartbeat CPU 0 instructions: 60000000 cycles: 138632022 heartbeat IPC: 0.335976 cumulative IPC: 0.376137 (Simulation time: 0 hr 30 min 21 sec) 
Heartbeat CPU 0 instructions: 61000001 cycles: 141672795 heartbeat IPC: 0.328864 cumulative IPC: 0.37508 (Simulation time: 0 hr 30 min 52 sec) 
Heartbeat CPU 0 instructions: 62000000 cycles: 145032481 heartbeat IPC: 0.297647 cumulative IPC: 0.373212 (Simulation time: 0 hr 31 min 24 sec) 
Heartbeat CPU 0 instructions: 63000001 cycles: 147860282 heartbeat IPC: 0.353632 cumulative IPC: 0.372823 (Simulation time: 0 hr 31 min 55 sec) 
Heartbeat CPU 0 instructions: 64000000 cycles: 150657849 heartbeat IPC: 0.357453 cumulative IPC: 0.372526 (Simulation time: 0 hr 32 min 27 sec) 
Heartbeat CPU 0 instructions: 65000001 cycles: 153442598 heartbeat IPC: 0.359099 cumulative IPC: 0.372273 (Simulation time: 0 hr 32 min 58 sec) 
Heartbeat CPU 0 instructions: 66000002 cycles: 157577519 heartbeat IPC: 0.241843 cumulative IPC: 0.368722 (Simulation time: 0 hr 33 min 36 sec) 
Heartbeat CPU 0 instructions: 67000001 cycles: 159238580 heartbeat IPC: 0.602024 cumulative IPC: 0.371246 (Simulation time: 0 hr 34 min 10 sec) 
Heartbeat CPU 0 instructions: 68000000 cycles: 160362714 heartbeat IPC: 0.889573 cumulative IPC: 0.375014 (Simulation time: 0 hr 34 min 39 sec) 
Heartbeat CPU 0 instructions: 69000003 cycles: 161504760 heartbeat IPC: 0.875624 cumulative IPC: 0.378683 (Simulation time: 0 hr 35 min 10 sec) 
Heartbeat CPU 0 instructions: 70000000 cycles: 162625008 heartbeat IPC: 0.892657 cumulative IPC: 0.382352 (Simulation time: 0 hr 35 min 40 sec) 
Heartbeat CPU 0 instructions: 71000001 cycles: 163800135 heartbeat IPC: 0.850973 cumulative IPC: 0.385835 (Simulation time: 0 hr 36 min 10 sec) 
Heartbeat CPU 0 instructions: 72000000 cycles: 167126829 heartbeat IPC: 0.300598 cumulative IPC: 0.384079 (Simulation time: 0 hr 36 min 50 sec) 
Heartbeat CPU 0 instructions: 73000000 cycles: 170517820 heartbeat IPC: 0.294899 cumulative IPC: 0.382244 (Simulation time: 0 hr 37 min 30 sec) 
Heartbeat CPU 0 instructions: 74000001 cycles: 173860024 heartbeat IPC: 0.299204 cumulative IPC: 0.380594 (Simulation time: 0 hr 38 min 9 sec) 
Heartbeat CPU 0 instructions: 75000001 cycles: 176768443 heartbeat IPC: 0.343829 cumulative IPC: 0.379969 (Simulation time: 0 hr 38 min 47 sec) 
Heartbeat CPU 0 instructions: 76000000 cycles: 179561113 heartbeat IPC: 0.35808 cumulative IPC: 0.379617 (Simulation time: 0 hr 39 min 22 sec) 
Heartbeat CPU 0 instructions: 77000000 cycles: 182389063 heartbeat IPC: 0.353613 cumulative IPC: 0.379201 (Simulation time: 0 hr 39 min 59 sec) 
Heartbeat CPU 0 instructions: 78000001 cycles: 185209885 heartbeat IPC: 0.354507 cumulative IPC: 0.378813 (Simulation time: 0 hr 40 min 35 sec) 
Heartbeat CPU 0 instructions: 79000001 cycles: 188009467 heartbeat IPC: 0.357196 cumulative IPC: 0.378481 (Simulation time: 0 hr 41 min 12 sec) 
Heartbeat CPU 0 instructions: 80000000 cycles: 190782630 heartbeat IPC: 0.360599 cumulative IPC: 0.378213 (Simulation time: 0 hr 41 min 48 sec) 
Heartbeat CPU 0 instructions: 81000002 cycles: 193644490 heartbeat IPC: 0.349424 cumulative IPC: 0.377774 (Simulation time: 0 hr 42 min 27 sec) 
Heartbeat CPU 0 instructions: 82000001 cycles: 196456332 heartbeat IPC: 0.355638 cumulative IPC: 0.377448 (Simulation time: 0 hr 43 min 5 sec) 
Heartbeat CPU 0 instructions: 83000002 cycles: 199302155 heartbeat IPC: 0.351393 cumulative IPC: 0.377065 (Simulation time: 0 hr 43 min 42 sec) 
Heartbeat CPU 0 instructions: 84000000 cycles: 202161092 heartbeat IPC: 0.34978 cumulative IPC: 0.376668 (Simulation time: 0 hr 44 min 19 sec) 
Heartbeat CPU 0 instructions: 85000002 cycles: 205464003 heartbeat IPC: 0.302764 cumulative IPC: 0.375446 (Simulation time: 0 hr 44 min 59 sec) 
Heartbeat CPU 0 instructions: 86000002 cycles: 208756980 heartbeat IPC: 0.303677 cumulative IPC: 0.374282 (Simulation time: 0 hr 45 min 36 sec) 
Heartbeat CPU 0 instructions: 87000000 cycles: 211797859 heartbeat IPC: 0.328852 cumulative IPC: 0.373612 (Simulation time: 0 hr 46 min 17 sec) 
Heartbeat CPU 0 instructions: 88000000 cycles: 214826507 heartbeat IPC: 0.33018 cumulative IPC: 0.372983 (Simulation time: 0 hr 46 min 55 sec) 
Heartbeat CPU 0 instructions: 89000002 cycles: 217919989 heartbeat IPC: 0.323261 cumulative IPC: 0.372258 (Simulation time: 0 hr 47 min 34 sec) 
Heartbeat CPU 0 instructions: 90000001 cycles: 220716186 heartbeat IPC: 0.357628 cumulative IPC: 0.372068 (Simulation time: 0 hr 48 min 11 sec) 
Heartbeat CPU 0 instructions: 91000001 cycles: 223534466 heartbeat IPC: 0.354826 cumulative IPC: 0.371845 (Simulation time: 0 hr 48 min 48 sec) 
Heartbeat CPU 0 instructions: 92000000 cycles: 226433049 heartbeat IPC: 0.344996 cumulative IPC: 0.371492 (Simulation time: 0 hr 49 min 26 sec) 
Heartbeat CPU 0 instructions: 93000000 cycles: 229262186 heartbeat IPC: 0.353465 cumulative IPC: 0.371264 (Simulation time: 0 hr 50 min 2 sec) 
Heartbeat CPU 0 instructions: 94000000 cycles: 233786271 heartbeat IPC: 0.221039 cumulative IPC: 0.368284 (Simulation time: 0 hr 50 min 47 sec) 
Heartbeat CPU 0 instructions: 95000000 cycles: 234970734 heartbeat IPC: 0.844264 cumulative IPC: 0.370743 (Simulation time: 0 hr 51 min 17 sec) 
Heartbeat CPU 0 instructions: 96000000 cycles: 236113736 heartbeat IPC: 0.874889 cumulative IPC: 0.373244 (Simulation time: 0 hr 51 min 44 sec) 
Heartbeat CPU 0 instructions: 97000002 cycles: 237232434 heartbeat IPC: 0.893898 cumulative IPC: 0.37576 (Simulation time: 0 hr 52 min 12 sec) 
Heartbeat CPU 0 instructions: 98000001 cycles: 238374372 heartbeat IPC: 0.875703 cumulative IPC: 0.378214 (Simulation time: 0 hr 52 min 40 sec) 
Heartbeat CPU 0 instructions: 99000002 cycles: 240246056 heartbeat IPC: 0.534279 cumulative IPC: 0.379459 (Simulation time: 0 hr 53 min 12 sec) 
Heartbeat CPU 0 instructions: 100000000 cycles: 243619304 heartbeat IPC: 0.29645 cumulative IPC: 0.378282 (Simulation time: 0 hr 53 min 49 sec) 
Heartbeat CPU 0 instructions: 101000002 cycles: 246714940 heartbeat IPC: 0.323036 cumulative IPC: 0.377573 (Simulation time: 0 hr 54 min 26 sec) 
Heartbeat CPU 0 instructions: 102000001 cycles: 249712873 heartbeat IPC: 0.333563 cumulative IPC: 0.377032 (Simulation time: 0 hr 55 min 2 sec) 
Heartbeat CPU 0 instructions: 103000000 cycles: 252522040 heartbeat IPC: 0.355977 cumulative IPC: 0.376792 (Simulation time: 0 hr 55 min 35 sec) 
Heartbeat CPU 0 instructions: 104000000 cycles: 255345103 heartbeat IPC: 0.354225 cumulative IPC: 0.376537 (Simulation time: 0 hr 56 min 10 sec) 
Heartbeat CPU 0 instructions: 105000001 cycles: 258140782 heartbeat IPC: 0.357695 cumulative IPC: 0.376328 (Simulation time: 0 hr 56 min 42 sec) 
Heartbeat CPU 0 instructions: 106000000 cycles: 261047514 heartbeat IPC: 0.344029 cumulative IPC: 0.375961 (Simulation time: 0 hr 57 min 13 sec) 
Heartbeat CPU 0 instructions: 107000002 cycles: 263888786 heartbeat IPC: 0.351956 cumulative IPC: 0.375697 (Simulation time: 0 hr 57 min 42 sec) 
Heartbeat CPU 0 instructions: 108000000 cycles: 266686688 heartbeat IPC: 0.35741 cumulative IPC: 0.3755 (Simulation time: 0 hr 58 min 8 sec) 
Heartbeat CPU 0 instructions: 109000002 cycles: 269475448 heartbeat IPC: 0.358583 cumulative IPC: 0.375322 (Simulation time: 0 hr 58 min 33 sec) 
Heartbeat CPU 0 instructions: 110000001 cycles: 272303775 heartbeat IPC: 0.353566 cumulative IPC: 0.375091 (Simulation time: 0 hr 58 min 59 sec) 
Finished CPU 0 instructions: 100000001 cycles: 266602116 cummulative IPC: 0.375091 (Simulation time: 0 hr 58 min 59 sec) 

ChampSim completed all CPUs

Region of Interest Statistics

CPU 0 cummulative IPC: 0.375091 instructions: 100000001 cycles: 266602116
LLC TOTAL     ACCESS:    4665995  HIT:    2426348  MISS:    2239647
LLC LOAD      ACCESS:    2183624  HIT:    2048038  MISS:     135586
LLC RFO       ACCESS:      24953  HIT:      12039  MISS:      12914
LLC PREFETCH  ACCESS:    2377049  HIT:     304743  MISS:    2072306
LLC WRITEBACK ACCESS:      80369  HIT:      61528  MISS:      18841
Insertion Distribution: 
	LOAD 38006 0 0 0 83671 91143 
	RFO 3468 0 0 0 4175 6892 
	PREF 0 13445 0 0 65733 2198074 
	WRITEBACK 0 0 0 0 0 19737 
Total Prefetch Downgrades: 14458
