
*** ChampSim Multicore Out-of-Order Simulator ***

Warmup Instructions: 10000000
Simulation Instructions: 100000000
Configuration: 2
Number of CPUs: 1
LLC sets: 2048
LLC ways: 16
Off-chip DRAM Channels: 1 Width: 64-bit Data Rate: 1600 MT/s

CPU 0 runs /datasets/cs240c-wi22-a00-public/data/Assignment2-gz/mcf_46B.trace.gz
CPU 0 L1D next line prefetcher
CPU 0 L2C IP-based stride prefetcher
Initialize SRRIP state
Heartbeat CPU 0 instructions: 1000002 cycles: 492161 heartbeat IPC: 2.03186 cumulative IPC: 2.03186 (Simulation time: 0 hr 0 min 40 sec) 
Heartbeat CPU 0 instructions: 2000002 cycles: 987164 heartbeat IPC: 2.02019 cumulative IPC: 2.02601 (Simulation time: 0 hr 1 min 18 sec) 
Heartbeat CPU 0 instructions: 3000003 cycles: 1513629 heartbeat IPC: 1.89946 cumulative IPC: 1.98199 (Simulation time: 0 hr 1 min 58 sec) 
Heartbeat CPU 0 instructions: 4000000 cycles: 2032450 heartbeat IPC: 1.92744 cumulative IPC: 1.96807 (Simulation time: 0 hr 2 min 43 sec) 
Heartbeat CPU 0 instructions: 5000000 cycles: 2525429 heartbeat IPC: 2.02848 cumulative IPC: 1.97986 (Simulation time: 0 hr 3 min 23 sec) 
Heartbeat CPU 0 instructions: 6000002 cycles: 3028189 heartbeat IPC: 1.98902 cumulative IPC: 1.98138 (Simulation time: 0 hr 3 min 58 sec) 
Heartbeat CPU 0 instructions: 7000001 cycles: 3575681 heartbeat IPC: 1.82651 cumulative IPC: 1.95767 (Simulation time: 0 hr 4 min 35 sec) 
Heartbeat CPU 0 instructions: 8000000 cycles: 4065688 heartbeat IPC: 2.04079 cumulative IPC: 1.96769 (Simulation time: 0 hr 5 min 10 sec) 
Heartbeat CPU 0 instructions: 9000001 cycles: 4548632 heartbeat IPC: 2.07064 cumulative IPC: 1.97862 (Simulation time: 0 hr 5 min 45 sec) 
Heartbeat CPU 0 instructions: 10000001 cycles: 5088044 heartbeat IPC: 1.85387 cumulative IPC: 1.96539 (Simulation time: 0 hr 6 min 21 sec) 

Warmup complete CPU 0 instructions: 10000001 cycles: 5088044 (Simulation time: 0 hr 6 min 21 sec) 

Heartbeat CPU 0 instructions: 11000002 cycles: 15820804 heartbeat IPC: 0.0931728 cumulative IPC: 0.0931728 (Simulation time: 0 hr 7 min 21 sec) 
Heartbeat CPU 0 instructions: 12000000 cycles: 20022750 heartbeat IPC: 0.237984 cumulative IPC: 0.133916 (Simulation time: 0 hr 8 min 10 sec) 
Heartbeat CPU 0 instructions: 13000000 cycles: 27462281 heartbeat IPC: 0.134417 cumulative IPC: 0.134083 (Simulation time: 0 hr 9 min 5 sec) 
Heartbeat CPU 0 instructions: 14000003 cycles: 42008760 heartbeat IPC: 0.0687454 cumulative IPC: 0.10834 (Simulation time: 0 hr 10 min 19 sec) 
Heartbeat CPU 0 instructions: 15000000 cycles: 46256915 heartbeat IPC: 0.235396 cumulative IPC: 0.121451 (Simulation time: 0 hr 11 min 6 sec) 
Heartbeat CPU 0 instructions: 16000000 cycles: 50091019 heartbeat IPC: 0.260817 cumulative IPC: 0.133325 (Simulation time: 0 hr 11 min 51 sec) 
Heartbeat CPU 0 instructions: 17000002 cycles: 65847432 heartbeat IPC: 0.0634663 cumulative IPC: 0.115209 (Simulation time: 0 hr 13 min 2 sec) 
Heartbeat CPU 0 instructions: 18000001 cycles: 71220015 heartbeat IPC: 0.18613 cumulative IPC: 0.12097 (Simulation time: 0 hr 13 min 53 sec) 
Heartbeat CPU 0 instructions: 19000002 cycles: 75868843 heartbeat IPC: 0.215108 cumulative IPC: 0.127153 (Simulation time: 0 hr 14 min 40 sec) 
Heartbeat CPU 0 instructions: 20000000 cycles: 88062938 heartbeat IPC: 0.0820067 cumulative IPC: 0.120518 (Simulation time: 0 hr 15 min 45 sec) 
Heartbeat CPU 0 instructions: 21000002 cycles: 104182867 heartbeat IPC: 0.0620351 cumulative IPC: 0.111005 (Simulation time: 0 hr 16 min 59 sec) 
Heartbeat CPU 0 instructions: 22000002 cycles: 108393578 heartbeat IPC: 0.23749 cumulative IPC: 0.11616 (Simulation time: 0 hr 17 min 45 sec) 
Heartbeat CPU 0 instructions: 23000001 cycles: 112265867 heartbeat IPC: 0.258245 cumulative IPC: 0.121294 (Simulation time: 0 hr 18 min 26 sec) 
Heartbeat CPU 0 instructions: 24000000 cycles: 125418363 heartbeat IPC: 0.0760311 cumulative IPC: 0.116346 (Simulation time: 0 hr 19 min 32 sec) 
Heartbeat CPU 0 instructions: 25000002 cycles: 133268043 heartbeat IPC: 0.127394 cumulative IPC: 0.117023 (Simulation time: 0 hr 20 min 29 sec) 
Heartbeat CPU 0 instructions: 26000001 cycles: 137169392 heartbeat IPC: 0.256321 cumulative IPC: 0.121137 (Simulation time: 0 hr 21 min 13 sec) 
Heartbeat CPU 0 instructions: 27000000 cycles: 146884421 heartbeat IPC: 0.102933 cumulative IPC: 0.11989 (Simulation time: 0 hr 22 min 13 sec) 
Heartbeat CPU 0 instructions: 28000000 cycles: 158525061 heartbeat IPC: 0.0859059 cumulative IPC: 0.117312 (Simulation time: 0 hr 23 min 22 sec) 
Heartbeat CPU 0 instructions: 29000001 cycles: 162889953 heartbeat IPC: 0.229101 cumulative IPC: 0.120404 (Simulation time: 0 hr 24 min 12 sec) 
Heartbeat CPU 0 instructions: 30000000 cycles: 170134072 heartbeat IPC: 0.138043 cumulative IPC: 0.121178 (Simulation time: 0 hr 25 min 5 sec) 
Heartbeat CPU 0 instructions: 31000001 cycles: 184183509 heartbeat IPC: 0.0711773 cumulative IPC: 0.117256 (Simulation time: 0 hr 26 min 12 sec) 
Heartbeat CPU 0 instructions: 32000000 cycles: 188513306 heartbeat IPC: 0.230957 cumulative IPC: 0.11994 (Simulation time: 0 hr 26 min 57 sec) 
Heartbeat CPU 0 instructions: 33000000 cycles: 194906687 heartbeat IPC: 0.156412 cumulative IPC: 0.121168 (Simulation time: 0 hr 27 min 50 sec) 
Heartbeat CPU 0 instructions: 34000000 cycles: 210263559 heartbeat IPC: 0.0651174 cumulative IPC: 0.116973 (Simulation time: 0 hr 29 min 2 sec) 
Heartbeat CPU 0 instructions: 35000000 cycles: 216365876 heartbeat IPC: 0.163872 cumulative IPC: 0.118328 (Simulation time: 0 hr 29 min 54 sec) 
Heartbeat CPU 0 instructions: 36000000 cycles: 222400027 heartbeat IPC: 0.165723 cumulative IPC: 0.119644 (Simulation time: 0 hr 30 min 45 sec) 
Heartbeat CPU 0 instructions: 37000002 cycles: 232423265 heartbeat IPC: 0.0997684 cumulative IPC: 0.118767 (Simulation time: 0 hr 31 min 42 sec) 
Heartbeat CPU 0 instructions: 38000000 cycles: 243506778 heartbeat IPC: 0.0902239 cumulative IPC: 0.11744 (Simulation time: 0 hr 32 min 42 sec) 
Heartbeat CPU 0 instructions: 39000000 cycles: 247609265 heartbeat IPC: 0.243755 cumulative IPC: 0.119577 (Simulation time: 0 hr 33 min 29 sec) 
Heartbeat CPU 0 instructions: 40000000 cycles: 253461759 heartbeat IPC: 0.170867 cumulative IPC: 0.120786 (Simulation time: 0 hr 34 min 31 sec) 
Heartbeat CPU 0 instructions: 41000000 cycles: 268546644 heartbeat IPC: 0.0662915 cumulative IPC: 0.117666 (Simulation time: 0 hr 36 min 4 sec) 
Heartbeat CPU 0 instructions: 42000001 cycles: 273154694 heartbeat IPC: 0.217012 cumulative IPC: 0.119373 (Simulation time: 0 hr 37 min 2 sec) 
Heartbeat CPU 0 instructions: 43000000 cycles: 277176867 heartbeat IPC: 0.248622 cumulative IPC: 0.121284 (Simulation time: 0 hr 37 min 59 sec) 
Heartbeat CPU 0 instructions: 44000000 cycles: 290807822 heartbeat IPC: 0.0733624 cumulative IPC: 0.118998 (Simulation time: 0 hr 39 min 26 sec) 
Heartbeat CPU 0 instructions: 45000001 cycles: 298252661 heartbeat IPC: 0.134321 cumulative IPC: 0.119387 (Simulation time: 0 hr 40 min 34 sec) 
Heartbeat CPU 0 instructions: 46000001 cycles: 302388660 heartbeat IPC: 0.24178 cumulative IPC: 0.12109 (Simulation time: 0 hr 41 min 29 sec) 
Heartbeat CPU 0 instructions: 47000002 cycles: 311797414 heartbeat IPC: 0.106284 cumulative IPC: 0.120635 (Simulation time: 0 hr 42 min 42 sec) 
Heartbeat CPU 0 instructions: 48000000 cycles: 323661831 heartbeat IPC: 0.0842855 cumulative IPC: 0.119282 (Simulation time: 0 hr 44 min 3 sec) 
Heartbeat CPU 0 instructions: 49000000 cycles: 328167693 heartbeat IPC: 0.221933 cumulative IPC: 0.120713 (Simulation time: 0 hr 45 min 0 sec) 
Heartbeat CPU 0 instructions: 50000001 cycles: 334373340 heartbeat IPC: 0.161144 cumulative IPC: 0.121475 (Simulation time: 0 hr 46 min 1 sec) 
Heartbeat CPU 0 instructions: 51000001 cycles: 349124524 heartbeat IPC: 0.0677912 cumulative IPC: 0.119173 (Simulation time: 0 hr 47 min 31 sec) 
Heartbeat CPU 0 instructions: 52000000 cycles: 353665717 heartbeat IPC: 0.220206 cumulative IPC: 0.12049 (Simulation time: 0 hr 48 min 34 sec) 
Heartbeat CPU 0 instructions: 53000000 cycles: 357802160 heartbeat IPC: 0.241754 cumulative IPC: 0.121912 (Simulation time: 0 hr 49 min 31 sec) 
Heartbeat CPU 0 instructions: 54000002 cycles: 373793947 heartbeat IPC: 0.0625322 cumulative IPC: 0.119336 (Simulation time: 0 hr 51 min 3 sec) 
Heartbeat CPU 0 instructions: 55000002 cycles: 378971581 heartbeat IPC: 0.193138 cumulative IPC: 0.120358 (Simulation time: 0 hr 51 min 58 sec) 
Heartbeat CPU 0 instructions: 56000000 cycles: 383215747 heartbeat IPC: 0.235617 cumulative IPC: 0.121652 (Simulation time: 0 hr 52 min 50 sec) 
Heartbeat CPU 0 instructions: 57000000 cycles: 396807898 heartbeat IPC: 0.0735719 cumulative IPC: 0.119984 (Simulation time: 0 hr 54 min 11 sec) 
Heartbeat CPU 0 instructions: 58000000 cycles: 404288089 heartbeat IPC: 0.133686 cumulative IPC: 0.12024 (Simulation time: 0 hr 55 min 14 sec) 
Heartbeat CPU 0 instructions: 59000002 cycles: 408461017 heartbeat IPC: 0.23964 cumulative IPC: 0.121476 (Simulation time: 0 hr 56 min 8 sec) 
Heartbeat CPU 0 instructions: 60000000 cycles: 420256354 heartbeat IPC: 0.0847791 cumulative IPC: 0.120433 (Simulation time: 0 hr 57 min 15 sec) 
Heartbeat CPU 0 instructions: 61000002 cycles: 429871919 heartbeat IPC: 0.103998 cumulative IPC: 0.120061 (Simulation time: 0 hr 58 min 14 sec) 
Heartbeat CPU 0 instructions: 62000001 cycles: 434029279 heartbeat IPC: 0.240537 cumulative IPC: 0.121229 (Simulation time: 0 hr 58 min 54 sec) 
Heartbeat CPU 0 instructions: 63000001 cycles: 444112572 heartbeat IPC: 0.0991739 cumulative IPC: 0.120722 (Simulation time: 0 hr 59 min 40 sec) 
Heartbeat CPU 0 instructions: 64000000 cycles: 455800726 heartbeat IPC: 0.0855566 cumulative IPC: 0.11981 (Simulation time: 1 hr 0 min 31 sec) 
Heartbeat CPU 0 instructions: 65000002 cycles: 461257240 heartbeat IPC: 0.183268 cumulative IPC: 0.120569 (Simulation time: 1 hr 1 min 10 sec) 
Heartbeat CPU 0 instructions: 66000000 cycles: 467647275 heartbeat IPC: 0.156493 cumulative IPC: 0.121066 (Simulation time: 1 hr 1 min 48 sec) 
Heartbeat CPU 0 instructions: 67000002 cycles: 483817093 heartbeat IPC: 0.0618437 cumulative IPC: 0.119065 (Simulation time: 1 hr 2 min 44 sec) 
Heartbeat CPU 0 instructions: 68000000 cycles: 488209458 heartbeat IPC: 0.227667 cumulative IPC: 0.120053 (Simulation time: 1 hr 3 min 20 sec) 
Heartbeat CPU 0 instructions: 69000000 cycles: 492242716 heartbeat IPC: 0.247939 cumulative IPC: 0.121111 (Simulation time: 1 hr 3 min 53 sec) 
Heartbeat CPU 0 instructions: 70000001 cycles: 506738148 heartbeat IPC: 0.0689873 cumulative IPC: 0.119605 (Simulation time: 1 hr 4 min 41 sec) 
Heartbeat CPU 0 instructions: 71000002 cycles: 515098574 heartbeat IPC: 0.119611 cumulative IPC: 0.119605 (Simulation time: 1 hr 5 min 16 sec) 
Heartbeat CPU 0 instructions: 72000000 cycles: 519899065 heartbeat IPC: 0.208312 cumulative IPC: 0.120433 (Simulation time: 1 hr 5 min 42 sec) 
Heartbeat CPU 0 instructions: 73000002 cycles: 528931788 heartbeat IPC: 0.110709 cumulative IPC: 0.120265 (Simulation time: 1 hr 6 min 12 sec) 
Heartbeat CPU 0 instructions: 74000001 cycles: 541144563 heartbeat IPC: 0.0818814 cumulative IPC: 0.11939 (Simulation time: 1 hr 6 min 49 sec) 
Heartbeat CPU 0 instructions: 75000002 cycles: 545627830 heartbeat IPC: 0.223052 cumulative IPC: 0.12025 (Simulation time: 1 hr 7 min 12 sec) 
Heartbeat CPU 0 instructions: 76000000 cycles: 551578781 heartbeat IPC: 0.16804 cumulative IPC: 0.120771 (Simulation time: 1 hr 7 min 36 sec) 
Heartbeat CPU 0 instructions: 77000001 cycles: 567524301 heartbeat IPC: 0.0627136 cumulative IPC: 0.119125 (Simulation time: 1 hr 8 min 8 sec) 
Heartbeat CPU 0 instructions: 78000002 cycles: 572229889 heartbeat IPC: 0.212514 cumulative IPC: 0.119899 (Simulation time: 1 hr 8 min 27 sec) 
Heartbeat CPU 0 instructions: 79000001 cycles: 576534122 heartbeat IPC: 0.232329 cumulative IPC: 0.120746 (Simulation time: 1 hr 8 min 46 sec) 
Heartbeat CPU 0 instructions: 80000000 cycles: 590036186 heartbeat IPC: 0.0740627 cumulative IPC: 0.119669 (Simulation time: 1 hr 9 min 11 sec) 
Heartbeat CPU 0 instructions: 81000000 cycles: 597535847 heartbeat IPC: 0.133339 cumulative IPC: 0.119842 (Simulation time: 1 hr 9 min 30 sec) 
Heartbeat CPU 0 instructions: 82000000 cycles: 602366680 heartbeat IPC: 0.207004 cumulative IPC: 0.120547 (Simulation time: 1 hr 9 min 44 sec) 
Heartbeat CPU 0 instructions: 83000001 cycles: 612138853 heartbeat IPC: 0.102331 cumulative IPC: 0.120254 (Simulation time: 1 hr 10 min 0 sec) 
Heartbeat CPU 0 instructions: 84000000 cycles: 623726114 heartbeat IPC: 0.0863016 cumulative IPC: 0.119618 (Simulation time: 1 hr 10 min 15 sec) 
Heartbeat CPU 0 instructions: 85000001 cycles: 627912047 heartbeat IPC: 0.238896 cumulative IPC: 0.120419 (Simulation time: 1 hr 10 min 25 sec) 
Heartbeat CPU 0 instructions: 86000000 cycles: 635696225 heartbeat IPC: 0.128466 cumulative IPC: 0.120519 (Simulation time: 1 hr 10 min 36 sec) 
Heartbeat CPU 0 instructions: 87000000 cycles: 650631520 heartbeat IPC: 0.0669555 cumulative IPC: 0.119279 (Simulation time: 1 hr 10 min 51 sec) 
Heartbeat CPU 0 instructions: 88000000 cycles: 656715696 heartbeat IPC: 0.164361 cumulative IPC: 0.1197 (Simulation time: 1 hr 11 min 2 sec) 
Heartbeat CPU 0 instructions: 89000000 cycles: 660830199 heartbeat IPC: 0.243043 cumulative IPC: 0.120474 (Simulation time: 1 hr 11 min 10 sec) 
Heartbeat CPU 0 instructions: 90000003 cycles: 672866107 heartbeat IPC: 0.083085 cumulative IPC: 0.1198 (Simulation time: 1 hr 11 min 22 sec) 
Heartbeat CPU 0 instructions: 91000000 cycles: 681925720 heartbeat IPC: 0.11038 cumulative IPC: 0.119674 (Simulation time: 1 hr 11 min 32 sec) 
Heartbeat CPU 0 instructions: 92000000 cycles: 686095120 heartbeat IPC: 0.239843 cumulative IPC: 0.12041 (Simulation time: 1 hr 11 min 40 sec) 
Heartbeat CPU 0 instructions: 93000002 cycles: 695063858 heartbeat IPC: 0.111499 cumulative IPC: 0.120294 (Simulation time: 1 hr 11 min 49 sec) 
Heartbeat CPU 0 instructions: 94000002 cycles: 707006162 heartbeat IPC: 0.0837359 cumulative IPC: 0.119672 (Simulation time: 1 hr 12 min 0 sec) 
Heartbeat CPU 0 instructions: 95000000 cycles: 712723443 heartbeat IPC: 0.174908 cumulative IPC: 0.120118 (Simulation time: 1 hr 12 min 7 sec) 
Heartbeat CPU 0 instructions: 96000000 cycles: 718184034 heartbeat IPC: 0.18313 cumulative IPC: 0.120601 (Simulation time: 1 hr 12 min 14 sec) 
Heartbeat CPU 0 instructions: 97000000 cycles: 733819036 heartbeat IPC: 0.0639591 cumulative IPC: 0.119386 (Simulation time: 1 hr 12 min 26 sec) 
Heartbeat CPU 0 instructions: 98000002 cycles: 738474537 heartbeat IPC: 0.2148 cumulative IPC: 0.119991 (Simulation time: 1 hr 12 min 33 sec) 
Heartbeat CPU 0 instructions: 99000002 cycles: 743189169 heartbeat IPC: 0.212106 cumulative IPC: 0.12058 (Simulation time: 1 hr 12 min 40 sec) 
Heartbeat CPU 0 instructions: 100000000 cycles: 757622367 heartbeat IPC: 0.0692846 cumulative IPC: 0.119596 (Simulation time: 1 hr 12 min 51 sec) 
Heartbeat CPU 0 instructions: 101000000 cycles: 764471685 heartbeat IPC: 0.146 cumulative IPC: 0.119834 (Simulation time: 1 hr 12 min 59 sec) 
Heartbeat CPU 0 instructions: 102000003 cycles: 768648367 heartbeat IPC: 0.239425 cumulative IPC: 0.120488 (Simulation time: 1 hr 13 min 6 sec) 
Heartbeat CPU 0 instructions: 103000003 cycles: 780838167 heartbeat IPC: 0.0820358 cumulative IPC: 0.119884 (Simulation time: 1 hr 13 min 15 sec) 
Heartbeat CPU 0 instructions: 104000000 cycles: 791962576 heartbeat IPC: 0.0898921 cumulative IPC: 0.11946 (Simulation time: 1 hr 13 min 24 sec) 
Heartbeat CPU 0 instructions: 105000000 cycles: 796655028 heartbeat IPC: 0.213108 cumulative IPC: 0.120015 (Simulation time: 1 hr 13 min 31 sec) 
Heartbeat CPU 0 instructions: 106000000 cycles: 800765013 heartbeat IPC: 0.24331 cumulative IPC: 0.120652 (Simulation time: 1 hr 13 min 38 sec) 
Heartbeat CPU 0 instructions: 107000002 cycles: 816699581 heartbeat IPC: 0.0627568 cumulative IPC: 0.119515 (Simulation time: 1 hr 13 min 48 sec) 
Heartbeat CPU 0 instructions: 108000000 cycles: 821966954 heartbeat IPC: 0.189848 cumulative IPC: 0.119969 (Simulation time: 1 hr 13 min 56 sec) 
Heartbeat CPU 0 instructions: 109000001 cycles: 826234242 heartbeat IPC: 0.234341 cumulative IPC: 0.120563 (Simulation time: 1 hr 14 min 2 sec) 
Heartbeat CPU 0 instructions: 110000002 cycles: 836028099 heartbeat IPC: 0.102105 cumulative IPC: 0.120346 (Simulation time: 1 hr 14 min 10 sec) 
Finished CPU 0 instructions: 100000001 cycles: 830940055 cummulative IPC: 0.120346 (Simulation time: 1 hr 14 min 10 sec) 

ChampSim completed all CPUs

Region of Interest Statistics

CPU 0 cummulative IPC: 0.120346 instructions: 100000001 cycles: 830940055
LLC TOTAL     ACCESS:   18754396  HIT:    8066696  MISS:   10687700
LLC LOAD      ACCESS:    8469115  HIT:    4376233  MISS:    4092882
LLC RFO       ACCESS:     206360  HIT:      71731  MISS:     134629
LLC PREFETCH  ACCESS:    7971511  HIT:    2053453  MISS:    5918058
LLC WRITEBACK ACCESS:    2107410  HIT:    1565279  MISS:     542131
Insertion Distribution: 
	LOAD 708836 0 0 0 534797 3178376 
	RFO 90027 0 0 0 39274 17804 
	PREF 0 1330605 0 0 782975 4430811 
	WRITEBACK 0 0 0 0 0 597437 
Total Prefetch Downgrades: 1077846
