
*** ChampSim Multicore Out-of-Order Simulator ***

Warmup Instructions: 10000000
Simulation Instructions: 100000000
Configuration: 2
Number of CPUs: 1
LLC sets: 2048
LLC ways: 16
Off-chip DRAM Channels: 1 Width: 64-bit Data Rate: 1600 MT/s

CPU 0 runs /datasets/cs240c-wi22-a00-public/data/Assignment2-gz/lbm_1004B.trace.gz
CPU 0 L1D next line prefetcher
CPU 0 L2C IP-based stride prefetcher
Initialize SRRIP state
Heartbeat CPU 0 instructions: 1000002 cycles: 391414 heartbeat IPC: 2.55484 cumulative IPC: 2.55484 (Simulation time: 0 hr 0 min 33 sec) 
Heartbeat CPU 0 instructions: 2000001 cycles: 782838 heartbeat IPC: 2.55477 cumulative IPC: 2.55481 (Simulation time: 0 hr 0 min 58 sec) 
Heartbeat CPU 0 instructions: 3000001 cycles: 1174187 heartbeat IPC: 2.55526 cumulative IPC: 2.55496 (Simulation time: 0 hr 1 min 23 sec) 
Heartbeat CPU 0 instructions: 4000000 cycles: 1570372 heartbeat IPC: 2.52407 cumulative IPC: 2.54717 (Simulation time: 0 hr 1 min 49 sec) 
Heartbeat CPU 0 instructions: 5000002 cycles: 1961791 heartbeat IPC: 2.55481 cumulative IPC: 2.54869 (Simulation time: 0 hr 2 min 16 sec) 
Heartbeat CPU 0 instructions: 6000002 cycles: 2353159 heartbeat IPC: 2.55514 cumulative IPC: 2.54976 (Simulation time: 0 hr 2 min 42 sec) 
Heartbeat CPU 0 instructions: 7000003 cycles: 2749267 heartbeat IPC: 2.52457 cumulative IPC: 2.54613 (Simulation time: 0 hr 3 min 9 sec) 
Heartbeat CPU 0 instructions: 8000000 cycles: 3140614 heartbeat IPC: 2.55527 cumulative IPC: 2.54727 (Simulation time: 0 hr 3 min 36 sec) 
Heartbeat CPU 0 instructions: 9000003 cycles: 3532056 heartbeat IPC: 2.55466 cumulative IPC: 2.54809 (Simulation time: 0 hr 4 min 4 sec) 
Heartbeat CPU 0 instructions: 10000000 cycles: 3923430 heartbeat IPC: 2.55509 cumulative IPC: 2.54879 (Simulation time: 0 hr 4 min 29 sec) 

Warmup complete CPU 0 instructions: 10000004 cycles: 3923431 (Simulation time: 0 hr 4 min 29 sec) 

Heartbeat CPU 0 instructions: 11000002 cycles: 5461135 heartbeat IPC: 0.650321 cumulative IPC: 0.650319 (Simulation time: 0 hr 5 min 1 sec) 
Heartbeat CPU 0 instructions: 12000000 cycles: 6850218 heartbeat IPC: 0.719898 cumulative IPC: 0.683342 (Simulation time: 0 hr 5 min 33 sec) 
Heartbeat CPU 0 instructions: 13000002 cycles: 8344831 heartbeat IPC: 0.669071 cumulative IPC: 0.678518 (Simulation time: 0 hr 6 min 4 sec) 
Heartbeat CPU 0 instructions: 14000003 cycles: 9913661 heartbeat IPC: 0.637418 cumulative IPC: 0.667754 (Simulation time: 0 hr 6 min 34 sec) 
Heartbeat CPU 0 instructions: 15000003 cycles: 11360940 heartbeat IPC: 0.690952 cumulative IPC: 0.672268 (Simulation time: 0 hr 7 min 5 sec) 
Heartbeat CPU 0 instructions: 16000000 cycles: 12825199 heartbeat IPC: 0.682937 cumulative IPC: 0.674023 (Simulation time: 0 hr 7 min 36 sec) 
Heartbeat CPU 0 instructions: 17000000 cycles: 14355817 heartbeat IPC: 0.653331 cumulative IPC: 0.670987 (Simulation time: 0 hr 8 min 5 sec) 
Heartbeat CPU 0 instructions: 18000002 cycles: 15831537 heartbeat IPC: 0.677637 cumulative IPC: 0.671811 (Simulation time: 0 hr 8 min 35 sec) 
Heartbeat CPU 0 instructions: 19000002 cycles: 17273879 heartbeat IPC: 0.693317 cumulative IPC: 0.674135 (Simulation time: 0 hr 9 min 6 sec) 
Heartbeat CPU 0 instructions: 20000000 cycles: 18725999 heartbeat IPC: 0.688647 cumulative IPC: 0.675558 (Simulation time: 0 hr 9 min 39 sec) 
Heartbeat CPU 0 instructions: 21000003 cycles: 20256463 heartbeat IPC: 0.653399 cumulative IPC: 0.673482 (Simulation time: 0 hr 10 min 14 sec) 
Heartbeat CPU 0 instructions: 22000002 cycles: 21658206 heartbeat IPC: 0.713397 cumulative IPC: 0.676637 (Simulation time: 0 hr 10 min 48 sec) 
Heartbeat CPU 0 instructions: 23000001 cycles: 23107812 heartbeat IPC: 0.689842 cumulative IPC: 0.677634 (Simulation time: 0 hr 11 min 25 sec) 
Heartbeat CPU 0 instructions: 24000000 cycles: 24627570 heartbeat IPC: 0.657999 cumulative IPC: 0.676193 (Simulation time: 0 hr 12 min 4 sec) 
Heartbeat CPU 0 instructions: 25000003 cycles: 26107708 heartbeat IPC: 0.675615 cumulative IPC: 0.676154 (Simulation time: 0 hr 12 min 41 sec) 
Heartbeat CPU 0 instructions: 26000003 cycles: 27583134 heartbeat IPC: 0.67777 cumulative IPC: 0.676255 (Simulation time: 0 hr 13 min 14 sec) 
Heartbeat CPU 0 instructions: 27000001 cycles: 29050651 heartbeat IPC: 0.681422 cumulative IPC: 0.676557 (Simulation time: 0 hr 13 min 48 sec) 
Heartbeat CPU 0 instructions: 28000000 cycles: 30546000 heartbeat IPC: 0.66874 cumulative IPC: 0.676118 (Simulation time: 0 hr 14 min 22 sec) 
Heartbeat CPU 0 instructions: 29000002 cycles: 31998953 heartbeat IPC: 0.688255 cumulative IPC: 0.676746 (Simulation time: 0 hr 14 min 58 sec) 
Heartbeat CPU 0 instructions: 30000003 cycles: 33470388 heartbeat IPC: 0.679609 cumulative IPC: 0.676889 (Simulation time: 0 hr 15 min 31 sec) 
Heartbeat CPU 0 instructions: 31000001 cycles: 34973029 heartbeat IPC: 0.665494 cumulative IPC: 0.676337 (Simulation time: 0 hr 16 min 5 sec) 
Heartbeat CPU 0 instructions: 32000000 cycles: 36418493 heartbeat IPC: 0.691819 cumulative IPC: 0.677026 (Simulation time: 0 hr 16 min 39 sec) 
Heartbeat CPU 0 instructions: 33000000 cycles: 37903033 heartbeat IPC: 0.673609 cumulative IPC: 0.676877 (Simulation time: 0 hr 17 min 12 sec) 
Heartbeat CPU 0 instructions: 34000002 cycles: 39447546 heartbeat IPC: 0.647455 cumulative IPC: 0.675597 (Simulation time: 0 hr 17 min 46 sec) 
Heartbeat CPU 0 instructions: 35000001 cycles: 40858906 heartbeat IPC: 0.708536 cumulative IPC: 0.676856 (Simulation time: 0 hr 18 min 18 sec) 
Heartbeat CPU 0 instructions: 36000000 cycles: 42318041 heartbeat IPC: 0.685337 cumulative IPC: 0.677178 (Simulation time: 0 hr 18 min 48 sec) 
Heartbeat CPU 0 instructions: 37000002 cycles: 43782078 heartbeat IPC: 0.683044 cumulative IPC: 0.677394 (Simulation time: 0 hr 19 min 20 sec) 
Heartbeat CPU 0 instructions: 38000000 cycles: 45272591 heartbeat IPC: 0.670909 cumulative IPC: 0.67716 (Simulation time: 0 hr 19 min 53 sec) 
Heartbeat CPU 0 instructions: 39000003 cycles: 46729305 heartbeat IPC: 0.686479 cumulative IPC: 0.677477 (Simulation time: 0 hr 20 min 26 sec) 
Heartbeat CPU 0 instructions: 40000000 cycles: 48190419 heartbeat IPC: 0.684407 cumulative IPC: 0.677706 (Simulation time: 0 hr 21 min 0 sec) 
Heartbeat CPU 0 instructions: 41000002 cycles: 49706033 heartbeat IPC: 0.6598 cumulative IPC: 0.677113 (Simulation time: 0 hr 21 min 33 sec) 
Heartbeat CPU 0 instructions: 42000000 cycles: 51116670 heartbeat IPC: 0.708898 cumulative IPC: 0.678063 (Simulation time: 0 hr 22 min 7 sec) 
Heartbeat CPU 0 instructions: 43000002 cycles: 52552516 heartbeat IPC: 0.696455 cumulative IPC: 0.678606 (Simulation time: 0 hr 22 min 44 sec) 
Heartbeat CPU 0 instructions: 44000000 cycles: 54084687 heartbeat IPC: 0.652667 cumulative IPC: 0.677814 (Simulation time: 0 hr 23 min 22 sec) 
Heartbeat CPU 0 instructions: 45000000 cycles: 55547675 heartbeat IPC: 0.683533 cumulative IPC: 0.677976 (Simulation time: 0 hr 23 min 56 sec) 
Heartbeat CPU 0 instructions: 46000003 cycles: 56947114 heartbeat IPC: 0.714574 cumulative IPC: 0.678942 (Simulation time: 0 hr 24 min 31 sec) 
Heartbeat CPU 0 instructions: 47000002 cycles: 58420869 heartbeat IPC: 0.678538 cumulative IPC: 0.678931 (Simulation time: 0 hr 25 min 5 sec) 
Heartbeat CPU 0 instructions: 48000000 cycles: 59951748 heartbeat IPC: 0.653218 cumulative IPC: 0.678228 (Simulation time: 0 hr 25 min 38 sec) 
Heartbeat CPU 0 instructions: 49000000 cycles: 61364880 heartbeat IPC: 0.707648 cumulative IPC: 0.678952 (Simulation time: 0 hr 26 min 11 sec) 
Heartbeat CPU 0 instructions: 50000003 cycles: 62807238 heartbeat IPC: 0.693311 cumulative IPC: 0.679304 (Simulation time: 0 hr 26 min 44 sec) 
Heartbeat CPU 0 instructions: 51000001 cycles: 64326606 heartbeat IPC: 0.658167 cumulative IPC: 0.678772 (Simulation time: 0 hr 27 min 18 sec) 
Heartbeat CPU 0 instructions: 52000000 cycles: 65776628 heartbeat IPC: 0.689644 cumulative IPC: 0.679027 (Simulation time: 0 hr 27 min 51 sec) 
Heartbeat CPU 0 instructions: 53000002 cycles: 67195779 heartbeat IPC: 0.704648 cumulative IPC: 0.679602 (Simulation time: 0 hr 28 min 25 sec) 
Heartbeat CPU 0 instructions: 54000002 cycles: 68657252 heartbeat IPC: 0.684241 cumulative IPC: 0.679707 (Simulation time: 0 hr 28 min 58 sec) 
Heartbeat CPU 0 instructions: 55000001 cycles: 70156897 heartbeat IPC: 0.666824 cumulative IPC: 0.679415 (Simulation time: 0 hr 29 min 32 sec) 
Heartbeat CPU 0 instructions: 56000000 cycles: 71613567 heartbeat IPC: 0.686497 cumulative IPC: 0.679567 (Simulation time: 0 hr 30 min 7 sec) 
Heartbeat CPU 0 instructions: 57000003 cycles: 73043857 heartbeat IPC: 0.699161 cumulative IPC: 0.679973 (Simulation time: 0 hr 30 min 39 sec) 
Heartbeat CPU 0 instructions: 58000003 cycles: 74553952 heartbeat IPC: 0.66221 cumulative IPC: 0.679593 (Simulation time: 0 hr 31 min 12 sec) 
Heartbeat CPU 0 instructions: 59000002 cycles: 76052004 heartbeat IPC: 0.667533 cumulative IPC: 0.679342 (Simulation time: 0 hr 31 min 45 sec) 
Heartbeat CPU 0 instructions: 60000000 cycles: 77501421 heartbeat IPC: 0.689931 cumulative IPC: 0.679551 (Simulation time: 0 hr 32 min 21 sec) 
Heartbeat CPU 0 instructions: 61000003 cycles: 79014189 heartbeat IPC: 0.661042 cumulative IPC: 0.679178 (Simulation time: 0 hr 32 min 55 sec) 
Heartbeat CPU 0 instructions: 62000001 cycles: 80474621 heartbeat IPC: 0.684728 cumulative IPC: 0.679284 (Simulation time: 0 hr 33 min 30 sec) 
Heartbeat CPU 0 instructions: 63000001 cycles: 81926668 heartbeat IPC: 0.688683 cumulative IPC: 0.679459 (Simulation time: 0 hr 34 min 9 sec) 
Heartbeat CPU 0 instructions: 64000000 cycles: 83371122 heartbeat IPC: 0.692302 cumulative IPC: 0.679692 (Simulation time: 0 hr 34 min 53 sec) 
Heartbeat CPU 0 instructions: 65000000 cycles: 84874719 heartbeat IPC: 0.665072 cumulative IPC: 0.679421 (Simulation time: 0 hr 35 min 37 sec) 
Heartbeat CPU 0 instructions: 66000000 cycles: 86324628 heartbeat IPC: 0.689698 cumulative IPC: 0.679602 (Simulation time: 0 hr 36 min 18 sec) 
Heartbeat CPU 0 instructions: 67000000 cycles: 87777956 heartbeat IPC: 0.688076 cumulative IPC: 0.679749 (Simulation time: 0 hr 37 min 0 sec) 
Heartbeat CPU 0 instructions: 68000000 cycles: 89286402 heartbeat IPC: 0.662934 cumulative IPC: 0.679451 (Simulation time: 0 hr 37 min 43 sec) 
Heartbeat CPU 0 instructions: 69000000 cycles: 90730840 heartbeat IPC: 0.692311 cumulative IPC: 0.679665 (Simulation time: 0 hr 38 min 24 sec) 
Heartbeat CPU 0 instructions: 70000000 cycles: 92183810 heartbeat IPC: 0.688245 cumulative IPC: 0.679807 (Simulation time: 0 hr 39 min 4 sec) 
Heartbeat CPU 0 instructions: 71000002 cycles: 93671201 heartbeat IPC: 0.67232 cumulative IPC: 0.679683 (Simulation time: 0 hr 39 min 46 sec) 
Heartbeat CPU 0 instructions: 72000000 cycles: 95964565 heartbeat IPC: 0.43604 cumulative IPC: 0.673612 (Simulation time: 0 hr 40 min 37 sec) 
Heartbeat CPU 0 instructions: 73000002 cycles: 99134671 heartbeat IPC: 0.315448 cumulative IPC: 0.661687 (Simulation time: 0 hr 41 min 40 sec) 
Heartbeat CPU 0 instructions: 74000002 cycles: 105684687 heartbeat IPC: 0.152671 cumulative IPC: 0.628923 (Simulation time: 0 hr 43 min 20 sec) 
Heartbeat CPU 0 instructions: 75000003 cycles: 108100406 heartbeat IPC: 0.413956 cumulative IPC: 0.623938 (Simulation time: 0 hr 44 min 15 sec) 
Heartbeat CPU 0 instructions: 76000000 cycles: 110144807 heartbeat IPC: 0.489139 cumulative IPC: 0.621344 (Simulation time: 0 hr 45 min 5 sec) 
Heartbeat CPU 0 instructions: 77000000 cycles: 111509985 heartbeat IPC: 0.732505 cumulative IPC: 0.622754 (Simulation time: 0 hr 45 min 47 sec) 
Heartbeat CPU 0 instructions: 78000002 cycles: 112857180 heartbeat IPC: 0.742285 cumulative IPC: 0.624233 (Simulation time: 0 hr 46 min 24 sec) 
Heartbeat CPU 0 instructions: 79000000 cycles: 114269647 heartbeat IPC: 0.70798 cumulative IPC: 0.625305 (Simulation time: 0 hr 47 min 6 sec) 
Heartbeat CPU 0 instructions: 80000000 cycles: 115687500 heartbeat IPC: 0.705292 cumulative IPC: 0.626319 (Simulation time: 0 hr 47 min 47 sec) 
Heartbeat CPU 0 instructions: 81000001 cycles: 117091012 heartbeat IPC: 0.712499 cumulative IPC: 0.627388 (Simulation time: 0 hr 48 min 26 sec) 
Heartbeat CPU 0 instructions: 82000002 cycles: 118500854 heartbeat IPC: 0.7093 cumulative IPC: 0.628396 (Simulation time: 0 hr 49 min 3 sec) 
Heartbeat CPU 0 instructions: 83000003 cycles: 119979804 heartbeat IPC: 0.676156 cumulative IPC: 0.629005 (Simulation time: 0 hr 49 min 43 sec) 
Heartbeat CPU 0 instructions: 84000000 cycles: 121406522 heartbeat IPC: 0.700907 cumulative IPC: 0.629878 (Simulation time: 0 hr 50 min 23 sec) 
Heartbeat CPU 0 instructions: 85000000 cycles: 122854343 heartbeat IPC: 0.690693 cumulative IPC: 0.630618 (Simulation time: 0 hr 51 min 3 sec) 
Heartbeat CPU 0 instructions: 86000000 cycles: 124397287 heartbeat IPC: 0.648112 cumulative IPC: 0.630842 (Simulation time: 0 hr 51 min 40 sec) 
Heartbeat CPU 0 instructions: 87000002 cycles: 125844860 heartbeat IPC: 0.690813 cumulative IPC: 0.631554 (Simulation time: 0 hr 52 min 17 sec) 
Heartbeat CPU 0 instructions: 88000000 cycles: 127293491 heartbeat IPC: 0.690306 cumulative IPC: 0.632244 (Simulation time: 0 hr 52 min 54 sec) 
Heartbeat CPU 0 instructions: 89000003 cycles: 128766139 heartbeat IPC: 0.679051 cumulative IPC: 0.632796 (Simulation time: 0 hr 53 min 31 sec) 
Heartbeat CPU 0 instructions: 90000002 cycles: 130276179 heartbeat IPC: 0.662233 cumulative IPC: 0.633148 (Simulation time: 0 hr 54 min 10 sec) 
Heartbeat CPU 0 instructions: 91000001 cycles: 131743339 heartbeat IPC: 0.681588 cumulative IPC: 0.633704 (Simulation time: 0 hr 54 min 46 sec) 
Heartbeat CPU 0 instructions: 92000000 cycles: 133211942 heartbeat IPC: 0.680919 cumulative IPC: 0.63424 (Simulation time: 0 hr 55 min 24 sec) 
Heartbeat CPU 0 instructions: 93000003 cycles: 134730768 heartbeat IPC: 0.658405 cumulative IPC: 0.634521 (Simulation time: 0 hr 56 min 1 sec) 
Heartbeat CPU 0 instructions: 94000003 cycles: 136195351 heartbeat IPC: 0.682788 cumulative IPC: 0.635055 (Simulation time: 0 hr 56 min 35 sec) 
Heartbeat CPU 0 instructions: 95000000 cycles: 137632044 heartbeat IPC: 0.696041 cumulative IPC: 0.635711 (Simulation time: 0 hr 57 min 8 sec) 
Heartbeat CPU 0 instructions: 96000000 cycles: 139153320 heartbeat IPC: 0.657343 cumulative IPC: 0.635954 (Simulation time: 0 hr 57 min 40 sec) 
Heartbeat CPU 0 instructions: 97000002 cycles: 140611519 heartbeat IPC: 0.685779 cumulative IPC: 0.636486 (Simulation time: 0 hr 58 min 8 sec) 
Heartbeat CPU 0 instructions: 98000001 cycles: 142065307 heartbeat IPC: 0.687858 cumulative IPC: 0.637026 (Simulation time: 0 hr 58 min 38 sec) 
Heartbeat CPU 0 instructions: 99000000 cycles: 143507089 heartbeat IPC: 0.693585 cumulative IPC: 0.63761 (Simulation time: 0 hr 59 min 4 sec) 
Heartbeat CPU 0 instructions: 100000000 cycles: 145034411 heartbeat IPC: 0.654741 cumulative IPC: 0.637796 (Simulation time: 0 hr 59 min 29 sec) 
Heartbeat CPU 0 instructions: 101000000 cycles: 146467504 heartbeat IPC: 0.697791 cumulative IPC: 0.638399 (Simulation time: 0 hr 59 min 54 sec) 
Heartbeat CPU 0 instructions: 102000000 cycles: 147930477 heartbeat IPC: 0.68354 cumulative IPC: 0.638858 (Simulation time: 1 hr 0 min 20 sec) 
Heartbeat CPU 0 instructions: 103000001 cycles: 149483519 heartbeat IPC: 0.643898 cumulative IPC: 0.638911 (Simulation time: 1 hr 0 min 47 sec) 
Heartbeat CPU 0 instructions: 104000000 cycles: 150952571 heartbeat IPC: 0.68071 cumulative IPC: 0.639329 (Simulation time: 1 hr 1 min 12 sec) 
Heartbeat CPU 0 instructions: 105000001 cycles: 152416621 heartbeat IPC: 0.683037 cumulative IPC: 0.63976 (Simulation time: 1 hr 1 min 35 sec) 
Heartbeat CPU 0 instructions: 106000000 cycles: 153847876 heartbeat IPC: 0.698687 cumulative IPC: 0.640323 (Simulation time: 1 hr 1 min 59 sec) 
Heartbeat CPU 0 instructions: 107000002 cycles: 155380723 heartbeat IPC: 0.652382 cumulative IPC: 0.640445 (Simulation time: 1 hr 2 min 23 sec) 
Heartbeat CPU 0 instructions: 108000000 cycles: 156876514 heartbeat IPC: 0.668541 cumulative IPC: 0.640719 (Simulation time: 1 hr 2 min 47 sec) 
Heartbeat CPU 0 instructions: 109000003 cycles: 158318940 heartbeat IPC: 0.693279 cumulative IPC: 0.64121 (Simulation time: 1 hr 3 min 11 sec) 
Heartbeat CPU 0 instructions: 110000001 cycles: 159801451 heartbeat IPC: 0.67453 cumulative IPC: 0.641527 (Simulation time: 1 hr 3 min 35 sec) 
Finished CPU 0 instructions: 100000001 cycles: 155878021 cummulative IPC: 0.641527 (Simulation time: 1 hr 3 min 35 sec) 

ChampSim completed all CPUs

Region of Interest Statistics

CPU 0 cummulative IPC: 0.641527 instructions: 100000001 cycles: 155878021
LLC TOTAL     ACCESS:    5798542  HIT:    1257095  MISS:    4541447
LLC LOAD      ACCESS:     418900  HIT:      20024  MISS:     398876
LLC RFO       ACCESS:    2473090  HIT:     338798  MISS:    2134292
LLC PREFETCH  ACCESS:     433440  HIT:      26060  MISS:     407380
LLC WRITEBACK ACCESS:    2473112  HIT:     872213  MISS:    1600899
Insertion Distribution: 
	LOAD 0 0 0 0 3701 425330 
	RFO 189802 0 0 0 332686 1807659 
	PREF 0 12513 0 0 58275 380048 
	WRITEBACK 0 0 0 0 0 1719846 
Total Prefetch Downgrades: 19990
