
*** ChampSim Multicore Out-of-Order Simulator ***

Warmup Instructions: 10000000
Simulation Instructions: 100000000
Configuration: 2
Number of CPUs: 1
LLC sets: 2048
LLC ways: 16
Off-chip DRAM Channels: 1 Width: 64-bit Data Rate: 1600 MT/s

CPU 0 runs /datasets/cs240c-wi22-a00-public/data/Assignment2-gz/calculix_3812B.trace.gz
CPU 0 L1D next line prefetcher
CPU 0 L2C IP-based stride prefetcher
Initialize SRRIP state
Heartbeat CPU 0 instructions: 1000001 cycles: 478689 heartbeat IPC: 2.08904 cumulative IPC: 2.08904 (Simulation time: 0 hr 0 min 28 sec) 
Heartbeat CPU 0 instructions: 2000002 cycles: 956483 heartbeat IPC: 2.09295 cumulative IPC: 2.091 (Simulation time: 0 hr 0 min 57 sec) 
Heartbeat CPU 0 instructions: 3000002 cycles: 1434999 heartbeat IPC: 2.08979 cumulative IPC: 2.0906 (Simulation time: 0 hr 1 min 28 sec) 
Heartbeat CPU 0 instructions: 4000000 cycles: 1907482 heartbeat IPC: 2.11647 cumulative IPC: 2.09701 (Simulation time: 0 hr 1 min 59 sec) 
Heartbeat CPU 0 instructions: 5000000 cycles: 2356309 heartbeat IPC: 2.22803 cumulative IPC: 2.12196 (Simulation time: 0 hr 2 min 23 sec) 
Heartbeat CPU 0 instructions: 6000003 cycles: 2761685 heartbeat IPC: 2.46685 cumulative IPC: 2.17259 (Simulation time: 0 hr 2 min 43 sec) 
Heartbeat CPU 0 instructions: 7000002 cycles: 3154795 heartbeat IPC: 2.54381 cumulative IPC: 2.21885 (Simulation time: 0 hr 3 min 2 sec) 
Heartbeat CPU 0 instructions: 8000000 cycles: 3547936 heartbeat IPC: 2.54361 cumulative IPC: 2.25483 (Simulation time: 0 hr 3 min 22 sec) 
Heartbeat CPU 0 instructions: 9000000 cycles: 3940925 heartbeat IPC: 2.5446 cumulative IPC: 2.28373 (Simulation time: 0 hr 3 min 42 sec) 
Heartbeat CPU 0 instructions: 10000003 cycles: 4334014 heartbeat IPC: 2.54396 cumulative IPC: 2.30733 (Simulation time: 0 hr 4 min 3 sec) 

Warmup complete CPU 0 instructions: 10000003 cycles: 4334014 (Simulation time: 0 hr 4 min 3 sec) 

Heartbeat CPU 0 instructions: 11000001 cycles: 4770214 heartbeat IPC: 2.29252 cumulative IPC: 2.29252 (Simulation time: 0 hr 4 min 27 sec) 
Heartbeat CPU 0 instructions: 12000000 cycles: 5205542 heartbeat IPC: 2.29712 cumulative IPC: 2.29482 (Simulation time: 0 hr 4 min 50 sec) 
Heartbeat CPU 0 instructions: 13000002 cycles: 5640784 heartbeat IPC: 2.29758 cumulative IPC: 2.29574 (Simulation time: 0 hr 5 min 15 sec) 
Heartbeat CPU 0 instructions: 14000000 cycles: 6436084 heartbeat IPC: 1.25738 cumulative IPC: 1.90288 (Simulation time: 0 hr 5 min 43 sec) 
Heartbeat CPU 0 instructions: 15000003 cycles: 6910646 heartbeat IPC: 2.10721 cumulative IPC: 1.94052 (Simulation time: 0 hr 6 min 9 sec) 
Heartbeat CPU 0 instructions: 16000000 cycles: 7355250 heartbeat IPC: 2.24919 cumulative IPC: 1.98594 (Simulation time: 0 hr 6 min 35 sec) 
Heartbeat CPU 0 instructions: 17000001 cycles: 7797535 heartbeat IPC: 2.26099 cumulative IPC: 2.02106 (Simulation time: 0 hr 7 min 0 sec) 
Heartbeat CPU 0 instructions: 18000001 cycles: 8235589 heartbeat IPC: 2.28282 cumulative IPC: 2.05045 (Simulation time: 0 hr 7 min 25 sec) 
Heartbeat CPU 0 instructions: 19000001 cycles: 8675172 heartbeat IPC: 2.27488 cumulative IPC: 2.07318 (Simulation time: 0 hr 7 min 49 sec) 
Heartbeat CPU 0 instructions: 20000000 cycles: 9196848 heartbeat IPC: 1.9169 cumulative IPC: 2.05641 (Simulation time: 0 hr 8 min 14 sec) 
Heartbeat CPU 0 instructions: 21000001 cycles: 9636094 heartbeat IPC: 2.27663 cumulative IPC: 2.07466 (Simulation time: 0 hr 8 min 39 sec) 
Heartbeat CPU 0 instructions: 22000000 cycles: 10076059 heartbeat IPC: 2.27291 cumulative IPC: 2.08985 (Simulation time: 0 hr 9 min 4 sec) 
Heartbeat CPU 0 instructions: 23000001 cycles: 10515509 heartbeat IPC: 2.27557 cumulative IPC: 2.10305 (Simulation time: 0 hr 9 min 28 sec) 
Heartbeat CPU 0 instructions: 24000000 cycles: 10955876 heartbeat IPC: 2.27083 cumulative IPC: 2.11421 (Simulation time: 0 hr 9 min 54 sec) 
Heartbeat CPU 0 instructions: 25000003 cycles: 11480849 heartbeat IPC: 1.90487 cumulative IPC: 2.09883 (Simulation time: 0 hr 10 min 21 sec) 
Heartbeat CPU 0 instructions: 26000003 cycles: 12028316 heartbeat IPC: 1.82659 cumulative IPC: 2.07946 (Simulation time: 0 hr 10 min 46 sec) 
Heartbeat CPU 0 instructions: 27000000 cycles: 12562746 heartbeat IPC: 1.87115 cumulative IPC: 2.06593 (Simulation time: 0 hr 11 min 10 sec) 
Heartbeat CPU 0 instructions: 28000000 cycles: 13207180 heartbeat IPC: 1.55175 cumulative IPC: 2.02859 (Simulation time: 0 hr 11 min 36 sec) 
Heartbeat CPU 0 instructions: 29000002 cycles: 13685036 heartbeat IPC: 2.09268 cumulative IPC: 2.03186 (Simulation time: 0 hr 12 min 1 sec) 
Heartbeat CPU 0 instructions: 30000001 cycles: 14239736 heartbeat IPC: 1.80277 cumulative IPC: 2.01903 (Simulation time: 0 hr 12 min 28 sec) 
Heartbeat CPU 0 instructions: 31000001 cycles: 14789685 heartbeat IPC: 1.81835 cumulative IPC: 2.00848 (Simulation time: 0 hr 12 min 55 sec) 
Heartbeat CPU 0 instructions: 32000000 cycles: 15524829 heartbeat IPC: 1.36028 cumulative IPC: 1.9659 (Simulation time: 0 hr 13 min 24 sec) 
Heartbeat CPU 0 instructions: 33000003 cycles: 16229437 heartbeat IPC: 1.41923 cumulative IPC: 1.93352 (Simulation time: 0 hr 13 min 53 sec) 
Heartbeat CPU 0 instructions: 34000000 cycles: 16929343 heartbeat IPC: 1.42876 cumulative IPC: 1.90547 (Simulation time: 0 hr 14 min 24 sec) 
Heartbeat CPU 0 instructions: 35000000 cycles: 17602542 heartbeat IPC: 1.48544 cumulative IPC: 1.88416 (Simulation time: 0 hr 14 min 53 sec) 
Heartbeat CPU 0 instructions: 36000000 cycles: 18243875 heartbeat IPC: 1.55925 cumulative IPC: 1.86918 (Simulation time: 0 hr 15 min 24 sec) 
Heartbeat CPU 0 instructions: 37000002 cycles: 18869692 heartbeat IPC: 1.59791 cumulative IPC: 1.8575 (Simulation time: 0 hr 15 min 54 sec) 
Heartbeat CPU 0 instructions: 38000003 cycles: 19504699 heartbeat IPC: 1.57479 cumulative IPC: 1.84566 (Simulation time: 0 hr 16 min 25 sec) 
Heartbeat CPU 0 instructions: 39000003 cycles: 20279187 heartbeat IPC: 1.29118 cumulative IPC: 1.81873 (Simulation time: 0 hr 16 min 54 sec) 
Heartbeat CPU 0 instructions: 40000000 cycles: 21120414 heartbeat IPC: 1.18874 cumulative IPC: 1.78716 (Simulation time: 0 hr 17 min 23 sec) 
Heartbeat CPU 0 instructions: 41000000 cycles: 22058036 heartbeat IPC: 1.06653 cumulative IPC: 1.74904 (Simulation time: 0 hr 17 min 51 sec) 
Heartbeat CPU 0 instructions: 42000001 cycles: 22662777 heartbeat IPC: 1.6536 cumulative IPC: 1.74589 (Simulation time: 0 hr 18 min 18 sec) 
Heartbeat CPU 0 instructions: 43000000 cycles: 23284042 heartbeat IPC: 1.60962 cumulative IPC: 1.74142 (Simulation time: 0 hr 18 min 45 sec) 
Heartbeat CPU 0 instructions: 44000000 cycles: 23960798 heartbeat IPC: 1.47764 cumulative IPC: 1.73233 (Simulation time: 0 hr 19 min 14 sec) 
Heartbeat CPU 0 instructions: 45000002 cycles: 24635207 heartbeat IPC: 1.48278 cumulative IPC: 1.72404 (Simulation time: 0 hr 19 min 45 sec) 
Heartbeat CPU 0 instructions: 46000002 cycles: 25364763 heartbeat IPC: 1.3707 cumulative IPC: 1.71178 (Simulation time: 0 hr 20 min 17 sec) 
Heartbeat CPU 0 instructions: 47000002 cycles: 26243861 heartbeat IPC: 1.13753 cumulative IPC: 1.68874 (Simulation time: 0 hr 20 min 45 sec) 
Heartbeat CPU 0 instructions: 48000000 cycles: 26698941 heartbeat IPC: 2.19741 cumulative IPC: 1.69909 (Simulation time: 0 hr 21 min 10 sec) 
Heartbeat CPU 0 instructions: 49000000 cycles: 27152500 heartbeat IPC: 2.20478 cumulative IPC: 1.70914 (Simulation time: 0 hr 21 min 36 sec) 
Heartbeat CPU 0 instructions: 50000000 cycles: 27632890 heartbeat IPC: 2.08164 cumulative IPC: 1.71682 (Simulation time: 0 hr 22 min 2 sec) 
Heartbeat CPU 0 instructions: 51000000 cycles: 28216028 heartbeat IPC: 1.71486 cumulative IPC: 1.71677 (Simulation time: 0 hr 22 min 29 sec) 
Heartbeat CPU 0 instructions: 52000000 cycles: 28761506 heartbeat IPC: 1.83325 cumulative IPC: 1.71937 (Simulation time: 0 hr 22 min 56 sec) 
Heartbeat CPU 0 instructions: 53000000 cycles: 29226614 heartbeat IPC: 2.15004 cumulative IPC: 1.72742 (Simulation time: 0 hr 23 min 20 sec) 
Heartbeat CPU 0 instructions: 54000003 cycles: 29686243 heartbeat IPC: 2.17567 cumulative IPC: 1.73555 (Simulation time: 0 hr 23 min 45 sec) 
Heartbeat CPU 0 instructions: 55000001 cycles: 30144711 heartbeat IPC: 2.18117 cumulative IPC: 1.74346 (Simulation time: 0 hr 24 min 11 sec) 
Heartbeat CPU 0 instructions: 56000000 cycles: 30603774 heartbeat IPC: 2.17835 cumulative IPC: 1.75106 (Simulation time: 0 hr 24 min 36 sec) 
Heartbeat CPU 0 instructions: 57000003 cycles: 31066817 heartbeat IPC: 2.15963 cumulative IPC: 1.75814 (Simulation time: 0 hr 25 min 3 sec) 
Heartbeat CPU 0 instructions: 58000002 cycles: 31535811 heartbeat IPC: 2.13222 cumulative IPC: 1.76459 (Simulation time: 0 hr 25 min 27 sec) 
Heartbeat CPU 0 instructions: 59000001 cycles: 32100899 heartbeat IPC: 1.76963 cumulative IPC: 1.76469 (Simulation time: 0 hr 25 min 52 sec) 
Heartbeat CPU 0 instructions: 60000000 cycles: 32622149 heartbeat IPC: 1.91846 cumulative IPC: 1.76753 (Simulation time: 0 hr 26 min 18 sec) 
Heartbeat CPU 0 instructions: 61000003 cycles: 33150320 heartbeat IPC: 1.89333 cumulative IPC: 1.76983 (Simulation time: 0 hr 26 min 43 sec) 
Heartbeat CPU 0 instructions: 62000002 cycles: 33675847 heartbeat IPC: 1.90285 cumulative IPC: 1.77221 (Simulation time: 0 hr 27 min 9 sec) 
Heartbeat CPU 0 instructions: 63000003 cycles: 34202654 heartbeat IPC: 1.89823 cumulative IPC: 1.77444 (Simulation time: 0 hr 27 min 34 sec) 
Heartbeat CPU 0 instructions: 64000000 cycles: 34730388 heartbeat IPC: 1.89489 cumulative IPC: 1.77653 (Simulation time: 0 hr 27 min 59 sec) 
Heartbeat CPU 0 instructions: 65000000 cycles: 35408990 heartbeat IPC: 1.47362 cumulative IPC: 1.76991 (Simulation time: 0 hr 28 min 26 sec) 
Heartbeat CPU 0 instructions: 66000002 cycles: 35981245 heartbeat IPC: 1.74748 cumulative IPC: 1.76951 (Simulation time: 0 hr 28 min 52 sec) 
Heartbeat CPU 0 instructions: 67000002 cycles: 36483769 heartbeat IPC: 1.98995 cumulative IPC: 1.77295 (Simulation time: 0 hr 29 min 18 sec) 
Heartbeat CPU 0 instructions: 68000000 cycles: 36969085 heartbeat IPC: 2.06051 cumulative IPC: 1.77723 (Simulation time: 0 hr 29 min 44 sec) 
Heartbeat CPU 0 instructions: 69000001 cycles: 37510285 heartbeat IPC: 1.84775 cumulative IPC: 1.77838 (Simulation time: 0 hr 30 min 9 sec) 
Heartbeat CPU 0 instructions: 70000000 cycles: 38005848 heartbeat IPC: 2.0179 cumulative IPC: 1.7819 (Simulation time: 0 hr 30 min 33 sec) 
Heartbeat CPU 0 instructions: 71000000 cycles: 38503935 heartbeat IPC: 2.00768 cumulative IPC: 1.7852 (Simulation time: 0 hr 30 min 58 sec) 
Heartbeat CPU 0 instructions: 72000000 cycles: 39012696 heartbeat IPC: 1.96556 cumulative IPC: 1.78784 (Simulation time: 0 hr 31 min 23 sec) 
Heartbeat CPU 0 instructions: 73000001 cycles: 39562148 heartbeat IPC: 1.82 cumulative IPC: 1.78834 (Simulation time: 0 hr 31 min 48 sec) 
Heartbeat CPU 0 instructions: 74000002 cycles: 40180860 heartbeat IPC: 1.61626 cumulative IPC: 1.78537 (Simulation time: 0 hr 32 min 15 sec) 
Heartbeat CPU 0 instructions: 75000000 cycles: 40719347 heartbeat IPC: 1.85705 cumulative IPC: 1.78643 (Simulation time: 0 hr 32 min 41 sec) 
Heartbeat CPU 0 instructions: 76000000 cycles: 41447061 heartbeat IPC: 1.37417 cumulative IPC: 1.77835 (Simulation time: 0 hr 33 min 14 sec) 
Heartbeat CPU 0 instructions: 77000000 cycles: 42168024 heartbeat IPC: 1.38703 cumulative IPC: 1.77089 (Simulation time: 0 hr 33 min 49 sec) 
Heartbeat CPU 0 instructions: 78000003 cycles: 42886605 heartbeat IPC: 1.39164 cumulative IPC: 1.76382 (Simulation time: 0 hr 34 min 25 sec) 
Heartbeat CPU 0 instructions: 79000000 cycles: 43597506 heartbeat IPC: 1.40666 cumulative IPC: 1.75736 (Simulation time: 0 hr 35 min 0 sec) 
Heartbeat CPU 0 instructions: 80000000 cycles: 44282588 heartbeat IPC: 1.45968 cumulative IPC: 1.75225 (Simulation time: 0 hr 35 min 35 sec) 
Heartbeat CPU 0 instructions: 81000001 cycles: 44946920 heartbeat IPC: 1.50527 cumulative IPC: 1.74821 (Simulation time: 0 hr 36 min 10 sec) 
Heartbeat CPU 0 instructions: 82000002 cycles: 45589878 heartbeat IPC: 1.55531 cumulative IPC: 1.74521 (Simulation time: 0 hr 36 min 45 sec) 
Heartbeat CPU 0 instructions: 83000002 cycles: 46395056 heartbeat IPC: 1.24196 cumulative IPC: 1.73557 (Simulation time: 0 hr 37 min 18 sec) 
Heartbeat CPU 0 instructions: 84000000 cycles: 47071986 heartbeat IPC: 1.47725 cumulative IPC: 1.73148 (Simulation time: 0 hr 37 min 49 sec) 
Heartbeat CPU 0 instructions: 85000000 cycles: 47595251 heartbeat IPC: 1.91108 cumulative IPC: 1.73365 (Simulation time: 0 hr 38 min 19 sec) 
Heartbeat CPU 0 instructions: 86000001 cycles: 48118667 heartbeat IPC: 1.91053 cumulative IPC: 1.73577 (Simulation time: 0 hr 38 min 48 sec) 
Heartbeat CPU 0 instructions: 87000002 cycles: 48634058 heartbeat IPC: 1.94028 cumulative IPC: 1.73815 (Simulation time: 0 hr 39 min 18 sec) 
Heartbeat CPU 0 instructions: 88000000 cycles: 49147979 heartbeat IPC: 1.94582 cumulative IPC: 1.74053 (Simulation time: 0 hr 39 min 46 sec) 
Heartbeat CPU 0 instructions: 89000003 cycles: 49663520 heartbeat IPC: 1.93972 cumulative IPC: 1.74279 (Simulation time: 0 hr 40 min 16 sec) 
Heartbeat CPU 0 instructions: 90000003 cycles: 50178491 heartbeat IPC: 1.94186 cumulative IPC: 1.74503 (Simulation time: 0 hr 40 min 47 sec) 
Heartbeat CPU 0 instructions: 91000003 cycles: 50703485 heartbeat IPC: 1.90478 cumulative IPC: 1.74684 (Simulation time: 0 hr 41 min 16 sec) 
Heartbeat CPU 0 instructions: 92000000 cycles: 51177696 heartbeat IPC: 2.10876 cumulative IPC: 1.7505 (Simulation time: 0 hr 41 min 44 sec) 
Heartbeat CPU 0 instructions: 93000000 cycles: 51629246 heartbeat IPC: 2.21459 cumulative IPC: 1.75493 (Simulation time: 0 hr 42 min 14 sec) 
Heartbeat CPU 0 instructions: 94000003 cycles: 52077323 heartbeat IPC: 2.23177 cumulative IPC: 1.75941 (Simulation time: 0 hr 42 min 42 sec) 
Heartbeat CPU 0 instructions: 95000002 cycles: 52680363 heartbeat IPC: 1.65826 cumulative IPC: 1.75815 (Simulation time: 0 hr 43 min 13 sec) 
Heartbeat CPU 0 instructions: 96000000 cycles: 53219371 heartbeat IPC: 1.85526 cumulative IPC: 1.75922 (Simulation time: 0 hr 43 min 45 sec) 
Heartbeat CPU 0 instructions: 97000000 cycles: 53682240 heartbeat IPC: 2.16044 cumulative IPC: 1.76298 (Simulation time: 0 hr 44 min 15 sec) 
Heartbeat CPU 0 instructions: 98000003 cycles: 54134963 heartbeat IPC: 2.20886 cumulative IPC: 1.76703 (Simulation time: 0 hr 44 min 45 sec) 
Heartbeat CPU 0 instructions: 99000000 cycles: 54584509 heartbeat IPC: 2.22446 cumulative IPC: 1.77113 (Simulation time: 0 hr 45 min 13 sec) 
Heartbeat CPU 0 instructions: 100000000 cycles: 55034422 heartbeat IPC: 2.22265 cumulative IPC: 1.77513 (Simulation time: 0 hr 45 min 41 sec) 
Heartbeat CPU 0 instructions: 101000003 cycles: 55481773 heartbeat IPC: 2.23539 cumulative IPC: 1.77916 (Simulation time: 0 hr 46 min 11 sec) 
Heartbeat CPU 0 instructions: 102000002 cycles: 55997428 heartbeat IPC: 1.93928 cumulative IPC: 1.78076 (Simulation time: 0 hr 46 min 42 sec) 
Heartbeat CPU 0 instructions: 103000000 cycles: 56522101 heartbeat IPC: 1.90595 cumulative IPC: 1.78202 (Simulation time: 0 hr 47 min 11 sec) 
Heartbeat CPU 0 instructions: 104000000 cycles: 57044407 heartbeat IPC: 1.91459 cumulative IPC: 1.78333 (Simulation time: 0 hr 47 min 42 sec) 
Heartbeat CPU 0 instructions: 105000000 cycles: 57572303 heartbeat IPC: 1.89431 cumulative IPC: 1.78443 (Simulation time: 0 hr 48 min 11 sec) 
Heartbeat CPU 0 instructions: 106000003 cycles: 58093377 heartbeat IPC: 1.91912 cumulative IPC: 1.78574 (Simulation time: 0 hr 48 min 40 sec) 
Heartbeat CPU 0 instructions: 107000003 cycles: 58611618 heartbeat IPC: 1.9296 cumulative IPC: 1.78711 (Simulation time: 0 hr 49 min 9 sec) 
Heartbeat CPU 0 instructions: 108000000 cycles: 59192048 heartbeat IPC: 1.72286 cumulative IPC: 1.78643 (Simulation time: 0 hr 49 min 39 sec) 
Heartbeat CPU 0 instructions: 109000002 cycles: 59846526 heartbeat IPC: 1.52794 cumulative IPC: 1.78338 (Simulation time: 0 hr 50 min 11 sec) 
Heartbeat CPU 0 instructions: 110000003 cycles: 60329875 heartbeat IPC: 2.0689 cumulative IPC: 1.78585 (Simulation time: 0 hr 50 min 39 sec) 
Finished CPU 0 instructions: 100000000 cycles: 55995861 cummulative IPC: 1.78585 (Simulation time: 0 hr 50 min 39 sec) 

ChampSim completed all CPUs

Region of Interest Statistics

CPU 0 cummulative IPC: 1.78585 instructions: 100000000 cycles: 55995861
LLC TOTAL     ACCESS:    1161480  HIT:     991062  MISS:     170418
LLC LOAD      ACCESS:     133692  HIT:     126403  MISS:       7289
LLC RFO       ACCESS:      47545  HIT:      17317  MISS:      30228
LLC PREFETCH  ACCESS:     680423  HIT:     555325  MISS:     125098
LLC WRITEBACK ACCESS:     299820  HIT:     292017  MISS:       7803
Insertion Distribution: 
	LOAD 2928 0 0 0 4445 693 
	RFO 12064 0 0 0 19124 5096 
	PREF 0 8640 0 0 19658 104161 
	WRITEBACK 0 0 0 0 0 8507 
Total Prefetch Downgrades: 7766
