
*** ChampSim Multicore Out-of-Order Simulator ***

Warmup Instructions: 10000000
Simulation Instructions: 100000000
Configuration: 2
Number of CPUs: 1
LLC sets: 2048
LLC ways: 16
Off-chip DRAM Channels: 1 Width: 64-bit Data Rate: 1600 MT/s

CPU 0 runs /datasets/cs240c-wi22-a00-public/data/Assignment2-gz/omnetpp_17B.trace.gz
CPU 0 L1D next line prefetcher
CPU 0 L2C IP-based stride prefetcher
Initialize SRRIP state
Heartbeat CPU 0 instructions: 1000000 cycles: 559549 heartbeat IPC: 1.78715 cumulative IPC: 1.78715 (Simulation time: 0 hr 0 min 28 sec) 
Heartbeat CPU 0 instructions: 2000002 cycles: 1133688 heartbeat IPC: 1.74174 cumulative IPC: 1.76416 (Simulation time: 0 hr 0 min 55 sec) 
Heartbeat CPU 0 instructions: 3000001 cycles: 1768996 heartbeat IPC: 1.57404 cumulative IPC: 1.69588 (Simulation time: 0 hr 1 min 20 sec) 
Heartbeat CPU 0 instructions: 4000000 cycles: 2333939 heartbeat IPC: 1.77009 cumulative IPC: 1.71384 (Simulation time: 0 hr 1 min 50 sec) 
Heartbeat CPU 0 instructions: 5000002 cycles: 2892961 heartbeat IPC: 1.78884 cumulative IPC: 1.72833 (Simulation time: 0 hr 2 min 18 sec) 
Heartbeat CPU 0 instructions: 6000000 cycles: 3471400 heartbeat IPC: 1.72879 cumulative IPC: 1.72841 (Simulation time: 0 hr 2 min 45 sec) 
Heartbeat CPU 0 instructions: 7000000 cycles: 4035821 heartbeat IPC: 1.77173 cumulative IPC: 1.73447 (Simulation time: 0 hr 3 min 12 sec) 
Heartbeat CPU 0 instructions: 8000000 cycles: 4697555 heartbeat IPC: 1.51118 cumulative IPC: 1.70301 (Simulation time: 0 hr 3 min 36 sec) 
Heartbeat CPU 0 instructions: 9000000 cycles: 5359360 heartbeat IPC: 1.51102 cumulative IPC: 1.6793 (Simulation time: 0 hr 4 min 1 sec) 
Heartbeat CPU 0 instructions: 10000001 cycles: 6020929 heartbeat IPC: 1.51156 cumulative IPC: 1.66087 (Simulation time: 0 hr 4 min 26 sec) 

Warmup complete CPU 0 instructions: 10000001 cycles: 6020929 (Simulation time: 0 hr 4 min 26 sec) 

Heartbeat CPU 0 instructions: 11000001 cycles: 7065725 heartbeat IPC: 0.957125 cumulative IPC: 0.957125 (Simulation time: 0 hr 4 min 51 sec) 
Heartbeat CPU 0 instructions: 12000000 cycles: 8110268 heartbeat IPC: 0.957355 cumulative IPC: 0.95724 (Simulation time: 0 hr 5 min 18 sec) 
Heartbeat CPU 0 instructions: 13000000 cycles: 9180160 heartbeat IPC: 0.934674 cumulative IPC: 0.949598 (Simulation time: 0 hr 5 min 43 sec) 
Heartbeat CPU 0 instructions: 14000001 cycles: 10224411 heartbeat IPC: 0.957625 cumulative IPC: 0.951592 (Simulation time: 0 hr 6 min 9 sec) 
Heartbeat CPU 0 instructions: 15000000 cycles: 11268619 heartbeat IPC: 0.957663 cumulative IPC: 0.9528 (Simulation time: 0 hr 6 min 35 sec) 
Heartbeat CPU 0 instructions: 16000000 cycles: 12312656 heartbeat IPC: 0.95782 cumulative IPC: 0.953633 (Simulation time: 0 hr 7 min 1 sec) 
Heartbeat CPU 0 instructions: 17000000 cycles: 13358193 heartbeat IPC: 0.956446 cumulative IPC: 0.954034 (Simulation time: 0 hr 7 min 27 sec) 
Heartbeat CPU 0 instructions: 18000001 cycles: 14399517 heartbeat IPC: 0.960317 cumulative IPC: 0.954815 (Simulation time: 0 hr 7 min 52 sec) 
Heartbeat CPU 0 instructions: 19000002 cycles: 15434142 heartbeat IPC: 0.966535 cumulative IPC: 0.956103 (Simulation time: 0 hr 8 min 17 sec) 
Heartbeat CPU 0 instructions: 20000000 cycles: 18688574 heartbeat IPC: 0.307273 cumulative IPC: 0.789413 (Simulation time: 0 hr 8 min 49 sec) 
Heartbeat CPU 0 instructions: 21000000 cycles: 21089098 heartbeat IPC: 0.416576 cumulative IPC: 0.730016 (Simulation time: 0 hr 9 min 19 sec) 
Heartbeat CPU 0 instructions: 22000002 cycles: 22935156 heartbeat IPC: 0.541696 cumulative IPC: 0.709462 (Simulation time: 0 hr 9 min 47 sec) 
Heartbeat CPU 0 instructions: 23000000 cycles: 26157133 heartbeat IPC: 0.310368 cumulative IPC: 0.645603 (Simulation time: 0 hr 10 min 19 sec) 
Heartbeat CPU 0 instructions: 24000000 cycles: 29370968 heartbeat IPC: 0.311155 cumulative IPC: 0.599571 (Simulation time: 0 hr 10 min 52 sec) 
Heartbeat CPU 0 instructions: 25000001 cycles: 31929264 heartbeat IPC: 0.390886 cumulative IPC: 0.578964 (Simulation time: 0 hr 11 min 22 sec) 
Heartbeat CPU 0 instructions: 26000001 cycles: 33607058 heartbeat IPC: 0.596021 cumulative IPC: 0.580002 (Simulation time: 0 hr 11 min 50 sec) 
Heartbeat CPU 0 instructions: 27000000 cycles: 36809333 heartbeat IPC: 0.312278 cumulative IPC: 0.552156 (Simulation time: 0 hr 12 min 22 sec) 
Heartbeat CPU 0 instructions: 28000000 cycles: 40016887 heartbeat IPC: 0.311764 cumulative IPC: 0.529475 (Simulation time: 0 hr 12 min 55 sec) 
Heartbeat CPU 0 instructions: 29000000 cycles: 42744890 heartbeat IPC: 0.366569 cumulative IPC: 0.517373 (Simulation time: 0 hr 13 min 27 sec) 
Heartbeat CPU 0 instructions: 30000000 cycles: 44249452 heartbeat IPC: 0.664645 cumulative IPC: 0.52317 (Simulation time: 0 hr 13 min 54 sec) 
Heartbeat CPU 0 instructions: 31000000 cycles: 47444755 heartbeat IPC: 0.312959 cumulative IPC: 0.506955 (Simulation time: 0 hr 14 min 29 sec) 
Heartbeat CPU 0 instructions: 32000000 cycles: 50639655 heartbeat IPC: 0.312999 cumulative IPC: 0.493066 (Simulation time: 0 hr 15 min 0 sec) 
Heartbeat CPU 0 instructions: 33000001 cycles: 53545427 heartbeat IPC: 0.344143 cumulative IPC: 0.483961 (Simulation time: 0 hr 15 min 30 sec) 
Heartbeat CPU 0 instructions: 34000000 cycles: 54861794 heartbeat IPC: 0.759666 cumulative IPC: 0.491392 (Simulation time: 0 hr 15 min 56 sec) 
Heartbeat CPU 0 instructions: 35000003 cycles: 58050533 heartbeat IPC: 0.313605 cumulative IPC: 0.480496 (Simulation time: 0 hr 16 min 27 sec) 
Heartbeat CPU 0 instructions: 36000000 cycles: 61280860 heartbeat IPC: 0.309565 cumulative IPC: 0.470504 (Simulation time: 0 hr 16 min 58 sec) 
Heartbeat CPU 0 instructions: 37000001 cycles: 64086897 heartbeat IPC: 0.356375 cumulative IPC: 0.464988 (Simulation time: 0 hr 17 min 34 sec) 
Heartbeat CPU 0 instructions: 38000000 cycles: 65515827 heartbeat IPC: 0.699824 cumulative IPC: 0.470629 (Simulation time: 0 hr 18 min 0 sec) 
Heartbeat CPU 0 instructions: 39000000 cycles: 68713068 heartbeat IPC: 0.31277 cumulative IPC: 0.462578 (Simulation time: 0 hr 18 min 32 sec) 
Heartbeat CPU 0 instructions: 40000000 cycles: 71915572 heartbeat IPC: 0.312256 cumulative IPC: 0.455272 (Simulation time: 0 hr 19 min 3 sec) 
Heartbeat CPU 0 instructions: 41000002 cycles: 74621294 heartbeat IPC: 0.369588 cumulative IPC: 0.451893 (Simulation time: 0 hr 19 min 33 sec) 
Heartbeat CPU 0 instructions: 42000000 cycles: 76144371 heartbeat IPC: 0.656564 cumulative IPC: 0.456338 (Simulation time: 0 hr 20 min 2 sec) 
Heartbeat CPU 0 instructions: 43000003 cycles: 81401798 heartbeat IPC: 0.190208 cumulative IPC: 0.437777 (Simulation time: 0 hr 20 min 40 sec) 
Heartbeat CPU 0 instructions: 44000000 cycles: 82448347 heartbeat IPC: 0.955519 cumulative IPC: 0.444867 (Simulation time: 0 hr 21 min 6 sec) 
Heartbeat CPU 0 instructions: 45000003 cycles: 83491237 heartbeat IPC: 0.958877 cumulative IPC: 0.451786 (Simulation time: 0 hr 21 min 32 sec) 
Heartbeat CPU 0 instructions: 46000001 cycles: 84534304 heartbeat IPC: 0.958709 cumulative IPC: 0.458521 (Simulation time: 0 hr 21 min 58 sec) 
Heartbeat CPU 0 instructions: 47000001 cycles: 85578839 heartbeat IPC: 0.957364 cumulative IPC: 0.46507 (Simulation time: 0 hr 22 min 24 sec) 
Heartbeat CPU 0 instructions: 48000000 cycles: 86622017 heartbeat IPC: 0.958608 cumulative IPC: 0.471458 (Simulation time: 0 hr 22 min 49 sec) 
Heartbeat CPU 0 instructions: 49000000 cycles: 87663823 heartbeat IPC: 0.959872 cumulative IPC: 0.47769 (Simulation time: 0 hr 23 min 16 sec) 
Heartbeat CPU 0 instructions: 50000000 cycles: 88706611 heartbeat IPC: 0.958968 cumulative IPC: 0.48376 (Simulation time: 0 hr 23 min 42 sec) 
Heartbeat CPU 0 instructions: 51000002 cycles: 89749499 heartbeat IPC: 0.958878 cumulative IPC: 0.489678 (Simulation time: 0 hr 24 min 8 sec) 
Heartbeat CPU 0 instructions: 52000000 cycles: 90793738 heartbeat IPC: 0.957633 cumulative IPC: 0.495442 (Simulation time: 0 hr 24 min 34 sec) 
Heartbeat CPU 0 instructions: 53000001 cycles: 91836210 heartbeat IPC: 0.959259 cumulative IPC: 0.501076 (Simulation time: 0 hr 24 min 59 sec) 
Heartbeat CPU 0 instructions: 54000002 cycles: 92904425 heartbeat IPC: 0.936142 cumulative IPC: 0.506425 (Simulation time: 0 hr 25 min 24 sec) 
Heartbeat CPU 0 instructions: 55000003 cycles: 93944700 heartbeat IPC: 0.961285 cumulative IPC: 0.511807 (Simulation time: 0 hr 25 min 50 sec) 
Heartbeat CPU 0 instructions: 56000000 cycles: 96136277 heartbeat IPC: 0.456291 cumulative IPC: 0.510457 (Simulation time: 0 hr 26 min 19 sec) 
Heartbeat CPU 0 instructions: 57000003 cycles: 98158991 heartbeat IPC: 0.494387 cumulative IPC: 0.510104 (Simulation time: 0 hr 26 min 48 sec) 
Heartbeat CPU 0 instructions: 58000000 cycles: 101368389 heartbeat IPC: 0.311584 cumulative IPC: 0.503422 (Simulation time: 0 hr 27 min 20 sec) 
Heartbeat CPU 0 instructions: 59000003 cycles: 104574637 heartbeat IPC: 0.311892 cumulative IPC: 0.497191 (Simulation time: 0 hr 27 min 54 sec) 
Heartbeat CPU 0 instructions: 60000000 cycles: 106926333 heartbeat IPC: 0.425224 cumulative IPC: 0.495514 (Simulation time: 0 hr 28 min 23 sec) 
Heartbeat CPU 0 instructions: 61000001 cycles: 108806249 heartbeat IPC: 0.531939 cumulative IPC: 0.49618 (Simulation time: 0 hr 28 min 55 sec) 
Heartbeat CPU 0 instructions: 62000001 cycles: 112003371 heartbeat IPC: 0.312781 cumulative IPC: 0.490647 (Simulation time: 0 hr 29 min 28 sec) 
Heartbeat CPU 0 instructions: 63000000 cycles: 115209657 heartbeat IPC: 0.311887 cumulative IPC: 0.485398 (Simulation time: 0 hr 30 min 1 sec) 
Heartbeat CPU 0 instructions: 64000000 cycles: 117713244 heartbeat IPC: 0.399427 cumulative IPC: 0.483471 (Simulation time: 0 hr 30 min 30 sec) 
Heartbeat CPU 0 instructions: 65000000 cycles: 119428586 heartbeat IPC: 0.582974 cumulative IPC: 0.484976 (Simulation time: 0 hr 30 min 57 sec) 
Heartbeat CPU 0 instructions: 66000000 cycles: 122635229 heartbeat IPC: 0.311853 cumulative IPC: 0.480216 (Simulation time: 0 hr 31 min 30 sec) 
Heartbeat CPU 0 instructions: 67000001 cycles: 125842360 heartbeat IPC: 0.311805 cumulative IPC: 0.475708 (Simulation time: 0 hr 32 min 2 sec) 
Heartbeat CPU 0 instructions: 68000000 cycles: 128531049 heartbeat IPC: 0.371928 cumulative IPC: 0.47343 (Simulation time: 0 hr 32 min 32 sec) 
Heartbeat CPU 0 instructions: 69000001 cycles: 130075741 heartbeat IPC: 0.647379 cumulative IPC: 0.475596 (Simulation time: 0 hr 33 min 0 sec) 
Heartbeat CPU 0 instructions: 70000001 cycles: 133266512 heartbeat IPC: 0.313404 cumulative IPC: 0.471529 (Simulation time: 0 hr 33 min 36 sec) 
Heartbeat CPU 0 instructions: 71000001 cycles: 136468918 heartbeat IPC: 0.312265 cumulative IPC: 0.467619 (Simulation time: 0 hr 34 min 13 sec) 
Heartbeat CPU 0 instructions: 72000000 cycles: 139163448 heartbeat IPC: 0.371122 cumulative IPC: 0.465666 (Simulation time: 0 hr 34 min 48 sec) 
Heartbeat CPU 0 instructions: 73000000 cycles: 140712965 heartbeat IPC: 0.645362 cumulative IPC: 0.467734 (Simulation time: 0 hr 35 min 19 sec) 
Heartbeat CPU 0 instructions: 74000003 cycles: 143919776 heartbeat IPC: 0.311837 cumulative IPC: 0.464108 (Simulation time: 0 hr 35 min 55 sec) 
Heartbeat CPU 0 instructions: 75000001 cycles: 147130983 heartbeat IPC: 0.311409 cumulative IPC: 0.460633 (Simulation time: 0 hr 36 min 32 sec) 
Heartbeat CPU 0 instructions: 76000000 cycles: 149723106 heartbeat IPC: 0.385784 cumulative IPC: 0.459283 (Simulation time: 0 hr 37 min 7 sec) 
Heartbeat CPU 0 instructions: 77000001 cycles: 151367959 heartbeat IPC: 0.607958 cumulative IPC: 0.460966 (Simulation time: 0 hr 37 min 39 sec) 
Heartbeat CPU 0 instructions: 78000000 cycles: 154570791 heartbeat IPC: 0.312223 cumulative IPC: 0.457759 (Simulation time: 0 hr 38 min 17 sec) 
Heartbeat CPU 0 instructions: 79000000 cycles: 157937206 heartbeat IPC: 0.297052 cumulative IPC: 0.454198 (Simulation time: 0 hr 38 min 57 sec) 
Heartbeat CPU 0 instructions: 80000000 cycles: 159743373 heartbeat IPC: 0.553659 cumulative IPC: 0.455366 (Simulation time: 0 hr 39 min 28 sec) 
Heartbeat CPU 0 instructions: 81000001 cycles: 162166490 heartbeat IPC: 0.412692 cumulative IPC: 0.454704 (Simulation time: 0 hr 40 min 1 sec) 
Heartbeat CPU 0 instructions: 82000000 cycles: 165374751 heartbeat IPC: 0.311695 cumulative IPC: 0.451825 (Simulation time: 0 hr 40 min 38 sec) 
Heartbeat CPU 0 instructions: 83000000 cycles: 168577269 heartbeat IPC: 0.312254 cumulative IPC: 0.449075 (Simulation time: 0 hr 41 min 15 sec) 
Heartbeat CPU 0 instructions: 84000000 cycles: 170352741 heartbeat IPC: 0.563231 cumulative IPC: 0.450308 (Simulation time: 0 hr 41 min 46 sec) 
Heartbeat CPU 0 instructions: 85000003 cycles: 172803612 heartbeat IPC: 0.408019 cumulative IPC: 0.449687 (Simulation time: 0 hr 42 min 22 sec) 
Heartbeat CPU 0 instructions: 86000001 cycles: 176013697 heartbeat IPC: 0.311518 cumulative IPC: 0.447078 (Simulation time: 0 hr 42 min 59 sec) 
Heartbeat CPU 0 instructions: 87000000 cycles: 179222848 heartbeat IPC: 0.311609 cumulative IPC: 0.444568 (Simulation time: 0 hr 43 min 37 sec) 
Heartbeat CPU 0 instructions: 88000000 cycles: 180858958 heartbeat IPC: 0.611206 cumulative IPC: 0.446127 (Simulation time: 0 hr 44 min 9 sec) 
Heartbeat CPU 0 instructions: 89000000 cycles: 185505968 heartbeat IPC: 0.215192 cumulative IPC: 0.440148 (Simulation time: 0 hr 44 min 55 sec) 
Heartbeat CPU 0 instructions: 90000002 cycles: 186549412 heartbeat IPC: 0.958367 cumulative IPC: 0.443143 (Simulation time: 0 hr 45 min 24 sec) 
Heartbeat CPU 0 instructions: 91000001 cycles: 187593620 heartbeat IPC: 0.957663 cumulative IPC: 0.446102 (Simulation time: 0 hr 45 min 56 sec) 
Heartbeat CPU 0 instructions: 92000000 cycles: 188637191 heartbeat IPC: 0.958247 cumulative IPC: 0.449029 (Simulation time: 0 hr 46 min 27 sec) 
Heartbeat CPU 0 instructions: 93000002 cycles: 189681456 heartbeat IPC: 0.957613 cumulative IPC: 0.451921 (Simulation time: 0 hr 46 min 57 sec) 
Heartbeat CPU 0 instructions: 94000001 cycles: 190725284 heartbeat IPC: 0.958011 cumulative IPC: 0.454781 (Simulation time: 0 hr 47 min 27 sec) 
Heartbeat CPU 0 instructions: 95000000 cycles: 191769548 heartbeat IPC: 0.957611 cumulative IPC: 0.457608 (Simulation time: 0 hr 47 min 57 sec) 
Heartbeat CPU 0 instructions: 96000000 cycles: 192814343 heartbeat IPC: 0.957126 cumulative IPC: 0.460402 (Simulation time: 0 hr 48 min 26 sec) 
Heartbeat CPU 0 instructions: 97000002 cycles: 193885195 heartbeat IPC: 0.933838 cumulative IPC: 0.4631 (Simulation time: 0 hr 48 min 55 sec) 
Heartbeat CPU 0 instructions: 98000000 cycles: 194930933 heartbeat IPC: 0.956261 cumulative IPC: 0.46583 (Simulation time: 0 hr 49 min 25 sec) 
Heartbeat CPU 0 instructions: 99000003 cycles: 195969250 heartbeat IPC: 0.9631 cumulative IPC: 0.468549 (Simulation time: 0 hr 49 min 53 sec) 
Heartbeat CPU 0 instructions: 100000000 cycles: 197006034 heartbeat IPC: 0.964518 cumulative IPC: 0.471241 (Simulation time: 0 hr 50 min 22 sec) 
Heartbeat CPU 0 instructions: 101000001 cycles: 198047235 heartbeat IPC: 0.96043 cumulative IPC: 0.473893 (Simulation time: 0 hr 50 min 52 sec) 
Heartbeat CPU 0 instructions: 102000001 cycles: 201197069 heartbeat IPC: 0.317477 cumulative IPC: 0.471369 (Simulation time: 0 hr 51 min 27 sec) 
Heartbeat CPU 0 instructions: 103000001 cycles: 202576727 heartbeat IPC: 0.724817 cumulative IPC: 0.473148 (Simulation time: 0 hr 51 min 56 sec) 
Heartbeat CPU 0 instructions: 104000000 cycles: 205478509 heartbeat IPC: 0.344615 cumulative IPC: 0.471278 (Simulation time: 0 hr 52 min 33 sec) 
Heartbeat CPU 0 instructions: 105000000 cycles: 208683101 heartbeat IPC: 0.312052 cumulative IPC: 0.46876 (Simulation time: 0 hr 53 min 10 sec) 
Heartbeat CPU 0 instructions: 106000000 cycles: 211835164 heartbeat IPC: 0.317253 cumulative IPC: 0.46644 (Simulation time: 0 hr 53 min 44 sec) 
Heartbeat CPU 0 instructions: 107000001 cycles: 213362273 heartbeat IPC: 0.654833 cumulative IPC: 0.467828 (Simulation time: 0 hr 54 min 15 sec) 
Heartbeat CPU 0 instructions: 108000000 cycles: 216115804 heartbeat IPC: 0.36317 cumulative IPC: 0.466456 (Simulation time: 0 hr 54 min 49 sec) 
Heartbeat CPU 0 instructions: 109000000 cycles: 219321888 heartbeat IPC: 0.311907 cumulative IPC: 0.464133 (Simulation time: 0 hr 55 min 23 sec) 
Heartbeat CPU 0 instructions: 110000000 cycles: 222510216 heartbeat IPC: 0.313644 cumulative IPC: 0.461917 (Simulation time: 0 hr 55 min 57 sec) 
Finished CPU 0 instructions: 100000003 cycles: 216489292 cummulative IPC: 0.461917 (Simulation time: 0 hr 55 min 57 sec) 

ChampSim completed all CPUs

Region of Interest Statistics

CPU 0 cummulative IPC: 0.461917 instructions: 100000003 cycles: 216489292
LLC TOTAL     ACCESS:    3283532  HIT:    1536265  MISS:    1747267
LLC LOAD      ACCESS:    1564407  HIT:    1323438  MISS:     240969
LLC RFO       ACCESS:       5220  HIT:       2764  MISS:       2456
LLC PREFETCH  ACCESS:    1697057  HIT:     200760  MISS:    1496297
LLC WRITEBACK ACCESS:      16848  HIT:       9303  MISS:       7545
Insertion Distribution: 
	LOAD 5372 0 0 0 34091 291394 
	RFO 0 0 0 0 721 2057 
	PREF 0 63 0 0 46520 1599821 
	WRITEBACK 0 0 0 0 0 7701 
Total Prefetch Downgrades: 1726
