
*** ChampSim Multicore Out-of-Order Simulator ***

Warmup Instructions: 10000000
Simulation Instructions: 100000000
Configuration: 2
Number of CPUs: 1
LLC sets: 2048
LLC ways: 16
Off-chip DRAM Channels: 1 Width: 64-bit Data Rate: 1600 MT/s

CPU 0 runs /datasets/cs240c-wi22-a00-public/data/Assignment2-gz/leslie3d_94B.trace.gz
CPU 0 L1D next line prefetcher
CPU 0 L2C IP-based stride prefetcher
Initialize SRRIP state
Heartbeat CPU 0 instructions: 1000003 cycles: 597056 heartbeat IPC: 1.67489 cumulative IPC: 1.67489 (Simulation time: 0 hr 1 min 0 sec) 
Heartbeat CPU 0 instructions: 2000002 cycles: 1215907 heartbeat IPC: 1.6159 cumulative IPC: 1.64486 (Simulation time: 0 hr 1 min 59 sec) 
Heartbeat CPU 0 instructions: 3000003 cycles: 1867671 heartbeat IPC: 1.5343 cumulative IPC: 1.60628 (Simulation time: 0 hr 3 min 5 sec) 
Heartbeat CPU 0 instructions: 4000000 cycles: 2518898 heartbeat IPC: 1.53556 cumulative IPC: 1.588 (Simulation time: 0 hr 4 min 6 sec) 
Heartbeat CPU 0 instructions: 5000002 cycles: 3083897 heartbeat IPC: 1.76992 cumulative IPC: 1.62133 (Simulation time: 0 hr 5 min 7 sec) 
Heartbeat CPU 0 instructions: 6000002 cycles: 3734526 heartbeat IPC: 1.53697 cumulative IPC: 1.60663 (Simulation time: 0 hr 6 min 10 sec) 
Heartbeat CPU 0 instructions: 7000000 cycles: 4385220 heartbeat IPC: 1.53682 cumulative IPC: 1.59627 (Simulation time: 0 hr 7 min 13 sec) 
Heartbeat CPU 0 instructions: 8000000 cycles: 4950207 heartbeat IPC: 1.76995 cumulative IPC: 1.61609 (Simulation time: 0 hr 8 min 11 sec) 
Heartbeat CPU 0 instructions: 9000000 cycles: 5601057 heartbeat IPC: 1.53645 cumulative IPC: 1.60684 (Simulation time: 0 hr 9 min 15 sec) 
Heartbeat CPU 0 instructions: 10000001 cycles: 6252268 heartbeat IPC: 1.5356 cumulative IPC: 1.59942 (Simulation time: 0 hr 10 min 12 sec) 

Warmup complete CPU 0 instructions: 10000001 cycles: 6252268 (Simulation time: 0 hr 10 min 12 sec) 

Heartbeat CPU 0 instructions: 11000000 cycles: 7479442 heartbeat IPC: 0.81488 cumulative IPC: 0.81488 (Simulation time: 0 hr 11 min 15 sec) 
Heartbeat CPU 0 instructions: 12000000 cycles: 9296810 heartbeat IPC: 0.550246 cumulative IPC: 0.656913 (Simulation time: 0 hr 12 min 20 sec) 
Heartbeat CPU 0 instructions: 13000000 cycles: 11041015 heartbeat IPC: 0.573327 cumulative IPC: 0.626468 (Simulation time: 0 hr 13 min 30 sec) 
Heartbeat CPU 0 instructions: 14000001 cycles: 12918630 heartbeat IPC: 0.532591 cumulative IPC: 0.600027 (Simulation time: 0 hr 14 min 28 sec) 
Heartbeat CPU 0 instructions: 15000001 cycles: 14739879 heartbeat IPC: 0.549074 cumulative IPC: 0.589094 (Simulation time: 0 hr 15 min 29 sec) 
Heartbeat CPU 0 instructions: 16000000 cycles: 16623353 heartbeat IPC: 0.530933 cumulative IPC: 0.578531 (Simulation time: 0 hr 16 min 35 sec) 
Heartbeat CPU 0 instructions: 17000000 cycles: 18527890 heartbeat IPC: 0.525062 cumulative IPC: 0.570236 (Simulation time: 0 hr 17 min 44 sec) 
Heartbeat CPU 0 instructions: 18000002 cycles: 20470885 heartbeat IPC: 0.51467 cumulative IPC: 0.562643 (Simulation time: 0 hr 18 min 50 sec) 
Heartbeat CPU 0 instructions: 19000001 cycles: 22378247 heartbeat IPC: 0.524284 cumulative IPC: 0.558106 (Simulation time: 0 hr 19 min 58 sec) 
Heartbeat CPU 0 instructions: 20000000 cycles: 24323499 heartbeat IPC: 0.514072 cumulative IPC: 0.553366 (Simulation time: 0 hr 21 min 6 sec) 
Heartbeat CPU 0 instructions: 21000002 cycles: 26087476 heartbeat IPC: 0.566902 cumulative IPC: 0.554569 (Simulation time: 0 hr 22 min 12 sec) 
Heartbeat CPU 0 instructions: 22000002 cycles: 28404160 heartbeat IPC: 0.431651 cumulative IPC: 0.541714 (Simulation time: 0 hr 23 min 18 sec) 
Heartbeat CPU 0 instructions: 23000000 cycles: 30768770 heartbeat IPC: 0.422902 cumulative IPC: 0.530255 (Simulation time: 0 hr 24 min 22 sec) 
Heartbeat CPU 0 instructions: 24000000 cycles: 33106120 heartbeat IPC: 0.427835 cumulative IPC: 0.52134 (Simulation time: 0 hr 25 min 30 sec) 
Heartbeat CPU 0 instructions: 25000000 cycles: 35439203 heartbeat IPC: 0.428617 cumulative IPC: 0.513929 (Simulation time: 0 hr 26 min 33 sec) 
Heartbeat CPU 0 instructions: 26000002 cycles: 37697471 heartbeat IPC: 0.442818 cumulative IPC: 0.508822 (Simulation time: 0 hr 27 min 45 sec) 
Heartbeat CPU 0 instructions: 27000001 cycles: 40034222 heartbeat IPC: 0.427944 cumulative IPC: 0.503227 (Simulation time: 0 hr 28 min 56 sec) 
Heartbeat CPU 0 instructions: 28000000 cycles: 42396517 heartbeat IPC: 0.423317 cumulative IPC: 0.498004 (Simulation time: 0 hr 30 min 14 sec) 
Heartbeat CPU 0 instructions: 29000000 cycles: 44716608 heartbeat IPC: 0.431018 cumulative IPC: 0.493964 (Simulation time: 0 hr 31 min 25 sec) 
Heartbeat CPU 0 instructions: 30000000 cycles: 46068375 heartbeat IPC: 0.739772 cumulative IPC: 0.502309 (Simulation time: 0 hr 32 min 23 sec) 
Heartbeat CPU 0 instructions: 31000002 cycles: 47301893 heartbeat IPC: 0.810691 cumulative IPC: 0.511576 (Simulation time: 0 hr 33 min 24 sec) 
Heartbeat CPU 0 instructions: 32000000 cycles: 48570035 heartbeat IPC: 0.788554 cumulative IPC: 0.519876 (Simulation time: 0 hr 34 min 30 sec) 
Heartbeat CPU 0 instructions: 33000001 cycles: 49815558 heartbeat IPC: 0.802876 cumulative IPC: 0.527967 (Simulation time: 0 hr 35 min 35 sec) 
Heartbeat CPU 0 instructions: 34000003 cycles: 51098328 heartbeat IPC: 0.779565 cumulative IPC: 0.535164 (Simulation time: 0 hr 36 min 38 sec) 
Heartbeat CPU 0 instructions: 35000001 cycles: 52346767 heartbeat IPC: 0.800999 cumulative IPC: 0.542364 (Simulation time: 0 hr 37 min 42 sec) 
Heartbeat CPU 0 instructions: 36000000 cycles: 53657157 heartbeat IPC: 0.763131 cumulative IPC: 0.548467 (Simulation time: 0 hr 38 min 43 sec) 
Heartbeat CPU 0 instructions: 37000003 cycles: 54922069 heartbeat IPC: 0.790571 cumulative IPC: 0.554759 (Simulation time: 0 hr 39 min 48 sec) 
Heartbeat CPU 0 instructions: 38000000 cycles: 56193892 heartbeat IPC: 0.786271 cumulative IPC: 0.560655 (Simulation time: 0 hr 40 min 50 sec) 
Heartbeat CPU 0 instructions: 39000002 cycles: 57476282 heartbeat IPC: 0.779796 cumulative IPC: 0.566141 (Simulation time: 0 hr 41 min 42 sec) 
Heartbeat CPU 0 instructions: 40000000 cycles: 58724938 heartbeat IPC: 0.80086 cumulative IPC: 0.571726 (Simulation time: 0 hr 42 min 51 sec) 
Heartbeat CPU 0 instructions: 41000002 cycles: 60037799 heartbeat IPC: 0.761697 cumulative IPC: 0.576363 (Simulation time: 0 hr 43 min 56 sec) 
Heartbeat CPU 0 instructions: 42000002 cycles: 61298361 heartbeat IPC: 0.793297 cumulative IPC: 0.581331 (Simulation time: 0 hr 45 min 2 sec) 
Heartbeat CPU 0 instructions: 43000002 cycles: 62609504 heartbeat IPC: 0.762693 cumulative IPC: 0.58555 (Simulation time: 0 hr 46 min 8 sec) 
Heartbeat CPU 0 instructions: 44000000 cycles: 63873846 heartbeat IPC: 0.790924 cumulative IPC: 0.590057 (Simulation time: 0 hr 47 min 10 sec) 
Heartbeat CPU 0 instructions: 45000003 cycles: 65153621 heartbeat IPC: 0.78139 cumulative IPC: 0.594214 (Simulation time: 0 hr 48 min 3 sec) 
Heartbeat CPU 0 instructions: 46000001 cycles: 66466048 heartbeat IPC: 0.761946 cumulative IPC: 0.59787 (Simulation time: 0 hr 49 min 3 sec) 
Heartbeat CPU 0 instructions: 47000000 cycles: 67728101 heartbeat IPC: 0.792359 cumulative IPC: 0.601862 (Simulation time: 0 hr 50 min 4 sec) 
Heartbeat CPU 0 instructions: 48000000 cycles: 69056933 heartbeat IPC: 0.752541 cumulative IPC: 0.605051 (Simulation time: 0 hr 51 min 10 sec) 
Heartbeat CPU 0 instructions: 49000001 cycles: 70324595 heartbeat IPC: 0.788855 cumulative IPC: 0.608687 (Simulation time: 0 hr 52 min 6 sec) 
Heartbeat CPU 0 instructions: 50000001 cycles: 71635479 heartbeat IPC: 0.762844 cumulative IPC: 0.611778 (Simulation time: 0 hr 53 min 7 sec) 
Heartbeat CPU 0 instructions: 51000003 cycles: 72917388 heartbeat IPC: 0.780088 cumulative IPC: 0.615014 (Simulation time: 0 hr 54 min 9 sec) 
Heartbeat CPU 0 instructions: 52000000 cycles: 74191083 heartbeat IPC: 0.785115 cumulative IPC: 0.618203 (Simulation time: 0 hr 55 min 9 sec) 
Heartbeat CPU 0 instructions: 53000002 cycles: 75516817 heartbeat IPC: 0.754301 cumulative IPC: 0.620808 (Simulation time: 0 hr 56 min 8 sec) 
Heartbeat CPU 0 instructions: 54000001 cycles: 76784486 heartbeat IPC: 0.788849 cumulative IPC: 0.623828 (Simulation time: 0 hr 57 min 6 sec) 
Heartbeat CPU 0 instructions: 55000000 cycles: 78093347 heartbeat IPC: 0.764022 cumulative IPC: 0.626383 (Simulation time: 0 hr 57 min 52 sec) 
Heartbeat CPU 0 instructions: 56000000 cycles: 79386669 heartbeat IPC: 0.773203 cumulative IPC: 0.628979 (Simulation time: 0 hr 58 min 38 sec) 
Heartbeat CPU 0 instructions: 57000000 cycles: 80698145 heartbeat IPC: 0.7625 cumulative IPC: 0.631331 (Simulation time: 0 hr 59 min 18 sec) 
Heartbeat CPU 0 instructions: 58000001 cycles: 81971136 heartbeat IPC: 0.785552 cumulative IPC: 0.633924 (Simulation time: 1 hr 0 min 0 sec) 
Heartbeat CPU 0 instructions: 59000000 cycles: 83229173 heartbeat IPC: 0.794888 cumulative IPC: 0.636555 (Simulation time: 1 hr 0 min 36 sec) 
Heartbeat CPU 0 instructions: 60000000 cycles: 84533896 heartbeat IPC: 0.766446 cumulative IPC: 0.638719 (Simulation time: 1 hr 1 min 12 sec) 
Heartbeat CPU 0 instructions: 61000001 cycles: 85819634 heartbeat IPC: 0.777764 cumulative IPC: 0.640966 (Simulation time: 1 hr 1 min 44 sec) 
Heartbeat CPU 0 instructions: 62000000 cycles: 87114106 heartbeat IPC: 0.772515 cumulative IPC: 0.643072 (Simulation time: 1 hr 2 min 19 sec) 
Heartbeat CPU 0 instructions: 63000001 cycles: 88398231 heartbeat IPC: 0.778741 cumulative IPC: 0.645193 (Simulation time: 1 hr 2 min 53 sec) 
Heartbeat CPU 0 instructions: 64000000 cycles: 89712860 heartbeat IPC: 0.76067 cumulative IPC: 0.647012 (Simulation time: 1 hr 3 min 30 sec) 
Heartbeat CPU 0 instructions: 65000000 cycles: 91027859 heartbeat IPC: 0.760457 cumulative IPC: 0.648772 (Simulation time: 1 hr 4 min 3 sec) 
Heartbeat CPU 0 instructions: 66000000 cycles: 92349553 heartbeat IPC: 0.756605 cumulative IPC: 0.650427 (Simulation time: 1 hr 4 min 37 sec) 
Heartbeat CPU 0 instructions: 67000003 cycles: 93655953 heartbeat IPC: 0.765465 cumulative IPC: 0.652146 (Simulation time: 1 hr 5 min 6 sec) 
Heartbeat CPU 0 instructions: 68000000 cycles: 94948016 heartbeat IPC: 0.773954 cumulative IPC: 0.653921 (Simulation time: 1 hr 5 min 34 sec) 
Heartbeat CPU 0 instructions: 69000000 cycles: 96243799 heartbeat IPC: 0.771734 cumulative IPC: 0.655617 (Simulation time: 1 hr 5 min 59 sec) 
Heartbeat CPU 0 instructions: 70000001 cycles: 97520652 heartbeat IPC: 0.783176 cumulative IPC: 0.657402 (Simulation time: 1 hr 6 min 22 sec) 
Heartbeat CPU 0 instructions: 71000002 cycles: 98835676 heartbeat IPC: 0.760443 cumulative IPC: 0.658865 (Simulation time: 1 hr 6 min 44 sec) 
Heartbeat CPU 0 instructions: 72000000 cycles: 100115627 heartbeat IPC: 0.781278 cumulative IPC: 0.660535 (Simulation time: 1 hr 7 min 8 sec) 
Heartbeat CPU 0 instructions: 73000000 cycles: 101420754 heartbeat IPC: 0.766209 cumulative IPC: 0.661984 (Simulation time: 1 hr 7 min 30 sec) 
Heartbeat CPU 0 instructions: 74000000 cycles: 102700633 heartbeat IPC: 0.781324 cumulative IPC: 0.663567 (Simulation time: 1 hr 7 min 49 sec) 
Heartbeat CPU 0 instructions: 75000002 cycles: 103971819 heartbeat IPC: 0.786669 cumulative IPC: 0.665169 (Simulation time: 1 hr 8 min 8 sec) 
Heartbeat CPU 0 instructions: 76000000 cycles: 105278913 heartbeat IPC: 0.765054 cumulative IPC: 0.666487 (Simulation time: 1 hr 8 min 26 sec) 
Heartbeat CPU 0 instructions: 77000000 cycles: 106560320 heartbeat IPC: 0.780392 cumulative IPC: 0.667942 (Simulation time: 1 hr 8 min 43 sec) 
Heartbeat CPU 0 instructions: 78000003 cycles: 107901500 heartbeat IPC: 0.745614 cumulative IPC: 0.668967 (Simulation time: 1 hr 9 min 0 sec) 
Heartbeat CPU 0 instructions: 79000000 cycles: 109364450 heartbeat IPC: 0.683548 cumulative IPC: 0.669174 (Simulation time: 1 hr 9 min 15 sec) 
Heartbeat CPU 0 instructions: 80000000 cycles: 111018179 heartbeat IPC: 0.604694 cumulative IPC: 0.668156 (Simulation time: 1 hr 9 min 28 sec) 
Heartbeat CPU 0 instructions: 81000002 cycles: 112637232 heartbeat IPC: 0.617646 cumulative IPC: 0.667388 (Simulation time: 1 hr 9 min 40 sec) 
Heartbeat CPU 0 instructions: 82000003 cycles: 114307941 heartbeat IPC: 0.598549 cumulative IPC: 0.666323 (Simulation time: 1 hr 9 min 52 sec) 
Heartbeat CPU 0 instructions: 83000003 cycles: 115994522 heartbeat IPC: 0.592915 cumulative IPC: 0.665195 (Simulation time: 1 hr 10 min 2 sec) 
Heartbeat CPU 0 instructions: 84000000 cycles: 117620483 heartbeat IPC: 0.615019 cumulative IPC: 0.664462 (Simulation time: 1 hr 10 min 9 sec) 
Heartbeat CPU 0 instructions: 85000003 cycles: 119281512 heartbeat IPC: 0.602038 cumulative IPC: 0.663545 (Simulation time: 1 hr 10 min 17 sec) 
Heartbeat CPU 0 instructions: 86000002 cycles: 120917490 heartbeat IPC: 0.611255 cumulative IPC: 0.662799 (Simulation time: 1 hr 10 min 25 sec) 
Heartbeat CPU 0 instructions: 87000000 cycles: 122566321 heartbeat IPC: 0.606489 cumulative IPC: 0.662001 (Simulation time: 1 hr 10 min 33 sec) 
Heartbeat CPU 0 instructions: 88000000 cycles: 124236447 heartbeat IPC: 0.598757 cumulative IPC: 0.661106 (Simulation time: 1 hr 10 min 41 sec) 
Heartbeat CPU 0 instructions: 89000002 cycles: 125868576 heartbeat IPC: 0.612698 cumulative IPC: 0.660445 (Simulation time: 1 hr 10 min 49 sec) 
Heartbeat CPU 0 instructions: 90000001 cycles: 127508698 heartbeat IPC: 0.60971 cumulative IPC: 0.659759 (Simulation time: 1 hr 10 min 57 sec) 
Heartbeat CPU 0 instructions: 91000003 cycles: 129150734 heartbeat IPC: 0.609001 cumulative IPC: 0.659081 (Simulation time: 1 hr 11 min 4 sec) 
Heartbeat CPU 0 instructions: 92000000 cycles: 130807529 heartbeat IPC: 0.603573 cumulative IPC: 0.658342 (Simulation time: 1 hr 11 min 10 sec) 
Heartbeat CPU 0 instructions: 93000001 cycles: 132484784 heartbeat IPC: 0.596213 cumulative IPC: 0.657517 (Simulation time: 1 hr 11 min 17 sec) 
Heartbeat CPU 0 instructions: 94000003 cycles: 134147981 heartbeat IPC: 0.601253 cumulative IPC: 0.656785 (Simulation time: 1 hr 11 min 23 sec) 
Heartbeat CPU 0 instructions: 95000002 cycles: 135856429 heartbeat IPC: 0.585326 cumulative IPC: 0.655843 (Simulation time: 1 hr 11 min 30 sec) 
Heartbeat CPU 0 instructions: 96000000 cycles: 137509169 heartbeat IPC: 0.605055 cumulative IPC: 0.655204 (Simulation time: 1 hr 11 min 36 sec) 
Heartbeat CPU 0 instructions: 97000003 cycles: 139452107 heartbeat IPC: 0.514686 cumulative IPC: 0.653154 (Simulation time: 1 hr 11 min 43 sec) 
Heartbeat CPU 0 instructions: 98000002 cycles: 144758969 heartbeat IPC: 0.188435 cumulative IPC: 0.635348 (Simulation time: 1 hr 11 min 55 sec) 
Heartbeat CPU 0 instructions: 99000000 cycles: 147749791 heartbeat IPC: 0.334356 cumulative IPC: 0.628986 (Simulation time: 1 hr 12 min 5 sec) 
Heartbeat CPU 0 instructions: 100000000 cycles: 149364393 heartbeat IPC: 0.619348 cumulative IPC: 0.628878 (Simulation time: 1 hr 12 min 10 sec) 
Heartbeat CPU 0 instructions: 101000002 cycles: 150613042 heartbeat IPC: 0.800867 cumulative IPC: 0.630365 (Simulation time: 1 hr 12 min 14 sec) 
Heartbeat CPU 0 instructions: 102000003 cycles: 151989053 heartbeat IPC: 0.726739 cumulative IPC: 0.631275 (Simulation time: 1 hr 12 min 19 sec) 
Heartbeat CPU 0 instructions: 103000002 cycles: 153477478 heartbeat IPC: 0.67185 cumulative IPC: 0.631685 (Simulation time: 1 hr 12 min 23 sec) 
Heartbeat CPU 0 instructions: 104000000 cycles: 154988948 heartbeat IPC: 0.661606 cumulative IPC: 0.631989 (Simulation time: 1 hr 12 min 28 sec) 
Heartbeat CPU 0 instructions: 105000001 cycles: 156504752 heartbeat IPC: 0.659717 cumulative IPC: 0.632269 (Simulation time: 1 hr 12 min 33 sec) 
Heartbeat CPU 0 instructions: 106000001 cycles: 158032966 heartbeat IPC: 0.654359 cumulative IPC: 0.632491 (Simulation time: 1 hr 12 min 37 sec) 
Heartbeat CPU 0 instructions: 107000002 cycles: 159558809 heartbeat IPC: 0.655376 cumulative IPC: 0.632719 (Simulation time: 1 hr 12 min 42 sec) 
Heartbeat CPU 0 instructions: 108000000 cycles: 161093301 heartbeat IPC: 0.65168 cumulative IPC: 0.632907 (Simulation time: 1 hr 12 min 47 sec) 
Heartbeat CPU 0 instructions: 109000001 cycles: 162592437 heartbeat IPC: 0.667052 cumulative IPC: 0.633235 (Simulation time: 1 hr 12 min 51 sec) 
Heartbeat CPU 0 instructions: 110000001 cycles: 164134166 heartbeat IPC: 0.648622 cumulative IPC: 0.633385 (Simulation time: 1 hr 12 min 56 sec) 
Finished CPU 0 instructions: 100000000 cycles: 157881898 cummulative IPC: 0.633385 (Simulation time: 1 hr 12 min 56 sec) 

ChampSim completed all CPUs

Region of Interest Statistics

CPU 0 cummulative IPC: 0.633385 instructions: 100000000 cycles: 157881898
LLC TOTAL     ACCESS:    4600039  HIT:     975513  MISS:    3624526
LLC LOAD      ACCESS:     465836  HIT:     117577  MISS:     348259
LLC RFO       ACCESS:     742977  HIT:      94044  MISS:     648933
LLC PREFETCH  ACCESS:    2291054  HIT:     448309  MISS:    1842745
LLC WRITEBACK ACCESS:    1100172  HIT:     315583  MISS:     784589
Insertion Distribution: 
	LOAD 36337 0 0 0 70093 245376 
	RFO 147 0 0 0 56298 594938 
	PREF 0 93342 0 0 262422 1662638 
	WRITEBACK 0 0 0 0 0 805365 
Total Prefetch Downgrades: 77023
