Initialize SIGNATURE TABLE
ST_SET: 1
ST_WAY: 256
ST_TAG_BIT: 16
ST_TAG_MASK: ffff

Initialize PATTERN TABLE
PT_SET: 512
PT_WAY: 4
SIG_DELTA_BIT: 7
C_SIG_BIT: 4
C_DELTA_BIT: 4

Initialize PREFETCH FILTER
FILTER_SET: 1024

*** ChampSim Multicore Out-of-Order Simulator ***

Warmup Instructions: 50000000
Simulation Instructions: 50000000
Number of CPUs: 1
LLC sets: 2048
LLC ways: 16
Off-chip DRAM Size: 4096 MB Channels: 1 Width: 64-bit Data Rate: 3200 MT/s

CPU 0 runs /Users/gandhardeshpande/Desktop/CSE240C/HW1/ChampSim/ipc1_public/client_002.champsimtrace.xz
L1I Barca has been initializedCPU 0 L1D next line prefetcher
Heartbeat CPU 0 instructions: 10000000 cycles: 3405014 heartbeat IPC: 2.93685 cumulative IPC: 2.93685 (Simulation time: 0 hr 0 min 22 sec) 
Heartbeat CPU 0 instructions: 20000002 cycles: 6860772 heartbeat IPC: 2.89372 cumulative IPC: 2.91512 (Simulation time: 0 hr 0 min 43 sec) 
Heartbeat CPU 0 instructions: 30000001 cycles: 10293758 heartbeat IPC: 2.91292 cumulative IPC: 2.91439 (Simulation time: 0 hr 1 min 5 sec) 
Heartbeat CPU 0 instructions: 40000002 cycles: 13726652 heartbeat IPC: 2.91299 cumulative IPC: 2.91404 (Simulation time: 0 hr 1 min 26 sec) 
Heartbeat CPU 0 instructions: 50000002 cycles: 17167411 heartbeat IPC: 2.90634 cumulative IPC: 2.9125 (Simulation time: 0 hr 1 min 48 sec) 

Warmup complete CPU 0 instructions: 50000002 cycles: 17167411 (Simulation time: 0 hr 1 min 48 sec) 

Heartbeat CPU 0 instructions: 60000002 cycles: 23134846 heartbeat IPC: 1.67576 cumulative IPC: 1.67576 (Simulation time: 0 hr 2 min 8 sec) 
Heartbeat CPU 0 instructions: 70000001 cycles: 29159954 heartbeat IPC: 1.65972 cumulative IPC: 1.6677 (Simulation time: 0 hr 2 min 29 sec) 
Heartbeat CPU 0 instructions: 80000002 cycles: 35072749 heartbeat IPC: 1.69125 cumulative IPC: 1.67548 (Simulation time: 0 hr 2 min 51 sec) 
Heartbeat CPU 0 instructions: 90000000 cycles: 41563105 heartbeat IPC: 1.54075 cumulative IPC: 1.63963 (Simulation time: 0 hr 3 min 11 sec) 
Heartbeat CPU 0 instructions: 100000003 cycles: 47524938 heartbeat IPC: 1.67734 cumulative IPC: 1.64704 (Simulation time: 0 hr 3 min 32 sec) 
Finished CPU 0 instructions: 50000001 cycles: 30357527 cumulative IPC: 1.64704 (Simulation time: 0 hr 3 min 32 sec) 

ChampSim completed all CPUs

Region of Interest Statistics

CPU 0 cumulative IPC: 1.64704 instructions: 50000001 cycles: 30357527
L1D TOTAL     ACCESS:   19113728  HIT:   18774458  MISS:     339270
L1D LOAD      ACCESS:    6479346  HIT:    6362383  MISS:     116963
L1D RFO       ACCESS:    6417887  HIT:    6327929  MISS:      89958
L1D PREFETCH  ACCESS:    6216495  HIT:    6084146  MISS:     132349
L1D WRITEBACK ACCESS:          0  HIT:          0  MISS:          0
L1D PREFETCH  REQUESTED:    6489633  ISSUED:    6287711  USEFUL:      53563  USELESS:      78928
L1D AVERAGE MISS LATENCY: 49.5078 cycles
L1I TOTAL     ACCESS:   10789761  HIT:    9767128  MISS:    1022633
L1I LOAD      ACCESS:    9526723  HIT:    9431201  MISS:      95522
L1I RFO       ACCESS:          0  HIT:          0  MISS:          0
L1I PREFETCH  ACCESS:    1263038  HIT:     335927  MISS:     927111
L1I WRITEBACK ACCESS:          0  HIT:          0  MISS:          0
L1I PREFETCH  REQUESTED:    1433123  ISSUED:    1433123  USEFUL:     598318  USELESS:     328744
L1I AVERAGE MISS LATENCY: 16.7517 cycles
L2C TOTAL     ACCESS:    1828338  HIT:    1585476  MISS:     242862
L2C LOAD      ACCESS:     150399  HIT:     103638  MISS:      46761
L2C RFO       ACCESS:      88830  HIT:      23053  MISS:      65777
L2C PREFETCH  ACCESS:    1463604  HIT:    1333783  MISS:     129821
L2C WRITEBACK ACCESS:     125505  HIT:     125002  MISS:        503
L2C PREFETCH  REQUESTED:     776499  ISSUED:     776269  USEFUL:       9450  USELESS:     119664
L2C AVERAGE MISS LATENCY: 64.0888 cycles
LLC TOTAL     ACCESS:     520449  HIT:     459101  MISS:      61348
LLC LOAD      ACCESS:      46759  HIT:      40669  MISS:       6090
LLC RFO       ACCESS:      65775  HIT:      35929  MISS:      29846
LLC PREFETCH  ACCESS:     323617  HIT:     298464  MISS:      25153
LLC WRITEBACK ACCESS:      84298  HIT:      84039  MISS:        259
LLC PREFETCH  REQUESTED:          0  ISSUED:          0  USEFUL:       5255  USELESS:      18864
LLC AVERAGE MISS LATENCY: 177.247 cycles
Major fault: 0 Minor fault: 3091
CPU 0 L1D next line prefetcher final stats

DRAM Statistics
 CHANNEL 0
 RQ ROW_BUFFER_HIT:      22105  ROW_BUFFER_MISS:      38984
 DBUS_CONGESTED:      43189
 WQ ROW_BUFFER_HIT:       9083  ROW_BUFFER_MISS:      27951  FULL:          0

 AVG_CONGESTED_CYCLE: 6

CPU 0 Branch Prediction Accuracy: 99.2117% MPKI: 1.49752 Average ROB Occupancy at Mispredict: 115.379

Branch types
NOT_BRANCH: 40501616 81.0032%
BRANCH_DIRECT_JUMP: 517397 1.03479%
BRANCH_INDIRECT: 112348 0.224696%
BRANCH_CONDITIONAL: 6698737 13.3975%
BRANCH_DIRECT_CALL: 960974 1.92195%
BRANCH_INDIRECT_CALL: 123707 0.247414%
BRANCH_RETURN: 1084929 2.16986%
BRANCH_OTHER: 0 0%

