Initialize SIGNATURE TABLE
ST_SET: 1
ST_WAY: 256
ST_TAG_BIT: 16
ST_TAG_MASK: ffff

Initialize PATTERN TABLE
PT_SET: 512
PT_WAY: 4
SIG_DELTA_BIT: 7
C_SIG_BIT: 4
C_DELTA_BIT: 4

Initialize PREFETCH FILTER
FILTER_SET: 1024

*** ChampSim Multicore Out-of-Order Simulator ***

Warmup Instructions: 50000000
Simulation Instructions: 50000000
Number of CPUs: 1
LLC sets: 2048
LLC ways: 16
Off-chip DRAM Size: 4096 MB Channels: 1 Width: 64-bit Data Rate: 3200 MT/s

CPU 0 runs /Users/gandhardeshpande/Desktop/CSE240C/HW1/ChampSim/ipc1_public/server_010.champsimtrace.xz
L1I Barca has been initializedCPU 0 L1D next line prefetcher
Heartbeat CPU 0 instructions: 10000000 cycles: 3198124 heartbeat IPC: 3.12683 cumulative IPC: 3.12683 (Simulation time: 0 hr 0 min 18 sec) 
Heartbeat CPU 0 instructions: 20000002 cycles: 6393333 heartbeat IPC: 3.12969 cumulative IPC: 3.12826 (Simulation time: 0 hr 0 min 36 sec) 
Heartbeat CPU 0 instructions: 30000001 cycles: 9590786 heartbeat IPC: 3.12749 cumulative IPC: 3.128 (Simulation time: 0 hr 0 min 55 sec) 
Heartbeat CPU 0 instructions: 40000000 cycles: 12784034 heartbeat IPC: 3.13161 cumulative IPC: 3.1289 (Simulation time: 0 hr 1 min 13 sec) 
Heartbeat CPU 0 instructions: 50000003 cycles: 15983083 heartbeat IPC: 3.12593 cumulative IPC: 3.12831 (Simulation time: 0 hr 1 min 31 sec) 

Warmup complete CPU 0 instructions: 50000003 cycles: 15983083 (Simulation time: 0 hr 1 min 31 sec) 

Heartbeat CPU 0 instructions: 60000001 cycles: 23137336 heartbeat IPC: 1.39777 cumulative IPC: 1.39777 (Simulation time: 0 hr 1 min 48 sec) 
Heartbeat CPU 0 instructions: 70000000 cycles: 30322730 heartbeat IPC: 1.39171 cumulative IPC: 1.39473 (Simulation time: 0 hr 2 min 5 sec) 
Heartbeat CPU 0 instructions: 80000003 cycles: 37569046 heartbeat IPC: 1.38001 cumulative IPC: 1.38979 (Simulation time: 0 hr 2 min 22 sec) 
Heartbeat CPU 0 instructions: 90000002 cycles: 44595762 heartbeat IPC: 1.42314 cumulative IPC: 1.39798 (Simulation time: 0 hr 2 min 39 sec) 
Heartbeat CPU 0 instructions: 100000003 cycles: 65204861 heartbeat IPC: 0.485223 cumulative IPC: 1.01581 (Simulation time: 0 hr 3 min 6 sec) 
Finished CPU 0 instructions: 50000000 cycles: 49221778 cumulative IPC: 1.01581 (Simulation time: 0 hr 3 min 6 sec) 

ChampSim completed all CPUs

Region of Interest Statistics

CPU 0 cumulative IPC: 1.01581 instructions: 50000000 cycles: 49221778
L1D TOTAL     ACCESS:   19916198  HIT:   16690965  MISS:    3225233
L1D LOAD      ACCESS:    7712569  HIT:    6119354  MISS:    1593215
L1D RFO       ACCESS:    4713524  HIT:    4619200  MISS:      94324
L1D PREFETCH  ACCESS:    7490105  HIT:    5952411  MISS:    1537694
L1D WRITEBACK ACCESS:          0  HIT:          0  MISS:          0
L1D PREFETCH  REQUESTED:    7745973  ISSUED:    7649145  USEFUL:     117089  USELESS:    1420575
L1D AVERAGE MISS LATENCY: 22.4319 cycles
L1I TOTAL     ACCESS:   11661783  HIT:   10076354  MISS:    1585429
L1I LOAD      ACCESS:    9926296  HIT:    9755966  MISS:     170330
L1I RFO       ACCESS:          0  HIT:          0  MISS:          0
L1I PREFETCH  ACCESS:    1735487  HIT:     320388  MISS:    1415099
L1I WRITEBACK ACCESS:          0  HIT:          0  MISS:          0
L1I PREFETCH  REQUESTED:    2011656  ISSUED:    2011656  USEFUL:    1052048  USELESS:     362949
L1I AVERAGE MISS LATENCY: 28.3461 cycles
L2C TOTAL     ACCESS:    6154043  HIT:    5081044  MISS:    1072999
L2C LOAD      ACCESS:    1635179  HIT:    1396924  MISS:     238255
L2C RFO       ACCESS:      93306  HIT:      48956  MISS:      44350
L2C PREFETCH  ACCESS:    4160194  HIT:    3371096  MISS:     789098
L2C WRITEBACK ACCESS:     265364  HIT:     264068  MISS:       1296
L2C PREFETCH  REQUESTED:    5173397  ISSUED:    5170956  USEFUL:      23076  USELESS:     767030
L2C AVERAGE MISS LATENCY: 44.967 cycles
LLC TOTAL     ACCESS:    2181794  HIT:    2064096  MISS:     117698
LLC LOAD      ACCESS:     238198  HIT:     222752  MISS:      15446
LLC RFO       ACCESS:      44346  HIT:      35729  MISS:       8617
LLC PREFETCH  ACCESS:    1752051  HIT:    1658582  MISS:      93469
LLC WRITEBACK ACCESS:     147199  HIT:     147033  MISS:        166
LLC PREFETCH  REQUESTED:          0  ISSUED:          0  USEFUL:       8342  USELESS:      85435
LLC AVERAGE MISS LATENCY: 174.768 cycles
Major fault: 0 Minor fault: 5593
CPU 0 L1D next line prefetcher final stats

DRAM Statistics
 CHANNEL 0
 RQ ROW_BUFFER_HIT:      18347  ROW_BUFFER_MISS:      99173
 DBUS_CONGESTED:      53134
 WQ ROW_BUFFER_HIT:       9784  ROW_BUFFER_MISS:      42803  FULL:          0

 AVG_CONGESTED_CYCLE: 5

CPU 0 Branch Prediction Accuracy: 99.5528% MPKI: 0.89798 Average ROB Occupancy at Mispredict: 124.879

Branch types
NOT_BRANCH: 39958786 79.9176%
BRANCH_DIRECT_JUMP: 449946 0.899892%
BRANCH_INDIRECT: 140210 0.28042%
BRANCH_CONDITIONAL: 7679676 15.3594%
BRANCH_DIRECT_CALL: 701578 1.40316%
BRANCH_INDIRECT_CALL: 168971 0.337942%
BRANCH_RETURN: 900560 1.80112%
BRANCH_OTHER: 0 0%

