Initialize SIGNATURE TABLE
ST_SET: 1
ST_WAY: 256
ST_TAG_BIT: 16
ST_TAG_MASK: ffff

Initialize PATTERN TABLE
PT_SET: 512
PT_WAY: 4
SIG_DELTA_BIT: 7
C_SIG_BIT: 4
C_DELTA_BIT: 4

Initialize PREFETCH FILTER
FILTER_SET: 1024

*** ChampSim Multicore Out-of-Order Simulator ***

Warmup Instructions: 50000000
Simulation Instructions: 50000000
Number of CPUs: 1
LLC sets: 2048
LLC ways: 16
Off-chip DRAM Size: 4096 MB Channels: 1 Width: 64-bit Data Rate: 3200 MT/s

CPU 0 runs /Users/gandhardeshpande/Desktop/CSE240C/HW1/ChampSim/ipc1_public/server_026.champsimtrace.xz
L1I Barca has been initializedCPU 0 L1D next line prefetcher
Heartbeat CPU 0 instructions: 10000000 cycles: 3525580 heartbeat IPC: 2.83641 cumulative IPC: 2.83641 (Simulation time: 0 hr 0 min 21 sec) 
Heartbeat CPU 0 instructions: 20000002 cycles: 7056776 heartbeat IPC: 2.8319 cumulative IPC: 2.83416 (Simulation time: 0 hr 0 min 42 sec) 
Heartbeat CPU 0 instructions: 30000000 cycles: 10578558 heartbeat IPC: 2.83947 cumulative IPC: 2.83593 (Simulation time: 0 hr 1 min 3 sec) 
Heartbeat CPU 0 instructions: 40000003 cycles: 14108114 heartbeat IPC: 2.83322 cumulative IPC: 2.83525 (Simulation time: 0 hr 1 min 24 sec) 
Heartbeat CPU 0 instructions: 50000000 cycles: 17630836 heartbeat IPC: 2.83871 cumulative IPC: 2.83594 (Simulation time: 0 hr 1 min 45 sec) 

Warmup complete CPU 0 instructions: 50000004 cycles: 17630837 (Simulation time: 0 hr 1 min 45 sec) 

*** Reached end of trace for Core: 0 Repeating trace: /Users/gandhardeshpande/Desktop/CSE240C/HW1/ChampSim/ipc1_public/server_026.champsimtrace.xz
Heartbeat CPU 0 instructions: 60000000 cycles: 24547341 heartbeat IPC: 1.44582 cumulative IPC: 1.44582 (Simulation time: 0 hr 2 min 6 sec) 
Heartbeat CPU 0 instructions: 70000003 cycles: 31353566 heartbeat IPC: 1.46924 cumulative IPC: 1.45744 (Simulation time: 0 hr 2 min 28 sec) 
Heartbeat CPU 0 instructions: 80000002 cycles: 38257552 heartbeat IPC: 1.44844 cumulative IPC: 1.45442 (Simulation time: 0 hr 2 min 50 sec) 
Heartbeat CPU 0 instructions: 90000002 cycles: 45061089 heartbeat IPC: 1.46982 cumulative IPC: 1.45824 (Simulation time: 0 hr 3 min 12 sec) 
Heartbeat CPU 0 instructions: 100000000 cycles: 51945220 heartbeat IPC: 1.45262 cumulative IPC: 1.45711 (Simulation time: 0 hr 3 min 34 sec) 
Finished CPU 0 instructions: 50000000 cycles: 34314384 cumulative IPC: 1.45711 (Simulation time: 0 hr 3 min 34 sec) 

ChampSim completed all CPUs

Region of Interest Statistics

CPU 0 cumulative IPC: 1.45711 instructions: 50000000 cycles: 34314384
L1D TOTAL     ACCESS:   19857809  HIT:   18212797  MISS:    1645012
L1D LOAD      ACCESS:    6970575  HIT:    6241804  MISS:     728771
L1D RFO       ACCESS:    6248432  HIT:    5961948  MISS:     286484
L1D PREFETCH  ACCESS:    6638802  HIT:    6009045  MISS:     629757
L1D WRITEBACK ACCESS:          0  HIT:          0  MISS:          0
L1D PREFETCH  REQUESTED:    7017241  ISSUED:    6876974  USEFUL:     152107  USELESS:     477661
L1D AVERAGE MISS LATENCY: 23.3317 cycles
L1I TOTAL     ACCESS:   13569825  HIT:    9890306  MISS:    3679519
L1I LOAD      ACCESS:    9397956  HIT:    9093943  MISS:     304013
L1I RFO       ACCESS:          0  HIT:          0  MISS:          0
L1I PREFETCH  ACCESS:    4171869  HIT:     796363  MISS:    3375506
L1I WRITEBACK ACCESS:          0  HIT:          0  MISS:          0
L1I PREFETCH  REQUESTED:    4772638  ISSUED:    4772638  USEFUL:    2531420  USELESS:     844109
L1I AVERAGE MISS LATENCY: 16.6273 cycles
L2C TOTAL     ACCESS:    7213584  HIT:    6487495  MISS:     726089
L2C LOAD      ACCESS:     782786  HIT:     646378  MISS:     136408
L2C RFO       ACCESS:     284790  HIT:     198088  MISS:      86702
L2C PREFETCH  ACCESS:    5584844  HIT:    5084901  MISS:     499943
L2C WRITEBACK ACCESS:     561164  HIT:     558128  MISS:       3036
L2C PREFETCH  REQUESTED:    4029816  ISSUED:    4025332  USEFUL:      14780  USELESS:     484713
L2C AVERAGE MISS LATENCY: 38.2306 cycles
LLC TOTAL     ACCESS:    2011464  HIT:    1976818  MISS:      34646
LLC LOAD      ACCESS:     136189  HIT:     132782  MISS:       3407
LLC RFO       ACCESS:      86606  HIT:      72030  MISS:      14576
LLC PREFETCH  ACCESS:    1641927  HIT:    1625502  MISS:      16425
LLC WRITEBACK ACCESS:     146742  HIT:     146504  MISS:        238
LLC PREFETCH  REQUESTED:          0  ISSUED:          0  USEFUL:        896  USELESS:      15082
LLC AVERAGE MISS LATENCY: 190.833 cycles
Major fault: 0 Minor fault: 2165
CPU 0 L1D next line prefetcher final stats

DRAM Statistics
 CHANNEL 0
 RQ ROW_BUFFER_HIT:      11981  ROW_BUFFER_MISS:      22415
 DBUS_CONGESTED:      22721
 WQ ROW_BUFFER_HIT:       1572  ROW_BUFFER_MISS:      14512  FULL:          0

 AVG_CONGESTED_CYCLE: 6

CPU 0 Branch Prediction Accuracy: 99.822% MPKI: 0.32584 Average ROB Occupancy at Mispredict: 189.424

Branch types
NOT_BRANCH: 40848578 81.6972%
BRANCH_DIRECT_JUMP: 522045 1.04409%
BRANCH_INDIRECT: 204034 0.408068%
BRANCH_CONDITIONAL: 6212963 12.4259%
BRANCH_DIRECT_CALL: 932393 1.86479%
BRANCH_INDIRECT_CALL: 173764 0.347528%
BRANCH_RETURN: 1106152 2.2123%
BRANCH_OTHER: 0 0%

