Initialize SIGNATURE TABLE
ST_SET: 1
ST_WAY: 256
ST_TAG_BIT: 16
ST_TAG_MASK: ffff

Initialize PATTERN TABLE
PT_SET: 512
PT_WAY: 4
SIG_DELTA_BIT: 7
C_SIG_BIT: 4
C_DELTA_BIT: 4

Initialize PREFETCH FILTER
FILTER_SET: 1024

*** ChampSim Multicore Out-of-Order Simulator ***

Warmup Instructions: 50000000
Simulation Instructions: 50000000
Number of CPUs: 1
LLC sets: 2048
LLC ways: 16
Off-chip DRAM Size: 4096 MB Channels: 1 Width: 64-bit Data Rate: 3200 MT/s

CPU 0 runs /Users/gandhardeshpande/Desktop/CSE240C/HW1/ChampSim/ipc1_public/spec_gcc_003.champsimtrace.xz
L1I Barca has been initializedCPU 0 L1D next line prefetcher
Heartbeat CPU 0 instructions: 10000001 cycles: 3488443 heartbeat IPC: 2.86661 cumulative IPC: 2.86661 (Simulation time: 0 hr 0 min 14 sec) 
Heartbeat CPU 0 instructions: 20000000 cycles: 6969068 heartbeat IPC: 2.87305 cumulative IPC: 2.86982 (Simulation time: 0 hr 0 min 27 sec) 
Heartbeat CPU 0 instructions: 30000002 cycles: 10420648 heartbeat IPC: 2.89722 cumulative IPC: 2.8789 (Simulation time: 0 hr 0 min 40 sec) 
Heartbeat CPU 0 instructions: 40000000 cycles: 13892764 heartbeat IPC: 2.88009 cumulative IPC: 2.8792 (Simulation time: 0 hr 0 min 52 sec) 
Heartbeat CPU 0 instructions: 50000001 cycles: 17212735 heartbeat IPC: 3.01207 cumulative IPC: 2.90483 (Simulation time: 0 hr 1 min 6 sec) 

Warmup complete CPU 0 instructions: 50000001 cycles: 17212735 (Simulation time: 0 hr 1 min 6 sec) 

Heartbeat CPU 0 instructions: 60000000 cycles: 56083595 heartbeat IPC: 0.257262 cumulative IPC: 0.257262 (Simulation time: 0 hr 1 min 37 sec) 
Heartbeat CPU 0 instructions: 70000000 cycles: 97236049 heartbeat IPC: 0.242999 cumulative IPC: 0.249927 (Simulation time: 0 hr 2 min 9 sec) 
Heartbeat CPU 0 instructions: 80000003 cycles: 139477182 heartbeat IPC: 0.236736 cumulative IPC: 0.24537 (Simulation time: 0 hr 2 min 42 sec) 
Heartbeat CPU 0 instructions: 90000002 cycles: 175259769 heartbeat IPC: 0.279466 cumulative IPC: 0.253089 (Simulation time: 0 hr 3 min 12 sec) 
Heartbeat CPU 0 instructions: 100000001 cycles: 220273012 heartbeat IPC: 0.222157 cumulative IPC: 0.246232 (Simulation time: 0 hr 3 min 46 sec) 
Finished CPU 0 instructions: 50000000 cycles: 203060277 cumulative IPC: 0.246232 (Simulation time: 0 hr 3 min 46 sec) 

ChampSim completed all CPUs

Region of Interest Statistics

CPU 0 cumulative IPC: 0.246232 instructions: 50000000 cycles: 203060277
L1D TOTAL     ACCESS:   16877836  HIT:   11153476  MISS:    5724360
L1D LOAD      ACCESS:    4578699  HIT:    4195941  MISS:     382758
L1D RFO       ACCESS:    8209856  HIT:    3158259  MISS:    5051597
L1D PREFETCH  ACCESS:    4089281  HIT:    3799276  MISS:     290005
L1D WRITEBACK ACCESS:          0  HIT:          0  MISS:          0
L1D PREFETCH  REQUESTED:    4596103  ISSUED:    4535976  USEFUL:     152544  USELESS:     137641
L1D AVERAGE MISS LATENCY: 482.318 cycles
L1I TOTAL     ACCESS:   12862285  HIT:   11459321  MISS:    1402964
L1I LOAD      ACCESS:   11263700  HIT:   11114854  MISS:     148846
L1I RFO       ACCESS:          0  HIT:          0  MISS:          0
L1I PREFETCH  ACCESS:    1598585  HIT:     344467  MISS:    1254118
L1I WRITEBACK ACCESS:          0  HIT:          0  MISS:          0
L1I PREFETCH  REQUESTED:    1856926  ISSUED:    1856926  USEFUL:     730099  USELESS:     523962
L1I AVERAGE MISS LATENCY: 48.7003 cycles
L2C TOTAL     ACCESS:   12689080  HIT:    6626486  MISS:    6062594
L2C LOAD      ACCESS:     259458  HIT:      73969  MISS:     185489
L2C RFO       ACCESS:    5049826  HIT:       6458  MISS:    5043368
L2C PREFETCH  ACCESS:    2221920  HIT:    1388331  MISS:     833589
L2C WRITEBACK ACCESS:    5157876  HIT:    5157728  MISS:        148
L2C PREFETCH  REQUESTED:    1918288  ISSUED:    1918276  USEFUL:      25957  USELESS:     804805
L2C AVERAGE MISS LATENCY: 452.945 cycles
LLC TOTAL     ACCESS:   11921108  HIT:    7388590  MISS:    4532518
LLC LOAD      ACCESS:     185457  HIT:     136771  MISS:      48686
LLC RFO       ACCESS:    5043368  HIT:     816958  MISS:    4226410
LLC PREFETCH  ACCESS:    1558617  HIT:    1301195  MISS:     257422
LLC WRITEBACK ACCESS:    5133666  HIT:    5133666  MISS:          0
LLC PREFETCH  REQUESTED:          0  ISSUED:          0  USEFUL:      13355  USELESS:     243856
LLC AVERAGE MISS LATENCY: 573.611 cycles
Major fault: 0 Minor fault: 2817
CPU 0 L1D next line prefetcher final stats

DRAM Statistics
 CHANNEL 0
 RQ ROW_BUFFER_HIT:    1375952  ROW_BUFFER_MISS:    3154963
 DBUS_CONGESTED:    7799459
 WQ ROW_BUFFER_HIT:    1133835  ROW_BUFFER_MISS:    3121743  FULL:        575

 AVG_CONGESTED_CYCLE: 6

CPU 0 Branch Prediction Accuracy: 99.665% MPKI: 0.78342 Average ROB Occupancy at Mispredict: 117.692

Branch types
NOT_BRANCH: 38305862 76.6117%
BRANCH_DIRECT_JUMP: 384282 0.768564%
BRANCH_INDIRECT: 71949 0.143898%
BRANCH_CONDITIONAL: 9879826 19.7597%
BRANCH_DIRECT_CALL: 650586 1.30117%
BRANCH_INDIRECT_CALL: 28456 0.056912%
BRANCH_RETURN: 679046 1.35809%
BRANCH_OTHER: 0 0%

