
*** ChampSim Multicore Out-of-Order Simulator ***

Warmup Instructions: 10000000
Simulation Instructions: 100000000
Configuration: 2
Number of CPUs: 1
LLC sets: 2048
LLC ways: 16
Off-chip DRAM Channels: 1 Width: 64-bit Data Rate: 1600 MT/s

CPU 0 runs /datasets/cs240c-wi22-a00-public/data/Assignment2-gz/wrf_1228B.trace.gz
CPU 0 L1D next line prefetcher
CPU 0 L2C IP-based stride prefetcher
Heartbeat CPU 0 instructions: 1000003 cycles: 591063 heartbeat IPC: 1.69187 cumulative IPC: 1.69187 (Simulation time: 0 hr 0 min 27 sec) 
select_counter is 680
Heartbeat CPU 0 instructions: 2000002 cycles: 1111169 heartbeat IPC: 1.92268 cumulative IPC: 1.79991 (Simulation time: 0 hr 1 min 3 sec) 
select_counter is 1023
Heartbeat CPU 0 instructions: 3000000 cycles: 1729128 heartbeat IPC: 1.61823 cumulative IPC: 1.73498 (Simulation time: 0 hr 1 min 28 sec) 
select_counter is 906
Heartbeat CPU 0 instructions: 4000000 cycles: 2349777 heartbeat IPC: 1.61122 cumulative IPC: 1.70229 (Simulation time: 0 hr 1 min 53 sec) 
select_counter is 1023
Heartbeat CPU 0 instructions: 5000000 cycles: 3052145 heartbeat IPC: 1.42376 cumulative IPC: 1.63819 (Simulation time: 0 hr 2 min 17 sec) 
select_counter is 1022
Heartbeat CPU 0 instructions: 6000000 cycles: 3612233 heartbeat IPC: 1.78543 cumulative IPC: 1.66102 (Simulation time: 0 hr 2 min 40 sec) 
select_counter is 969
Heartbeat CPU 0 instructions: 7000001 cycles: 4164997 heartbeat IPC: 1.80909 cumulative IPC: 1.68067 (Simulation time: 0 hr 3 min 2 sec) 
select_counter is 943
Heartbeat CPU 0 instructions: 8000000 cycles: 4716361 heartbeat IPC: 1.81368 cumulative IPC: 1.69622 (Simulation time: 0 hr 3 min 29 sec) 
select_counter is 996
Heartbeat CPU 0 instructions: 9000002 cycles: 5266551 heartbeat IPC: 1.81756 cumulative IPC: 1.7089 (Simulation time: 0 hr 3 min 56 sec) 
select_counter is 1023
Heartbeat CPU 0 instructions: 10000001 cycles: 5819447 heartbeat IPC: 1.80866 cumulative IPC: 1.71838 (Simulation time: 0 hr 4 min 19 sec) 
select_counter is 1021

Warmup complete CPU 0 instructions: 10000001 cycles: 5819447 (Simulation time: 0 hr 4 min 19 sec) 

Heartbeat CPU 0 instructions: 11000000 cycles: 6683157 heartbeat IPC: 1.15779 cumulative IPC: 1.15779 (Simulation time: 0 hr 4 min 41 sec) 
select_counter is 1023
Heartbeat CPU 0 instructions: 12000000 cycles: 7578980 heartbeat IPC: 1.11629 cumulative IPC: 1.13666 (Simulation time: 0 hr 5 min 5 sec) 
select_counter is 1021
Heartbeat CPU 0 instructions: 13000003 cycles: 8482803 heartbeat IPC: 1.10641 cumulative IPC: 1.1264 (Simulation time: 0 hr 5 min 28 sec) 
select_counter is 1022
Heartbeat CPU 0 instructions: 14000002 cycles: 9377564 heartbeat IPC: 1.11762 cumulative IPC: 1.12419 (Simulation time: 0 hr 5 min 50 sec) 
select_counter is 992
Heartbeat CPU 0 instructions: 15000001 cycles: 10222335 heartbeat IPC: 1.18375 cumulative IPC: 1.13562 (Simulation time: 0 hr 6 min 10 sec) 
select_counter is 900
Heartbeat CPU 0 instructions: 16000000 cycles: 11060106 heartbeat IPC: 1.19364 cumulative IPC: 1.14489 (Simulation time: 0 hr 6 min 29 sec) 
select_counter is 871
Heartbeat CPU 0 instructions: 17000002 cycles: 11908050 heartbeat IPC: 1.17933 cumulative IPC: 1.14969 (Simulation time: 0 hr 6 min 49 sec) 
select_counter is 962
Heartbeat CPU 0 instructions: 18000003 cycles: 12725421 heartbeat IPC: 1.22344 cumulative IPC: 1.15842 (Simulation time: 0 hr 7 min 9 sec) 
select_counter is 1021
Heartbeat CPU 0 instructions: 19000000 cycles: 13525164 heartbeat IPC: 1.2504 cumulative IPC: 1.16796 (Simulation time: 0 hr 7 min 29 sec) 
select_counter is 1023
Heartbeat CPU 0 instructions: 20000000 cycles: 14327826 heartbeat IPC: 1.24585 cumulative IPC: 1.17531 (Simulation time: 0 hr 7 min 49 sec) 
select_counter is 1023
Heartbeat CPU 0 instructions: 21000000 cycles: 15125974 heartbeat IPC: 1.2529 cumulative IPC: 1.18197 (Simulation time: 0 hr 8 min 9 sec) 
select_counter is 1023
Heartbeat CPU 0 instructions: 22000000 cycles: 15951530 heartbeat IPC: 1.2113 cumulative IPC: 1.18436 (Simulation time: 0 hr 8 min 29 sec) 
select_counter is 1019
Heartbeat CPU 0 instructions: 23000003 cycles: 16907000 heartbeat IPC: 1.04661 cumulative IPC: 1.17249 (Simulation time: 0 hr 8 min 52 sec) 
select_counter is 895
Heartbeat CPU 0 instructions: 24000000 cycles: 17851033 heartbeat IPC: 1.05928 cumulative IPC: 1.1636 (Simulation time: 0 hr 9 min 14 sec) 
select_counter is 868
Heartbeat CPU 0 instructions: 25000000 cycles: 18803235 heartbeat IPC: 1.0502 cumulative IPC: 1.15529 (Simulation time: 0 hr 9 min 36 sec) 
select_counter is 950
Heartbeat CPU 0 instructions: 26000003 cycles: 19737339 heartbeat IPC: 1.07055 cumulative IPC: 1.1496 (Simulation time: 0 hr 9 min 58 sec) 
select_counter is 1020
Heartbeat CPU 0 instructions: 27000003 cycles: 20666106 heartbeat IPC: 1.0767 cumulative IPC: 1.14504 (Simulation time: 0 hr 10 min 21 sec) 
select_counter is 1023
Heartbeat CPU 0 instructions: 28000000 cycles: 21598072 heartbeat IPC: 1.073 cumulative IPC: 1.14078 (Simulation time: 0 hr 10 min 43 sec) 
select_counter is 1021
Heartbeat CPU 0 instructions: 29000003 cycles: 23236380 heartbeat IPC: 0.610388 cumulative IPC: 1.09089 (Simulation time: 0 hr 11 min 17 sec) 
select_counter is 1022
Heartbeat CPU 0 instructions: 30000000 cycles: 24969787 heartbeat IPC: 0.576897 cumulative IPC: 1.04437 (Simulation time: 0 hr 11 min 43 sec) 
select_counter is 1023
Heartbeat CPU 0 instructions: 31000003 cycles: 26876567 heartbeat IPC: 0.524446 cumulative IPC: 0.997287 (Simulation time: 0 hr 12 min 10 sec) 
select_counter is 920
Heartbeat CPU 0 instructions: 32000000 cycles: 28637299 heartbeat IPC: 0.567944 cumulative IPC: 0.964157 (Simulation time: 0 hr 12 min 37 sec) 
select_counter is 1017
Heartbeat CPU 0 instructions: 33000001 cycles: 30082335 heartbeat IPC: 0.692025 cumulative IPC: 0.94795 (Simulation time: 0 hr 13 min 4 sec) 
select_counter is 1020
Heartbeat CPU 0 instructions: 34000002 cycles: 31577598 heartbeat IPC: 0.668779 cumulative IPC: 0.931744 (Simulation time: 0 hr 13 min 31 sec) 
select_counter is 1023
Heartbeat CPU 0 instructions: 35000001 cycles: 33382680 heartbeat IPC: 0.553991 cumulative IPC: 0.907005 (Simulation time: 0 hr 13 min 59 sec) 
select_counter is 623
Heartbeat CPU 0 instructions: 36000000 cycles: 34338747 heartbeat IPC: 1.04595 cumulative IPC: 0.911663 (Simulation time: 0 hr 14 min 21 sec) 
select_counter is 536
Heartbeat CPU 0 instructions: 37000001 cycles: 35331366 heartbeat IPC: 1.00744 cumulative IPC: 0.914885 (Simulation time: 0 hr 14 min 44 sec) 
select_counter is 453
Heartbeat CPU 0 instructions: 38000003 cycles: 36298475 heartbeat IPC: 1.03401 cumulative IPC: 0.918665 (Simulation time: 0 hr 15 min 6 sec) 
select_counter is 378
Heartbeat CPU 0 instructions: 39000002 cycles: 37287538 heartbeat IPC: 1.01106 cumulative IPC: 0.921569 (Simulation time: 0 hr 15 min 29 sec) 
select_counter is 262
Heartbeat CPU 0 instructions: 40000000 cycles: 38256430 heartbeat IPC: 1.0321 cumulative IPC: 0.92487 (Simulation time: 0 hr 15 min 52 sec) 
select_counter is 181
Heartbeat CPU 0 instructions: 41000000 cycles: 39235192 heartbeat IPC: 1.0217 cumulative IPC: 0.927706 (Simulation time: 0 hr 16 min 16 sec) 
select_counter is 174
Heartbeat CPU 0 instructions: 42000002 cycles: 40185812 heartbeat IPC: 1.05195 cumulative IPC: 0.931143 (Simulation time: 0 hr 16 min 39 sec) 
select_counter is 202
Heartbeat CPU 0 instructions: 43000000 cycles: 41151838 heartbeat IPC: 1.03517 cumulative IPC: 0.933987 (Simulation time: 0 hr 17 min 2 sec) 
select_counter is 170
Heartbeat CPU 0 instructions: 44000000 cycles: 42031650 heartbeat IPC: 1.13661 cumulative IPC: 0.93891 (Simulation time: 0 hr 17 min 23 sec) 
select_counter is 110
Heartbeat CPU 0 instructions: 45000000 cycles: 42869107 heartbeat IPC: 1.19409 cumulative IPC: 0.944678 (Simulation time: 0 hr 17 min 44 sec) 
select_counter is 61
Heartbeat CPU 0 instructions: 46000001 cycles: 43752670 heartbeat IPC: 1.13178 cumulative IPC: 0.949036 (Simulation time: 0 hr 18 min 5 sec) 
select_counter is 1018
Heartbeat CPU 0 instructions: 47000001 cycles: 44640023 heartbeat IPC: 1.12695 cumulative IPC: 0.953103 (Simulation time: 0 hr 18 min 26 sec) 
select_counter is 960
Heartbeat CPU 0 instructions: 48000000 cycles: 45529732 heartbeat IPC: 1.12396 cumulative IPC: 0.956931 (Simulation time: 0 hr 18 min 47 sec) 
select_counter is 902
Heartbeat CPU 0 instructions: 49000001 cycles: 46431271 heartbeat IPC: 1.10922 cumulative IPC: 0.960311 (Simulation time: 0 hr 19 min 8 sec) 
select_counter is 883
Heartbeat CPU 0 instructions: 50000002 cycles: 47329832 heartbeat IPC: 1.11289 cumulative IPC: 0.963614 (Simulation time: 0 hr 19 min 30 sec) 
select_counter is 949
Heartbeat CPU 0 instructions: 51000001 cycles: 48221046 heartbeat IPC: 1.12206 cumulative IPC: 0.966945 (Simulation time: 0 hr 19 min 51 sec) 
select_counter is 977
Heartbeat CPU 0 instructions: 52000000 cycles: 49161922 heartbeat IPC: 1.06284 cumulative IPC: 0.969026 (Simulation time: 0 hr 20 min 13 sec) 
select_counter is 969
Heartbeat CPU 0 instructions: 53000002 cycles: 50135768 heartbeat IPC: 1.02686 cumulative IPC: 0.970297 (Simulation time: 0 hr 20 min 36 sec) 
select_counter is 902
Heartbeat CPU 0 instructions: 54000001 cycles: 51141817 heartbeat IPC: 0.993986 cumulative IPC: 0.970823 (Simulation time: 0 hr 20 min 59 sec) 
select_counter is 805
Heartbeat CPU 0 instructions: 55000003 cycles: 52150095 heartbeat IPC: 0.991792 cumulative IPC: 0.971279 (Simulation time: 0 hr 21 min 22 sec) 
select_counter is 724
Heartbeat CPU 0 instructions: 56000000 cycles: 53172441 heartbeat IPC: 0.97814 cumulative IPC: 0.971427 (Simulation time: 0 hr 21 min 44 sec) 
select_counter is 670
Heartbeat CPU 0 instructions: 57000001 cycles: 54174958 heartbeat IPC: 0.99749 cumulative IPC: 0.971968 (Simulation time: 0 hr 22 min 7 sec) 
select_counter is 729
Heartbeat CPU 0 instructions: 58000000 cycles: 55179077 heartbeat IPC: 0.995897 cumulative IPC: 0.972455 (Simulation time: 0 hr 22 min 30 sec) 
select_counter is 754
Heartbeat CPU 0 instructions: 59000001 cycles: 56951845 heartbeat IPC: 0.56409 cumulative IPC: 0.958297 (Simulation time: 0 hr 22 min 59 sec) 
select_counter is 393
Heartbeat CPU 0 instructions: 60000000 cycles: 58646273 heartbeat IPC: 0.590169 cumulative IPC: 0.946489 (Simulation time: 0 hr 23 min 26 sec) 
select_counter is 1021
Heartbeat CPU 0 instructions: 61000000 cycles: 60665265 heartbeat IPC: 0.495297 cumulative IPC: 0.929879 (Simulation time: 0 hr 23 min 53 sec) 
select_counter is 360
Heartbeat CPU 0 instructions: 62000000 cycles: 62319839 heartbeat IPC: 0.604385 cumulative IPC: 0.920348 (Simulation time: 0 hr 24 min 20 sec) 
select_counter is 351
Heartbeat CPU 0 instructions: 63000001 cycles: 63750267 heartbeat IPC: 0.699092 cumulative IPC: 0.914884 (Simulation time: 0 hr 24 min 47 sec) 
select_counter is 87
Heartbeat CPU 0 instructions: 64000000 cycles: 65271735 heartbeat IPC: 0.657259 cumulative IPC: 0.908291 (Simulation time: 0 hr 25 min 13 sec) 
select_counter is 91
Heartbeat CPU 0 instructions: 65000003 cycles: 66766561 heartbeat IPC: 0.668976 cumulative IPC: 0.902422 (Simulation time: 0 hr 25 min 39 sec) 
select_counter is 91
Heartbeat CPU 0 instructions: 66000000 cycles: 68262010 heartbeat IPC: 0.668693 cumulative IPC: 0.896824 (Simulation time: 0 hr 26 min 5 sec) 
select_counter is 91
Heartbeat CPU 0 instructions: 67000000 cycles: 69756533 heartbeat IPC: 0.66911 cumulative IPC: 0.891501 (Simulation time: 0 hr 26 min 31 sec) 
select_counter is 93
Heartbeat CPU 0 instructions: 68000000 cycles: 71250989 heartbeat IPC: 0.66914 cumulative IPC: 0.886423 (Simulation time: 0 hr 26 min 57 sec) 
select_counter is 103
Heartbeat CPU 0 instructions: 69000000 cycles: 72758231 heartbeat IPC: 0.663463 cumulative IPC: 0.881402 (Simulation time: 0 hr 27 min 23 sec) 
select_counter is 107
Heartbeat CPU 0 instructions: 70000001 cycles: 74254815 heartbeat IPC: 0.668189 cumulative IPC: 0.87674 (Simulation time: 0 hr 27 min 49 sec) 
select_counter is 120
Heartbeat CPU 0 instructions: 71000001 cycles: 75748948 heartbeat IPC: 0.669284 cumulative IPC: 0.872307 (Simulation time: 0 hr 28 min 15 sec) 
select_counter is 128
Heartbeat CPU 0 instructions: 72000000 cycles: 77231899 heartbeat IPC: 0.67433 cumulative IPC: 0.868196 (Simulation time: 0 hr 28 min 41 sec) 
select_counter is 138
Heartbeat CPU 0 instructions: 73000003 cycles: 78719608 heartbeat IPC: 0.672176 cumulative IPC: 0.864196 (Simulation time: 0 hr 29 min 8 sec) 
select_counter is 149
Heartbeat CPU 0 instructions: 74000000 cycles: 80217135 heartbeat IPC: 0.667766 cumulative IPC: 0.860242 (Simulation time: 0 hr 29 min 35 sec) 
select_counter is 164
Heartbeat CPU 0 instructions: 75000001 cycles: 81711106 heartbeat IPC: 0.669358 cumulative IPC: 0.856484 (Simulation time: 0 hr 30 min 2 sec) 
select_counter is 180
Heartbeat CPU 0 instructions: 76000000 cycles: 83207542 heartbeat IPC: 0.668254 cumulative IPC: 0.852844 (Simulation time: 0 hr 30 min 31 sec) 
select_counter is 193
Heartbeat CPU 0 instructions: 77000003 cycles: 84701337 heartbeat IPC: 0.669438 cumulative IPC: 0.849371 (Simulation time: 0 hr 31 min 12 sec) 
select_counter is 205
Heartbeat CPU 0 instructions: 78000001 cycles: 86196028 heartbeat IPC: 0.669033 cumulative IPC: 0.846018 (Simulation time: 0 hr 31 min 53 sec) 
select_counter is 214
Heartbeat CPU 0 instructions: 79000000 cycles: 87692459 heartbeat IPC: 0.668256 cumulative IPC: 0.842769 (Simulation time: 0 hr 32 min 33 sec) 
select_counter is 217
Heartbeat CPU 0 instructions: 80000000 cycles: 89182843 heartbeat IPC: 0.670968 cumulative IPC: 0.839697 (Simulation time: 0 hr 33 min 12 sec) 
select_counter is 237
Heartbeat CPU 0 instructions: 81000001 cycles: 90666775 heartbeat IPC: 0.673886 cumulative IPC: 0.836797 (Simulation time: 0 hr 33 min 51 sec) 
select_counter is 243
Heartbeat CPU 0 instructions: 82000000 cycles: 92149740 heartbeat IPC: 0.674324 cumulative IPC: 0.834006 (Simulation time: 0 hr 34 min 20 sec) 
select_counter is 252
Heartbeat CPU 0 instructions: 83000000 cycles: 93633092 heartbeat IPC: 0.674149 cumulative IPC: 0.831306 (Simulation time: 0 hr 34 min 46 sec) 
select_counter is 270
Heartbeat CPU 0 instructions: 84000000 cycles: 95127986 heartbeat IPC: 0.668944 cumulative IPC: 0.828588 (Simulation time: 0 hr 35 min 10 sec) 
select_counter is 285
Heartbeat CPU 0 instructions: 85000000 cycles: 96623082 heartbeat IPC: 0.668853 cumulative IPC: 0.825958 (Simulation time: 0 hr 35 min 34 sec) 
select_counter is 295
Heartbeat CPU 0 instructions: 86000000 cycles: 98116878 heartbeat IPC: 0.669435 cumulative IPC: 0.823425 (Simulation time: 0 hr 35 min 58 sec) 
select_counter is 309
Heartbeat CPU 0 instructions: 87000000 cycles: 99611730 heartbeat IPC: 0.668963 cumulative IPC: 0.820963 (Simulation time: 0 hr 36 min 22 sec) 
select_counter is 313
Heartbeat CPU 0 instructions: 88000000 cycles: 101107226 heartbeat IPC: 0.668674 cumulative IPC: 0.818573 (Simulation time: 0 hr 36 min 44 sec) 
select_counter is 332
Heartbeat CPU 0 instructions: 89000002 cycles: 102602854 heartbeat IPC: 0.668617 cumulative IPC: 0.816256 (Simulation time: 0 hr 37 min 6 sec) 
select_counter is 343
Heartbeat CPU 0 instructions: 90000000 cycles: 104087194 heartbeat IPC: 0.673699 cumulative IPC: 0.814102 (Simulation time: 0 hr 37 min 29 sec) 
select_counter is 351
Heartbeat CPU 0 instructions: 91000000 cycles: 105571347 heartbeat IPC: 0.673785 cumulative IPC: 0.812015 (Simulation time: 0 hr 37 min 50 sec) 
select_counter is 369
Heartbeat CPU 0 instructions: 92000000 cycles: 107055189 heartbeat IPC: 0.673926 cumulative IPC: 0.809991 (Simulation time: 0 hr 38 min 11 sec) 
select_counter is 374
Heartbeat CPU 0 instructions: 93000000 cycles: 108544927 heartbeat IPC: 0.671259 cumulative IPC: 0.807979 (Simulation time: 0 hr 38 min 32 sec) 
select_counter is 386
Heartbeat CPU 0 instructions: 94000003 cycles: 110038783 heartbeat IPC: 0.669411 cumulative IPC: 0.805992 (Simulation time: 0 hr 38 min 52 sec) 
select_counter is 396
Heartbeat CPU 0 instructions: 95000000 cycles: 111534843 heartbeat IPC: 0.66842 cumulative IPC: 0.804046 (Simulation time: 0 hr 39 min 12 sec) 
select_counter is 404
Heartbeat CPU 0 instructions: 96000000 cycles: 113028794 heartbeat IPC: 0.669366 cumulative IPC: 0.802169 (Simulation time: 0 hr 39 min 31 sec) 
select_counter is 415
Heartbeat CPU 0 instructions: 97000001 cycles: 114524347 heartbeat IPC: 0.66865 cumulative IPC: 0.800332 (Simulation time: 0 hr 39 min 50 sec) 
select_counter is 428
Heartbeat CPU 0 instructions: 98000003 cycles: 116019705 heartbeat IPC: 0.668738 cumulative IPC: 0.798546 (Simulation time: 0 hr 40 min 8 sec) 
select_counter is 437
Heartbeat CPU 0 instructions: 99000000 cycles: 117508807 heartbeat IPC: 0.671544 cumulative IPC: 0.796853 (Simulation time: 0 hr 40 min 26 sec) 
select_counter is 445
Heartbeat CPU 0 instructions: 100000000 cycles: 118992198 heartbeat IPC: 0.674131 cumulative IPC: 0.795244 (Simulation time: 0 hr 40 min 44 sec) 
select_counter is 455
Heartbeat CPU 0 instructions: 101000000 cycles: 120475405 heartbeat IPC: 0.674215 cumulative IPC: 0.793679 (Simulation time: 0 hr 41 min 2 sec) 
select_counter is 469
Heartbeat CPU 0 instructions: 102000003 cycles: 121958992 heartbeat IPC: 0.674044 cumulative IPC: 0.792151 (Simulation time: 0 hr 41 min 19 sec) 
select_counter is 482
Heartbeat CPU 0 instructions: 103000003 cycles: 123455253 heartbeat IPC: 0.668333 cumulative IPC: 0.790576 (Simulation time: 0 hr 41 min 36 sec) 
select_counter is 492
Heartbeat CPU 0 instructions: 104000000 cycles: 124949784 heartbeat IPC: 0.669104 cumulative IPC: 0.789052 (Simulation time: 0 hr 41 min 53 sec) 
select_counter is 502
Heartbeat CPU 0 instructions: 105000000 cycles: 126444592 heartbeat IPC: 0.668982 cumulative IPC: 0.787564 (Simulation time: 0 hr 42 min 9 sec) 
select_counter is 521
Heartbeat CPU 0 instructions: 106000000 cycles: 127939811 heartbeat IPC: 0.668798 cumulative IPC: 0.78611 (Simulation time: 0 hr 42 min 23 sec) 
select_counter is 528
Heartbeat CPU 0 instructions: 107000000 cycles: 129435671 heartbeat IPC: 0.668512 cumulative IPC: 0.784687 (Simulation time: 0 hr 42 min 38 sec) 
select_counter is 548
Heartbeat CPU 0 instructions: 108000000 cycles: 130931250 heartbeat IPC: 0.668637 cumulative IPC: 0.783299 (Simulation time: 0 hr 42 min 52 sec) 
select_counter is 559
Heartbeat CPU 0 instructions: 109000003 cycles: 132414125 heartbeat IPC: 0.674368 cumulative IPC: 0.782023 (Simulation time: 0 hr 43 min 6 sec) 
select_counter is 566
Heartbeat CPU 0 instructions: 110000001 cycles: 133897717 heartbeat IPC: 0.674038 cumulative IPC: 0.780773 (Simulation time: 0 hr 43 min 19 sec) 
select_counter is 584
Finished CPU 0 instructions: 100000000 cycles: 128078270 cummulative IPC: 0.780773 (Simulation time: 0 hr 43 min 19 sec) 

ChampSim completed all CPUs

Region of Interest Statistics

CPU 0 cummulative IPC: 0.780773 instructions: 100000000 cycles: 128078270
LLC TOTAL     ACCESS:    1495374  HIT:     477344  MISS:    1018030
LLC LOAD      ACCESS:      90349  HIT:      26989  MISS:      63360
LLC RFO       ACCESS:     219210  HIT:      38556  MISS:     180654
LLC PREFETCH  ACCESS:     749670  HIT:     146380  MISS:     603290
LLC WRITEBACK ACCESS:     436145  HIT:     265419  MISS:     170726
Ship samples: 
28, 49, 76, 107, 131, 175, 192, 240, 282, 304, 328, 368, 384, 430, 474, 496, 514, 572, 586, 627, 643, 701, 713, 754, 773, 815, 847, 880, 920, 952, 980, 1000, 1035, 1077, 1111, 1134, 1152, 1187, 1220, 1266, 1302, 1334, 1360, 1389, 1438, 1443, 1480, 1522, 1566, 1592, 1610, 1647, 1688, 1719, 1753, 1763, 1802, 1828, 1886, 1898, 1937, 1955, 1991, 2022, 
Lime duel samples: 
7, 45, 69, 104, 132, 188, 207, 231, 271, 312, 331, 364, 387, 440, 457, 501, 534, 546, 590, 615, 653, 674, 707, 749, 772, 803, 845, 895, 911, 959, 978, 1001, 1046, 1060, 1099, 1123, 1177, 1201, 1229, 1255, 1287, 1312, 1365, 1381, 1423, 1471, 1479, 1529, 1548, 1575, 1621, 1638, 1674, 1714, 1756, 1770, 1807, 1849, 1882, 1906, 1948, 1965, 2009, 2037, 
Lime samples: 
7, 104, 207, 312, 387, 501, 590, 674, 772, 895, 978, 1060, 1177, 1255, 1365, 1471, 1548, 1638, 1756, 1849, 1948, 
Insertion Distribution: 
	LOAD 407 0 0 0 0 0 2836 16362 
	RFO 9924 0 0 0 0 0 12158 52107 
	PREF 0 205 0 0 0 0 15662 204905 
	WRITEBACK 0 0 0 0 0 0 0 79867 
Total Prefetch Downgrades: 3903
