
*** ChampSim Multicore Out-of-Order Simulator ***

Warmup Instructions: 10000000
Simulation Instructions: 100000000
Configuration: 2
Number of CPUs: 1
LLC sets: 2048
LLC ways: 16
Off-chip DRAM Channels: 1 Width: 64-bit Data Rate: 1600 MT/s

CPU 0 runs /datasets/cs240c-wi22-a00-public/data/Assignment2-gz/soplex_205B.trace.gz
CPU 0 L1D next line prefetcher
CPU 0 L2C IP-based stride prefetcher
Heartbeat CPU 0 instructions: 1000000 cycles: 395620 heartbeat IPC: 2.52768 cumulative IPC: 2.52768 (Simulation time: 0 hr 0 min 17 sec) 
select_counter is 510
Heartbeat CPU 0 instructions: 2000002 cycles: 928709 heartbeat IPC: 1.87586 cumulative IPC: 2.15353 (Simulation time: 0 hr 0 min 41 sec) 
select_counter is 331
Heartbeat CPU 0 instructions: 3000000 cycles: 1400524 heartbeat IPC: 2.11947 cumulative IPC: 2.14206 (Simulation time: 0 hr 1 min 8 sec) 
select_counter is 194
Heartbeat CPU 0 instructions: 4000000 cycles: 1761834 heartbeat IPC: 2.76771 cumulative IPC: 2.27036 (Simulation time: 0 hr 1 min 28 sec) 
select_counter is 535
Heartbeat CPU 0 instructions: 5000003 cycles: 2205286 heartbeat IPC: 2.25504 cumulative IPC: 2.26728 (Simulation time: 0 hr 1 min 51 sec) 
select_counter is 748
Heartbeat CPU 0 instructions: 6000003 cycles: 2625360 heartbeat IPC: 2.38053 cumulative IPC: 2.2854 (Simulation time: 0 hr 2 min 16 sec) 
select_counter is 1020
Heartbeat CPU 0 instructions: 7000000 cycles: 3009795 heartbeat IPC: 2.60121 cumulative IPC: 2.32574 (Simulation time: 0 hr 2 min 34 sec) 
select_counter is 1023
Heartbeat CPU 0 instructions: 8000000 cycles: 3403704 heartbeat IPC: 2.53866 cumulative IPC: 2.35038 (Simulation time: 0 hr 2 min 51 sec) 
select_counter is 964
Heartbeat CPU 0 instructions: 9000003 cycles: 3929021 heartbeat IPC: 1.90362 cumulative IPC: 2.29065 (Simulation time: 0 hr 3 min 12 sec) 
select_counter is 439
Heartbeat CPU 0 instructions: 10000000 cycles: 4414278 heartbeat IPC: 2.06076 cumulative IPC: 2.26538 (Simulation time: 0 hr 3 min 36 sec) 
select_counter is 228

Warmup complete CPU 0 instructions: 10000004 cycles: 4414280 (Simulation time: 0 hr 3 min 36 sec) 

Heartbeat CPU 0 instructions: 11000001 cycles: 7017385 heartbeat IPC: 0.384157 cumulative IPC: 0.384155 (Simulation time: 0 hr 4 min 2 sec) 
select_counter is 55
Heartbeat CPU 0 instructions: 12000000 cycles: 9234316 heartbeat IPC: 0.451074 cumulative IPC: 0.414934 (Simulation time: 0 hr 4 min 31 sec) 
select_counter is 785
Heartbeat CPU 0 instructions: 13000000 cycles: 12972515 heartbeat IPC: 0.267509 cumulative IPC: 0.350539 (Simulation time: 0 hr 5 min 8 sec) 
select_counter is 341
Heartbeat CPU 0 instructions: 14000003 cycles: 14292598 heartbeat IPC: 0.75753 cumulative IPC: 0.404927 (Simulation time: 0 hr 5 min 35 sec) 
select_counter is 263
Heartbeat CPU 0 instructions: 15000000 cycles: 16032224 heartbeat IPC: 0.574834 cumulative IPC: 0.430368 (Simulation time: 0 hr 6 min 2 sec) 
select_counter is 172
Heartbeat CPU 0 instructions: 16000000 cycles: 19224292 heartbeat IPC: 0.313277 cumulative IPC: 0.405131 (Simulation time: 0 hr 6 min 31 sec) 
select_counter is 857
Heartbeat CPU 0 instructions: 17000001 cycles: 22950135 heartbeat IPC: 0.268396 cumulative IPC: 0.377646 (Simulation time: 0 hr 7 min 20 sec) 
select_counter is 559
Heartbeat CPU 0 instructions: 18000000 cycles: 29598889 heartbeat IPC: 0.150404 cumulative IPC: 0.317654 (Simulation time: 0 hr 7 min 55 sec) 
select_counter is 1021
Heartbeat CPU 0 instructions: 19000003 cycles: 34153303 heartbeat IPC: 0.219568 cumulative IPC: 0.302633 (Simulation time: 0 hr 8 min 30 sec) 
select_counter is 970
Heartbeat CPU 0 instructions: 20000000 cycles: 36385020 heartbeat IPC: 0.448084 cumulative IPC: 0.312786 (Simulation time: 0 hr 9 min 1 sec) 
select_counter is 1020
Heartbeat CPU 0 instructions: 21000001 cycles: 41036534 heartbeat IPC: 0.214984 cumulative IPC: 0.300364 (Simulation time: 0 hr 9 min 35 sec) 
select_counter is 1021
Heartbeat CPU 0 instructions: 22000001 cycles: 45211712 heartbeat IPC: 0.239511 cumulative IPC: 0.294136 (Simulation time: 0 hr 10 min 5 sec) 
select_counter is 1023
Heartbeat CPU 0 instructions: 23000002 cycles: 48441782 heartbeat IPC: 0.309591 cumulative IPC: 0.29527 (Simulation time: 0 hr 10 min 33 sec) 
select_counter is 1019
Heartbeat CPU 0 instructions: 24000000 cycles: 52276400 heartbeat IPC: 0.260782 cumulative IPC: 0.292507 (Simulation time: 0 hr 11 min 2 sec) 
select_counter is 1022
Heartbeat CPU 0 instructions: 25000000 cycles: 56183992 heartbeat IPC: 0.255912 cumulative IPC: 0.289745 (Simulation time: 0 hr 11 min 28 sec) 
select_counter is 956
Heartbeat CPU 0 instructions: 26000002 cycles: 59944320 heartbeat IPC: 0.265935 cumulative IPC: 0.288132 (Simulation time: 0 hr 11 min 57 sec) 
select_counter is 960
Heartbeat CPU 0 instructions: 27000000 cycles: 62530151 heartbeat IPC: 0.386722 cumulative IPC: 0.292519 (Simulation time: 0 hr 12 min 21 sec) 
select_counter is 932
Heartbeat CPU 0 instructions: 28000000 cycles: 66183847 heartbeat IPC: 0.273695 cumulative IPC: 0.291406 (Simulation time: 0 hr 12 min 52 sec) 
select_counter is 1020
Heartbeat CPU 0 instructions: 29000002 cycles: 68221116 heartbeat IPC: 0.490854 cumulative IPC: 0.297774 (Simulation time: 0 hr 13 min 17 sec) 
select_counter is 1023
Heartbeat CPU 0 instructions: 30000003 cycles: 69137865 heartbeat IPC: 1.09081 cumulative IPC: 0.309006 (Simulation time: 0 hr 13 min 38 sec) 
select_counter is 1011
Heartbeat CPU 0 instructions: 31000003 cycles: 70471039 heartbeat IPC: 0.75009 cumulative IPC: 0.317908 (Simulation time: 0 hr 13 min 59 sec) 
select_counter is 1021
Heartbeat CPU 0 instructions: 32000000 cycles: 73641205 heartbeat IPC: 0.31544 cumulative IPC: 0.317795 (Simulation time: 0 hr 14 min 29 sec) 
select_counter is 1015
Heartbeat CPU 0 instructions: 33000000 cycles: 76647494 heartbeat IPC: 0.332636 cumulative IPC: 0.318413 (Simulation time: 0 hr 14 min 59 sec) 
select_counter is 560
Heartbeat CPU 0 instructions: 34000002 cycles: 78390064 heartbeat IPC: 0.573866 cumulative IPC: 0.32443 (Simulation time: 0 hr 15 min 23 sec) 
select_counter is 580
Heartbeat CPU 0 instructions: 35000003 cycles: 81093809 heartbeat IPC: 0.369858 cumulative IPC: 0.326032 (Simulation time: 0 hr 15 min 49 sec) 
select_counter is 248
Heartbeat CPU 0 instructions: 36000000 cycles: 83484207 heartbeat IPC: 0.418339 cumulative IPC: 0.328823 (Simulation time: 0 hr 16 min 16 sec) 
select_counter is 581
Heartbeat CPU 0 instructions: 37000000 cycles: 86950764 heartbeat IPC: 0.288471 cumulative IPC: 0.327128 (Simulation time: 0 hr 16 min 44 sec) 
select_counter is 897
Heartbeat CPU 0 instructions: 38000002 cycles: 88226119 heartbeat IPC: 0.784097 cumulative IPC: 0.334082 (Simulation time: 0 hr 17 min 1 sec) 
select_counter is 851
Heartbeat CPU 0 instructions: 39000003 cycles: 90218451 heartbeat IPC: 0.501925 cumulative IPC: 0.337979 (Simulation time: 0 hr 17 min 22 sec) 
select_counter is 717
Heartbeat CPU 0 instructions: 40000000 cycles: 93728988 heartbeat IPC: 0.284856 cumulative IPC: 0.335891 (Simulation time: 0 hr 17 min 52 sec) 
select_counter is 682
Heartbeat CPU 0 instructions: 41000000 cycles: 97178713 heartbeat IPC: 0.289878 cumulative IPC: 0.33418 (Simulation time: 0 hr 18 min 19 sec) 
select_counter is 159
Heartbeat CPU 0 instructions: 42000001 cycles: 98978355 heartbeat IPC: 0.555667 cumulative IPC: 0.338395 (Simulation time: 0 hr 18 min 53 sec) 
select_counter is 1001
Heartbeat CPU 0 instructions: 43000001 cycles: 102472101 heartbeat IPC: 0.286226 cumulative IPC: 0.336536 (Simulation time: 0 hr 19 min 27 sec) 
select_counter is 872
Heartbeat CPU 0 instructions: 44000000 cycles: 104748902 heartbeat IPC: 0.439212 cumulative IPC: 0.338866 (Simulation time: 0 hr 19 min 50 sec) 
select_counter is 495
Heartbeat CPU 0 instructions: 45000001 cycles: 106042470 heartbeat IPC: 0.773056 cumulative IPC: 0.344393 (Simulation time: 0 hr 20 min 10 sec) 
select_counter is 399
Heartbeat CPU 0 instructions: 46000002 cycles: 108869441 heartbeat IPC: 0.353736 cumulative IPC: 0.344645 (Simulation time: 0 hr 20 min 36 sec) 
select_counter is 343
Heartbeat CPU 0 instructions: 47000000 cycles: 112073070 heartbeat IPC: 0.312145 cumulative IPC: 0.343678 (Simulation time: 0 hr 21 min 5 sec) 
select_counter is 280
Heartbeat CPU 0 instructions: 48000000 cycles: 115012941 heartbeat IPC: 0.340151 cumulative IPC: 0.343585 (Simulation time: 0 hr 21 min 36 sec) 
select_counter is 235
Heartbeat CPU 0 instructions: 49000001 cycles: 116953503 heartbeat IPC: 0.515315 cumulative IPC: 0.346546 (Simulation time: 0 hr 22 min 1 sec) 
select_counter is 56
Heartbeat CPU 0 instructions: 50000000 cycles: 120279978 heartbeat IPC: 0.300618 cumulative IPC: 0.345227 (Simulation time: 0 hr 22 min 33 sec) 
select_counter is 460
Heartbeat CPU 0 instructions: 51000003 cycles: 122760794 heartbeat IPC: 0.403094 cumulative IPC: 0.34644 (Simulation time: 0 hr 22 min 56 sec) 
select_counter is 192
Heartbeat CPU 0 instructions: 52000000 cycles: 124004819 heartbeat IPC: 0.80384 cumulative IPC: 0.351198 (Simulation time: 0 hr 23 min 14 sec) 
select_counter is 114
Heartbeat CPU 0 instructions: 53000003 cycles: 126835537 heartbeat IPC: 0.353268 cumulative IPC: 0.351246 (Simulation time: 0 hr 23 min 40 sec) 
select_counter is 1021
Heartbeat CPU 0 instructions: 54000000 cycles: 130241618 heartbeat IPC: 0.293592 cumulative IPC: 0.349685 (Simulation time: 0 hr 24 min 11 sec) 
select_counter is 964
Heartbeat CPU 0 instructions: 55000001 cycles: 133223366 heartbeat IPC: 0.335374 cumulative IPC: 0.349354 (Simulation time: 0 hr 24 min 43 sec) 
select_counter is 768
Heartbeat CPU 0 instructions: 56000000 cycles: 135093408 heartbeat IPC: 0.534747 cumulative IPC: 0.352007 (Simulation time: 0 hr 25 min 8 sec) 
select_counter is 583
Heartbeat CPU 0 instructions: 57000000 cycles: 138485930 heartbeat IPC: 0.294766 cumulative IPC: 0.350559 (Simulation time: 0 hr 25 min 38 sec) 
select_counter is 1003
Heartbeat CPU 0 instructions: 58000000 cycles: 140697419 heartbeat IPC: 0.452184 cumulative IPC: 0.352208 (Simulation time: 0 hr 25 min 59 sec) 
select_counter is 825
Heartbeat CPU 0 instructions: 59000001 cycles: 141959988 heartbeat IPC: 0.792037 cumulative IPC: 0.356245 (Simulation time: 0 hr 26 min 16 sec) 
select_counter is 771
Heartbeat CPU 0 instructions: 60000000 cycles: 144798793 heartbeat IPC: 0.352261 cumulative IPC: 0.356165 (Simulation time: 0 hr 26 min 42 sec) 
select_counter is 769
Heartbeat CPU 0 instructions: 61000003 cycles: 148251202 heartbeat IPC: 0.289654 cumulative IPC: 0.354568 (Simulation time: 0 hr 27 min 14 sec) 
select_counter is 617
Heartbeat CPU 0 instructions: 62000002 cycles: 151359880 heartbeat IPC: 0.32168 cumulative IPC: 0.353872 (Simulation time: 0 hr 27 min 57 sec) 
select_counter is 599
Heartbeat CPU 0 instructions: 63000001 cycles: 153055055 heartbeat IPC: 0.589909 cumulative IPC: 0.356564 (Simulation time: 0 hr 28 min 26 sec) 
select_counter is 371
Heartbeat CPU 0 instructions: 64000000 cycles: 156779843 heartbeat IPC: 0.268471 cumulative IPC: 0.354411 (Simulation time: 0 hr 28 min 58 sec) 
select_counter is 826
Heartbeat CPU 0 instructions: 65000001 cycles: 158650619 heartbeat IPC: 0.534538 cumulative IPC: 0.356596 (Simulation time: 0 hr 29 min 16 sec) 
select_counter is 717
Heartbeat CPU 0 instructions: 66000000 cycles: 159917218 heartbeat IPC: 0.789515 cumulative IPC: 0.360122 (Simulation time: 0 hr 29 min 34 sec) 
select_counter is 667
Heartbeat CPU 0 instructions: 67000003 cycles: 162803315 heartbeat IPC: 0.34649 cumulative IPC: 0.359873 (Simulation time: 0 hr 29 min 59 sec) 
select_counter is 705
Heartbeat CPU 0 instructions: 68000000 cycles: 166342097 heartbeat IPC: 0.282582 cumulative IPC: 0.358184 (Simulation time: 0 hr 30 min 31 sec) 
select_counter is 500
Heartbeat CPU 0 instructions: 69000001 cycles: 169261527 heartbeat IPC: 0.342533 cumulative IPC: 0.357907 (Simulation time: 0 hr 31 min 1 sec) 
select_counter is 496
Heartbeat CPU 0 instructions: 70000000 cycles: 171134825 heartbeat IPC: 0.533817 cumulative IPC: 0.359884 (Simulation time: 0 hr 31 min 25 sec) 
select_counter is 343
Heartbeat CPU 0 instructions: 71000001 cycles: 174473053 heartbeat IPC: 0.29956 cumulative IPC: 0.3587 (Simulation time: 0 hr 31 min 57 sec) 
select_counter is 862
Heartbeat CPU 0 instructions: 72000000 cycles: 176662755 heartbeat IPC: 0.456683 cumulative IPC: 0.359945 (Simulation time: 0 hr 32 min 18 sec) 
select_counter is 698
Heartbeat CPU 0 instructions: 73000000 cycles: 177936900 heartbeat IPC: 0.78484 cumulative IPC: 0.363065 (Simulation time: 0 hr 32 min 35 sec) 
select_counter is 663
Heartbeat CPU 0 instructions: 74000001 cycles: 180762810 heartbeat IPC: 0.353869 cumulative IPC: 0.362918 (Simulation time: 0 hr 33 min 2 sec) 
select_counter is 472
Heartbeat CPU 0 instructions: 75000003 cycles: 183920706 heartbeat IPC: 0.316667 cumulative IPC: 0.362104 (Simulation time: 0 hr 33 min 31 sec) 
select_counter is 39
Heartbeat CPU 0 instructions: 76000000 cycles: 187306673 heartbeat IPC: 0.295336 cumulative IPC: 0.360868 (Simulation time: 0 hr 34 min 3 sec) 
select_counter is 295
Heartbeat CPU 0 instructions: 77000000 cycles: 188901712 heartbeat IPC: 0.626944 cumulative IPC: 0.363168 (Simulation time: 0 hr 34 min 27 sec) 
select_counter is 111
Heartbeat CPU 0 instructions: 78000000 cycles: 192782395 heartbeat IPC: 0.257687 cumulative IPC: 0.360995 (Simulation time: 0 hr 34 min 59 sec) 
select_counter is 565
Heartbeat CPU 0 instructions: 79000002 cycles: 194598581 heartbeat IPC: 0.550605 cumulative IPC: 0.362806 (Simulation time: 0 hr 35 min 17 sec) 
select_counter is 479
Heartbeat CPU 0 instructions: 80000000 cycles: 195894146 heartbeat IPC: 0.771862 cumulative IPC: 0.365574 (Simulation time: 0 hr 35 min 34 sec) 
select_counter is 406
Heartbeat CPU 0 instructions: 81000000 cycles: 198822656 heartbeat IPC: 0.341471 cumulative IPC: 0.365211 (Simulation time: 0 hr 36 min 4 sec) 
select_counter is 410
Heartbeat CPU 0 instructions: 82000000 cycles: 202025132 heartbeat IPC: 0.312258 cumulative IPC: 0.364352 (Simulation time: 0 hr 36 min 31 sec) 
select_counter is 121
Heartbeat CPU 0 instructions: 83000000 cycles: 205376151 heartbeat IPC: 0.298417 cumulative IPC: 0.363253 (Simulation time: 0 hr 36 min 57 sec) 
select_counter is 255
Heartbeat CPU 0 instructions: 84000000 cycles: 207068657 heartbeat IPC: 0.59084 cumulative IPC: 0.365154 (Simulation time: 0 hr 37 min 18 sec) 
select_counter is 988
Heartbeat CPU 0 instructions: 85000000 cycles: 211125231 heartbeat IPC: 0.246513 cumulative IPC: 0.362825 (Simulation time: 0 hr 37 min 46 sec) 
select_counter is 498
Heartbeat CPU 0 instructions: 86000002 cycles: 212583455 heartbeat IPC: 0.685767 cumulative IPC: 0.365088 (Simulation time: 0 hr 38 min 0 sec) 
select_counter is 445
Heartbeat CPU 0 instructions: 87000002 cycles: 213872288 heartbeat IPC: 0.775896 cumulative IPC: 0.367615 (Simulation time: 0 hr 38 min 14 sec) 
select_counter is 422
Heartbeat CPU 0 instructions: 88000000 cycles: 216778761 heartbeat IPC: 0.344059 cumulative IPC: 0.367293 (Simulation time: 0 hr 38 min 34 sec) 
select_counter is 439
Heartbeat CPU 0 instructions: 89000003 cycles: 220330954 heartbeat IPC: 0.281517 cumulative IPC: 0.365882 (Simulation time: 0 hr 38 min 59 sec) 
select_counter is 189
Heartbeat CPU 0 instructions: 90000001 cycles: 223498037 heartbeat IPC: 0.315747 cumulative IPC: 0.365157 (Simulation time: 0 hr 39 min 19 sec) 
select_counter is 428
Heartbeat CPU 0 instructions: 91000003 cycles: 225362499 heartbeat IPC: 0.536349 cumulative IPC: 0.366602 (Simulation time: 0 hr 39 min 38 sec) 
select_counter is 120
Heartbeat CPU 0 instructions: 92000000 cycles: 229088167 heartbeat IPC: 0.268407 cumulative IPC: 0.364973 (Simulation time: 0 hr 40 min 0 sec) 
select_counter is 647
Heartbeat CPU 0 instructions: 93000000 cycles: 230362595 heartbeat IPC: 0.784666 cumulative IPC: 0.367341 (Simulation time: 0 hr 40 min 12 sec) 
select_counter is 587
Heartbeat CPU 0 instructions: 94000000 cycles: 231758226 heartbeat IPC: 0.716522 cumulative IPC: 0.369484 (Simulation time: 0 hr 40 min 24 sec) 
select_counter is 513
Heartbeat CPU 0 instructions: 95000002 cycles: 234731466 heartbeat IPC: 0.336334 cumulative IPC: 0.369056 (Simulation time: 0 hr 40 min 43 sec) 
select_counter is 612
Heartbeat CPU 0 instructions: 96000000 cycles: 237942516 heartbeat IPC: 0.311424 cumulative IPC: 0.368264 (Simulation time: 0 hr 41 min 3 sec) 
select_counter is 401
Heartbeat CPU 0 instructions: 97000003 cycles: 240649563 heartbeat IPC: 0.369407 cumulative IPC: 0.368277 (Simulation time: 0 hr 41 min 20 sec) 
select_counter is 262
Heartbeat CPU 0 instructions: 98000003 cycles: 242900861 heartbeat IPC: 0.444188 cumulative IPC: 0.368993 (Simulation time: 0 hr 41 min 37 sec) 
select_counter is 860
Heartbeat CPU 0 instructions: 99000000 cycles: 246263679 heartbeat IPC: 0.297369 cumulative IPC: 0.367998 (Simulation time: 0 hr 41 min 54 sec) 
select_counter is 184
Heartbeat CPU 0 instructions: 100000000 cycles: 247534930 heartbeat IPC: 0.786627 cumulative IPC: 0.370187 (Simulation time: 0 hr 42 min 5 sec) 
select_counter is 94
Heartbeat CPU 0 instructions: 101000003 cycles: 249448074 heartbeat IPC: 0.522701 cumulative IPC: 0.371377 (Simulation time: 0 hr 42 min 16 sec) 
select_counter is 996
Heartbeat CPU 0 instructions: 102000002 cycles: 252678386 heartbeat IPC: 0.309567 cumulative IPC: 0.370573 (Simulation time: 0 hr 42 min 31 sec) 
select_counter is 969
Heartbeat CPU 0 instructions: 103000000 cycles: 255088073 heartbeat IPC: 0.414991 cumulative IPC: 0.371 (Simulation time: 0 hr 42 min 47 sec) 
select_counter is 947
Heartbeat CPU 0 instructions: 104000000 cycles: 263987067 heartbeat IPC: 0.112372 cumulative IPC: 0.362133 (Simulation time: 0 hr 43 min 7 sec) 
select_counter is 1020
Heartbeat CPU 0 instructions: 105000000 cycles: 266105547 heartbeat IPC: 0.472037 cumulative IPC: 0.363023 (Simulation time: 0 hr 43 min 23 sec) 
select_counter is 671
Heartbeat CPU 0 instructions: 106000002 cycles: 270132686 heartbeat IPC: 0.248316 cumulative IPC: 0.361285 (Simulation time: 0 hr 43 min 39 sec) 
select_counter is 716
Heartbeat CPU 0 instructions: 107000003 cycles: 274600623 heartbeat IPC: 0.223817 cumulative IPC: 0.359011 (Simulation time: 0 hr 43 min 54 sec) 
select_counter is 732
Heartbeat CPU 0 instructions: 108000000 cycles: 278062412 heartbeat IPC: 0.288867 cumulative IPC: 0.358124 (Simulation time: 0 hr 44 min 8 sec) 
select_counter is 740
Heartbeat CPU 0 instructions: 109000000 cycles: 281423825 heartbeat IPC: 0.297494 cumulative IPC: 0.357388 (Simulation time: 0 hr 44 min 21 sec) 
select_counter is 727
Heartbeat CPU 0 instructions: 110000003 cycles: 285144581 heartbeat IPC: 0.268763 cumulative IPC: 0.356214 (Simulation time: 0 hr 44 min 33 sec) 
select_counter is 596
Finished CPU 0 instructions: 100000003 cycles: 280730302 cummulative IPC: 0.356214 (Simulation time: 0 hr 44 min 33 sec) 

ChampSim completed all CPUs

Region of Interest Statistics

CPU 0 cummulative IPC: 0.356214 instructions: 100000003 cycles: 280730302
LLC TOTAL     ACCESS:    8731284  HIT:    4248888  MISS:    4482396
LLC LOAD      ACCESS:    2231901  HIT:     958298  MISS:    1273603
LLC RFO       ACCESS:     871522  HIT:     319209  MISS:     552313
LLC PREFETCH  ACCESS:    3452964  HIT:    1346532  MISS:    2106432
LLC WRITEBACK ACCESS:    2174897  HIT:    1624849  MISS:     550048
Ship samples: 
15, 52, 69, 102, 141, 171, 211, 253, 287, 296, 341, 366, 390, 420, 462, 508, 540, 545, 598, 619, 653, 693, 716, 743, 786, 806, 842, 882, 915, 949, 989, 1023, 1043, 1060, 1097, 1142, 1157, 1185, 1247, 1255, 1284, 1330, 1369, 1406, 1412, 1468, 1477, 1519, 1561, 1575, 1630, 1656, 1673, 1717, 1729, 1786, 1801, 1845, 1872, 1903, 1926, 1973, 1990, 2019, 
Lime duel samples: 
20, 53, 82, 110, 154, 176, 194, 237, 274, 316, 350, 369, 398, 433, 455, 486, 541, 560, 606, 636, 647, 698, 714, 756, 789, 828, 832, 876, 911, 928, 975, 1009, 1037, 1085, 1103, 1131, 1174, 1195, 1234, 1256, 1297, 1325, 1359, 1380, 1420, 1459, 1473, 1531, 1560, 1587, 1602, 1661, 1667, 1721, 1736, 1788, 1798, 1836, 1858, 1907, 1940, 1963, 1995, 2020, 
Lime samples: 
20, 110, 194, 316, 398, 486, 606, 698, 789, 876, 975, 1085, 1174, 1256, 1359, 1459, 1560, 1661, 1736, 1836, 1940, 
Insertion Distribution: 
	LOAD 155688 0 0 0 0 0 55491 343654 
	RFO 105935 0 0 0 0 0 36819 86254 
	PREF 0 49614 0 0 0 0 150541 795320 
	WRITEBACK 0 0 0 0 0 0 0 252329 
Total Prefetch Downgrades: 64860
