
*** ChampSim Multicore Out-of-Order Simulator ***

Warmup Instructions: 10000000
Simulation Instructions: 100000000
Configuration: 2
Number of CPUs: 1
LLC sets: 2048
LLC ways: 16
Off-chip DRAM Channels: 1 Width: 64-bit Data Rate: 1600 MT/s

CPU 0 runs /datasets/cs240c-wi22-a00-public/data/Assignment2-gz/soplex_217B.trace.gz
CPU 0 L1D next line prefetcher
CPU 0 L2C IP-based stride prefetcher
Heartbeat CPU 0 instructions: 1000002 cycles: 441513 heartbeat IPC: 2.26494 cumulative IPC: 2.26494 (Simulation time: 0 hr 0 min 31 sec) 
select_counter is 154
Heartbeat CPU 0 instructions: 2000003 cycles: 800691 heartbeat IPC: 2.78414 cumulative IPC: 2.49785 (Simulation time: 0 hr 0 min 56 sec) 
select_counter is 530
Heartbeat CPU 0 instructions: 3000002 cycles: 1245805 heartbeat IPC: 2.24661 cumulative IPC: 2.40808 (Simulation time: 0 hr 1 min 26 sec) 
select_counter is 756
Heartbeat CPU 0 instructions: 4000000 cycles: 1673785 heartbeat IPC: 2.33655 cumulative IPC: 2.38979 (Simulation time: 0 hr 1 min 52 sec) 
select_counter is 1023
Heartbeat CPU 0 instructions: 5000001 cycles: 2057835 heartbeat IPC: 2.60383 cumulative IPC: 2.42974 (Simulation time: 0 hr 2 min 10 sec) 
select_counter is 1022
Heartbeat CPU 0 instructions: 6000000 cycles: 2432156 heartbeat IPC: 2.6715 cumulative IPC: 2.46695 (Simulation time: 0 hr 2 min 29 sec) 
select_counter is 990
Heartbeat CPU 0 instructions: 7000003 cycles: 2961643 heartbeat IPC: 1.88863 cumulative IPC: 2.36355 (Simulation time: 0 hr 2 min 48 sec) 
select_counter is 1020
Heartbeat CPU 0 instructions: 8000000 cycles: 3409621 heartbeat IPC: 2.23225 cumulative IPC: 2.3463 (Simulation time: 0 hr 3 min 12 sec) 
select_counter is 400
Heartbeat CPU 0 instructions: 9000001 cycles: 3834120 heartbeat IPC: 2.35572 cumulative IPC: 2.34734 (Simulation time: 0 hr 3 min 38 sec) 
select_counter is 539
Heartbeat CPU 0 instructions: 10000000 cycles: 4246538 heartbeat IPC: 2.42472 cumulative IPC: 2.35486 (Simulation time: 0 hr 3 min 58 sec) 
select_counter is 131

Warmup complete CPU 0 instructions: 10000004 cycles: 4246539 (Simulation time: 0 hr 3 min 58 sec) 

Heartbeat CPU 0 instructions: 11000002 cycles: 8046831 heartbeat IPC: 0.263138 cumulative IPC: 0.263137 (Simulation time: 0 hr 4 min 39 sec) 
select_counter is 626
Heartbeat CPU 0 instructions: 12000000 cycles: 10619921 heartbeat IPC: 0.388637 cumulative IPC: 0.313805 (Simulation time: 0 hr 5 min 6 sec) 
select_counter is 296
Heartbeat CPU 0 instructions: 13000000 cycles: 11926007 heartbeat IPC: 0.765646 cumulative IPC: 0.390652 (Simulation time: 0 hr 5 min 24 sec) 
select_counter is 183
Heartbeat CPU 0 instructions: 14000000 cycles: 14567684 heartbeat IPC: 0.378547 cumulative IPC: 0.387554 (Simulation time: 0 hr 5 min 47 sec) 
select_counter is 6
Heartbeat CPU 0 instructions: 15000000 cycles: 17369294 heartbeat IPC: 0.356938 cumulative IPC: 0.381017 (Simulation time: 0 hr 6 min 16 sec) 
select_counter is 789
Heartbeat CPU 0 instructions: 16000000 cycles: 21171937 heartbeat IPC: 0.262975 cumulative IPC: 0.354497 (Simulation time: 0 hr 6 min 54 sec) 
select_counter is 601
Heartbeat CPU 0 instructions: 17000002 cycles: 23578831 heartbeat IPC: 0.415474 cumulative IPC: 0.362088 (Simulation time: 0 hr 7 min 21 sec) 
select_counter is 450
Heartbeat CPU 0 instructions: 18000002 cycles: 26178943 heartbeat IPC: 0.384599 cumulative IPC: 0.364757 (Simulation time: 0 hr 7 min 59 sec) 
select_counter is 1023
Heartbeat CPU 0 instructions: 19000000 cycles: 29620452 heartbeat IPC: 0.29057 cumulative IPC: 0.354695 (Simulation time: 0 hr 8 min 38 sec) 
select_counter is 488
Heartbeat CPU 0 instructions: 20000000 cycles: 30972047 heartbeat IPC: 0.739867 cumulative IPC: 0.374174 (Simulation time: 0 hr 8 min 58 sec) 
select_counter is 421
Heartbeat CPU 0 instructions: 21000000 cycles: 32414521 heartbeat IPC: 0.693253 cumulative IPC: 0.390514 (Simulation time: 0 hr 9 min 21 sec) 
select_counter is 319
Heartbeat CPU 0 instructions: 22000001 cycles: 35638193 heartbeat IPC: 0.310206 cumulative IPC: 0.382267 (Simulation time: 0 hr 9 min 53 sec) 
select_counter is 47
Heartbeat CPU 0 instructions: 23000003 cycles: 39083096 heartbeat IPC: 0.290285 cumulative IPC: 0.373171 (Simulation time: 0 hr 10 min 27 sec) 
select_counter is 513
Heartbeat CPU 0 instructions: 24000000 cycles: 42423144 heartbeat IPC: 0.299396 cumulative IPC: 0.366717 (Simulation time: 0 hr 11 min 1 sec) 
select_counter is 754
Heartbeat CPU 0 instructions: 25000001 cycles: 44033825 heartbeat IPC: 0.620856 cumulative IPC: 0.377005 (Simulation time: 0 hr 11 min 27 sec) 
select_counter is 469
Heartbeat CPU 0 instructions: 26000000 cycles: 47843054 heartbeat IPC: 0.26252 cumulative IPC: 0.367002 (Simulation time: 0 hr 12 min 3 sec) 
select_counter is 940
Heartbeat CPU 0 instructions: 27000002 cycles: 50154433 heartbeat IPC: 0.432643 cumulative IPC: 0.370307 (Simulation time: 0 hr 12 min 26 sec) 
select_counter is 737
Heartbeat CPU 0 instructions: 28000000 cycles: 51450591 heartbeat IPC: 0.771509 cumulative IPC: 0.381323 (Simulation time: 0 hr 12 min 44 sec) 
select_counter is 680
Heartbeat CPU 0 instructions: 29000002 cycles: 54178381 heartbeat IPC: 0.366598 cumulative IPC: 0.380519 (Simulation time: 0 hr 13 min 8 sec) 
select_counter is 570
Heartbeat CPU 0 instructions: 30000002 cycles: 57074660 heartbeat IPC: 0.345271 cumulative IPC: 0.378586 (Simulation time: 0 hr 13 min 38 sec) 
select_counter is 417
Heartbeat CPU 0 instructions: 31000000 cycles: 60332366 heartbeat IPC: 0.306964 cumulative IPC: 0.374426 (Simulation time: 0 hr 14 min 9 sec) 
select_counter is 131
Heartbeat CPU 0 instructions: 32000000 cycles: 62094499 heartbeat IPC: 0.567494 cumulative IPC: 0.380307 (Simulation time: 0 hr 14 min 35 sec) 
select_counter is 933
Heartbeat CPU 0 instructions: 33000001 cycles: 65544788 heartbeat IPC: 0.289831 cumulative IPC: 0.375215 (Simulation time: 0 hr 15 min 8 sec) 
select_counter is 121
Heartbeat CPU 0 instructions: 34000000 cycles: 68269093 heartbeat IPC: 0.367066 cumulative IPC: 0.374868 (Simulation time: 0 hr 15 min 34 sec) 
select_counter is 809
Heartbeat CPU 0 instructions: 35000002 cycles: 69598897 heartbeat IPC: 0.751992 cumulative IPC: 0.382542 (Simulation time: 0 hr 15 min 50 sec) 
select_counter is 752
Heartbeat CPU 0 instructions: 36000000 cycles: 71833469 heartbeat IPC: 0.447512 cumulative IPC: 0.38469 (Simulation time: 0 hr 16 min 11 sec) 
select_counter is 686
Heartbeat CPU 0 instructions: 37000002 cycles: 74501286 heartbeat IPC: 0.374839 cumulative IPC: 0.384316 (Simulation time: 0 hr 16 min 39 sec) 
select_counter is 588
Heartbeat CPU 0 instructions: 38000000 cycles: 78181231 heartbeat IPC: 0.271743 cumulative IPC: 0.378713 (Simulation time: 0 hr 17 min 19 sec) 
select_counter is 127
Heartbeat CPU 0 instructions: 39000001 cycles: 80252187 heartbeat IPC: 0.482869 cumulative IPC: 0.381551 (Simulation time: 0 hr 17 min 45 sec) 
select_counter is 964
Heartbeat CPU 0 instructions: 40000000 cycles: 83365696 heartbeat IPC: 0.321181 cumulative IPC: 0.379175 (Simulation time: 0 hr 18 min 20 sec) 
select_counter is 329
Heartbeat CPU 0 instructions: 41000000 cycles: 86381843 heartbeat IPC: 0.331549 cumulative IPC: 0.377426 (Simulation time: 0 hr 18 min 47 sec) 
select_counter is 859
Heartbeat CPU 0 instructions: 42000002 cycles: 87711330 heartbeat IPC: 0.752171 cumulative IPC: 0.383395 (Simulation time: 0 hr 19 min 3 sec) 
select_counter is 796
Heartbeat CPU 0 instructions: 43000001 cycles: 89502864 heartbeat IPC: 0.55818 cumulative IPC: 0.387068 (Simulation time: 0 hr 19 min 23 sec) 
select_counter is 732
Heartbeat CPU 0 instructions: 44000000 cycles: 92323088 heartbeat IPC: 0.354581 cumulative IPC: 0.386028 (Simulation time: 0 hr 19 min 55 sec) 
select_counter is 681
Heartbeat CPU 0 instructions: 45000003 cycles: 96145928 heartbeat IPC: 0.261586 cumulative IPC: 0.380851 (Simulation time: 0 hr 20 min 37 sec) 
select_counter is 432
Heartbeat CPU 0 instructions: 46000000 cycles: 99139262 heartbeat IPC: 0.334075 cumulative IPC: 0.379376 (Simulation time: 0 hr 21 min 14 sec) 
select_counter is 325
Heartbeat CPU 0 instructions: 47000001 cycles: 100795130 heartbeat IPC: 0.603913 cumulative IPC: 0.383227 (Simulation time: 0 hr 21 min 43 sec) 
select_counter is 51
Heartbeat CPU 0 instructions: 48000000 cycles: 104374605 heartbeat IPC: 0.27937 cumulative IPC: 0.379514 (Simulation time: 0 hr 22 min 19 sec) 
select_counter is 545
Heartbeat CPU 0 instructions: 49000000 cycles: 107050530 heartbeat IPC: 0.373703 cumulative IPC: 0.379363 (Simulation time: 0 hr 22 min 47 sec) 
select_counter is 311
Heartbeat CPU 0 instructions: 50000001 cycles: 108385554 heartbeat IPC: 0.749051 cumulative IPC: 0.384102 (Simulation time: 0 hr 23 min 12 sec) 
select_counter is 249
Heartbeat CPU 0 instructions: 51000000 cycles: 110920323 heartbeat IPC: 0.394513 cumulative IPC: 0.384349 (Simulation time: 0 hr 23 min 38 sec) 
select_counter is 176
Heartbeat CPU 0 instructions: 52000000 cycles: 113647434 heartbeat IPC: 0.366688 cumulative IPC: 0.383909 (Simulation time: 0 hr 24 min 7 sec) 
select_counter is 132
Heartbeat CPU 0 instructions: 53000000 cycles: 116826304 heartbeat IPC: 0.314577 cumulative IPC: 0.381951 (Simulation time: 0 hr 24 min 37 sec) 
select_counter is 926
Heartbeat CPU 0 instructions: 54000000 cycles: 118820737 heartbeat IPC: 0.501396 cumulative IPC: 0.384031 (Simulation time: 0 hr 25 min 2 sec) 
select_counter is 761
Heartbeat CPU 0 instructions: 55000000 cycles: 122360636 heartbeat IPC: 0.282494 cumulative IPC: 0.380988 (Simulation time: 0 hr 25 min 36 sec) 
select_counter is 184
Heartbeat CPU 0 instructions: 56000000 cycles: 125201571 heartbeat IPC: 0.351997 cumulative IPC: 0.380307 (Simulation time: 0 hr 26 min 1 sec) 
select_counter is 878
Heartbeat CPU 0 instructions: 57000003 cycles: 126545635 heartbeat IPC: 0.744014 cumulative IPC: 0.384304 (Simulation time: 0 hr 26 min 22 sec) 
select_counter is 826
Heartbeat CPU 0 instructions: 58000000 cycles: 128744539 heartbeat IPC: 0.454771 cumulative IPC: 0.385548 (Simulation time: 0 hr 26 min 46 sec) 
select_counter is 757
Heartbeat CPU 0 instructions: 59000000 cycles: 131405246 heartbeat IPC: 0.37584 cumulative IPC: 0.385345 (Simulation time: 0 hr 27 min 16 sec) 
select_counter is 706
Heartbeat CPU 0 instructions: 60000000 cycles: 135038382 heartbeat IPC: 0.275244 cumulative IPC: 0.382287 (Simulation time: 0 hr 28 min 4 sec) 
select_counter is 465
Heartbeat CPU 0 instructions: 61000000 cycles: 137309234 heartbeat IPC: 0.440363 cumulative IPC: 0.383278 (Simulation time: 0 hr 28 min 35 sec) 
select_counter is 197
Heartbeat CPU 0 instructions: 62000001 cycles: 140037500 heartbeat IPC: 0.366534 cumulative IPC: 0.382942 (Simulation time: 0 hr 29 min 10 sec) 
select_counter is 662
Heartbeat CPU 0 instructions: 63000001 cycles: 143552523 heartbeat IPC: 0.284493 cumulative IPC: 0.380457 (Simulation time: 0 hr 29 min 46 sec) 
select_counter is 62
Heartbeat CPU 0 instructions: 64000000 cycles: 144894381 heartbeat IPC: 0.745235 cumulative IPC: 0.383938 (Simulation time: 0 hr 30 min 4 sec) 
select_counter is 995
Heartbeat CPU 0 instructions: 65000000 cycles: 146390279 heartbeat IPC: 0.668495 cumulative IPC: 0.386932 (Simulation time: 0 hr 30 min 28 sec) 
select_counter is 904
Heartbeat CPU 0 instructions: 66000002 cycles: 149500101 heartbeat IPC: 0.321562 cumulative IPC: 0.385533 (Simulation time: 0 hr 31 min 0 sec) 
select_counter is 866
Heartbeat CPU 0 instructions: 67000000 cycles: 153042935 heartbeat IPC: 0.282259 cumulative IPC: 0.383074 (Simulation time: 0 hr 31 min 40 sec) 
select_counter is 717
Heartbeat CPU 0 instructions: 68000000 cycles: 159094883 heartbeat IPC: 0.165236 cumulative IPC: 0.37456 (Simulation time: 0 hr 32 min 18 sec) 
select_counter is 868
Heartbeat CPU 0 instructions: 69000001 cycles: 163295645 heartbeat IPC: 0.238052 cumulative IPC: 0.370955 (Simulation time: 0 hr 32 min 52 sec) 
select_counter is 1021
Heartbeat CPU 0 instructions: 70000002 cycles: 167507696 heartbeat IPC: 0.237414 cumulative IPC: 0.367509 (Simulation time: 0 hr 33 min 34 sec) 
select_counter is 1021
Heartbeat CPU 0 instructions: 71000002 cycles: 172042104 heartbeat IPC: 0.220536 cumulative IPC: 0.363538 (Simulation time: 0 hr 34 min 10 sec) 
select_counter is 1015
Heartbeat CPU 0 instructions: 72000000 cycles: 175497795 heartbeat IPC: 0.289377 cumulative IPC: 0.362041 (Simulation time: 0 hr 34 min 39 sec) 
select_counter is 1020
Heartbeat CPU 0 instructions: 73000000 cycles: 178874014 heartbeat IPC: 0.296189 cumulative IPC: 0.360768 (Simulation time: 0 hr 35 min 12 sec) 
select_counter is 919
Heartbeat CPU 0 instructions: 74000000 cycles: 182740258 heartbeat IPC: 0.258649 cumulative IPC: 0.358556 (Simulation time: 0 hr 35 min 39 sec) 
select_counter is 727
Heartbeat CPU 0 instructions: 75000002 cycles: 186713209 heartbeat IPC: 0.251703 cumulative IPC: 0.356229 (Simulation time: 0 hr 36 min 7 sec) 
select_counter is 745
Heartbeat CPU 0 instructions: 76000000 cycles: 189330436 heartbeat IPC: 0.382083 cumulative IPC: 0.356595 (Simulation time: 0 hr 36 min 32 sec) 
select_counter is 723
Heartbeat CPU 0 instructions: 77000000 cycles: 192992292 heartbeat IPC: 0.273086 cumulative IPC: 0.354975 (Simulation time: 0 hr 37 min 11 sec) 
select_counter is 811
Heartbeat CPU 0 instructions: 78000002 cycles: 195179610 heartbeat IPC: 0.457182 cumulative IPC: 0.356146 (Simulation time: 0 hr 37 min 46 sec) 
select_counter is 901
Heartbeat CPU 0 instructions: 79000002 cycles: 197037779 heartbeat IPC: 0.538164 cumulative IPC: 0.3579 (Simulation time: 0 hr 38 min 8 sec) 
select_counter is 1022
Heartbeat CPU 0 instructions: 80000000 cycles: 198202317 heartbeat IPC: 0.858708 cumulative IPC: 0.360907 (Simulation time: 0 hr 38 min 25 sec) 
select_counter is 1023
Heartbeat CPU 0 instructions: 81000003 cycles: 200383692 heartbeat IPC: 0.458428 cumulative IPC: 0.361992 (Simulation time: 0 hr 38 min 45 sec) 
select_counter is 1005
Heartbeat CPU 0 instructions: 82000001 cycles: 203398655 heartbeat IPC: 0.331678 cumulative IPC: 0.361533 (Simulation time: 0 hr 39 min 9 sec) 
select_counter is 738
Heartbeat CPU 0 instructions: 83000002 cycles: 206108667 heartbeat IPC: 0.369002 cumulative IPC: 0.361633 (Simulation time: 0 hr 39 min 31 sec) 
select_counter is 539
Heartbeat CPU 0 instructions: 84000000 cycles: 208495183 heartbeat IPC: 0.41902 cumulative IPC: 0.362303 (Simulation time: 0 hr 39 min 51 sec) 
select_counter is 192
Heartbeat CPU 0 instructions: 85000000 cycles: 210017671 heartbeat IPC: 0.65682 cumulative IPC: 0.364483 (Simulation time: 0 hr 40 min 8 sec) 
select_counter is 107
Heartbeat CPU 0 instructions: 86000001 cycles: 213758478 heartbeat IPC: 0.267322 cumulative IPC: 0.362748 (Simulation time: 0 hr 40 min 33 sec) 
select_counter is 1020
Heartbeat CPU 0 instructions: 87000000 cycles: 216269410 heartbeat IPC: 0.398258 cumulative IPC: 0.363168 (Simulation time: 0 hr 40 min 51 sec) 
select_counter is 814
Heartbeat CPU 0 instructions: 88000000 cycles: 217574464 heartbeat IPC: 0.766252 cumulative IPC: 0.365634 (Simulation time: 0 hr 41 min 2 sec) 
select_counter is 755
Heartbeat CPU 0 instructions: 89000003 cycles: 220160218 heartbeat IPC: 0.386736 cumulative IPC: 0.365887 (Simulation time: 0 hr 41 min 17 sec) 
select_counter is 638
Heartbeat CPU 0 instructions: 90000002 cycles: 222925171 heartbeat IPC: 0.361669 cumulative IPC: 0.365834 (Simulation time: 0 hr 41 min 36 sec) 
select_counter is 872
Heartbeat CPU 0 instructions: 91000001 cycles: 226425854 heartbeat IPC: 0.285658 cumulative IPC: 0.36457 (Simulation time: 0 hr 41 min 58 sec) 
select_counter is 343
Heartbeat CPU 0 instructions: 92000000 cycles: 228318168 heartbeat IPC: 0.528453 cumulative IPC: 0.365954 (Simulation time: 0 hr 42 min 14 sec) 
select_counter is 143
Heartbeat CPU 0 instructions: 93000000 cycles: 231988426 heartbeat IPC: 0.27246 cumulative IPC: 0.364448 (Simulation time: 0 hr 42 min 34 sec) 
select_counter is 122
Heartbeat CPU 0 instructions: 94000001 cycles: 234904797 heartbeat IPC: 0.342892 cumulative IPC: 0.364175 (Simulation time: 0 hr 42 min 49 sec) 
select_counter is 775
Heartbeat CPU 0 instructions: 95000003 cycles: 236252740 heartbeat IPC: 0.741873 cumulative IPC: 0.36637 (Simulation time: 0 hr 42 min 59 sec) 
select_counter is 657
Heartbeat CPU 0 instructions: 96000000 cycles: 238517282 heartbeat IPC: 0.441589 cumulative IPC: 0.367097 (Simulation time: 0 hr 43 min 11 sec) 
select_counter is 578
Heartbeat CPU 0 instructions: 97000002 cycles: 241011709 heartbeat IPC: 0.400894 cumulative IPC: 0.367453 (Simulation time: 0 hr 43 min 26 sec) 
select_counter is 532
Heartbeat CPU 0 instructions: 98000003 cycles: 245120154 heartbeat IPC: 0.243401 cumulative IPC: 0.365337 (Simulation time: 0 hr 43 min 45 sec) 
select_counter is 246
Heartbeat CPU 0 instructions: 99000000 cycles: 248030419 heartbeat IPC: 0.34361 cumulative IPC: 0.365077 (Simulation time: 0 hr 43 min 58 sec) 
select_counter is 997
Heartbeat CPU 0 instructions: 100000000 cycles: 249882830 heartbeat IPC: 0.539837 cumulative IPC: 0.366395 (Simulation time: 0 hr 44 min 11 sec) 
select_counter is 624
Heartbeat CPU 0 instructions: 101000001 cycles: 253759150 heartbeat IPC: 0.257977 cumulative IPC: 0.364711 (Simulation time: 0 hr 44 min 27 sec) 
select_counter is 56
Heartbeat CPU 0 instructions: 102000000 cycles: 255364546 heartbeat IPC: 0.622899 cumulative IPC: 0.366362 (Simulation time: 0 hr 44 min 35 sec) 
select_counter is 1007
Heartbeat CPU 0 instructions: 103000001 cycles: 256644996 heartbeat IPC: 0.780976 cumulative IPC: 0.368465 (Simulation time: 0 hr 44 min 43 sec) 
select_counter is 945
Heartbeat CPU 0 instructions: 104000000 cycles: 259925785 heartbeat IPC: 0.304804 cumulative IPC: 0.367648 (Simulation time: 0 hr 44 min 56 sec) 
select_counter is 869
Heartbeat CPU 0 instructions: 105000001 cycles: 263239069 heartbeat IPC: 0.301816 cumulative IPC: 0.366806 (Simulation time: 0 hr 45 min 10 sec) 
select_counter is 727
Heartbeat CPU 0 instructions: 106000000 cycles: 265987291 heartbeat IPC: 0.363871 cumulative IPC: 0.366775 (Simulation time: 0 hr 45 min 21 sec) 
select_counter is 540
Heartbeat CPU 0 instructions: 107000000 cycles: 267744956 heartbeat IPC: 0.568937 cumulative IPC: 0.368124 (Simulation time: 0 hr 45 min 31 sec) 
select_counter is 266
Heartbeat CPU 0 instructions: 108000000 cycles: 271663895 heartbeat IPC: 0.255171 cumulative IPC: 0.366468 (Simulation time: 0 hr 45 min 42 sec) 
select_counter is 528
Heartbeat CPU 0 instructions: 109000000 cycles: 273572967 heartbeat IPC: 0.523815 cumulative IPC: 0.367584 (Simulation time: 0 hr 45 min 48 sec) 
select_counter is 415
Heartbeat CPU 0 instructions: 110000002 cycles: 274895072 heartbeat IPC: 0.756371 cumulative IPC: 0.369483 (Simulation time: 0 hr 45 min 53 sec) 
select_counter is 306
Finished CPU 0 instructions: 100000000 cycles: 270648537 cummulative IPC: 0.369483 (Simulation time: 0 hr 45 min 53 sec) 

ChampSim completed all CPUs

Region of Interest Statistics

CPU 0 cummulative IPC: 0.369483 instructions: 100000000 cycles: 270648537
LLC TOTAL     ACCESS:    8715889  HIT:    4490835  MISS:    4225054
LLC LOAD      ACCESS:    2238351  HIT:    1000786  MISS:    1237565
LLC RFO       ACCESS:     764932  HIT:     307201  MISS:     457731
LLC PREFETCH  ACCESS:    3552067  HIT:    1483159  MISS:    2068908
LLC WRITEBACK ACCESS:    2160539  HIT:    1699689  MISS:     460850
Ship samples: 
26, 57, 81, 97, 144, 160, 213, 241, 263, 293, 349, 355, 407, 434, 464, 488, 521, 549, 597, 615, 666, 684, 725, 754, 797, 813, 842, 875, 900, 943, 973, 1001, 1036, 1069, 1096, 1144, 1176, 1196, 1243, 1260, 1311, 1330, 1355, 1386, 1435, 1444, 1488, 1535, 1563, 1598, 1601, 1637, 1690, 1702, 1744, 1774, 1805, 1848, 1886, 1895, 1947, 1953, 2008, 2024, 
Lime duel samples: 
29, 36, 76, 109, 148, 161, 220, 240, 267, 298, 334, 361, 401, 435, 462, 496, 532, 564, 598, 633, 662, 675, 714, 759, 799, 800, 858, 881, 897, 957, 980, 1015, 1047, 1070, 1089, 1140, 1154, 1188, 1229, 1278, 1304, 1338, 1353, 1405, 1423, 1465, 1480, 1517, 1564, 1581, 1603, 1654, 1689, 1714, 1749, 1779, 1807, 1824, 1880, 1890, 1945, 1963, 1996, 2017, 
Lime samples: 
29, 109, 220, 298, 401, 496, 598, 675, 799, 881, 980, 1070, 1154, 1278, 1353, 1465, 1564, 1654, 1749, 1824, 1945, 
Insertion Distribution: 
	LOAD 188630 0 0 0 0 0 34211 278085 
	RFO 83916 0 0 0 0 0 25285 55290 
	PREF 0 65414 0 0 0 0 120513 667129 
	WRITEBACK 0 0 0 0 0 0 0 181730 
Total Prefetch Downgrades: 68912
