
*** ChampSim Multicore Out-of-Order Simulator ***

Warmup Instructions: 10000000
Simulation Instructions: 100000000
Configuration: 2
Number of CPUs: 1
LLC sets: 2048
LLC ways: 16
Off-chip DRAM Channels: 1 Width: 64-bit Data Rate: 1600 MT/s

CPU 0 runs /datasets/cs240c-wi22-a00-public/data/Assignment2-gz/omnetpp_17B.trace.gz
CPU 0 L1D next line prefetcher
CPU 0 L2C IP-based stride prefetcher
Heartbeat CPU 0 instructions: 1000000 cycles: 559567 heartbeat IPC: 1.7871 cumulative IPC: 1.7871 (Simulation time: 0 hr 0 min 18 sec) 
select_counter is 638
Heartbeat CPU 0 instructions: 2000002 cycles: 1133679 heartbeat IPC: 1.74182 cumulative IPC: 1.76417 (Simulation time: 0 hr 0 min 36 sec) 
select_counter is 516
Heartbeat CPU 0 instructions: 3000001 cycles: 1769069 heartbeat IPC: 1.57384 cumulative IPC: 1.69581 (Simulation time: 0 hr 0 min 52 sec) 
select_counter is 563
Heartbeat CPU 0 instructions: 4000000 cycles: 2333879 heartbeat IPC: 1.77051 cumulative IPC: 1.71388 (Simulation time: 0 hr 1 min 11 sec) 
select_counter is 591
Heartbeat CPU 0 instructions: 5000002 cycles: 2892802 heartbeat IPC: 1.78916 cumulative IPC: 1.72843 (Simulation time: 0 hr 1 min 28 sec) 
select_counter is 639
Heartbeat CPU 0 instructions: 6000000 cycles: 3471309 heartbeat IPC: 1.72858 cumulative IPC: 1.72845 (Simulation time: 0 hr 1 min 46 sec) 
select_counter is 505
Heartbeat CPU 0 instructions: 7000000 cycles: 4035602 heartbeat IPC: 1.77213 cumulative IPC: 1.73456 (Simulation time: 0 hr 2 min 4 sec) 
select_counter is 732
Heartbeat CPU 0 instructions: 8000000 cycles: 4697335 heartbeat IPC: 1.51118 cumulative IPC: 1.70309 (Simulation time: 0 hr 2 min 19 sec) 
select_counter is 733
Heartbeat CPU 0 instructions: 9000000 cycles: 5359140 heartbeat IPC: 1.51102 cumulative IPC: 1.67937 (Simulation time: 0 hr 2 min 34 sec) 
select_counter is 734
Heartbeat CPU 0 instructions: 10000001 cycles: 6020709 heartbeat IPC: 1.51156 cumulative IPC: 1.66093 (Simulation time: 0 hr 2 min 50 sec) 
select_counter is 733

Warmup complete CPU 0 instructions: 10000001 cycles: 6020709 (Simulation time: 0 hr 2 min 50 sec) 

Heartbeat CPU 0 instructions: 11000001 cycles: 7065505 heartbeat IPC: 0.957125 cumulative IPC: 0.957125 (Simulation time: 0 hr 3 min 6 sec) 
select_counter is 737
Heartbeat CPU 0 instructions: 12000000 cycles: 8110048 heartbeat IPC: 0.957355 cumulative IPC: 0.95724 (Simulation time: 0 hr 3 min 23 sec) 
select_counter is 739
Heartbeat CPU 0 instructions: 13000000 cycles: 9179960 heartbeat IPC: 0.934656 cumulative IPC: 0.949592 (Simulation time: 0 hr 3 min 40 sec) 
select_counter is 736
Heartbeat CPU 0 instructions: 14000001 cycles: 10224211 heartbeat IPC: 0.957625 cumulative IPC: 0.951587 (Simulation time: 0 hr 3 min 57 sec) 
select_counter is 735
Heartbeat CPU 0 instructions: 15000000 cycles: 11268419 heartbeat IPC: 0.957663 cumulative IPC: 0.952796 (Simulation time: 0 hr 4 min 14 sec) 
select_counter is 735
Heartbeat CPU 0 instructions: 16000000 cycles: 12312586 heartbeat IPC: 0.957701 cumulative IPC: 0.95361 (Simulation time: 0 hr 4 min 31 sec) 
select_counter is 734
Heartbeat CPU 0 instructions: 17000000 cycles: 13358123 heartbeat IPC: 0.956446 cumulative IPC: 0.954014 (Simulation time: 0 hr 4 min 48 sec) 
select_counter is 734
Heartbeat CPU 0 instructions: 18000001 cycles: 14399467 heartbeat IPC: 0.960298 cumulative IPC: 0.954795 (Simulation time: 0 hr 5 min 7 sec) 
select_counter is 733
Heartbeat CPU 0 instructions: 19000002 cycles: 15434277 heartbeat IPC: 0.966362 cumulative IPC: 0.956067 (Simulation time: 0 hr 5 min 25 sec) 
select_counter is 729
Heartbeat CPU 0 instructions: 20000000 cycles: 18730813 heartbeat IPC: 0.303348 cumulative IPC: 0.786776 (Simulation time: 0 hr 5 min 49 sec) 
select_counter is 699
Heartbeat CPU 0 instructions: 21000000 cycles: 21207052 heartbeat IPC: 0.403838 cumulative IPC: 0.724335 (Simulation time: 0 hr 6 min 20 sec) 
select_counter is 501
Heartbeat CPU 0 instructions: 22000002 cycles: 23032497 heartbeat IPC: 0.547813 cumulative IPC: 0.705393 (Simulation time: 0 hr 6 min 43 sec) 
select_counter is 713
Heartbeat CPU 0 instructions: 23000000 cycles: 26313708 heartbeat IPC: 0.304765 cumulative IPC: 0.640615 (Simulation time: 0 hr 7 min 8 sec) 
select_counter is 806
Heartbeat CPU 0 instructions: 24000000 cycles: 29598993 heartbeat IPC: 0.304388 cumulative IPC: 0.593767 (Simulation time: 0 hr 7 min 32 sec) 
select_counter is 821
Heartbeat CPU 0 instructions: 25000001 cycles: 32255395 heartbeat IPC: 0.376449 cumulative IPC: 0.571762 (Simulation time: 0 hr 7 min 54 sec) 
select_counter is 761
Heartbeat CPU 0 instructions: 26000001 cycles: 33916386 heartbeat IPC: 0.60205 cumulative IPC: 0.573566 (Simulation time: 0 hr 8 min 13 sec) 
select_counter is 802
Heartbeat CPU 0 instructions: 27000000 cycles: 37208661 heartbeat IPC: 0.303741 cumulative IPC: 0.545082 (Simulation time: 0 hr 8 min 37 sec) 
select_counter is 758
Heartbeat CPU 0 instructions: 28000000 cycles: 40503423 heartbeat IPC: 0.303512 cumulative IPC: 0.522001 (Simulation time: 0 hr 9 min 0 sec) 
select_counter is 718
Heartbeat CPU 0 instructions: 29000000 cycles: 43329167 heartbeat IPC: 0.353889 cumulative IPC: 0.509268 (Simulation time: 0 hr 9 min 22 sec) 
select_counter is 693
Heartbeat CPU 0 instructions: 30000000 cycles: 44819699 heartbeat IPC: 0.670901 cumulative IPC: 0.515477 (Simulation time: 0 hr 9 min 40 sec) 
select_counter is 699
Heartbeat CPU 0 instructions: 31000000 cycles: 48105429 heartbeat IPC: 0.304346 cumulative IPC: 0.498993 (Simulation time: 0 hr 10 min 3 sec) 
select_counter is 665
Heartbeat CPU 0 instructions: 32000000 cycles: 51396553 heartbeat IPC: 0.303848 cumulative IPC: 0.484839 (Simulation time: 0 hr 10 min 26 sec) 
select_counter is 629
Heartbeat CPU 0 instructions: 33000001 cycles: 54407839 heartbeat IPC: 0.332084 cumulative IPC: 0.475333 (Simulation time: 0 hr 10 min 48 sec) 
select_counter is 609
Heartbeat CPU 0 instructions: 34000000 cycles: 55709883 heartbeat IPC: 0.768022 cumulative IPC: 0.483003 (Simulation time: 0 hr 11 min 5 sec) 
select_counter is 592
Heartbeat CPU 0 instructions: 35000003 cycles: 58954233 heartbeat IPC: 0.308229 cumulative IPC: 0.472291 (Simulation time: 0 hr 11 min 28 sec) 
select_counter is 545
Heartbeat CPU 0 instructions: 36000000 cycles: 62189239 heartbeat IPC: 0.309117 cumulative IPC: 0.462893 (Simulation time: 0 hr 11 min 51 sec) 
select_counter is 482
Heartbeat CPU 0 instructions: 37000001 cycles: 65036564 heartbeat IPC: 0.351207 cumulative IPC: 0.457504 (Simulation time: 0 hr 12 min 16 sec) 
select_counter is 466
Heartbeat CPU 0 instructions: 38000000 cycles: 66437679 heartbeat IPC: 0.713717 cumulative IPC: 0.463446 (Simulation time: 0 hr 12 min 34 sec) 
select_counter is 452
Heartbeat CPU 0 instructions: 39000000 cycles: 69642832 heartbeat IPC: 0.311998 cumulative IPC: 0.455816 (Simulation time: 0 hr 12 min 57 sec) 
select_counter is 421
Heartbeat CPU 0 instructions: 40000000 cycles: 72847424 heartbeat IPC: 0.312052 cumulative IPC: 0.448922 (Simulation time: 0 hr 13 min 19 sec) 
select_counter is 374
Heartbeat CPU 0 instructions: 41000002 cycles: 75588302 heartbeat IPC: 0.364847 cumulative IPC: 0.44561 (Simulation time: 0 hr 13 min 41 sec) 
select_counter is 335
Heartbeat CPU 0 instructions: 42000000 cycles: 77080683 heartbeat IPC: 0.670069 cumulative IPC: 0.450324 (Simulation time: 0 hr 14 min 0 sec) 
select_counter is 329
Heartbeat CPU 0 instructions: 43000003 cycles: 82354993 heartbeat IPC: 0.189599 cumulative IPC: 0.432309 (Simulation time: 0 hr 14 min 28 sec) 
select_counter is 254
Heartbeat CPU 0 instructions: 44000000 cycles: 83401542 heartbeat IPC: 0.955519 cumulative IPC: 0.439385 (Simulation time: 0 hr 14 min 45 sec) 
select_counter is 254
Heartbeat CPU 0 instructions: 45000003 cycles: 84444322 heartbeat IPC: 0.958978 cumulative IPC: 0.446294 (Simulation time: 0 hr 15 min 2 sec) 
select_counter is 258
Heartbeat CPU 0 instructions: 46000001 cycles: 85487389 heartbeat IPC: 0.958709 cumulative IPC: 0.45302 (Simulation time: 0 hr 15 min 18 sec) 
select_counter is 256
Heartbeat CPU 0 instructions: 47000001 cycles: 86531924 heartbeat IPC: 0.957364 cumulative IPC: 0.459563 (Simulation time: 0 hr 15 min 35 sec) 
select_counter is 257
Heartbeat CPU 0 instructions: 48000000 cycles: 87575102 heartbeat IPC: 0.958608 cumulative IPC: 0.465947 (Simulation time: 0 hr 15 min 52 sec) 
select_counter is 257
Heartbeat CPU 0 instructions: 49000000 cycles: 88616908 heartbeat IPC: 0.959872 cumulative IPC: 0.472177 (Simulation time: 0 hr 16 min 9 sec) 
select_counter is 259
Heartbeat CPU 0 instructions: 50000000 cycles: 89659696 heartbeat IPC: 0.958968 cumulative IPC: 0.478246 (Simulation time: 0 hr 16 min 26 sec) 
select_counter is 258
Heartbeat CPU 0 instructions: 51000002 cycles: 90703215 heartbeat IPC: 0.958298 cumulative IPC: 0.484161 (Simulation time: 0 hr 16 min 43 sec) 
select_counter is 259
Heartbeat CPU 0 instructions: 52000000 cycles: 91747454 heartbeat IPC: 0.957633 cumulative IPC: 0.489929 (Simulation time: 0 hr 17 min 0 sec) 
select_counter is 259
Heartbeat CPU 0 instructions: 53000001 cycles: 92789953 heartbeat IPC: 0.959234 cumulative IPC: 0.495567 (Simulation time: 0 hr 17 min 17 sec) 
select_counter is 260
Heartbeat CPU 0 instructions: 54000002 cycles: 93858058 heartbeat IPC: 0.936238 cumulative IPC: 0.500926 (Simulation time: 0 hr 17 min 36 sec) 
select_counter is 262
Heartbeat CPU 0 instructions: 55000003 cycles: 94898333 heartbeat IPC: 0.961285 cumulative IPC: 0.506314 (Simulation time: 0 hr 17 min 53 sec) 
select_counter is 260
Heartbeat CPU 0 instructions: 56000000 cycles: 97127254 heartbeat IPC: 0.448646 cumulative IPC: 0.504903 (Simulation time: 0 hr 18 min 12 sec) 
select_counter is 182
Heartbeat CPU 0 instructions: 57000003 cycles: 99121324 heartbeat IPC: 0.501488 cumulative IPC: 0.50483 (Simulation time: 0 hr 18 min 32 sec) 
select_counter is 209
Heartbeat CPU 0 instructions: 58000000 cycles: 102344809 heartbeat IPC: 0.310222 cumulative IPC: 0.498318 (Simulation time: 0 hr 18 min 54 sec) 
select_counter is 185
Heartbeat CPU 0 instructions: 59000003 cycles: 105562148 heartbeat IPC: 0.310817 cumulative IPC: 0.492257 (Simulation time: 0 hr 19 min 16 sec) 
select_counter is 159
Heartbeat CPU 0 instructions: 60000000 cycles: 107951152 heartbeat IPC: 0.418583 cumulative IPC: 0.490531 (Simulation time: 0 hr 19 min 35 sec) 
select_counter is 87
Heartbeat CPU 0 instructions: 61000001 cycles: 109799770 heartbeat IPC: 0.540945 cumulative IPC: 0.491429 (Simulation time: 0 hr 19 min 55 sec) 
select_counter is 136
Heartbeat CPU 0 instructions: 62000001 cycles: 112998439 heartbeat IPC: 0.31263 cumulative IPC: 0.486082 (Simulation time: 0 hr 20 min 16 sec) 
select_counter is 114
Heartbeat CPU 0 instructions: 63000000 cycles: 116207766 heartbeat IPC: 0.311592 cumulative IPC: 0.481 (Simulation time: 0 hr 20 min 39 sec) 
select_counter is 87
Heartbeat CPU 0 instructions: 64000000 cycles: 118757668 heartbeat IPC: 0.392172 cumulative IPC: 0.478991 (Simulation time: 0 hr 20 min 59 sec) 
select_counter is 44
Heartbeat CPU 0 instructions: 65000000 cycles: 120442135 heartbeat IPC: 0.59366 cumulative IPC: 0.480679 (Simulation time: 0 hr 21 min 17 sec) 
select_counter is 86
Heartbeat CPU 0 instructions: 66000000 cycles: 123664103 heartbeat IPC: 0.310369 cumulative IPC: 0.476015 (Simulation time: 0 hr 21 min 39 sec) 
select_counter is 1006
Heartbeat CPU 0 instructions: 67000001 cycles: 126948034 heartbeat IPC: 0.304513 cumulative IPC: 0.471357 (Simulation time: 0 hr 22 min 1 sec) 
select_counter is 990
Heartbeat CPU 0 instructions: 68000000 cycles: 129732881 heartbeat IPC: 0.359086 cumulative IPC: 0.46883 (Simulation time: 0 hr 22 min 21 sec) 
select_counter is 973
Heartbeat CPU 0 instructions: 69000001 cycles: 131265257 heartbeat IPC: 0.652582 cumulative IPC: 0.471078 (Simulation time: 0 hr 22 min 39 sec) 
select_counter is 964
Heartbeat CPU 0 instructions: 70000001 cycles: 134538383 heartbeat IPC: 0.305518 cumulative IPC: 0.466862 (Simulation time: 0 hr 23 min 2 sec) 
select_counter is 929
Heartbeat CPU 0 instructions: 71000001 cycles: 137829093 heartbeat IPC: 0.303886 cumulative IPC: 0.462793 (Simulation time: 0 hr 23 min 24 sec) 
select_counter is 908
Heartbeat CPU 0 instructions: 72000000 cycles: 140632693 heartbeat IPC: 0.356684 cumulative IPC: 0.460583 (Simulation time: 0 hr 23 min 45 sec) 
select_counter is 868
Heartbeat CPU 0 instructions: 73000000 cycles: 142169221 heartbeat IPC: 0.650818 cumulative IPC: 0.46273 (Simulation time: 0 hr 24 min 3 sec) 
select_counter is 875
Heartbeat CPU 0 instructions: 74000003 cycles: 145471134 heartbeat IPC: 0.302856 cumulative IPC: 0.458944 (Simulation time: 0 hr 24 min 25 sec) 
select_counter is 847
Heartbeat CPU 0 instructions: 75000001 cycles: 148767966 heartbeat IPC: 0.303321 cumulative IPC: 0.45535 (Simulation time: 0 hr 24 min 48 sec) 
select_counter is 816
Heartbeat CPU 0 instructions: 76000000 cycles: 151452068 heartbeat IPC: 0.372564 cumulative IPC: 0.453822 (Simulation time: 0 hr 25 min 8 sec) 
select_counter is 764
Heartbeat CPU 0 instructions: 77000001 cycles: 153084493 heartbeat IPC: 0.612586 cumulative IPC: 0.455585 (Simulation time: 0 hr 25 min 27 sec) 
select_counter is 787
Heartbeat CPU 0 instructions: 78000000 cycles: 156373170 heartbeat IPC: 0.304073 cumulative IPC: 0.452271 (Simulation time: 0 hr 25 min 48 sec) 
select_counter is 753
Heartbeat CPU 0 instructions: 79000000 cycles: 159843429 heartbeat IPC: 0.288163 cumulative IPC: 0.448568 (Simulation time: 0 hr 26 min 12 sec) 
select_counter is 712
Heartbeat CPU 0 instructions: 80000000 cycles: 161705339 heartbeat IPC: 0.537083 cumulative IPC: 0.449627 (Simulation time: 0 hr 26 min 31 sec) 
select_counter is 615
Heartbeat CPU 0 instructions: 81000001 cycles: 164162264 heartbeat IPC: 0.407013 cumulative IPC: 0.448965 (Simulation time: 0 hr 26 min 50 sec) 
select_counter is 674
Heartbeat CPU 0 instructions: 82000000 cycles: 167457747 heartbeat IPC: 0.303445 cumulative IPC: 0.445994 (Simulation time: 0 hr 27 min 12 sec) 
select_counter is 654
Heartbeat CPU 0 instructions: 83000000 cycles: 170750218 heartbeat IPC: 0.303723 cumulative IPC: 0.443151 (Simulation time: 0 hr 27 min 34 sec) 
select_counter is 638
Heartbeat CPU 0 instructions: 84000000 cycles: 172575596 heartbeat IPC: 0.547832 cumulative IPC: 0.444298 (Simulation time: 0 hr 27 min 53 sec) 
select_counter is 550
Heartbeat CPU 0 instructions: 85000003 cycles: 175060303 heartbeat IPC: 0.402463 cumulative IPC: 0.443683 (Simulation time: 0 hr 28 min 13 sec) 
select_counter is 623
Heartbeat CPU 0 instructions: 86000001 cycles: 178361662 heartbeat IPC: 0.302905 cumulative IPC: 0.440986 (Simulation time: 0 hr 28 min 34 sec) 
select_counter is 600
Heartbeat CPU 0 instructions: 87000000 cycles: 181653189 heartbeat IPC: 0.30381 cumulative IPC: 0.438415 (Simulation time: 0 hr 28 min 57 sec) 
select_counter is 604
Heartbeat CPU 0 instructions: 88000000 cycles: 183341062 heartbeat IPC: 0.592462 cumulative IPC: 0.439882 (Simulation time: 0 hr 29 min 15 sec) 
select_counter is 514
Heartbeat CPU 0 instructions: 89000000 cycles: 188025439 heartbeat IPC: 0.213476 cumulative IPC: 0.434055 (Simulation time: 0 hr 29 min 41 sec) 
select_counter is 609
Heartbeat CPU 0 instructions: 90000002 cycles: 189068883 heartbeat IPC: 0.958367 cumulative IPC: 0.437043 (Simulation time: 0 hr 29 min 57 sec) 
select_counter is 613
Heartbeat CPU 0 instructions: 91000001 cycles: 190113091 heartbeat IPC: 0.957663 cumulative IPC: 0.439996 (Simulation time: 0 hr 30 min 14 sec) 
select_counter is 612
Heartbeat CPU 0 instructions: 92000000 cycles: 191156737 heartbeat IPC: 0.958178 cumulative IPC: 0.442918 (Simulation time: 0 hr 30 min 31 sec) 
select_counter is 615
Heartbeat CPU 0 instructions: 93000002 cycles: 192201077 heartbeat IPC: 0.957545 cumulative IPC: 0.445804 (Simulation time: 0 hr 30 min 47 sec) 
select_counter is 614
Heartbeat CPU 0 instructions: 94000001 cycles: 193244905 heartbeat IPC: 0.958011 cumulative IPC: 0.44866 (Simulation time: 0 hr 31 min 4 sec) 
select_counter is 615
Heartbeat CPU 0 instructions: 95000000 cycles: 194289169 heartbeat IPC: 0.957611 cumulative IPC: 0.451483 (Simulation time: 0 hr 31 min 22 sec) 
select_counter is 616
Heartbeat CPU 0 instructions: 96000000 cycles: 195334039 heartbeat IPC: 0.957057 cumulative IPC: 0.454273 (Simulation time: 0 hr 31 min 38 sec) 
select_counter is 616
Heartbeat CPU 0 instructions: 97000002 cycles: 196404931 heartbeat IPC: 0.933803 cumulative IPC: 0.456971 (Simulation time: 0 hr 31 min 55 sec) 
select_counter is 613
Heartbeat CPU 0 instructions: 98000000 cycles: 197450744 heartbeat IPC: 0.956192 cumulative IPC: 0.459698 (Simulation time: 0 hr 32 min 11 sec) 
select_counter is 614
Heartbeat CPU 0 instructions: 99000003 cycles: 198489171 heartbeat IPC: 0.962998 cumulative IPC: 0.462413 (Simulation time: 0 hr 32 min 28 sec) 
select_counter is 614
Heartbeat CPU 0 instructions: 100000000 cycles: 199525735 heartbeat IPC: 0.964723 cumulative IPC: 0.465104 (Simulation time: 0 hr 32 min 44 sec) 
select_counter is 615
Heartbeat CPU 0 instructions: 101000001 cycles: 200566878 heartbeat IPC: 0.960484 cumulative IPC: 0.467755 (Simulation time: 0 hr 33 min 1 sec) 
select_counter is 614
Heartbeat CPU 0 instructions: 102000001 cycles: 203812544 heartbeat IPC: 0.308103 cumulative IPC: 0.465135 (Simulation time: 0 hr 33 min 23 sec) 
select_counter is 576
Heartbeat CPU 0 instructions: 103000001 cycles: 205215380 heartbeat IPC: 0.712842 cumulative IPC: 0.46688 (Simulation time: 0 hr 33 min 41 sec) 
select_counter is 504
Heartbeat CPU 0 instructions: 104000000 cycles: 208107383 heartbeat IPC: 0.345781 cumulative IPC: 0.465147 (Simulation time: 0 hr 34 min 2 sec) 
select_counter is 560
Heartbeat CPU 0 instructions: 105000000 cycles: 211307964 heartbeat IPC: 0.312443 cumulative IPC: 0.462766 (Simulation time: 0 hr 34 min 24 sec) 
select_counter is 541
Heartbeat CPU 0 instructions: 106000000 cycles: 214456618 heartbeat IPC: 0.317596 cumulative IPC: 0.460573 (Simulation time: 0 hr 34 min 45 sec) 
select_counter is 535
Heartbeat CPU 0 instructions: 107000001 cycles: 216003667 heartbeat IPC: 0.646393 cumulative IPC: 0.461942 (Simulation time: 0 hr 35 min 3 sec) 
select_counter is 448
Heartbeat CPU 0 instructions: 108000000 cycles: 218736454 heartbeat IPC: 0.365926 cumulative IPC: 0.460709 (Simulation time: 0 hr 35 min 23 sec) 
select_counter is 527
Heartbeat CPU 0 instructions: 109000000 cycles: 221945865 heartbeat IPC: 0.311584 cumulative IPC: 0.458492 (Simulation time: 0 hr 35 min 53 sec) 
select_counter is 509
Heartbeat CPU 0 instructions: 110000000 cycles: 225138579 heartbeat IPC: 0.313213 cumulative IPC: 0.456375 (Simulation time: 0 hr 36 min 13 sec) 
select_counter is 491
Finished CPU 0 instructions: 100000003 cycles: 219117875 cummulative IPC: 0.456375 (Simulation time: 0 hr 36 min 13 sec) 

ChampSim completed all CPUs

Region of Interest Statistics

CPU 0 cummulative IPC: 0.456375 instructions: 100000003 cycles: 219117875
LLC TOTAL     ACCESS:    3282772  HIT:    1403661  MISS:    1879111
LLC LOAD      ACCESS:    1560236  HIT:    1248507  MISS:     311729
LLC RFO       ACCESS:       5220  HIT:       2195  MISS:       3025
LLC PREFETCH  ACCESS:    1700468  HIT:     146878  MISS:    1553590
LLC WRITEBACK ACCESS:      16848  HIT:       6081  MISS:      10767
Ship samples: 
13, 47, 68, 102, 133, 185, 210, 244, 285, 307, 322, 374, 388, 429, 462, 494, 518, 572, 603, 608, 664, 672, 716, 764, 780, 818, 840, 883, 925, 955, 972, 994, 1043, 1061, 1101, 1134, 1157, 1203, 1238, 1253, 1295, 1335, 1351, 1376, 1439, 1458, 1503, 1513, 1537, 1593, 1613, 1644, 1683, 1725, 1739, 1790, 1815, 1826, 1882, 1892, 1920, 1968, 2002, 2028, 
Lime duel samples: 
3, 38, 65, 125, 149, 181, 223, 243, 273, 312, 329, 382, 385, 420, 459, 511, 539, 573, 586, 611, 640, 697, 715, 756, 777, 816, 846, 879, 909, 958, 988, 1014, 1034, 1069, 1110, 1125, 1158, 1209, 1241, 1276, 1286, 1332, 1347, 1380, 1413, 1469, 1494, 1532, 1548, 1599, 1606, 1632, 1671, 1701, 1743, 1763, 1823, 1846, 1887, 1891, 1946, 1974, 2015, 2041, 
Lime samples: 
3, 125, 223, 312, 385, 511, 586, 697, 777, 879, 988, 1069, 1158, 1276, 1347, 1469, 1548, 1632, 1743, 1846, 1946, 
Insertion Distribution: 
	LOAD 8201 0 0 0 0 0 10709 94862 
	RFO 0 0 0 0 0 0 312 772 
	PREF 0 0 0 0 0 0 22560 696093 
	WRITEBACK 0 0 0 0 0 0 0 3530 
Total Prefetch Downgrades: 5458
