
*** ChampSim Multicore Out-of-Order Simulator ***

Warmup Instructions: 10000000
Simulation Instructions: 100000000
Configuration: 2
Number of CPUs: 1
LLC sets: 2048
LLC ways: 16
Off-chip DRAM Channels: 1 Width: 64-bit Data Rate: 1600 MT/s

CPU 0 runs /datasets/cs240c-wi22-a00-public/data/Assignment2-gz/libquantum_1210B.trace.gz
CPU 0 L1D next line prefetcher
CPU 0 L2C IP-based stride prefetcher
Heartbeat CPU 0 instructions: 1000003 cycles: 314916 heartbeat IPC: 3.17546 cumulative IPC: 3.17546 (Simulation time: 0 hr 0 min 11 sec) 
select_counter is 207
Heartbeat CPU 0 instructions: 2000000 cycles: 630170 heartbeat IPC: 3.17204 cumulative IPC: 3.17375 (Simulation time: 0 hr 0 min 22 sec) 
select_counter is 198
Heartbeat CPU 0 instructions: 3000001 cycles: 945979 heartbeat IPC: 3.16647 cumulative IPC: 3.17132 (Simulation time: 0 hr 0 min 34 sec) 
select_counter is 194
Heartbeat CPU 0 instructions: 4000000 cycles: 1260333 heartbeat IPC: 3.18112 cumulative IPC: 3.17376 (Simulation time: 0 hr 0 min 46 sec) 
select_counter is 183
Heartbeat CPU 0 instructions: 5000001 cycles: 1576818 heartbeat IPC: 3.15971 cumulative IPC: 3.17094 (Simulation time: 0 hr 0 min 58 sec) 
select_counter is 195
Heartbeat CPU 0 instructions: 6000002 cycles: 1891318 heartbeat IPC: 3.17965 cumulative IPC: 3.17239 (Simulation time: 0 hr 1 min 10 sec) 
select_counter is 191
Heartbeat CPU 0 instructions: 7000001 cycles: 2206981 heartbeat IPC: 3.16793 cumulative IPC: 3.17175 (Simulation time: 0 hr 1 min 22 sec) 
select_counter is 186
Heartbeat CPU 0 instructions: 8000000 cycles: 2522385 heartbeat IPC: 3.17053 cumulative IPC: 3.1716 (Simulation time: 0 hr 1 min 33 sec) 
select_counter is 177
Heartbeat CPU 0 instructions: 9000002 cycles: 2837144 heartbeat IPC: 3.17704 cumulative IPC: 3.1722 (Simulation time: 0 hr 1 min 45 sec) 
select_counter is 164
Heartbeat CPU 0 instructions: 10000003 cycles: 3153454 heartbeat IPC: 3.16146 cumulative IPC: 3.17113 (Simulation time: 0 hr 1 min 57 sec) 
select_counter is 157

Warmup complete CPU 0 instructions: 10000003 cycles: 3153454 (Simulation time: 0 hr 1 min 57 sec) 

Heartbeat CPU 0 instructions: 11000001 cycles: 5326312 heartbeat IPC: 0.460222 cumulative IPC: 0.460222 (Simulation time: 0 hr 2 min 18 sec) 
select_counter is 133
Heartbeat CPU 0 instructions: 12000000 cycles: 7442506 heartbeat IPC: 0.472546 cumulative IPC: 0.466303 (Simulation time: 0 hr 2 min 38 sec) 
select_counter is 134
Heartbeat CPU 0 instructions: 13000003 cycles: 9968391 heartbeat IPC: 0.395902 cumulative IPC: 0.44021 (Simulation time: 0 hr 3 min 2 sec) 
select_counter is 938
Heartbeat CPU 0 instructions: 14000001 cycles: 12514803 heartbeat IPC: 0.392709 cumulative IPC: 0.427289 (Simulation time: 0 hr 3 min 38 sec) 
select_counter is 972
Heartbeat CPU 0 instructions: 15000001 cycles: 15059052 heartbeat IPC: 0.393043 cumulative IPC: 0.41997 (Simulation time: 0 hr 4 min 14 sec) 
select_counter is 1014
Heartbeat CPU 0 instructions: 16000000 cycles: 17631405 heartbeat IPC: 0.388749 cumulative IPC: 0.414423 (Simulation time: 0 hr 4 min 39 sec) 
select_counter is 1021
Heartbeat CPU 0 instructions: 17000000 cycles: 20184279 heartbeat IPC: 0.391715 cumulative IPC: 0.411019 (Simulation time: 0 hr 5 min 1 sec) 
select_counter is 1021
Heartbeat CPU 0 instructions: 18000002 cycles: 22742845 heartbeat IPC: 0.390845 cumulative IPC: 0.408384 (Simulation time: 0 hr 5 min 23 sec) 
select_counter is 1022
Heartbeat CPU 0 instructions: 19000000 cycles: 25299754 heartbeat IPC: 0.391096 cumulative IPC: 0.406388 (Simulation time: 0 hr 5 min 46 sec) 
select_counter is 870
Heartbeat CPU 0 instructions: 20000000 cycles: 27819210 heartbeat IPC: 0.396911 cumulative IPC: 0.40542 (Simulation time: 0 hr 6 min 8 sec) 
select_counter is 908
Heartbeat CPU 0 instructions: 21000001 cycles: 30344313 heartbeat IPC: 0.396024 cumulative IPC: 0.404548 (Simulation time: 0 hr 6 min 31 sec) 
select_counter is 960
Heartbeat CPU 0 instructions: 22000003 cycles: 32869822 heartbeat IPC: 0.395961 cumulative IPC: 0.403818 (Simulation time: 0 hr 6 min 54 sec) 
select_counter is 1004
Heartbeat CPU 0 instructions: 23000000 cycles: 35411485 heartbeat IPC: 0.393442 cumulative IPC: 0.403 (Simulation time: 0 hr 7 min 16 sec) 
select_counter is 1022
Heartbeat CPU 0 instructions: 24000000 cycles: 37955738 heartbeat IPC: 0.393043 cumulative IPC: 0.402272 (Simulation time: 0 hr 7 min 39 sec) 
select_counter is 1022
Heartbeat CPU 0 instructions: 25000000 cycles: 40507704 heartbeat IPC: 0.391855 cumulative IPC: 0.401561 (Simulation time: 0 hr 8 min 1 sec) 
select_counter is 1022
Heartbeat CPU 0 instructions: 26000000 cycles: 43054398 heartbeat IPC: 0.392666 cumulative IPC: 0.400993 (Simulation time: 0 hr 8 min 23 sec) 
select_counter is 1022
Heartbeat CPU 0 instructions: 27000003 cycles: 45608304 heartbeat IPC: 0.391558 cumulative IPC: 0.400425 (Simulation time: 0 hr 8 min 45 sec) 
select_counter is 914
Heartbeat CPU 0 instructions: 28000000 cycles: 48028782 heartbeat IPC: 0.41314 cumulative IPC: 0.401111 (Simulation time: 0 hr 9 min 6 sec) 
select_counter is 700
Heartbeat CPU 0 instructions: 29000002 cycles: 49599841 heartbeat IPC: 0.636515 cumulative IPC: 0.409074 (Simulation time: 0 hr 9 min 28 sec) 
select_counter is 219
Heartbeat CPU 0 instructions: 30000001 cycles: 51076278 heartbeat IPC: 0.677306 cumulative IPC: 0.417338 (Simulation time: 0 hr 9 min 49 sec) 
select_counter is 219
Heartbeat CPU 0 instructions: 31000000 cycles: 52547344 heartbeat IPC: 0.679778 cumulative IPC: 0.425154 (Simulation time: 0 hr 10 min 11 sec) 
select_counter is 219
Heartbeat CPU 0 instructions: 32000000 cycles: 54018199 heartbeat IPC: 0.679877 cumulative IPC: 0.43252 (Simulation time: 0 hr 10 min 33 sec) 
select_counter is 218
Heartbeat CPU 0 instructions: 33000000 cycles: 55489079 heartbeat IPC: 0.679865 cumulative IPC: 0.439471 (Simulation time: 0 hr 10 min 53 sec) 
select_counter is 218
Heartbeat CPU 0 instructions: 34000002 cycles: 56960145 heartbeat IPC: 0.67978 cumulative IPC: 0.446041 (Simulation time: 0 hr 11 min 14 sec) 
select_counter is 219
Heartbeat CPU 0 instructions: 35000001 cycles: 58431009 heartbeat IPC: 0.679872 cumulative IPC: 0.452263 (Simulation time: 0 hr 11 min 36 sec) 
select_counter is 219
Heartbeat CPU 0 instructions: 36000000 cycles: 59902631 heartbeat IPC: 0.679522 cumulative IPC: 0.458156 (Simulation time: 0 hr 11 min 57 sec) 
select_counter is 154
Heartbeat CPU 0 instructions: 37000001 cycles: 61373515 heartbeat IPC: 0.679864 cumulative IPC: 0.463758 (Simulation time: 0 hr 12 min 18 sec) 
select_counter is 155
Heartbeat CPU 0 instructions: 38000002 cycles: 62844471 heartbeat IPC: 0.679831 cumulative IPC: 0.469082 (Simulation time: 0 hr 12 min 39 sec) 
select_counter is 154
Heartbeat CPU 0 instructions: 39000001 cycles: 64315335 heartbeat IPC: 0.679872 cumulative IPC: 0.474151 (Simulation time: 0 hr 12 min 59 sec) 
select_counter is 154
Heartbeat CPU 0 instructions: 40000000 cycles: 65786263 heartbeat IPC: 0.679842 cumulative IPC: 0.478982 (Simulation time: 0 hr 13 min 19 sec) 
select_counter is 155
Heartbeat CPU 0 instructions: 41000000 cycles: 67257229 heartbeat IPC: 0.679825 cumulative IPC: 0.483591 (Simulation time: 0 hr 13 min 39 sec) 
select_counter is 164
Heartbeat CPU 0 instructions: 42000000 cycles: 68728128 heartbeat IPC: 0.679856 cumulative IPC: 0.487993 (Simulation time: 0 hr 14 min 0 sec) 
select_counter is 204
Heartbeat CPU 0 instructions: 43000002 cycles: 70199973 heartbeat IPC: 0.679421 cumulative IPC: 0.492196 (Simulation time: 0 hr 14 min 21 sec) 
select_counter is 297
Heartbeat CPU 0 instructions: 44000000 cycles: 71674496 heartbeat IPC: 0.678184 cumulative IPC: 0.496198 (Simulation time: 0 hr 14 min 41 sec) 
select_counter is 427
Heartbeat CPU 0 instructions: 45000000 cycles: 73149876 heartbeat IPC: 0.677791 cumulative IPC: 0.500026 (Simulation time: 0 hr 15 min 3 sec) 
select_counter is 542
Heartbeat CPU 0 instructions: 46000003 cycles: 74633215 heartbeat IPC: 0.674157 cumulative IPC: 0.503639 (Simulation time: 0 hr 15 min 25 sec) 
select_counter is 582
Heartbeat CPU 0 instructions: 47000002 cycles: 76268055 heartbeat IPC: 0.61168 cumulative IPC: 0.506055 (Simulation time: 0 hr 15 min 46 sec) 
select_counter is 427
Heartbeat CPU 0 instructions: 48000000 cycles: 78222158 heartbeat IPC: 0.511743 cumulative IPC: 0.506203 (Simulation time: 0 hr 16 min 7 sec) 
select_counter is 911
Heartbeat CPU 0 instructions: 49000000 cycles: 80526993 heartbeat IPC: 0.433871 cumulative IPC: 0.504048 (Simulation time: 0 hr 16 min 29 sec) 
select_counter is 1021
Heartbeat CPU 0 instructions: 50000003 cycles: 82848543 heartbeat IPC: 0.430748 cumulative IPC: 0.501913 (Simulation time: 0 hr 16 min 52 sec) 
select_counter is 1021
Heartbeat CPU 0 instructions: 51000000 cycles: 85182137 heartbeat IPC: 0.428522 cumulative IPC: 0.499825 (Simulation time: 0 hr 17 min 14 sec) 
select_counter is 1020
Heartbeat CPU 0 instructions: 52000000 cycles: 87488360 heartbeat IPC: 0.433609 cumulative IPC: 0.498014 (Simulation time: 0 hr 17 min 37 sec) 
select_counter is 1022
Heartbeat CPU 0 instructions: 53000003 cycles: 89757311 heartbeat IPC: 0.440734 cumulative IPC: 0.496514 (Simulation time: 0 hr 17 min 59 sec) 
select_counter is 1015
Heartbeat CPU 0 instructions: 54000003 cycles: 92016680 heartbeat IPC: 0.442601 cumulative IPC: 0.495143 (Simulation time: 0 hr 18 min 20 sec) 
select_counter is 1010
Heartbeat CPU 0 instructions: 55000002 cycles: 94291650 heartbeat IPC: 0.439566 cumulative IPC: 0.493756 (Simulation time: 0 hr 18 min 43 sec) 
select_counter is 1016
Heartbeat CPU 0 instructions: 56000000 cycles: 96538955 heartbeat IPC: 0.444977 cumulative IPC: 0.492582 (Simulation time: 0 hr 19 min 4 sec) 
select_counter is 1007
Heartbeat CPU 0 instructions: 57000001 cycles: 98785781 heartbeat IPC: 0.445073 cumulative IPC: 0.491466 (Simulation time: 0 hr 19 min 26 sec) 
select_counter is 1021
Heartbeat CPU 0 instructions: 58000000 cycles: 101033049 heartbeat IPC: 0.444984 cumulative IPC: 0.490398 (Simulation time: 0 hr 19 min 49 sec) 
select_counter is 1019
Heartbeat CPU 0 instructions: 59000000 cycles: 103269696 heartbeat IPC: 0.447098 cumulative IPC: 0.489431 (Simulation time: 0 hr 20 min 11 sec) 
select_counter is 1000
Heartbeat CPU 0 instructions: 60000000 cycles: 105487325 heartbeat IPC: 0.450932 cumulative IPC: 0.488597 (Simulation time: 0 hr 20 min 33 sec) 
select_counter is 980
Heartbeat CPU 0 instructions: 61000001 cycles: 107710942 heartbeat IPC: 0.449718 cumulative IPC: 0.48777 (Simulation time: 0 hr 20 min 55 sec) 
select_counter is 917
Heartbeat CPU 0 instructions: 62000000 cycles: 109962869 heartbeat IPC: 0.444064 cumulative IPC: 0.486848 (Simulation time: 0 hr 21 min 17 sec) 
select_counter is 749
Heartbeat CPU 0 instructions: 63000001 cycles: 112141435 heartbeat IPC: 0.459018 cumulative IPC: 0.486292 (Simulation time: 0 hr 21 min 37 sec) 
select_counter is 347
Heartbeat CPU 0 instructions: 64000000 cycles: 114251634 heartbeat IPC: 0.473888 cumulative IPC: 0.486057 (Simulation time: 0 hr 21 min 57 sec) 
select_counter is 708
Heartbeat CPU 0 instructions: 65000000 cycles: 116303715 heartbeat IPC: 0.48731 cumulative IPC: 0.486079 (Simulation time: 0 hr 22 min 17 sec) 
select_counter is 660
Heartbeat CPU 0 instructions: 66000001 cycles: 118375652 heartbeat IPC: 0.482641 cumulative IPC: 0.486017 (Simulation time: 0 hr 22 min 36 sec) 
select_counter is 681
Heartbeat CPU 0 instructions: 67000000 cycles: 120389778 heartbeat IPC: 0.496493 cumulative IPC: 0.486197 (Simulation time: 0 hr 22 min 56 sec) 
select_counter is 769
Heartbeat CPU 0 instructions: 68000000 cycles: 122423101 heartbeat IPC: 0.491806 cumulative IPC: 0.486293 (Simulation time: 0 hr 23 min 16 sec) 
select_counter is 925
Heartbeat CPU 0 instructions: 69000002 cycles: 124411644 heartbeat IPC: 0.502882 cumulative IPC: 0.486565 (Simulation time: 0 hr 23 min 37 sec) 
select_counter is 1022
Heartbeat CPU 0 instructions: 70000001 cycles: 126471278 heartbeat IPC: 0.485523 cumulative IPC: 0.486548 (Simulation time: 0 hr 23 min 57 sec) 
select_counter is 1021
Heartbeat CPU 0 instructions: 71000000 cycles: 128506666 heartbeat IPC: 0.491306 cumulative IPC: 0.486625 (Simulation time: 0 hr 24 min 17 sec) 
select_counter is 1022
Heartbeat CPU 0 instructions: 72000000 cycles: 130492456 heartbeat IPC: 0.503578 cumulative IPC: 0.486889 (Simulation time: 0 hr 24 min 37 sec) 
select_counter is 1022
Heartbeat CPU 0 instructions: 73000002 cycles: 132558701 heartbeat IPC: 0.483971 cumulative IPC: 0.486843 (Simulation time: 0 hr 24 min 58 sec) 
select_counter is 1021
Heartbeat CPU 0 instructions: 74000002 cycles: 134595956 heartbeat IPC: 0.490857 cumulative IPC: 0.486905 (Simulation time: 0 hr 25 min 17 sec) 
select_counter is 1021
Heartbeat CPU 0 instructions: 75000001 cycles: 136655930 heartbeat IPC: 0.485443 cumulative IPC: 0.486882 (Simulation time: 0 hr 25 min 37 sec) 
select_counter is 1022
Heartbeat CPU 0 instructions: 76000000 cycles: 138682444 heartbeat IPC: 0.493458 cumulative IPC: 0.486981 (Simulation time: 0 hr 25 min 57 sec) 
select_counter is 1023
Heartbeat CPU 0 instructions: 77000000 cycles: 140728886 heartbeat IPC: 0.488653 cumulative IPC: 0.487006 (Simulation time: 0 hr 26 min 18 sec) 
select_counter is 1016
Heartbeat CPU 0 instructions: 78000002 cycles: 142822812 heartbeat IPC: 0.477573 cumulative IPC: 0.486864 (Simulation time: 0 hr 26 min 38 sec) 
select_counter is 1007
Heartbeat CPU 0 instructions: 79000001 cycles: 144859011 heartbeat IPC: 0.491111 cumulative IPC: 0.486925 (Simulation time: 0 hr 26 min 59 sec) 
select_counter is 990
Heartbeat CPU 0 instructions: 80000000 cycles: 146946438 heartbeat IPC: 0.479058 cumulative IPC: 0.486811 (Simulation time: 0 hr 27 min 18 sec) 
select_counter is 974
Heartbeat CPU 0 instructions: 81000000 cycles: 149006435 heartbeat IPC: 0.485438 cumulative IPC: 0.486792 (Simulation time: 0 hr 27 min 38 sec) 
select_counter is 850
Heartbeat CPU 0 instructions: 82000000 cycles: 151041305 heartbeat IPC: 0.491432 cumulative IPC: 0.486855 (Simulation time: 0 hr 27 min 58 sec) 
select_counter is 804
Heartbeat CPU 0 instructions: 83000001 cycles: 153349898 heartbeat IPC: 0.433165 cumulative IPC: 0.48603 (Simulation time: 0 hr 28 min 18 sec) 
select_counter is 321
Heartbeat CPU 0 instructions: 84000000 cycles: 155769742 heartbeat IPC: 0.413249 cumulative IPC: 0.484876 (Simulation time: 0 hr 28 min 46 sec) 
select_counter is 785
Heartbeat CPU 0 instructions: 85000001 cycles: 158160786 heartbeat IPC: 0.418228 cumulative IPC: 0.483848 (Simulation time: 0 hr 29 min 18 sec) 
select_counter is 785
Heartbeat CPU 0 instructions: 86000001 cycles: 160561340 heartbeat IPC: 0.416571 cumulative IPC: 0.482822 (Simulation time: 0 hr 29 min 41 sec) 
select_counter is 887
Heartbeat CPU 0 instructions: 87000003 cycles: 162930179 heartbeat IPC: 0.422149 cumulative IPC: 0.481923 (Simulation time: 0 hr 30 min 3 sec) 
select_counter is 1021
Heartbeat CPU 0 instructions: 88000000 cycles: 165307710 heartbeat IPC: 0.420603 cumulative IPC: 0.481023 (Simulation time: 0 hr 30 min 25 sec) 
select_counter is 1019
Heartbeat CPU 0 instructions: 89000001 cycles: 167691755 heartbeat IPC: 0.419456 cumulative IPC: 0.480131 (Simulation time: 0 hr 30 min 53 sec) 
select_counter is 1020
Heartbeat CPU 0 instructions: 90000000 cycles: 170022654 heartbeat IPC: 0.429019 cumulative IPC: 0.479417 (Simulation time: 0 hr 31 min 14 sec) 
select_counter is 1023
Heartbeat CPU 0 instructions: 91000002 cycles: 172399892 heartbeat IPC: 0.420657 cumulative IPC: 0.478592 (Simulation time: 0 hr 31 min 36 sec) 
select_counter is 1016
Heartbeat CPU 0 instructions: 92000000 cycles: 174776745 heartbeat IPC: 0.420724 cumulative IPC: 0.477791 (Simulation time: 0 hr 31 min 57 sec) 
select_counter is 1021
Heartbeat CPU 0 instructions: 93000003 cycles: 177151704 heartbeat IPC: 0.421061 cumulative IPC: 0.477016 (Simulation time: 0 hr 32 min 17 sec) 
select_counter is 1023
Heartbeat CPU 0 instructions: 94000000 cycles: 179542963 heartbeat IPC: 0.418188 cumulative IPC: 0.476219 (Simulation time: 0 hr 32 min 37 sec) 
select_counter is 1010
Heartbeat CPU 0 instructions: 95000002 cycles: 181970353 heartbeat IPC: 0.411966 cumulative IPC: 0.475347 (Simulation time: 0 hr 32 min 59 sec) 
select_counter is 1013
Heartbeat CPU 0 instructions: 96000000 cycles: 184387585 heartbeat IPC: 0.413696 cumulative IPC: 0.474524 (Simulation time: 0 hr 33 min 19 sec) 
select_counter is 990
Heartbeat CPU 0 instructions: 97000001 cycles: 186815781 heartbeat IPC: 0.411829 cumulative IPC: 0.473695 (Simulation time: 0 hr 33 min 39 sec) 
select_counter is 878
Heartbeat CPU 0 instructions: 98000002 cycles: 189178003 heartbeat IPC: 0.423331 cumulative IPC: 0.473056 (Simulation time: 0 hr 33 min 59 sec) 
select_counter is 819
Heartbeat CPU 0 instructions: 99000002 cycles: 190741105 heartbeat IPC: 0.639754 cumulative IPC: 0.474445 (Simulation time: 0 hr 34 min 19 sec) 
select_counter is 416
Heartbeat CPU 0 instructions: 100000000 cycles: 192175406 heartbeat IPC: 0.697202 cumulative IPC: 0.476135 (Simulation time: 0 hr 34 min 39 sec) 
select_counter is 125
Heartbeat CPU 0 instructions: 101000000 cycles: 193602322 heartbeat IPC: 0.700812 cumulative IPC: 0.477819 (Simulation time: 0 hr 35 min 0 sec) 
select_counter is 135
Heartbeat CPU 0 instructions: 102000003 cycles: 195030217 heartbeat IPC: 0.700334 cumulative IPC: 0.479474 (Simulation time: 0 hr 35 min 21 sec) 
select_counter is 169
Heartbeat CPU 0 instructions: 103000002 cycles: 196459298 heartbeat IPC: 0.69975 cumulative IPC: 0.481103 (Simulation time: 0 hr 35 min 41 sec) 
select_counter is 255
Heartbeat CPU 0 instructions: 104000000 cycles: 197887702 heartbeat IPC: 0.700081 cumulative IPC: 0.482709 (Simulation time: 0 hr 36 min 0 sec) 
select_counter is 395
Heartbeat CPU 0 instructions: 105000000 cycles: 199312654 heartbeat IPC: 0.701778 cumulative IPC: 0.4843 (Simulation time: 0 hr 36 min 20 sec) 
select_counter is 481
Heartbeat CPU 0 instructions: 106000001 cycles: 200734843 heartbeat IPC: 0.703142 cumulative IPC: 0.485876 (Simulation time: 0 hr 36 min 40 sec) 
select_counter is 587
Heartbeat CPU 0 instructions: 107000000 cycles: 202157023 heartbeat IPC: 0.703145 cumulative IPC: 0.487428 (Simulation time: 0 hr 36 min 59 sec) 
select_counter is 682
Heartbeat CPU 0 instructions: 108000000 cycles: 203579720 heartbeat IPC: 0.70289 cumulative IPC: 0.488958 (Simulation time: 0 hr 37 min 18 sec) 
select_counter is 791
Heartbeat CPU 0 instructions: 109000001 cycles: 205006177 heartbeat IPC: 0.701038 cumulative IPC: 0.490457 (Simulation time: 0 hr 37 min 37 sec) 
select_counter is 809
Heartbeat CPU 0 instructions: 110000000 cycles: 206431641 heartbeat IPC: 0.701525 cumulative IPC: 0.491937 (Simulation time: 0 hr 37 min 55 sec) 
select_counter is 848
Finished CPU 0 instructions: 100000001 cycles: 203278191 cummulative IPC: 0.491937 (Simulation time: 0 hr 37 min 55 sec) 

ChampSim completed all CPUs

Region of Interest Statistics

CPU 0 cummulative IPC: 0.491937 instructions: 100000001 cycles: 203278191
LLC TOTAL     ACCESS:    4047262  HIT:     208576  MISS:    3838686
LLC LOAD      ACCESS:     834118  HIT:      24871  MISS:     809247
LLC RFO       ACCESS:         24  HIT:         10  MISS:         14
LLC PREFETCH  ACCESS:    2172684  HIT:      76041  MISS:    2096643
LLC WRITEBACK ACCESS:    1040436  HIT:     107654  MISS:     932782
Ship samples: 
6, 53, 69, 100, 144, 169, 223, 237, 285, 295, 324, 371, 387, 429, 466, 483, 528, 570, 599, 621, 652, 700, 719, 758, 792, 821, 854, 889, 918, 949, 989, 1011, 1031, 1069, 1109, 1138, 1169, 1211, 1235, 1267, 1309, 1318, 1368, 1385, 1434, 1457, 1483, 1517, 1548, 1593, 1615, 1646, 1672, 1724, 1745, 1771, 1823, 1845, 1873, 1894, 1949, 1955, 2012, 2044, 
Lime duel samples: 
1, 35, 66, 127, 152, 173, 212, 249, 267, 302, 329, 376, 397, 442, 449, 493, 536, 568, 597, 638, 648, 694, 715, 746, 780, 829, 860, 873, 899, 954, 963, 1005, 1045, 1064, 1094, 1141, 1164, 1213, 1243, 1256, 1296, 1327, 1350, 1407, 1422, 1470, 1495, 1508, 1555, 1594, 1602, 1643, 1664, 1705, 1755, 1775, 1807, 1842, 1879, 1919, 1931, 1975, 1993, 2032, 
Lime samples: 
1, 127, 212, 302, 397, 493, 597, 694, 780, 873, 963, 1064, 1164, 1256, 1350, 1470, 1555, 1643, 1755, 1842, 1931, 
Insertion Distribution: 
	LOAD 16013 0 0 0 0 0 19742 186396 
	RFO 0 0 0 0 0 0 3 0 
	PREF 0 7542 0 0 0 0 36532 762206 
	WRITEBACK 0 0 0 0 0 0 0 175078 
Total Prefetch Downgrades: 4322
