
*** ChampSim Multicore Out-of-Order Simulator ***

Warmup Instructions: 10000000
Simulation Instructions: 100000000
Configuration: 2
Number of CPUs: 1
LLC sets: 2048
LLC ways: 16
Off-chip DRAM Channels: 1 Width: 64-bit Data Rate: 1600 MT/s

CPU 0 runs /datasets/cs240c-wi22-a00-public/data/Assignment2-gz/GemsFDTD_716B.trace.gz
CPU 0 L1D next line prefetcher
CPU 0 L2C IP-based stride prefetcher
Heartbeat CPU 0 instructions: 1000000 cycles: 415045 heartbeat IPC: 2.40938 cumulative IPC: 2.40938 (Simulation time: 0 hr 0 min 20 sec) 
select_counter is 512
Heartbeat CPU 0 instructions: 2000003 cycles: 829979 heartbeat IPC: 2.41003 cumulative IPC: 2.4097 (Simulation time: 0 hr 0 min 39 sec) 
select_counter is 511
Heartbeat CPU 0 instructions: 3000000 cycles: 1280245 heartbeat IPC: 2.2209 cumulative IPC: 2.3433 (Simulation time: 0 hr 0 min 57 sec) 
select_counter is 235
Heartbeat CPU 0 instructions: 4000000 cycles: 1737276 heartbeat IPC: 2.18804 cumulative IPC: 2.30246 (Simulation time: 0 hr 1 min 17 sec) 
select_counter is 193
Heartbeat CPU 0 instructions: 5000000 cycles: 2152258 heartbeat IPC: 2.40974 cumulative IPC: 2.32314 (Simulation time: 0 hr 1 min 36 sec) 
select_counter is 196
Heartbeat CPU 0 instructions: 6000000 cycles: 2567277 heartbeat IPC: 2.40953 cumulative IPC: 2.33711 (Simulation time: 0 hr 1 min 55 sec) 
select_counter is 208
Heartbeat CPU 0 instructions: 7000000 cycles: 2982280 heartbeat IPC: 2.40962 cumulative IPC: 2.3472 (Simulation time: 0 hr 2 min 16 sec) 
select_counter is 223
Heartbeat CPU 0 instructions: 8000000 cycles: 3395206 heartbeat IPC: 2.42174 cumulative IPC: 2.35626 (Simulation time: 0 hr 2 min 36 sec) 
select_counter is 243
Heartbeat CPU 0 instructions: 9000001 cycles: 3840445 heartbeat IPC: 2.24599 cumulative IPC: 2.34348 (Simulation time: 0 hr 3 min 0 sec) 
select_counter is 533
Heartbeat CPU 0 instructions: 10000002 cycles: 4355212 heartbeat IPC: 1.94263 cumulative IPC: 2.2961 (Simulation time: 0 hr 3 min 27 sec) 
select_counter is 119

Warmup complete CPU 0 instructions: 10000002 cycles: 4355212 (Simulation time: 0 hr 3 min 27 sec) 

Heartbeat CPU 0 instructions: 11000000 cycles: 7874343 heartbeat IPC: 0.28416 cumulative IPC: 0.28416 (Simulation time: 0 hr 4 min 9 sec) 
select_counter is 897
Heartbeat CPU 0 instructions: 12000000 cycles: 11410720 heartbeat IPC: 0.282775 cumulative IPC: 0.283466 (Simulation time: 0 hr 4 min 53 sec) 
select_counter is 546
Heartbeat CPU 0 instructions: 13000000 cycles: 14933471 heartbeat IPC: 0.283869 cumulative IPC: 0.2836 (Simulation time: 0 hr 5 min 36 sec) 
select_counter is 105
Heartbeat CPU 0 instructions: 14000000 cycles: 18605635 heartbeat IPC: 0.272319 cumulative IPC: 0.280693 (Simulation time: 0 hr 6 min 28 sec) 
select_counter is 777
Heartbeat CPU 0 instructions: 15000000 cycles: 22469003 heartbeat IPC: 0.258842 cumulative IPC: 0.276033 (Simulation time: 0 hr 7 min 10 sec) 
select_counter is 646
Heartbeat CPU 0 instructions: 16000000 cycles: 26274696 heartbeat IPC: 0.262764 cumulative IPC: 0.273729 (Simulation time: 0 hr 7 min 51 sec) 
select_counter is 221
Heartbeat CPU 0 instructions: 17000002 cycles: 30024962 heartbeat IPC: 0.266648 cumulative IPC: 0.272695 (Simulation time: 0 hr 8 min 33 sec) 
select_counter is 591
Heartbeat CPU 0 instructions: 18000003 cycles: 33810828 heartbeat IPC: 0.264141 cumulative IPC: 0.271595 (Simulation time: 0 hr 9 min 14 sec) 
select_counter is 442
Heartbeat CPU 0 instructions: 19000000 cycles: 37575725 heartbeat IPC: 0.265611 cumulative IPC: 0.270917 (Simulation time: 0 hr 9 min 55 sec) 
select_counter is 232
Heartbeat CPU 0 instructions: 20000000 cycles: 40438389 heartbeat IPC: 0.349325 cumulative IPC: 0.277137 (Simulation time: 0 hr 10 min 31 sec) 
select_counter is 723
Heartbeat CPU 0 instructions: 21000000 cycles: 42934739 heartbeat IPC: 0.400585 cumulative IPC: 0.285125 (Simulation time: 0 hr 11 min 6 sec) 
select_counter is 611
Heartbeat CPU 0 instructions: 22000003 cycles: 45379368 heartbeat IPC: 0.409061 cumulative IPC: 0.292511 (Simulation time: 0 hr 11 min 41 sec) 
select_counter is 533
Heartbeat CPU 0 instructions: 23000002 cycles: 47830376 heartbeat IPC: 0.407995 cumulative IPC: 0.299021 (Simulation time: 0 hr 12 min 15 sec) 
select_counter is 575
Heartbeat CPU 0 instructions: 24000000 cycles: 50325865 heartbeat IPC: 0.400722 cumulative IPC: 0.304542 (Simulation time: 0 hr 12 min 51 sec) 
select_counter is 540
Heartbeat CPU 0 instructions: 25000002 cycles: 52880329 heartbeat IPC: 0.391472 cumulative IPC: 0.309118 (Simulation time: 0 hr 13 min 25 sec) 
select_counter is 724
Heartbeat CPU 0 instructions: 26000002 cycles: 55112335 heartbeat IPC: 0.448027 cumulative IPC: 0.315227 (Simulation time: 0 hr 13 min 58 sec) 
select_counter is 953
Heartbeat CPU 0 instructions: 27000002 cycles: 57303465 heartbeat IPC: 0.456386 cumulative IPC: 0.321068 (Simulation time: 0 hr 14 min 32 sec) 
select_counter is 953
Heartbeat CPU 0 instructions: 28000000 cycles: 59446916 heartbeat IPC: 0.466536 cumulative IPC: 0.326728 (Simulation time: 0 hr 15 min 6 sec) 
select_counter is 123
Heartbeat CPU 0 instructions: 29000002 cycles: 61609296 heartbeat IPC: 0.462454 cumulative IPC: 0.331854 (Simulation time: 0 hr 15 min 39 sec) 
select_counter is 341
Heartbeat CPU 0 instructions: 30000001 cycles: 63758354 heartbeat IPC: 0.46532 cumulative IPC: 0.336682 (Simulation time: 0 hr 16 min 12 sec) 
select_counter is 180
Heartbeat CPU 0 instructions: 31000002 cycles: 65418325 heartbeat IPC: 0.602421 cumulative IPC: 0.343906 (Simulation time: 0 hr 16 min 44 sec) 
select_counter is 186
Heartbeat CPU 0 instructions: 32000000 cycles: 67003319 heartbeat IPC: 0.630916 cumulative IPC: 0.351168 (Simulation time: 0 hr 17 min 16 sec) 
select_counter is 1005
Heartbeat CPU 0 instructions: 33000000 cycles: 68591524 heartbeat IPC: 0.629642 cumulative IPC: 0.358053 (Simulation time: 0 hr 17 min 47 sec) 
select_counter is 644
Heartbeat CPU 0 instructions: 34000001 cycles: 70204820 heartbeat IPC: 0.61985 cumulative IPC: 0.364467 (Simulation time: 0 hr 18 min 17 sec) 
select_counter is 230
Heartbeat CPU 0 instructions: 35000001 cycles: 71718777 heartbeat IPC: 0.660521 cumulative IPC: 0.37112 (Simulation time: 0 hr 18 min 47 sec) 
select_counter is 785
Heartbeat CPU 0 instructions: 36000000 cycles: 73403861 heartbeat IPC: 0.593442 cumulative IPC: 0.376546 (Simulation time: 0 hr 19 min 19 sec) 
select_counter is 761
Heartbeat CPU 0 instructions: 37000002 cycles: 75365758 heartbeat IPC: 0.509712 cumulative IPC: 0.380225 (Simulation time: 0 hr 19 min 52 sec) 
select_counter is 132
Heartbeat CPU 0 instructions: 38000002 cycles: 76962953 heartbeat IPC: 0.626098 cumulative IPC: 0.385634 (Simulation time: 0 hr 20 min 24 sec) 
select_counter is 967
Heartbeat CPU 0 instructions: 39000000 cycles: 78573334 heartbeat IPC: 0.62097 cumulative IPC: 0.39074 (Simulation time: 0 hr 20 min 56 sec) 
select_counter is 526
Heartbeat CPU 0 instructions: 40000000 cycles: 80237319 heartbeat IPC: 0.600967 cumulative IPC: 0.39535 (Simulation time: 0 hr 21 min 28 sec) 
select_counter is 297
Heartbeat CPU 0 instructions: 41000003 cycles: 81863806 heartbeat IPC: 0.614824 cumulative IPC: 0.399956 (Simulation time: 0 hr 22 min 0 sec) 
select_counter is 268
Heartbeat CPU 0 instructions: 42000000 cycles: 83457374 heartbeat IPC: 0.627521 cumulative IPC: 0.40454 (Simulation time: 0 hr 22 min 30 sec) 
select_counter is 119
Heartbeat CPU 0 instructions: 43000002 cycles: 86552391 heartbeat IPC: 0.323101 cumulative IPC: 0.401474 (Simulation time: 0 hr 23 min 8 sec) 
select_counter is 735
Heartbeat CPU 0 instructions: 44000000 cycles: 90059681 heartbeat IPC: 0.28512 cumulative IPC: 0.396712 (Simulation time: 0 hr 23 min 48 sec) 
select_counter is 642
Heartbeat CPU 0 instructions: 45000003 cycles: 93576076 heartbeat IPC: 0.284383 cumulative IPC: 0.392285 (Simulation time: 0 hr 24 min 29 sec) 
select_counter is 210
Heartbeat CPU 0 instructions: 46000000 cycles: 97069600 heartbeat IPC: 0.286243 cumulative IPC: 0.388289 (Simulation time: 0 hr 25 min 8 sec) 
select_counter is 878
Heartbeat CPU 0 instructions: 47000000 cycles: 100582695 heartbeat IPC: 0.284649 cumulative IPC: 0.384506 (Simulation time: 0 hr 25 min 47 sec) 
select_counter is 641
Heartbeat CPU 0 instructions: 48000000 cycles: 104288508 heartbeat IPC: 0.269846 cumulative IPC: 0.380254 (Simulation time: 0 hr 26 min 27 sec) 
select_counter is 426
Heartbeat CPU 0 instructions: 49000000 cycles: 108035205 heartbeat IPC: 0.266902 cumulative IPC: 0.376157 (Simulation time: 0 hr 27 min 8 sec) 
select_counter is 1009
Heartbeat CPU 0 instructions: 50000001 cycles: 111786672 heartbeat IPC: 0.266563 cumulative IPC: 0.37233 (Simulation time: 0 hr 27 min 50 sec) 
select_counter is 817
Heartbeat CPU 0 instructions: 51000000 cycles: 115565255 heartbeat IPC: 0.264649 cumulative IPC: 0.368672 (Simulation time: 0 hr 28 min 30 sec) 
select_counter is 441
Heartbeat CPU 0 instructions: 52000000 cycles: 119324934 heartbeat IPC: 0.26598 cumulative IPC: 0.365314 (Simulation time: 0 hr 29 min 19 sec) 
select_counter is 157
Heartbeat CPU 0 instructions: 53000000 cycles: 123119981 heartbeat IPC: 0.263501 cumulative IPC: 0.36206 (Simulation time: 0 hr 30 min 14 sec) 
select_counter is 200
Heartbeat CPU 0 instructions: 54000001 cycles: 125206675 heartbeat IPC: 0.479227 cumulative IPC: 0.364083 (Simulation time: 0 hr 30 min 47 sec) 
select_counter is 615
Heartbeat CPU 0 instructions: 55000000 cycles: 127327713 heartbeat IPC: 0.471467 cumulative IPC: 0.365935 (Simulation time: 0 hr 31 min 19 sec) 
select_counter is 912
Heartbeat CPU 0 instructions: 56000000 cycles: 129469227 heartbeat IPC: 0.466959 cumulative IPC: 0.367665 (Simulation time: 0 hr 31 min 51 sec) 
select_counter is 964
Heartbeat CPU 0 instructions: 57000002 cycles: 131588620 heartbeat IPC: 0.471834 cumulative IPC: 0.3694 (Simulation time: 0 hr 32 min 22 sec) 
select_counter is 135
Heartbeat CPU 0 instructions: 58000001 cycles: 133630992 heartbeat IPC: 0.489626 cumulative IPC: 0.371299 (Simulation time: 0 hr 32 min 54 sec) 
select_counter is 265
Heartbeat CPU 0 instructions: 59000002 cycles: 135972549 heartbeat IPC: 0.427067 cumulative IPC: 0.372291 (Simulation time: 0 hr 33 min 28 sec) 
select_counter is 527
Heartbeat CPU 0 instructions: 60000000 cycles: 137831660 heartbeat IPC: 0.53789 cumulative IPC: 0.374598 (Simulation time: 0 hr 33 min 59 sec) 
select_counter is 820
Heartbeat CPU 0 instructions: 61000002 cycles: 139725033 heartbeat IPC: 0.528159 cumulative IPC: 0.376746 (Simulation time: 0 hr 34 min 31 sec) 
select_counter is 272
Heartbeat CPU 0 instructions: 62000000 cycles: 141602903 heartbeat IPC: 0.532517 cumulative IPC: 0.378877 (Simulation time: 0 hr 35 min 4 sec) 
select_counter is 401
Heartbeat CPU 0 instructions: 63000000 cycles: 143442277 heartbeat IPC: 0.543663 cumulative IPC: 0.381056 (Simulation time: 0 hr 35 min 34 sec) 
select_counter is 571
Heartbeat CPU 0 instructions: 64000000 cycles: 145531092 heartbeat IPC: 0.47874 cumulative IPC: 0.382502 (Simulation time: 0 hr 36 min 3 sec) 
select_counter is 266
Heartbeat CPU 0 instructions: 65000001 cycles: 147097968 heartbeat IPC: 0.638213 cumulative IPC: 0.385309 (Simulation time: 0 hr 36 min 30 sec) 
select_counter is 108
Heartbeat CPU 0 instructions: 66000001 cycles: 148663156 heartbeat IPC: 0.638901 cumulative IPC: 0.388059 (Simulation time: 0 hr 36 min 56 sec) 
select_counter is 949
Heartbeat CPU 0 instructions: 67000001 cycles: 150262464 heartbeat IPC: 0.62527 cumulative IPC: 0.390659 (Simulation time: 0 hr 37 min 22 sec) 
select_counter is 468
Heartbeat CPU 0 instructions: 68000000 cycles: 151837927 heartbeat IPC: 0.634733 cumulative IPC: 0.393266 (Simulation time: 0 hr 37 min 47 sec) 
select_counter is 143
Heartbeat CPU 0 instructions: 69000002 cycles: 153377637 heartbeat IPC: 0.649474 cumulative IPC: 0.395914 (Simulation time: 0 hr 38 min 12 sec) 
select_counter is 809
Heartbeat CPU 0 instructions: 70000000 cycles: 155257121 heartbeat IPC: 0.53206 cumulative IPC: 0.397609 (Simulation time: 0 hr 38 min 36 sec) 
select_counter is 583
Heartbeat CPU 0 instructions: 71000000 cycles: 156908028 heartbeat IPC: 0.605728 cumulative IPC: 0.399862 (Simulation time: 0 hr 39 min 0 sec) 
select_counter is 339
Heartbeat CPU 0 instructions: 72000000 cycles: 158490348 heartbeat IPC: 0.631983 cumulative IPC: 0.402244 (Simulation time: 0 hr 39 min 23 sec) 
select_counter is 125
Heartbeat CPU 0 instructions: 73000002 cycles: 160098409 heartbeat IPC: 0.621868 cumulative IPC: 0.404512 (Simulation time: 0 hr 39 min 46 sec) 
select_counter is 903
Heartbeat CPU 0 instructions: 74000000 cycles: 161679018 heartbeat IPC: 0.632666 cumulative IPC: 0.406804 (Simulation time: 0 hr 40 min 8 sec) 
select_counter is 652
Heartbeat CPU 0 instructions: 75000000 cycles: 163330835 heartbeat IPC: 0.605394 cumulative IPC: 0.408868 (Simulation time: 0 hr 40 min 29 sec) 
select_counter is 335
Heartbeat CPU 0 instructions: 76000000 cycles: 164930346 heartbeat IPC: 0.625191 cumulative IPC: 0.411023 (Simulation time: 0 hr 40 min 53 sec) 
select_counter is 210
Heartbeat CPU 0 instructions: 77000001 cycles: 168342773 heartbeat IPC: 0.293047 cumulative IPC: 0.408568 (Simulation time: 0 hr 41 min 20 sec) 
select_counter is 925
Heartbeat CPU 0 instructions: 78000000 cycles: 171905603 heartbeat IPC: 0.280675 cumulative IPC: 0.405848 (Simulation time: 0 hr 41 min 45 sec) 
select_counter is 663
Heartbeat CPU 0 instructions: 79000002 cycles: 175479638 heartbeat IPC: 0.279796 cumulative IPC: 0.403215 (Simulation time: 0 hr 42 min 9 sec) 
select_counter is 227
Heartbeat CPU 0 instructions: 80000000 cycles: 179052183 heartbeat IPC: 0.279912 cumulative IPC: 0.400694 (Simulation time: 0 hr 42 min 30 sec) 
select_counter is 47
Heartbeat CPU 0 instructions: 81000000 cycles: 182600517 heartbeat IPC: 0.281822 cumulative IPC: 0.398327 (Simulation time: 0 hr 42 min 51 sec) 
select_counter is 721
Heartbeat CPU 0 instructions: 82000002 cycles: 186385079 heartbeat IPC: 0.264232 cumulative IPC: 0.395539 (Simulation time: 0 hr 43 min 13 sec) 
select_counter is 595
Heartbeat CPU 0 instructions: 83000002 cycles: 190216341 heartbeat IPC: 0.261011 cumulative IPC: 0.392766 (Simulation time: 0 hr 43 min 34 sec) 
select_counter is 367
Heartbeat CPU 0 instructions: 84000000 cycles: 194019689 heartbeat IPC: 0.262926 cumulative IPC: 0.390163 (Simulation time: 0 hr 43 min 53 sec) 
select_counter is 2
Heartbeat CPU 0 instructions: 85000000 cycles: 197817498 heartbeat IPC: 0.26331 cumulative IPC: 0.387672 (Simulation time: 0 hr 44 min 13 sec) 
select_counter is 413
Heartbeat CPU 0 instructions: 86000000 cycles: 201613879 heartbeat IPC: 0.263409 cumulative IPC: 0.385281 (Simulation time: 0 hr 44 min 33 sec) 
select_counter is 1019
Heartbeat CPU 0 instructions: 87000000 cycles: 205021565 heartbeat IPC: 0.293454 cumulative IPC: 0.383722 (Simulation time: 0 hr 44 min 50 sec) 
select_counter is 993
Heartbeat CPU 0 instructions: 88000000 cycles: 207006940 heartbeat IPC: 0.503683 cumulative IPC: 0.384897 (Simulation time: 0 hr 45 min 5 sec) 
select_counter is 366
Heartbeat CPU 0 instructions: 89000001 cycles: 208894399 heartbeat IPC: 0.529813 cumulative IPC: 0.386234 (Simulation time: 0 hr 45 min 19 sec) 
select_counter is 699
Heartbeat CPU 0 instructions: 90000001 cycles: 210849937 heartbeat IPC: 0.511368 cumulative IPC: 0.387419 (Simulation time: 0 hr 45 min 31 sec) 
select_counter is 1012
Heartbeat CPU 0 instructions: 91000001 cycles: 212805698 heartbeat IPC: 0.51131 cumulative IPC: 0.388581 (Simulation time: 0 hr 45 min 42 sec) 
select_counter is 285
Heartbeat CPU 0 instructions: 92000000 cycles: 214723711 heartbeat IPC: 0.521372 cumulative IPC: 0.389792 (Simulation time: 0 hr 45 min 52 sec) 
select_counter is 474
Heartbeat CPU 0 instructions: 93000000 cycles: 216596294 heartbeat IPC: 0.534022 cumulative IPC: 0.391065 (Simulation time: 0 hr 46 min 2 sec) 
select_counter is 703
Heartbeat CPU 0 instructions: 94000001 cycles: 218409581 heartbeat IPC: 0.551485 cumulative IPC: 0.392424 (Simulation time: 0 hr 46 min 12 sec) 
select_counter is 120
Heartbeat CPU 0 instructions: 95000001 cycles: 220158710 heartbeat IPC: 0.571713 cumulative IPC: 0.393877 (Simulation time: 0 hr 46 min 22 sec) 
select_counter is 567
Heartbeat CPU 0 instructions: 96000000 cycles: 221900526 heartbeat IPC: 0.574113 cumulative IPC: 0.39532 (Simulation time: 0 hr 46 min 29 sec) 
select_counter is 905
Heartbeat CPU 0 instructions: 97000001 cycles: 223692049 heartbeat IPC: 0.558185 cumulative IPC: 0.39665 (Simulation time: 0 hr 46 min 36 sec) 
select_counter is 213
Heartbeat CPU 0 instructions: 98000000 cycles: 225553595 heartbeat IPC: 0.537187 cumulative IPC: 0.397833 (Simulation time: 0 hr 46 min 40 sec) 
select_counter is 12
Heartbeat CPU 0 instructions: 99000001 cycles: 227124073 heartbeat IPC: 0.636749 cumulative IPC: 0.399517 (Simulation time: 0 hr 46 min 45 sec) 
select_counter is 684
Heartbeat CPU 0 instructions: 100000000 cycles: 228794759 heartbeat IPC: 0.598556 cumulative IPC: 0.400999 (Simulation time: 0 hr 46 min 49 sec) 
select_counter is 391
Heartbeat CPU 0 instructions: 101000002 cycles: 230335412 heartbeat IPC: 0.649077 cumulative IPC: 0.40269 (Simulation time: 0 hr 46 min 53 sec) 
select_counter is 799
Heartbeat CPU 0 instructions: 102000003 cycles: 231944643 heartbeat IPC: 0.621415 cumulative IPC: 0.404237 (Simulation time: 0 hr 46 min 57 sec) 
select_counter is 457
Heartbeat CPU 0 instructions: 103000000 cycles: 233574153 heartbeat IPC: 0.61368 cumulative IPC: 0.405726 (Simulation time: 0 hr 47 min 1 sec) 
select_counter is 450
Heartbeat CPU 0 instructions: 104000000 cycles: 235400969 heartbeat IPC: 0.547401 cumulative IPC: 0.406846 (Simulation time: 0 hr 47 min 6 sec) 
select_counter is 511
Heartbeat CPU 0 instructions: 105000003 cycles: 237045425 heartbeat IPC: 0.608106 cumulative IPC: 0.408268 (Simulation time: 0 hr 47 min 10 sec) 
select_counter is 251
Heartbeat CPU 0 instructions: 106000001 cycles: 238655080 heartbeat IPC: 0.62125 cumulative IPC: 0.409731 (Simulation time: 0 hr 47 min 14 sec) 
select_counter is 23
Heartbeat CPU 0 instructions: 107000001 cycles: 240249985 heartbeat IPC: 0.626997 cumulative IPC: 0.4112 (Simulation time: 0 hr 47 min 18 sec) 
select_counter is 661
Heartbeat CPU 0 instructions: 108000000 cycles: 241935199 heartbeat IPC: 0.593396 cumulative IPC: 0.412493 (Simulation time: 0 hr 47 min 22 sec) 
select_counter is 408
Heartbeat CPU 0 instructions: 109000000 cycles: 243500460 heartbeat IPC: 0.638871 cumulative IPC: 0.413974 (Simulation time: 0 hr 47 min 26 sec) 
select_counter is 67
Heartbeat CPU 0 instructions: 110000002 cycles: 245398872 heartbeat IPC: 0.526757 cumulative IPC: 0.414863 (Simulation time: 0 hr 47 min 31 sec) 
select_counter is 1008
Finished CPU 0 instructions: 100000000 cycles: 241043660 cummulative IPC: 0.414863 (Simulation time: 0 hr 47 min 31 sec) 

ChampSim completed all CPUs

Region of Interest Statistics

CPU 0 cummulative IPC: 0.414863 instructions: 100000000 cycles: 241043660
LLC TOTAL     ACCESS:   12980499  HIT:    9258543  MISS:    3721956
LLC LOAD      ACCESS:    5287690  HIT:    4256528  MISS:    1031162
LLC RFO       ACCESS:          0  HIT:          0  MISS:          0
LLC PREFETCH  ACCESS:    6781595  HIT:    4102891  MISS:    2678704
LLC WRITEBACK ACCESS:     911214  HIT:     899124  MISS:      12090
Ship samples: 
4, 42, 77, 104, 159, 188, 207, 237, 273, 303, 321, 377, 392, 442, 473, 503, 521, 548, 587, 614, 669, 696, 734, 767, 782, 816, 835, 887, 904, 941, 961, 1008, 1032, 1070, 1098, 1137, 1169, 1195, 1244, 1253, 1284, 1338, 1347, 1403, 1436, 1458, 1485, 1504, 1542, 1577, 1607, 1661, 1687, 1710, 1730, 1790, 1801, 1837, 1867, 1912, 1938, 1957, 1997, 2036, 
Lime duel samples: 
5, 61, 74, 106, 147, 177, 206, 251, 275, 297, 346, 353, 414, 433, 467, 511, 534, 545, 595, 620, 650, 675, 716, 741, 783, 809, 847, 878, 916, 938, 967, 996, 1026, 1059, 1108, 1144, 1165, 1213, 1238, 1274, 1291, 1333, 1351, 1394, 1419, 1449, 1502, 1506, 1557, 1582, 1616, 1658, 1688, 1704, 1747, 1780, 1798, 1849, 1869, 1897, 1927, 1963, 2015, 2022, 
Lime samples: 
5, 106, 206, 297, 414, 511, 595, 675, 783, 878, 967, 1059, 1165, 1274, 1351, 1449, 1557, 1658, 1747, 1849, 1927, 
Insertion Distribution: 
	LOAD 130716 0 0 0 0 0 28715 397101 
	RFO 22 0 0 0 0 0 15573 0 
	PREF 0 456217 0 0 0 0 65766 403116 
	WRITEBACK 0 0 0 0 0 0 0 5796 
Total Prefetch Downgrades: 360932
