
*** ChampSim Multicore Out-of-Order Simulator ***

Warmup Instructions: 10000000
Simulation Instructions: 100000000
Configuration: 2
Number of CPUs: 1
LLC sets: 2048
LLC ways: 16
Off-chip DRAM Channels: 1 Width: 64-bit Data Rate: 1600 MT/s

CPU 0 runs /datasets/cs240c-wi22-a00-public/data/Assignment2-gz/perlbench_53B.trace.gz
CPU 0 L1D next line prefetcher
CPU 0 L2C IP-based stride prefetcher
Heartbeat CPU 0 instructions: 1000000 cycles: 615802 heartbeat IPC: 1.6239 cumulative IPC: 1.6239 (Simulation time: 0 hr 0 min 26 sec) 
select_counter is 475
Heartbeat CPU 0 instructions: 2000001 cycles: 1252966 heartbeat IPC: 1.56946 cumulative IPC: 1.59621 (Simulation time: 0 hr 0 min 51 sec) 
select_counter is 437
Heartbeat CPU 0 instructions: 3000002 cycles: 1908452 heartbeat IPC: 1.52559 cumulative IPC: 1.57196 (Simulation time: 0 hr 1 min 17 sec) 
select_counter is 400
Heartbeat CPU 0 instructions: 4000000 cycles: 2523959 heartbeat IPC: 1.62467 cumulative IPC: 1.58481 (Simulation time: 0 hr 1 min 40 sec) 
select_counter is 296
Heartbeat CPU 0 instructions: 5000001 cycles: 3151972 heartbeat IPC: 1.59233 cumulative IPC: 1.58631 (Simulation time: 0 hr 2 min 7 sec) 
select_counter is 250
Heartbeat CPU 0 instructions: 6000001 cycles: 3767480 heartbeat IPC: 1.62467 cumulative IPC: 1.59258 (Simulation time: 0 hr 2 min 35 sec) 
select_counter is 201
Heartbeat CPU 0 instructions: 7000002 cycles: 4390287 heartbeat IPC: 1.60564 cumulative IPC: 1.59443 (Simulation time: 0 hr 3 min 4 sec) 
select_counter is 75
Heartbeat CPU 0 instructions: 8000000 cycles: 5000685 heartbeat IPC: 1.63827 cumulative IPC: 1.59978 (Simulation time: 0 hr 3 min 33 sec) 
select_counter is 27
Heartbeat CPU 0 instructions: 9000000 cycles: 5652422 heartbeat IPC: 1.53436 cumulative IPC: 1.59224 (Simulation time: 0 hr 4 min 4 sec) 
select_counter is 983
Heartbeat CPU 0 instructions: 10000001 cycles: 6287638 heartbeat IPC: 1.57427 cumulative IPC: 1.59042 (Simulation time: 0 hr 4 min 34 sec) 
select_counter is 867

Warmup complete CPU 0 instructions: 10000001 cycles: 6287638 (Simulation time: 0 hr 4 min 34 sec) 

Heartbeat CPU 0 instructions: 11000000 cycles: 9169503 heartbeat IPC: 0.346997 cumulative IPC: 0.346997 (Simulation time: 0 hr 5 min 2 sec) 
select_counter is 750
Heartbeat CPU 0 instructions: 12000000 cycles: 12032763 heartbeat IPC: 0.349252 cumulative IPC: 0.348121 (Simulation time: 0 hr 5 min 33 sec) 
select_counter is 670
Heartbeat CPU 0 instructions: 13000000 cycles: 14383778 heartbeat IPC: 0.425348 cumulative IPC: 0.370547 (Simulation time: 0 hr 5 min 59 sec) 
select_counter is 638
Heartbeat CPU 0 instructions: 14000000 cycles: 16892497 heartbeat IPC: 0.39861 cumulative IPC: 0.377185 (Simulation time: 0 hr 6 min 31 sec) 
select_counter is 580
Heartbeat CPU 0 instructions: 15000001 cycles: 19649388 heartbeat IPC: 0.362728 cumulative IPC: 0.374202 (Simulation time: 0 hr 7 min 6 sec) 
select_counter is 478
Heartbeat CPU 0 instructions: 16000000 cycles: 22313435 heartbeat IPC: 0.375368 cumulative IPC: 0.374396 (Simulation time: 0 hr 7 min 40 sec) 
select_counter is 439
Heartbeat CPU 0 instructions: 17000001 cycles: 24986428 heartbeat IPC: 0.374113 cumulative IPC: 0.374356 (Simulation time: 0 hr 8 min 18 sec) 
select_counter is 391
Heartbeat CPU 0 instructions: 18000002 cycles: 27840888 heartbeat IPC: 0.350329 cumulative IPC: 0.371174 (Simulation time: 0 hr 8 min 53 sec) 
select_counter is 323
Heartbeat CPU 0 instructions: 19000000 cycles: 30662350 heartbeat IPC: 0.354425 cumulative IPC: 0.369235 (Simulation time: 0 hr 9 min 25 sec) 
select_counter is 200
Heartbeat CPU 0 instructions: 20000000 cycles: 33515855 heartbeat IPC: 0.350446 cumulative IPC: 0.367266 (Simulation time: 0 hr 9 min 59 sec) 
select_counter is 165
Heartbeat CPU 0 instructions: 21000000 cycles: 35874770 heartbeat IPC: 0.423924 cumulative IPC: 0.371783 (Simulation time: 0 hr 10 min 33 sec) 
select_counter is 138
Heartbeat CPU 0 instructions: 22000000 cycles: 37951903 heartbeat IPC: 0.481433 cumulative IPC: 0.378976 (Simulation time: 0 hr 11 min 7 sec) 
select_counter is 111
Heartbeat CPU 0 instructions: 23000001 cycles: 39882695 heartbeat IPC: 0.517923 cumulative IPC: 0.386962 (Simulation time: 0 hr 11 min 40 sec) 
select_counter is 71
Heartbeat CPU 0 instructions: 24000000 cycles: 42278591 heartbeat IPC: 0.41738 cumulative IPC: 0.388987 (Simulation time: 0 hr 12 min 16 sec) 
select_counter is 57
Heartbeat CPU 0 instructions: 25000000 cycles: 44290243 heartbeat IPC: 0.497104 cumulative IPC: 0.39471 (Simulation time: 0 hr 12 min 42 sec) 
select_counter is 56
Heartbeat CPU 0 instructions: 26000001 cycles: 46275361 heartbeat IPC: 0.503749 cumulative IPC: 0.400123 (Simulation time: 0 hr 13 min 17 sec) 
select_counter is 51
Heartbeat CPU 0 instructions: 27000002 cycles: 48569848 heartbeat IPC: 0.435828 cumulative IPC: 0.40206 (Simulation time: 0 hr 13 min 50 sec) 
select_counter is 35
Heartbeat CPU 0 instructions: 28000000 cycles: 51133370 heartbeat IPC: 0.390088 cumulative IPC: 0.401376 (Simulation time: 0 hr 14 min 21 sec) 
select_counter is 1002
Heartbeat CPU 0 instructions: 29000000 cycles: 53454201 heartbeat IPC: 0.43088 cumulative IPC: 0.402828 (Simulation time: 0 hr 14 min 52 sec) 
select_counter is 975
Heartbeat CPU 0 instructions: 30000000 cycles: 55496791 heartbeat IPC: 0.489575 cumulative IPC: 0.406428 (Simulation time: 0 hr 15 min 20 sec) 
select_counter is 957
Heartbeat CPU 0 instructions: 31000001 cycles: 57484472 heartbeat IPC: 0.503099 cumulative IPC: 0.410182 (Simulation time: 0 hr 15 min 44 sec) 
select_counter is 956
Heartbeat CPU 0 instructions: 32000000 cycles: 59482251 heartbeat IPC: 0.500555 cumulative IPC: 0.413576 (Simulation time: 0 hr 16 min 10 sec) 
select_counter is 952
Heartbeat CPU 0 instructions: 33000003 cycles: 61936635 heartbeat IPC: 0.407435 cumulative IPC: 0.413305 (Simulation time: 0 hr 16 min 41 sec) 
select_counter is 888
Heartbeat CPU 0 instructions: 34000000 cycles: 64636831 heartbeat IPC: 0.370342 cumulative IPC: 0.411317 (Simulation time: 0 hr 17 min 13 sec) 
select_counter is 846
Heartbeat CPU 0 instructions: 35000000 cycles: 67189718 heartbeat IPC: 0.391713 cumulative IPC: 0.410495 (Simulation time: 0 hr 17 min 48 sec) 
select_counter is 783
Heartbeat CPU 0 instructions: 36000000 cycles: 69980783 heartbeat IPC: 0.358286 cumulative IPC: 0.408207 (Simulation time: 0 hr 18 min 20 sec) 
select_counter is 752
Heartbeat CPU 0 instructions: 37000002 cycles: 72825274 heartbeat IPC: 0.351557 cumulative IPC: 0.405785 (Simulation time: 0 hr 18 min 57 sec) 
select_counter is 660
Heartbeat CPU 0 instructions: 38000000 cycles: 75705627 heartbeat IPC: 0.347179 cumulative IPC: 0.403354 (Simulation time: 0 hr 19 min 29 sec) 
select_counter is 558
Heartbeat CPU 0 instructions: 39000001 cycles: 78373292 heartbeat IPC: 0.37486 cumulative IPC: 0.402299 (Simulation time: 0 hr 20 min 7 sec) 
select_counter is 493
Heartbeat CPU 0 instructions: 40000000 cycles: 80971374 heartbeat IPC: 0.384899 cumulative IPC: 0.401694 (Simulation time: 0 hr 20 min 43 sec) 
select_counter is 430
Heartbeat CPU 0 instructions: 41000002 cycles: 83852637 heartbeat IPC: 0.347071 cumulative IPC: 0.399665 (Simulation time: 0 hr 21 min 11 sec) 
select_counter is 338
Heartbeat CPU 0 instructions: 42000000 cycles: 86457454 heartbeat IPC: 0.383903 cumulative IPC: 0.399153 (Simulation time: 0 hr 21 min 40 sec) 
select_counter is 302
Heartbeat CPU 0 instructions: 43000002 cycles: 89296859 heartbeat IPC: 0.352187 cumulative IPC: 0.397546 (Simulation time: 0 hr 22 min 10 sec) 
select_counter is 181
Heartbeat CPU 0 instructions: 44000000 cycles: 91963078 heartbeat IPC: 0.375062 cumulative IPC: 0.396847 (Simulation time: 0 hr 22 min 41 sec) 
select_counter is 121
Heartbeat CPU 0 instructions: 45000001 cycles: 93423355 heartbeat IPC: 0.684802 cumulative IPC: 0.401672 (Simulation time: 0 hr 23 min 5 sec) 
select_counter is 97
Heartbeat CPU 0 instructions: 46000000 cycles: 95447499 heartbeat IPC: 0.494036 cumulative IPC: 0.403769 (Simulation time: 0 hr 23 min 30 sec) 
select_counter is 76
Heartbeat CPU 0 instructions: 47000002 cycles: 97362902 heartbeat IPC: 0.522084 cumulative IPC: 0.406257 (Simulation time: 0 hr 23 min 54 sec) 
select_counter is 76
Heartbeat CPU 0 instructions: 48000000 cycles: 99283117 heartbeat IPC: 0.520774 cumulative IPC: 0.408622 (Simulation time: 0 hr 24 min 18 sec) 
select_counter is 76
Heartbeat CPU 0 instructions: 49000000 cycles: 101629938 heartbeat IPC: 0.426108 cumulative IPC: 0.409052 (Simulation time: 0 hr 24 min 45 sec) 
select_counter is 27
Heartbeat CPU 0 instructions: 50000002 cycles: 103493867 heartbeat IPC: 0.536502 cumulative IPC: 0.411496 (Simulation time: 0 hr 25 min 12 sec) 
select_counter is 12
Heartbeat CPU 0 instructions: 51000000 cycles: 105424525 heartbeat IPC: 0.517957 cumulative IPC: 0.41357 (Simulation time: 0 hr 25 min 41 sec) 
select_counter is 11
Heartbeat CPU 0 instructions: 52000000 cycles: 107339530 heartbeat IPC: 0.522192 cumulative IPC: 0.415628 (Simulation time: 0 hr 26 min 14 sec) 
select_counter is 11
Heartbeat CPU 0 instructions: 53000002 cycles: 109290334 heartbeat IPC: 0.51261 cumulative IPC: 0.417465 (Simulation time: 0 hr 26 min 45 sec) 
select_counter is 9
Heartbeat CPU 0 instructions: 54000000 cycles: 112188514 heartbeat IPC: 0.345043 cumulative IPC: 0.415483 (Simulation time: 0 hr 27 min 19 sec) 
select_counter is 940
Heartbeat CPU 0 instructions: 55000000 cycles: 114678547 heartbeat IPC: 0.401601 cumulative IPC: 0.415164 (Simulation time: 0 hr 27 min 54 sec) 
select_counter is 875
Heartbeat CPU 0 instructions: 56000000 cycles: 117481316 heartbeat IPC: 0.35679 cumulative IPC: 0.413693 (Simulation time: 0 hr 28 min 24 sec) 
select_counter is 791
Heartbeat CPU 0 instructions: 57000001 cycles: 120472403 heartbeat IPC: 0.334327 cumulative IPC: 0.411614 (Simulation time: 0 hr 28 min 53 sec) 
select_counter is 695
Heartbeat CPU 0 instructions: 58000003 cycles: 123440850 heartbeat IPC: 0.336877 cumulative IPC: 0.40972 (Simulation time: 0 hr 29 min 29 sec) 
select_counter is 666
Heartbeat CPU 0 instructions: 59000002 cycles: 126261844 heartbeat IPC: 0.354485 cumulative IPC: 0.408421 (Simulation time: 0 hr 29 min 58 sec) 
select_counter is 642
Heartbeat CPU 0 instructions: 60000000 cycles: 129037800 heartbeat IPC: 0.360236 cumulative IPC: 0.407331 (Simulation time: 0 hr 30 min 29 sec) 
select_counter is 591
Heartbeat CPU 0 instructions: 61000002 cycles: 131685314 heartbeat IPC: 0.377714 cumulative IPC: 0.406706 (Simulation time: 0 hr 30 min 59 sec) 
select_counter is 540
Heartbeat CPU 0 instructions: 62000002 cycles: 134389274 heartbeat IPC: 0.369828 cumulative IPC: 0.405928 (Simulation time: 0 hr 31 min 32 sec) 
select_counter is 484
Heartbeat CPU 0 instructions: 63000001 cycles: 137069833 heartbeat IPC: 0.373056 cumulative IPC: 0.405254 (Simulation time: 0 hr 32 min 5 sec) 
select_counter is 430
Heartbeat CPU 0 instructions: 64000000 cycles: 139729463 heartbeat IPC: 0.375992 cumulative IPC: 0.404671 (Simulation time: 0 hr 32 min 48 sec) 
select_counter is 375
Heartbeat CPU 0 instructions: 65000003 cycles: 142367714 heartbeat IPC: 0.37904 cumulative IPC: 0.404174 (Simulation time: 0 hr 33 min 24 sec) 
select_counter is 325
Heartbeat CPU 0 instructions: 66000001 cycles: 144998159 heartbeat IPC: 0.380163 cumulative IPC: 0.403718 (Simulation time: 0 hr 33 min 54 sec) 
select_counter is 272
Heartbeat CPU 0 instructions: 67000001 cycles: 147613144 heartbeat IPC: 0.382411 cumulative IPC: 0.403324 (Simulation time: 0 hr 34 min 21 sec) 
select_counter is 260
Heartbeat CPU 0 instructions: 68000000 cycles: 150285663 heartbeat IPC: 0.374178 cumulative IPC: 0.402783 (Simulation time: 0 hr 34 min 50 sec) 
select_counter is 206
Heartbeat CPU 0 instructions: 69000001 cycles: 152930842 heartbeat IPC: 0.378047 cumulative IPC: 0.402337 (Simulation time: 0 hr 35 min 19 sec) 
select_counter is 159
Heartbeat CPU 0 instructions: 70000001 cycles: 155550151 heartbeat IPC: 0.38178 cumulative IPC: 0.401976 (Simulation time: 0 hr 35 min 48 sec) 
select_counter is 98
Heartbeat CPU 0 instructions: 71000001 cycles: 158270295 heartbeat IPC: 0.367628 cumulative IPC: 0.401362 (Simulation time: 0 hr 36 min 18 sec) 
select_counter is 83
Heartbeat CPU 0 instructions: 72000000 cycles: 160876094 heartbeat IPC: 0.383759 cumulative IPC: 0.401065 (Simulation time: 0 hr 36 min 47 sec) 
select_counter is 66
Heartbeat CPU 0 instructions: 73000002 cycles: 163536555 heartbeat IPC: 0.375875 cumulative IPC: 0.400639 (Simulation time: 0 hr 37 min 20 sec) 
select_counter is 9
Heartbeat CPU 0 instructions: 74000001 cycles: 166221304 heartbeat IPC: 0.372474 cumulative IPC: 0.400166 (Simulation time: 0 hr 37 min 53 sec) 
select_counter is 998
Heartbeat CPU 0 instructions: 75000001 cycles: 168882958 heartbeat IPC: 0.375706 cumulative IPC: 0.399765 (Simulation time: 0 hr 38 min 16 sec) 
select_counter is 939
Heartbeat CPU 0 instructions: 76000000 cycles: 171527892 heartbeat IPC: 0.378081 cumulative IPC: 0.399418 (Simulation time: 0 hr 38 min 37 sec) 
select_counter is 890
Heartbeat CPU 0 instructions: 77000002 cycles: 174203431 heartbeat IPC: 0.373757 cumulative IPC: 0.39901 (Simulation time: 0 hr 39 min 1 sec) 
select_counter is 823
Heartbeat CPU 0 instructions: 78000000 cycles: 176859438 heartbeat IPC: 0.376504 cumulative IPC: 0.398659 (Simulation time: 0 hr 39 min 24 sec) 
select_counter is 772
Heartbeat CPU 0 instructions: 79000002 cycles: 179522957 heartbeat IPC: 0.375444 cumulative IPC: 0.398302 (Simulation time: 0 hr 39 min 49 sec) 
select_counter is 726
Heartbeat CPU 0 instructions: 80000000 cycles: 182159966 heartbeat IPC: 0.379217 cumulative IPC: 0.398016 (Simulation time: 0 hr 40 min 18 sec) 
select_counter is 672
Heartbeat CPU 0 instructions: 81000000 cycles: 184775154 heartbeat IPC: 0.382382 cumulative IPC: 0.397787 (Simulation time: 0 hr 40 min 40 sec) 
select_counter is 640
Heartbeat CPU 0 instructions: 82000002 cycles: 187455030 heartbeat IPC: 0.373152 cumulative IPC: 0.397423 (Simulation time: 0 hr 41 min 2 sec) 
select_counter is 582
Heartbeat CPU 0 instructions: 83000000 cycles: 190102803 heartbeat IPC: 0.377675 cumulative IPC: 0.397138 (Simulation time: 0 hr 41 min 22 sec) 
select_counter is 532
Heartbeat CPU 0 instructions: 84000000 cycles: 192761782 heartbeat IPC: 0.376084 cumulative IPC: 0.396838 (Simulation time: 0 hr 41 min 49 sec) 
select_counter is 464
Heartbeat CPU 0 instructions: 85000001 cycles: 195440190 heartbeat IPC: 0.373356 cumulative IPC: 0.396505 (Simulation time: 0 hr 42 min 10 sec) 
select_counter is 444
Heartbeat CPU 0 instructions: 86000000 cycles: 197935743 heartbeat IPC: 0.400712 cumulative IPC: 0.39656 (Simulation time: 0 hr 42 min 29 sec) 
select_counter is 439
Heartbeat CPU 0 instructions: 87000000 cycles: 200066449 heartbeat IPC: 0.469328 cumulative IPC: 0.39736 (Simulation time: 0 hr 42 min 43 sec) 
select_counter is 426
Heartbeat CPU 0 instructions: 88000000 cycles: 202064268 heartbeat IPC: 0.500546 cumulative IPC: 0.398413 (Simulation time: 0 hr 42 min 58 sec) 
select_counter is 422
Heartbeat CPU 0 instructions: 89000001 cycles: 204139780 heartbeat IPC: 0.481809 cumulative IPC: 0.399288 (Simulation time: 0 hr 43 min 13 sec) 
select_counter is 420
Heartbeat CPU 0 instructions: 90000000 cycles: 206796814 heartbeat IPC: 0.376359 cumulative IPC: 0.398984 (Simulation time: 0 hr 43 min 30 sec) 
select_counter is 392
Heartbeat CPU 0 instructions: 91000001 cycles: 209587780 heartbeat IPC: 0.358299 cumulative IPC: 0.398426 (Simulation time: 0 hr 43 min 46 sec) 
select_counter is 355
Heartbeat CPU 0 instructions: 92000000 cycles: 212278182 heartbeat IPC: 0.371691 cumulative IPC: 0.398077 (Simulation time: 0 hr 44 min 0 sec) 
select_counter is 321
Heartbeat CPU 0 instructions: 93000000 cycles: 214934493 heartbeat IPC: 0.376462 cumulative IPC: 0.397801 (Simulation time: 0 hr 44 min 15 sec) 
select_counter is 265
Heartbeat CPU 0 instructions: 94000002 cycles: 217583551 heartbeat IPC: 0.377493 cumulative IPC: 0.397547 (Simulation time: 0 hr 44 min 29 sec) 
select_counter is 227
Heartbeat CPU 0 instructions: 95000000 cycles: 220205579 heartbeat IPC: 0.381383 cumulative IPC: 0.397349 (Simulation time: 0 hr 44 min 42 sec) 
select_counter is 168
Heartbeat CPU 0 instructions: 96000000 cycles: 222871606 heartbeat IPC: 0.37509 cumulative IPC: 0.397075 (Simulation time: 0 hr 44 min 55 sec) 
select_counter is 115
Heartbeat CPU 0 instructions: 97000000 cycles: 225513538 heartbeat IPC: 0.378511 cumulative IPC: 0.396851 (Simulation time: 0 hr 45 min 7 sec) 
select_counter is 70
Heartbeat CPU 0 instructions: 98000000 cycles: 228137139 heartbeat IPC: 0.381156 cumulative IPC: 0.396665 (Simulation time: 0 hr 45 min 19 sec) 
select_counter is 28
Heartbeat CPU 0 instructions: 99000002 cycles: 230747356 heartbeat IPC: 0.383111 cumulative IPC: 0.396508 (Simulation time: 0 hr 45 min 29 sec) 
select_counter is 999
Heartbeat CPU 0 instructions: 100000000 cycles: 233374942 heartbeat IPC: 0.380577 cumulative IPC: 0.396323 (Simulation time: 0 hr 45 min 39 sec) 
select_counter is 957
Heartbeat CPU 0 instructions: 101000002 cycles: 236031269 heartbeat IPC: 0.37646 cumulative IPC: 0.396094 (Simulation time: 0 hr 45 min 48 sec) 
select_counter is 912
Heartbeat CPU 0 instructions: 102000000 cycles: 238663501 heartbeat IPC: 0.379905 cumulative IPC: 0.39591 (Simulation time: 0 hr 45 min 57 sec) 
select_counter is 861
Heartbeat CPU 0 instructions: 103000000 cycles: 241290822 heartbeat IPC: 0.380616 cumulative IPC: 0.395739 (Simulation time: 0 hr 46 min 5 sec) 
select_counter is 830
Heartbeat CPU 0 instructions: 104000000 cycles: 243954029 heartbeat IPC: 0.375487 cumulative IPC: 0.395512 (Simulation time: 0 hr 46 min 14 sec) 
select_counter is 823
Heartbeat CPU 0 instructions: 105000003 cycles: 246134265 heartbeat IPC: 0.458667 cumulative IPC: 0.396086 (Simulation time: 0 hr 46 min 21 sec) 
select_counter is 820
Heartbeat CPU 0 instructions: 106000000 cycles: 248111818 heartbeat IPC: 0.505674 cumulative IPC: 0.396983 (Simulation time: 0 hr 46 min 27 sec) 
select_counter is 818
Heartbeat CPU 0 instructions: 107000003 cycles: 250087547 heartbeat IPC: 0.506144 cumulative IPC: 0.397867 (Simulation time: 0 hr 46 min 33 sec) 
select_counter is 817
Heartbeat CPU 0 instructions: 108000000 cycles: 252814851 heartbeat IPC: 0.366661 cumulative IPC: 0.397522 (Simulation time: 0 hr 46 min 37 sec) 
select_counter is 764
Heartbeat CPU 0 instructions: 109000001 cycles: 255519544 heartbeat IPC: 0.369728 cumulative IPC: 0.39722 (Simulation time: 0 hr 46 min 41 sec) 
select_counter is 718
Heartbeat CPU 0 instructions: 110000000 cycles: 258032414 heartbeat IPC: 0.397951 cumulative IPC: 0.397228 (Simulation time: 0 hr 46 min 45 sec) 
select_counter is 672
Finished CPU 0 instructions: 100000000 cycles: 251744777 cummulative IPC: 0.397228 (Simulation time: 0 hr 46 min 45 sec) 

ChampSim completed all CPUs

Region of Interest Statistics

CPU 0 cummulative IPC: 0.397228 instructions: 100000000 cycles: 251744777
LLC TOTAL     ACCESS:     656703  HIT:     599427  MISS:      57276
LLC LOAD      ACCESS:     310897  HIT:     302707  MISS:       8190
LLC RFO       ACCESS:      30805  HIT:      26583  MISS:       4222
LLC PREFETCH  ACCESS:     212719  HIT:     169772  MISS:      42947
LLC WRITEBACK ACCESS:     102282  HIT:     100365  MISS:       1917
Ship samples: 
18, 46, 65, 116, 131, 189, 198, 226, 281, 289, 324, 376, 399, 433, 470, 501, 522, 559, 592, 615, 650, 689, 712, 740, 778, 821, 851, 889, 913, 935, 988, 1008, 1024, 1074, 1090, 1125, 1182, 1213, 1225, 1255, 1287, 1313, 1354, 1405, 1412, 1442, 1474, 1511, 1553, 1587, 1619, 1633, 1678, 1719, 1728, 1770, 1818, 1827, 1862, 1919, 1925, 1963, 2004, 2026, 
Lime duel samples: 
16, 56, 70, 109, 155, 167, 221, 227, 276, 311, 340, 366, 394, 419, 453, 498, 520, 547, 588, 611, 660, 676, 720, 755, 769, 805, 846, 877, 898, 938, 967, 1021, 1030, 1087, 1105, 1145, 1165, 1206, 1222, 1250, 1299, 1340, 1371, 1402, 1435, 1445, 1472, 1522, 1538, 1593, 1620, 1656, 1681, 1726, 1751, 1790, 1800, 1836, 1860, 1888, 1931, 1954, 1991, 2034, 
Lime samples: 
16, 109, 221, 311, 394, 498, 588, 676, 769, 877, 967, 1087, 1165, 1250, 1371, 1445, 1538, 1656, 1751, 1836, 1931, 
Insertion Distribution: 
	LOAD 3008 0 0 0 0 0 12783 104 
	RFO 1003 0 0 0 0 0 3187 107 
	PREF 0 817 0 0 0 0 20560 5488 
	WRITEBACK 0 0 0 0 0 0 0 855 
Total Prefetch Downgrades: 4217
