
*** ChampSim Multicore Out-of-Order Simulator ***

Warmup Instructions: 10000000
Simulation Instructions: 100000000
Configuration: 2
Number of CPUs: 1
LLC sets: 2048
LLC ways: 16
Off-chip DRAM Channels: 1 Width: 64-bit Data Rate: 1600 MT/s

CPU 0 runs /datasets/cs240c-wi22-a00-public/data/Assignment2-gz/omnetpp_340B.trace.gz
CPU 0 L1D next line prefetcher
CPU 0 L2C IP-based stride prefetcher
Heartbeat CPU 0 instructions: 1000001 cycles: 576949 heartbeat IPC: 1.73326 cumulative IPC: 1.73326 (Simulation time: 0 hr 0 min 38 sec) 
select_counter is 524
Heartbeat CPU 0 instructions: 2000000 cycles: 1160878 heartbeat IPC: 1.71254 cumulative IPC: 1.72283 (Simulation time: 0 hr 1 min 6 sec) 
select_counter is 504
Heartbeat CPU 0 instructions: 3000001 cycles: 1758207 heartbeat IPC: 1.67412 cumulative IPC: 1.70628 (Simulation time: 0 hr 1 min 39 sec) 
select_counter is 438
Heartbeat CPU 0 instructions: 4000000 cycles: 2379228 heartbeat IPC: 1.61025 cumulative IPC: 1.68122 (Simulation time: 0 hr 2 min 6 sec) 
select_counter is 448
Heartbeat CPU 0 instructions: 5000002 cycles: 2954567 heartbeat IPC: 1.73811 cumulative IPC: 1.6923 (Simulation time: 0 hr 2 min 34 sec) 
select_counter is 505
Heartbeat CPU 0 instructions: 6000003 cycles: 3556046 heartbeat IPC: 1.66257 cumulative IPC: 1.68727 (Simulation time: 0 hr 3 min 6 sec) 
select_counter is 576
Heartbeat CPU 0 instructions: 7000003 cycles: 4205526 heartbeat IPC: 1.53969 cumulative IPC: 1.66448 (Simulation time: 0 hr 3 min 35 sec) 
select_counter is 608
Heartbeat CPU 0 instructions: 8000000 cycles: 4800169 heartbeat IPC: 1.68168 cumulative IPC: 1.66661 (Simulation time: 0 hr 4 min 3 sec) 
select_counter is 669
Heartbeat CPU 0 instructions: 9000002 cycles: 5433349 heartbeat IPC: 1.57933 cumulative IPC: 1.65644 (Simulation time: 0 hr 4 min 34 sec) 
select_counter is 820
Heartbeat CPU 0 instructions: 10000002 cycles: 6027987 heartbeat IPC: 1.6817 cumulative IPC: 1.65893 (Simulation time: 0 hr 5 min 3 sec) 
select_counter is 864

Warmup complete CPU 0 instructions: 10000002 cycles: 6027987 (Simulation time: 0 hr 5 min 3 sec) 

Heartbeat CPU 0 instructions: 11000000 cycles: 9624291 heartbeat IPC: 0.278063 cumulative IPC: 0.278063 (Simulation time: 0 hr 5 min 38 sec) 
select_counter is 963
Heartbeat CPU 0 instructions: 12000000 cycles: 13166956 heartbeat IPC: 0.282273 cumulative IPC: 0.280152 (Simulation time: 0 hr 6 min 10 sec) 
select_counter is 865
Heartbeat CPU 0 instructions: 13000000 cycles: 16944724 heartbeat IPC: 0.264707 cumulative IPC: 0.274807 (Simulation time: 0 hr 6 min 47 sec) 
select_counter is 846
Heartbeat CPU 0 instructions: 14000001 cycles: 20772347 heartbeat IPC: 0.261259 cumulative IPC: 0.27129 (Simulation time: 0 hr 7 min 21 sec) 
select_counter is 785
Heartbeat CPU 0 instructions: 15000003 cycles: 24750802 heartbeat IPC: 0.251354 cumulative IPC: 0.267054 (Simulation time: 0 hr 7 min 56 sec) 
select_counter is 682
Heartbeat CPU 0 instructions: 16000000 cycles: 28986761 heartbeat IPC: 0.236073 cumulative IPC: 0.261338 (Simulation time: 0 hr 8 min 30 sec) 
select_counter is 633
Heartbeat CPU 0 instructions: 17000000 cycles: 32742910 heartbeat IPC: 0.26623 cumulative IPC: 0.262026 (Simulation time: 0 hr 9 min 14 sec) 
select_counter is 654
Heartbeat CPU 0 instructions: 18000000 cycles: 36648497 heartbeat IPC: 0.256043 cumulative IPC: 0.261263 (Simulation time: 0 hr 9 min 56 sec) 
select_counter is 632
Heartbeat CPU 0 instructions: 19000000 cycles: 40942615 heartbeat IPC: 0.232877 cumulative IPC: 0.257772 (Simulation time: 0 hr 10 min 37 sec) 
select_counter is 676
Heartbeat CPU 0 instructions: 20000000 cycles: 45020890 heartbeat IPC: 0.245202 cumulative IPC: 0.256457 (Simulation time: 0 hr 11 min 17 sec) 
select_counter is 630
Heartbeat CPU 0 instructions: 21000000 cycles: 48503143 heartbeat IPC: 0.28717 cumulative IPC: 0.258975 (Simulation time: 0 hr 12 min 2 sec) 
select_counter is 500
Heartbeat CPU 0 instructions: 22000001 cycles: 52410510 heartbeat IPC: 0.255927 cumulative IPC: 0.258718 (Simulation time: 0 hr 12 min 47 sec) 
select_counter is 431
Heartbeat CPU 0 instructions: 23000001 cycles: 56242040 heartbeat IPC: 0.260992 cumulative IPC: 0.258892 (Simulation time: 0 hr 13 min 19 sec) 
select_counter is 393
Heartbeat CPU 0 instructions: 24000000 cycles: 60046312 heartbeat IPC: 0.262862 cumulative IPC: 0.259171 (Simulation time: 0 hr 13 min 55 sec) 
select_counter is 348
Heartbeat CPU 0 instructions: 25000000 cycles: 64108379 heartbeat IPC: 0.24618 cumulative IPC: 0.258263 (Simulation time: 0 hr 14 min 31 sec) 
select_counter is 367
Heartbeat CPU 0 instructions: 26000001 cycles: 68189444 heartbeat IPC: 0.245034 cumulative IPC: 0.257394 (Simulation time: 0 hr 15 min 7 sec) 
select_counter is 447
Heartbeat CPU 0 instructions: 27000000 cycles: 72201932 heartbeat IPC: 0.249222 cumulative IPC: 0.256899 (Simulation time: 0 hr 15 min 40 sec) 
select_counter is 403
Heartbeat CPU 0 instructions: 28000000 cycles: 76242866 heartbeat IPC: 0.247468 cumulative IPC: 0.256356 (Simulation time: 0 hr 16 min 22 sec) 
select_counter is 288
Heartbeat CPU 0 instructions: 29000003 cycles: 80295348 heartbeat IPC: 0.246763 cumulative IPC: 0.255832 (Simulation time: 0 hr 17 min 10 sec) 
select_counter is 242
Heartbeat CPU 0 instructions: 30000000 cycles: 83930687 heartbeat IPC: 0.275077 cumulative IPC: 0.25673 (Simulation time: 0 hr 17 min 44 sec) 
select_counter is 245
Heartbeat CPU 0 instructions: 31000000 cycles: 87741385 heartbeat IPC: 0.262419 cumulative IPC: 0.256996 (Simulation time: 0 hr 18 min 17 sec) 
select_counter is 178
Heartbeat CPU 0 instructions: 32000000 cycles: 91510877 heartbeat IPC: 0.265288 cumulative IPC: 0.257361 (Simulation time: 0 hr 18 min 53 sec) 
select_counter is 101
Heartbeat CPU 0 instructions: 33000003 cycles: 95238855 heartbeat IPC: 0.268243 cumulative IPC: 0.257816 (Simulation time: 0 hr 19 min 32 sec) 
select_counter is 1018
Heartbeat CPU 0 instructions: 34000001 cycles: 99355151 heartbeat IPC: 0.242936 cumulative IPC: 0.25716 (Simulation time: 0 hr 20 min 9 sec) 
select_counter is 975
Heartbeat CPU 0 instructions: 35000002 cycles: 102903288 heartbeat IPC: 0.281838 cumulative IPC: 0.258064 (Simulation time: 0 hr 20 min 49 sec) 
select_counter is 1015
Heartbeat CPU 0 instructions: 36000000 cycles: 107160534 heartbeat IPC: 0.234893 cumulative IPC: 0.257088 (Simulation time: 0 hr 21 min 27 sec) 
select_counter is 987
Heartbeat CPU 0 instructions: 37000000 cycles: 111491764 heartbeat IPC: 0.230881 cumulative IPC: 0.256012 (Simulation time: 0 hr 22 min 8 sec) 
select_counter is 1022
Heartbeat CPU 0 instructions: 38000000 cycles: 115276066 heartbeat IPC: 0.26425 cumulative IPC: 0.256297 (Simulation time: 0 hr 22 min 45 sec) 
select_counter is 1012
Heartbeat CPU 0 instructions: 39000001 cycles: 119440356 heartbeat IPC: 0.240137 cumulative IPC: 0.255704 (Simulation time: 0 hr 23 min 21 sec) 
select_counter is 991
Heartbeat CPU 0 instructions: 40000000 cycles: 122958611 heartbeat IPC: 0.284232 cumulative IPC: 0.256562 (Simulation time: 0 hr 23 min 54 sec) 
select_counter is 968
Heartbeat CPU 0 instructions: 41000000 cycles: 126623464 heartbeat IPC: 0.272862 cumulative IPC: 0.257058 (Simulation time: 0 hr 24 min 27 sec) 
select_counter is 1022
Heartbeat CPU 0 instructions: 42000001 cycles: 130817450 heartbeat IPC: 0.238437 cumulative IPC: 0.256432 (Simulation time: 0 hr 25 min 3 sec) 
select_counter is 977
Heartbeat CPU 0 instructions: 43000001 cycles: 134889057 heartbeat IPC: 0.245603 cumulative IPC: 0.25609 (Simulation time: 0 hr 25 min 39 sec) 
select_counter is 992
Heartbeat CPU 0 instructions: 44000000 cycles: 138570726 heartbeat IPC: 0.271616 cumulative IPC: 0.256521 (Simulation time: 0 hr 26 min 11 sec) 
select_counter is 989
Heartbeat CPU 0 instructions: 45000003 cycles: 142492923 heartbeat IPC: 0.25496 cumulative IPC: 0.256476 (Simulation time: 0 hr 26 min 46 sec) 
select_counter is 963
Heartbeat CPU 0 instructions: 46000003 cycles: 146528607 heartbeat IPC: 0.247789 cumulative IPC: 0.256227 (Simulation time: 0 hr 27 min 22 sec) 
select_counter is 979
Heartbeat CPU 0 instructions: 47000000 cycles: 149682509 heartbeat IPC: 0.317067 cumulative IPC: 0.257562 (Simulation time: 0 hr 27 min 54 sec) 
select_counter is 1022
Heartbeat CPU 0 instructions: 48000000 cycles: 153660104 heartbeat IPC: 0.251408 cumulative IPC: 0.257397 (Simulation time: 0 hr 28 min 31 sec) 
select_counter is 1023
Heartbeat CPU 0 instructions: 49000000 cycles: 156681265 heartbeat IPC: 0.330999 cumulative IPC: 0.258873 (Simulation time: 0 hr 29 min 7 sec) 
select_counter is 981
Heartbeat CPU 0 instructions: 50000001 cycles: 160779998 heartbeat IPC: 0.243978 cumulative IPC: 0.258478 (Simulation time: 0 hr 29 min 45 sec) 
select_counter is 952
Heartbeat CPU 0 instructions: 51000003 cycles: 164507941 heartbeat IPC: 0.268245 cumulative IPC: 0.258708 (Simulation time: 0 hr 30 min 18 sec) 
select_counter is 953
Heartbeat CPU 0 instructions: 52000000 cycles: 168512739 heartbeat IPC: 0.2497 cumulative IPC: 0.258486 (Simulation time: 0 hr 31 min 0 sec) 
select_counter is 995
Heartbeat CPU 0 instructions: 53000000 cycles: 172958838 heartbeat IPC: 0.224916 cumulative IPC: 0.257592 (Simulation time: 0 hr 31 min 38 sec) 
select_counter is 930
Heartbeat CPU 0 instructions: 54000002 cycles: 177031823 heartbeat IPC: 0.245521 cumulative IPC: 0.257304 (Simulation time: 0 hr 32 min 16 sec) 
select_counter is 1016
Heartbeat CPU 0 instructions: 55000001 cycles: 180923077 heartbeat IPC: 0.256986 cumulative IPC: 0.257297 (Simulation time: 0 hr 32 min 51 sec) 
select_counter is 1023
Heartbeat CPU 0 instructions: 56000000 cycles: 185231033 heartbeat IPC: 0.232128 cumulative IPC: 0.256692 (Simulation time: 0 hr 33 min 27 sec) 
select_counter is 1001
Heartbeat CPU 0 instructions: 57000001 cycles: 189316075 heartbeat IPC: 0.244796 cumulative IPC: 0.256427 (Simulation time: 0 hr 33 min 58 sec) 
select_counter is 1020
Heartbeat CPU 0 instructions: 58000000 cycles: 192644232 heartbeat IPC: 0.300466 cumulative IPC: 0.257212 (Simulation time: 0 hr 34 min 33 sec) 
select_counter is 1007
Heartbeat CPU 0 instructions: 59000003 cycles: 196608433 heartbeat IPC: 0.252258 cumulative IPC: 0.257109 (Simulation time: 0 hr 35 min 12 sec) 
select_counter is 980
Heartbeat CPU 0 instructions: 60000000 cycles: 201056288 heartbeat IPC: 0.224827 cumulative IPC: 0.256373 (Simulation time: 0 hr 35 min 51 sec) 
select_counter is 949
Heartbeat CPU 0 instructions: 61000001 cycles: 205401567 heartbeat IPC: 0.230135 cumulative IPC: 0.255801 (Simulation time: 0 hr 36 min 23 sec) 
select_counter is 872
Heartbeat CPU 0 instructions: 62000000 cycles: 209842586 heartbeat IPC: 0.225173 cumulative IPC: 0.255134 (Simulation time: 0 hr 37 min 0 sec) 
select_counter is 766
Heartbeat CPU 0 instructions: 63000001 cycles: 213583824 heartbeat IPC: 0.267291 cumulative IPC: 0.255353 (Simulation time: 0 hr 37 min 31 sec) 
select_counter is 719
Heartbeat CPU 0 instructions: 64000000 cycles: 217448689 heartbeat IPC: 0.258741 cumulative IPC: 0.255415 (Simulation time: 0 hr 38 min 2 sec) 
select_counter is 669
Heartbeat CPU 0 instructions: 65000001 cycles: 220910679 heartbeat IPC: 0.288851 cumulative IPC: 0.255954 (Simulation time: 0 hr 38 min 31 sec) 
select_counter is 710
Heartbeat CPU 0 instructions: 66000002 cycles: 224795870 heartbeat IPC: 0.257388 cumulative IPC: 0.255979 (Simulation time: 0 hr 38 min 59 sec) 
select_counter is 834
Heartbeat CPU 0 instructions: 67000002 cycles: 228649484 heartbeat IPC: 0.259497 cumulative IPC: 0.25604 (Simulation time: 0 hr 39 min 25 sec) 
select_counter is 1020
Heartbeat CPU 0 instructions: 68000000 cycles: 232493543 heartbeat IPC: 0.260141 cumulative IPC: 0.25611 (Simulation time: 0 hr 39 min 52 sec) 
select_counter is 994
Heartbeat CPU 0 instructions: 69000000 cycles: 236435220 heartbeat IPC: 0.253699 cumulative IPC: 0.256068 (Simulation time: 0 hr 40 min 18 sec) 
select_counter is 1008
Heartbeat CPU 0 instructions: 70000001 cycles: 239870418 heartbeat IPC: 0.291104 cumulative IPC: 0.256583 (Simulation time: 0 hr 40 min 40 sec) 
select_counter is 1017
Heartbeat CPU 0 instructions: 71000003 cycles: 243763235 heartbeat IPC: 0.256884 cumulative IPC: 0.256588 (Simulation time: 0 hr 41 min 3 sec) 
select_counter is 995
Heartbeat CPU 0 instructions: 72000000 cycles: 248206662 heartbeat IPC: 0.225051 cumulative IPC: 0.256009 (Simulation time: 0 hr 41 min 28 sec) 
select_counter is 1020
Heartbeat CPU 0 instructions: 73000002 cycles: 252221492 heartbeat IPC: 0.249077 cumulative IPC: 0.255896 (Simulation time: 0 hr 41 min 49 sec) 
select_counter is 1014
Heartbeat CPU 0 instructions: 74000000 cycles: 256020641 heartbeat IPC: 0.263216 cumulative IPC: 0.256008 (Simulation time: 0 hr 42 min 10 sec) 
select_counter is 1017
Heartbeat CPU 0 instructions: 75000003 cycles: 260063893 heartbeat IPC: 0.247326 cumulative IPC: 0.255869 (Simulation time: 0 hr 42 min 30 sec) 
select_counter is 977
Heartbeat CPU 0 instructions: 76000000 cycles: 263889067 heartbeat IPC: 0.261425 cumulative IPC: 0.255952 (Simulation time: 0 hr 42 min 51 sec) 
select_counter is 1003
Heartbeat CPU 0 instructions: 77000002 cycles: 268488722 heartbeat IPC: 0.217408 cumulative IPC: 0.255276 (Simulation time: 0 hr 43 min 10 sec) 
select_counter is 934
Heartbeat CPU 0 instructions: 78000003 cycles: 272352866 heartbeat IPC: 0.25879 cumulative IPC: 0.255327 (Simulation time: 0 hr 43 min 28 sec) 
select_counter is 835
Heartbeat CPU 0 instructions: 79000002 cycles: 276262516 heartbeat IPC: 0.255777 cumulative IPC: 0.255334 (Simulation time: 0 hr 43 min 44 sec) 
select_counter is 719
Heartbeat CPU 0 instructions: 80000000 cycles: 280118784 heartbeat IPC: 0.259318 cumulative IPC: 0.25539 (Simulation time: 0 hr 44 min 0 sec) 
select_counter is 741
Heartbeat CPU 0 instructions: 81000002 cycles: 284325822 heartbeat IPC: 0.237697 cumulative IPC: 0.255122 (Simulation time: 0 hr 44 min 17 sec) 
select_counter is 819
Heartbeat CPU 0 instructions: 82000000 cycles: 288712294 heartbeat IPC: 0.227973 cumulative IPC: 0.254701 (Simulation time: 0 hr 44 min 35 sec) 
select_counter is 806
Heartbeat CPU 0 instructions: 83000002 cycles: 292483803 heartbeat IPC: 0.265146 cumulative IPC: 0.254839 (Simulation time: 0 hr 44 min 50 sec) 
select_counter is 984
Heartbeat CPU 0 instructions: 84000000 cycles: 296455651 heartbeat IPC: 0.251771 cumulative IPC: 0.254797 (Simulation time: 0 hr 45 min 5 sec) 
select_counter is 1005
Heartbeat CPU 0 instructions: 85000000 cycles: 300151431 heartbeat IPC: 0.270579 cumulative IPC: 0.254995 (Simulation time: 0 hr 45 min 18 sec) 
select_counter is 1023
Heartbeat CPU 0 instructions: 86000000 cycles: 304064039 heartbeat IPC: 0.255584 cumulative IPC: 0.255003 (Simulation time: 0 hr 45 min 30 sec) 
select_counter is 1017
Heartbeat CPU 0 instructions: 87000001 cycles: 307874956 heartbeat IPC: 0.262404 cumulative IPC: 0.255096 (Simulation time: 0 hr 45 min 40 sec) 
select_counter is 1003
Heartbeat CPU 0 instructions: 88000000 cycles: 311693482 heartbeat IPC: 0.261881 cumulative IPC: 0.255181 (Simulation time: 0 hr 45 min 50 sec) 
select_counter is 1016
Heartbeat CPU 0 instructions: 89000003 cycles: 315176758 heartbeat IPC: 0.287087 cumulative IPC: 0.25554 (Simulation time: 0 hr 45 min 59 sec) 
select_counter is 1016
Heartbeat CPU 0 instructions: 90000000 cycles: 318997645 heartbeat IPC: 0.261719 cumulative IPC: 0.255616 (Simulation time: 0 hr 46 min 8 sec) 
select_counter is 1022
Heartbeat CPU 0 instructions: 91000001 cycles: 322491498 heartbeat IPC: 0.286217 cumulative IPC: 0.255954 (Simulation time: 0 hr 46 min 18 sec) 
select_counter is 1023
Heartbeat CPU 0 instructions: 92000000 cycles: 326530460 heartbeat IPC: 0.247588 cumulative IPC: 0.255848 (Simulation time: 0 hr 46 min 26 sec) 
select_counter is 978
Heartbeat CPU 0 instructions: 93000001 cycles: 331055124 heartbeat IPC: 0.221011 cumulative IPC: 0.255363 (Simulation time: 0 hr 46 min 34 sec) 
select_counter is 907
Heartbeat CPU 0 instructions: 94000001 cycles: 334863853 heartbeat IPC: 0.262555 cumulative IPC: 0.255447 (Simulation time: 0 hr 46 min 39 sec) 
select_counter is 883
Heartbeat CPU 0 instructions: 95000000 cycles: 338848752 heartbeat IPC: 0.250947 cumulative IPC: 0.255393 (Simulation time: 0 hr 46 min 44 sec) 
select_counter is 870
Heartbeat CPU 0 instructions: 96000000 cycles: 343238367 heartbeat IPC: 0.22781 cumulative IPC: 0.255034 (Simulation time: 0 hr 46 min 48 sec) 
select_counter is 895
Heartbeat CPU 0 instructions: 97000000 cycles: 346914566 heartbeat IPC: 0.27202 cumulative IPC: 0.255217 (Simulation time: 0 hr 46 min 52 sec) 
select_counter is 902
Heartbeat CPU 0 instructions: 98000000 cycles: 351173548 heartbeat IPC: 0.234798 cumulative IPC: 0.254965 (Simulation time: 0 hr 46 min 57 sec) 
select_counter is 872
Heartbeat CPU 0 instructions: 99000000 cycles: 355552722 heartbeat IPC: 0.228354 cumulative IPC: 0.254631 (Simulation time: 0 hr 47 min 1 sec) 
select_counter is 845
Heartbeat CPU 0 instructions: 100000000 cycles: 359669733 heartbeat IPC: 0.242895 cumulative IPC: 0.254495 (Simulation time: 0 hr 47 min 5 sec) 
select_counter is 919
Heartbeat CPU 0 instructions: 101000000 cycles: 363643259 heartbeat IPC: 0.251666 cumulative IPC: 0.254463 (Simulation time: 0 hr 47 min 10 sec) 
select_counter is 916
Heartbeat CPU 0 instructions: 102000003 cycles: 367740904 heartbeat IPC: 0.244043 cumulative IPC: 0.254345 (Simulation time: 0 hr 47 min 14 sec) 
select_counter is 933
Heartbeat CPU 0 instructions: 103000000 cycles: 371671895 heartbeat IPC: 0.254388 cumulative IPC: 0.254346 (Simulation time: 0 hr 47 min 18 sec) 
select_counter is 954
Heartbeat CPU 0 instructions: 104000000 cycles: 375457196 heartbeat IPC: 0.26418 cumulative IPC: 0.254447 (Simulation time: 0 hr 47 min 22 sec) 
select_counter is 1016
Heartbeat CPU 0 instructions: 105000003 cycles: 379412016 heartbeat IPC: 0.252857 cumulative IPC: 0.25443 (Simulation time: 0 hr 47 min 27 sec) 
select_counter is 967
Heartbeat CPU 0 instructions: 106000001 cycles: 382936776 heartbeat IPC: 0.283707 cumulative IPC: 0.254704 (Simulation time: 0 hr 47 min 31 sec) 
select_counter is 1014
Heartbeat CPU 0 instructions: 107000000 cycles: 387102813 heartbeat IPC: 0.240036 cumulative IPC: 0.254543 (Simulation time: 0 hr 47 min 35 sec) 
select_counter is 950
Heartbeat CPU 0 instructions: 108000000 cycles: 391107304 heartbeat IPC: 0.24972 cumulative IPC: 0.254493 (Simulation time: 0 hr 47 min 40 sec) 
select_counter is 869
Heartbeat CPU 0 instructions: 109000000 cycles: 395559878 heartbeat IPC: 0.224589 cumulative IPC: 0.254151 (Simulation time: 0 hr 47 min 44 sec) 
select_counter is 877
Heartbeat CPU 0 instructions: 110000000 cycles: 399261075 heartbeat IPC: 0.270183 cumulative IPC: 0.254302 (Simulation time: 0 hr 47 min 49 sec) 
select_counter is 978
Finished CPU 0 instructions: 100000000 cycles: 393233092 cummulative IPC: 0.254302 (Simulation time: 0 hr 47 min 49 sec) 

ChampSim completed all CPUs

Region of Interest Statistics

CPU 0 cummulative IPC: 0.254302 instructions: 100000000 cycles: 393233092
LLC TOTAL     ACCESS:    4309240  HIT:    1349384  MISS:    2959856
LLC LOAD      ACCESS:    1523222  HIT:     446934  MISS:    1076288
LLC RFO       ACCESS:     250000  HIT:      83512  MISS:     166488
LLC PREFETCH  ACCESS:    1530002  HIT:     143757  MISS:    1386245
LLC WRITEBACK ACCESS:    1006016  HIT:     675181  MISS:     330835
Ship samples: 
8, 34, 78, 111, 143, 175, 216, 239, 263, 308, 332, 356, 397, 443, 458, 498, 522, 549, 595, 635, 659, 678, 720, 751, 779, 808, 838, 885, 927, 954, 968, 1021, 1040, 1087, 1094, 1137, 1179, 1185, 1230, 1256, 1298, 1313, 1365, 1385, 1430, 1467, 1487, 1522, 1563, 1570, 1611, 1659, 1675, 1715, 1740, 1779, 1804, 1847, 1867, 1909, 1923, 1953, 1993, 2033, 
Lime duel samples: 
29, 46, 82, 97, 159, 187, 197, 244, 272, 300, 339, 381, 411, 425, 459, 488, 534, 548, 588, 612, 654, 673, 711, 758, 796, 802, 840, 868, 912, 928, 967, 1004, 1043, 1058, 1091, 1146, 1177, 1208, 1228, 1264, 1305, 1329, 1369, 1398, 1428, 1443, 1503, 1528, 1567, 1585, 1601, 1651, 1671, 1724, 1754, 1787, 1822, 1845, 1857, 1888, 1922, 1968, 2002, 2035, 
Lime samples: 
29, 97, 197, 300, 411, 488, 588, 673, 796, 868, 967, 1058, 1177, 1264, 1369, 1443, 1567, 1651, 1754, 1845, 1922, 
Insertion Distribution: 
	LOAD 26437 0 0 0 0 0 40822 125711 
	RFO 6191 0 0 0 0 0 9430 13384 
	PREF 0 3329 0 0 0 0 24111 225330 
	WRITEBACK 0 0 0 0 0 0 0 66546 
Total Prefetch Downgrades: 6647
