
*** ChampSim Multicore Out-of-Order Simulator ***

Warmup Instructions: 10000000
Simulation Instructions: 100000000
Configuration: 2
Number of CPUs: 1
LLC sets: 2048
LLC ways: 16
Off-chip DRAM Channels: 1 Width: 64-bit Data Rate: 1600 MT/s

CPU 0 runs /datasets/cs240c-wi22-a00-public/data/Assignment2-gz/wrf_1650B.trace.gz
CPU 0 L1D next line prefetcher
CPU 0 L2C IP-based stride prefetcher
Heartbeat CPU 0 instructions: 1000000 cycles: 514299 heartbeat IPC: 1.94439 cumulative IPC: 1.94439 (Simulation time: 0 hr 0 min 20 sec) 
select_counter is 507
Heartbeat CPU 0 instructions: 2000000 cycles: 1028473 heartbeat IPC: 1.94487 cumulative IPC: 1.94463 (Simulation time: 0 hr 0 min 39 sec) 
select_counter is 505
Heartbeat CPU 0 instructions: 3000001 cycles: 1546184 heartbeat IPC: 1.93158 cumulative IPC: 1.94026 (Simulation time: 0 hr 1 min 0 sec) 
select_counter is 504
Heartbeat CPU 0 instructions: 4000000 cycles: 2063940 heartbeat IPC: 1.93141 cumulative IPC: 1.93804 (Simulation time: 0 hr 1 min 21 sec) 
select_counter is 504
Heartbeat CPU 0 instructions: 5000001 cycles: 2581687 heartbeat IPC: 1.93145 cumulative IPC: 1.93672 (Simulation time: 0 hr 1 min 41 sec) 
select_counter is 503
Heartbeat CPU 0 instructions: 6000003 cycles: 3099505 heartbeat IPC: 1.93118 cumulative IPC: 1.93579 (Simulation time: 0 hr 2 min 1 sec) 
select_counter is 503
Heartbeat CPU 0 instructions: 7000000 cycles: 3617214 heartbeat IPC: 1.93158 cumulative IPC: 1.93519 (Simulation time: 0 hr 2 min 23 sec) 
select_counter is 505
Heartbeat CPU 0 instructions: 8000000 cycles: 4135023 heartbeat IPC: 1.93121 cumulative IPC: 1.93469 (Simulation time: 0 hr 2 min 42 sec) 
select_counter is 504
Heartbeat CPU 0 instructions: 9000001 cycles: 4649336 heartbeat IPC: 1.94434 cumulative IPC: 1.93576 (Simulation time: 0 hr 3 min 4 sec) 
select_counter is 501
Heartbeat CPU 0 instructions: 10000001 cycles: 5163453 heartbeat IPC: 1.94508 cumulative IPC: 1.93669 (Simulation time: 0 hr 3 min 28 sec) 
select_counter is 499

Warmup complete CPU 0 instructions: 10000001 cycles: 5163453 (Simulation time: 0 hr 3 min 28 sec) 

Heartbeat CPU 0 instructions: 11000000 cycles: 6646675 heartbeat IPC: 0.674207 cumulative IPC: 0.674207 (Simulation time: 0 hr 3 min 56 sec) 
select_counter is 499
Heartbeat CPU 0 instructions: 12000000 cycles: 8135729 heartbeat IPC: 0.671567 cumulative IPC: 0.672885 (Simulation time: 0 hr 4 min 22 sec) 
select_counter is 497
Heartbeat CPU 0 instructions: 13000002 cycles: 9629724 heartbeat IPC: 0.669348 cumulative IPC: 0.671701 (Simulation time: 0 hr 4 min 49 sec) 
select_counter is 497
Heartbeat CPU 0 instructions: 14000002 cycles: 11124015 heartbeat IPC: 0.669214 cumulative IPC: 0.671078 (Simulation time: 0 hr 5 min 17 sec) 
select_counter is 495
Heartbeat CPU 0 instructions: 15000001 cycles: 12618833 heartbeat IPC: 0.668977 cumulative IPC: 0.670657 (Simulation time: 0 hr 5 min 43 sec) 
select_counter is 495
Heartbeat CPU 0 instructions: 16000000 cycles: 14113265 heartbeat IPC: 0.66915 cumulative IPC: 0.670405 (Simulation time: 0 hr 6 min 9 sec) 
select_counter is 492
Heartbeat CPU 0 instructions: 17000000 cycles: 15607540 heartbeat IPC: 0.669221 cumulative IPC: 0.670236 (Simulation time: 0 hr 6 min 35 sec) 
select_counter is 498
Heartbeat CPU 0 instructions: 18000001 cycles: 17095469 heartbeat IPC: 0.672076 cumulative IPC: 0.670465 (Simulation time: 0 hr 7 min 2 sec) 
select_counter is 509
Heartbeat CPU 0 instructions: 19000003 cycles: 18577610 heartbeat IPC: 0.674701 cumulative IPC: 0.670933 (Simulation time: 0 hr 7 min 27 sec) 
select_counter is 513
Heartbeat CPU 0 instructions: 20000000 cycles: 20060900 heartbeat IPC: 0.674175 cumulative IPC: 0.671256 (Simulation time: 0 hr 7 min 54 sec) 
select_counter is 520
Heartbeat CPU 0 instructions: 21000000 cycles: 21544826 heartbeat IPC: 0.673888 cumulative IPC: 0.671494 (Simulation time: 0 hr 8 min 20 sec) 
select_counter is 525
Heartbeat CPU 0 instructions: 22000000 cycles: 23038726 heartbeat IPC: 0.669389 cumulative IPC: 0.671318 (Simulation time: 0 hr 8 min 46 sec) 
select_counter is 528
Heartbeat CPU 0 instructions: 23000003 cycles: 24534149 heartbeat IPC: 0.668709 cumulative IPC: 0.671117 (Simulation time: 0 hr 9 min 12 sec) 
select_counter is 538
Heartbeat CPU 0 instructions: 24000000 cycles: 26027755 heartbeat IPC: 0.669519 cumulative IPC: 0.671003 (Simulation time: 0 hr 9 min 37 sec) 
select_counter is 544
Heartbeat CPU 0 instructions: 25000000 cycles: 27522677 heartbeat IPC: 0.668931 cumulative IPC: 0.670864 (Simulation time: 0 hr 10 min 4 sec) 
select_counter is 554
Heartbeat CPU 0 instructions: 26000001 cycles: 29017435 heartbeat IPC: 0.669005 cumulative IPC: 0.670748 (Simulation time: 0 hr 10 min 30 sec) 
select_counter is 566
Heartbeat CPU 0 instructions: 27000003 cycles: 30510704 heartbeat IPC: 0.669673 cumulative IPC: 0.670684 (Simulation time: 0 hr 10 min 56 sec) 
select_counter is 567
Heartbeat CPU 0 instructions: 28000000 cycles: 31993189 heartbeat IPC: 0.674541 cumulative IPC: 0.670897 (Simulation time: 0 hr 11 min 22 sec) 
select_counter is 585
Heartbeat CPU 0 instructions: 29000001 cycles: 33476110 heartbeat IPC: 0.674345 cumulative IPC: 0.671078 (Simulation time: 0 hr 11 min 48 sec) 
select_counter is 599
Heartbeat CPU 0 instructions: 30000001 cycles: 34959465 heartbeat IPC: 0.674147 cumulative IPC: 0.671231 (Simulation time: 0 hr 12 min 14 sec) 
select_counter is 614
Heartbeat CPU 0 instructions: 31000000 cycles: 36450338 heartbeat IPC: 0.670747 cumulative IPC: 0.671208 (Simulation time: 0 hr 12 min 41 sec) 
select_counter is 631
Heartbeat CPU 0 instructions: 32000000 cycles: 37944203 heartbeat IPC: 0.669405 cumulative IPC: 0.671126 (Simulation time: 0 hr 13 min 11 sec) 
select_counter is 637
Heartbeat CPU 0 instructions: 33000001 cycles: 39438164 heartbeat IPC: 0.669362 cumulative IPC: 0.671049 (Simulation time: 0 hr 13 min 45 sec) 
select_counter is 651
Heartbeat CPU 0 instructions: 34000002 cycles: 40932446 heartbeat IPC: 0.669218 cumulative IPC: 0.670972 (Simulation time: 0 hr 14 min 11 sec) 
select_counter is 668
Heartbeat CPU 0 instructions: 35000001 cycles: 42427790 heartbeat IPC: 0.668742 cumulative IPC: 0.670883 (Simulation time: 0 hr 14 min 36 sec) 
select_counter is 687
Heartbeat CPU 0 instructions: 36000000 cycles: 43922709 heartbeat IPC: 0.668932 cumulative IPC: 0.670807 (Simulation time: 0 hr 15 min 3 sec) 
select_counter is 694
Heartbeat CPU 0 instructions: 37000003 cycles: 45408864 heartbeat IPC: 0.672879 cumulative IPC: 0.670884 (Simulation time: 0 hr 15 min 29 sec) 
select_counter is 700
Heartbeat CPU 0 instructions: 38000000 cycles: 46891574 heartbeat IPC: 0.674439 cumulative IPC: 0.67101 (Simulation time: 0 hr 15 min 55 sec) 
select_counter is 710
Heartbeat CPU 0 instructions: 39000001 cycles: 48375456 heartbeat IPC: 0.673909 cumulative IPC: 0.67111 (Simulation time: 0 hr 16 min 36 sec) 
select_counter is 730
Heartbeat CPU 0 instructions: 40000000 cycles: 49861317 heartbeat IPC: 0.67301 cumulative IPC: 0.671173 (Simulation time: 0 hr 17 min 3 sec) 
select_counter is 742
Heartbeat CPU 0 instructions: 41000000 cycles: 51355406 heartbeat IPC: 0.669304 cumulative IPC: 0.671113 (Simulation time: 0 hr 17 min 32 sec) 
select_counter is 755
Heartbeat CPU 0 instructions: 42000001 cycles: 52851225 heartbeat IPC: 0.668531 cumulative IPC: 0.671032 (Simulation time: 0 hr 17 min 59 sec) 
select_counter is 765
Heartbeat CPU 0 instructions: 43000001 cycles: 54345350 heartbeat IPC: 0.669288 cumulative IPC: 0.670979 (Simulation time: 0 hr 18 min 32 sec) 
select_counter is 778
Heartbeat CPU 0 instructions: 44000000 cycles: 55840489 heartbeat IPC: 0.668833 cumulative IPC: 0.670915 (Simulation time: 0 hr 19 min 1 sec) 
select_counter is 787
Heartbeat CPU 0 instructions: 45000000 cycles: 57334880 heartbeat IPC: 0.669169 cumulative IPC: 0.670865 (Simulation time: 0 hr 19 min 27 sec) 
select_counter is 798
Heartbeat CPU 0 instructions: 46000002 cycles: 59651800 heartbeat IPC: 0.431608 cumulative IPC: 0.660692 (Simulation time: 0 hr 19 min 59 sec) 
select_counter is 707
Heartbeat CPU 0 instructions: 47000002 cycles: 61291424 heartbeat IPC: 0.609896 cumulative IPC: 0.659208 (Simulation time: 0 hr 20 min 25 sec) 
select_counter is 847
Heartbeat CPU 0 instructions: 48000000 cycles: 63031361 heartbeat IPC: 0.574732 cumulative IPC: 0.656668 (Simulation time: 0 hr 20 min 52 sec) 
select_counter is 1022
Heartbeat CPU 0 instructions: 49000001 cycles: 64760170 heartbeat IPC: 0.578433 cumulative IPC: 0.654398 (Simulation time: 0 hr 21 min 20 sec) 
select_counter is 1020
Heartbeat CPU 0 instructions: 50000000 cycles: 66502843 heartbeat IPC: 0.573831 cumulative IPC: 0.65211 (Simulation time: 0 hr 21 min 47 sec) 
select_counter is 1023
Heartbeat CPU 0 instructions: 51000000 cycles: 68304061 heartbeat IPC: 0.55518 cumulative IPC: 0.649344 (Simulation time: 0 hr 22 min 14 sec) 
select_counter is 1022
Heartbeat CPU 0 instructions: 52000000 cycles: 70087506 heartbeat IPC: 0.560713 cumulative IPC: 0.64691 (Simulation time: 0 hr 22 min 42 sec) 
select_counter is 1021
Heartbeat CPU 0 instructions: 53000002 cycles: 71100945 heartbeat IPC: 0.986741 cumulative IPC: 0.652133 (Simulation time: 0 hr 23 min 7 sec) 
select_counter is 953
Heartbeat CPU 0 instructions: 54000001 cycles: 71979128 heartbeat IPC: 1.13871 cumulative IPC: 0.658528 (Simulation time: 0 hr 23 min 31 sec) 
select_counter is 951
Heartbeat CPU 0 instructions: 55000000 cycles: 72861049 heartbeat IPC: 1.13389 cumulative IPC: 0.664721 (Simulation time: 0 hr 23 min 53 sec) 
select_counter is 1020
Heartbeat CPU 0 instructions: 56000000 cycles: 73731096 heartbeat IPC: 1.14936 cumulative IPC: 0.67087 (Simulation time: 0 hr 24 min 17 sec) 
select_counter is 1020
Heartbeat CPU 0 instructions: 57000001 cycles: 74603829 heartbeat IPC: 1.14583 cumulative IPC: 0.67684 (Simulation time: 0 hr 24 min 40 sec) 
select_counter is 1022
Heartbeat CPU 0 instructions: 58000002 cycles: 75469691 heartbeat IPC: 1.15492 cumulative IPC: 0.682727 (Simulation time: 0 hr 25 min 4 sec) 
select_counter is 1023
Heartbeat CPU 0 instructions: 59000003 cycles: 76336278 heartbeat IPC: 1.15395 cumulative IPC: 0.688465 (Simulation time: 0 hr 25 min 29 sec) 
select_counter is 1021
Heartbeat CPU 0 instructions: 60000000 cycles: 77209457 heartbeat IPC: 1.14524 cumulative IPC: 0.694001 (Simulation time: 0 hr 25 min 52 sec) 
select_counter is 1022
Heartbeat CPU 0 instructions: 61000003 cycles: 78500442 heartbeat IPC: 0.774605 cumulative IPC: 0.69542 (Simulation time: 0 hr 26 min 16 sec) 
select_counter is 1019
Heartbeat CPU 0 instructions: 62000002 cycles: 79988535 heartbeat IPC: 0.672 cumulative IPC: 0.694954 (Simulation time: 0 hr 26 min 40 sec) 
select_counter is 1016
Heartbeat CPU 0 instructions: 63000002 cycles: 81474516 heartbeat IPC: 0.672956 cumulative IPC: 0.694526 (Simulation time: 0 hr 27 min 5 sec) 
select_counter is 1012
Heartbeat CPU 0 instructions: 64000000 cycles: 82961491 heartbeat IPC: 0.672505 cumulative IPC: 0.694105 (Simulation time: 0 hr 27 min 29 sec) 
select_counter is 1015
Heartbeat CPU 0 instructions: 65000001 cycles: 84450361 heartbeat IPC: 0.671651 cumulative IPC: 0.693683 (Simulation time: 0 hr 27 min 54 sec) 
select_counter is 1020
Heartbeat CPU 0 instructions: 66000000 cycles: 85937455 heartbeat IPC: 0.672452 cumulative IPC: 0.693292 (Simulation time: 0 hr 28 min 18 sec) 
select_counter is 1023
Heartbeat CPU 0 instructions: 67000001 cycles: 87427016 heartbeat IPC: 0.671339 cumulative IPC: 0.692895 (Simulation time: 0 hr 28 min 42 sec) 
select_counter is 1022
Heartbeat CPU 0 instructions: 68000000 cycles: 88913552 heartbeat IPC: 0.672704 cumulative IPC: 0.692536 (Simulation time: 0 hr 29 min 5 sec) 
select_counter is 1020
Heartbeat CPU 0 instructions: 69000002 cycles: 90399484 heartbeat IPC: 0.67298 cumulative IPC: 0.692196 (Simulation time: 0 hr 29 min 28 sec) 
select_counter is 1020
Heartbeat CPU 0 instructions: 70000000 cycles: 91886737 heartbeat IPC: 0.672379 cumulative IPC: 0.691856 (Simulation time: 0 hr 29 min 52 sec) 
select_counter is 1019
Heartbeat CPU 0 instructions: 71000001 cycles: 93374086 heartbeat IPC: 0.672338 cumulative IPC: 0.691527 (Simulation time: 0 hr 30 min 16 sec) 
select_counter is 1018
Heartbeat CPU 0 instructions: 72000000 cycles: 94862359 heartbeat IPC: 0.671919 cumulative IPC: 0.691201 (Simulation time: 0 hr 30 min 40 sec) 
select_counter is 1023
Heartbeat CPU 0 instructions: 73000000 cycles: 96348704 heartbeat IPC: 0.672791 cumulative IPC: 0.690901 (Simulation time: 0 hr 31 min 3 sec) 
select_counter is 1020
Heartbeat CPU 0 instructions: 74000003 cycles: 97835115 heartbeat IPC: 0.672763 cumulative IPC: 0.69061 (Simulation time: 0 hr 31 min 27 sec) 
select_counter is 1023
Heartbeat CPU 0 instructions: 75000003 cycles: 99323595 heartbeat IPC: 0.671826 cumulative IPC: 0.690313 (Simulation time: 0 hr 31 min 50 sec) 
select_counter is 1019
Heartbeat CPU 0 instructions: 76000000 cycles: 100810132 heartbeat IPC: 0.672702 cumulative IPC: 0.69004 (Simulation time: 0 hr 32 min 13 sec) 
select_counter is 1018
Heartbeat CPU 0 instructions: 77000002 cycles: 102298724 heartbeat IPC: 0.671777 cumulative IPC: 0.68976 (Simulation time: 0 hr 32 min 37 sec) 
select_counter is 1021
Heartbeat CPU 0 instructions: 78000001 cycles: 103786664 heartbeat IPC: 0.672069 cumulative IPC: 0.689493 (Simulation time: 0 hr 33 min 10 sec) 
select_counter is 1022
Heartbeat CPU 0 instructions: 79000001 cycles: 105275606 heartbeat IPC: 0.671618 cumulative IPC: 0.689227 (Simulation time: 0 hr 33 min 46 sec) 
select_counter is 1022
Heartbeat CPU 0 instructions: 80000000 cycles: 106761748 heartbeat IPC: 0.672883 cumulative IPC: 0.688988 (Simulation time: 0 hr 34 min 19 sec) 
select_counter is 1020
Heartbeat CPU 0 instructions: 81000000 cycles: 108249441 heartbeat IPC: 0.672182 cumulative IPC: 0.688745 (Simulation time: 0 hr 34 min 43 sec) 
select_counter is 1020
Heartbeat CPU 0 instructions: 82000003 cycles: 109735886 heartbeat IPC: 0.672748 cumulative IPC: 0.688518 (Simulation time: 0 hr 35 min 7 sec) 
select_counter is 1017
Heartbeat CPU 0 instructions: 83000003 cycles: 111225625 heartbeat IPC: 0.671259 cumulative IPC: 0.688276 (Simulation time: 0 hr 35 min 29 sec) 
select_counter is 1018
Heartbeat CPU 0 instructions: 84000000 cycles: 112711791 heartbeat IPC: 0.67287 cumulative IPC: 0.688063 (Simulation time: 0 hr 35 min 56 sec) 
select_counter is 1022
Heartbeat CPU 0 instructions: 85000002 cycles: 114198658 heartbeat IPC: 0.672556 cumulative IPC: 0.687851 (Simulation time: 0 hr 36 min 18 sec) 
select_counter is 1023
Heartbeat CPU 0 instructions: 86000001 cycles: 115684548 heartbeat IPC: 0.672997 cumulative IPC: 0.687652 (Simulation time: 0 hr 36 min 39 sec) 
select_counter is 1019
Heartbeat CPU 0 instructions: 87000001 cycles: 117170515 heartbeat IPC: 0.672962 cumulative IPC: 0.687457 (Simulation time: 0 hr 37 min 0 sec) 
select_counter is 1016
Heartbeat CPU 0 instructions: 88000000 cycles: 118682149 heartbeat IPC: 0.661535 cumulative IPC: 0.687111 (Simulation time: 0 hr 37 min 21 sec) 
select_counter is 886
Heartbeat CPU 0 instructions: 89000003 cycles: 120187329 heartbeat IPC: 0.664374 cumulative IPC: 0.686814 (Simulation time: 0 hr 37 min 43 sec) 
select_counter is 831
Heartbeat CPU 0 instructions: 90000003 cycles: 121694787 heartbeat IPC: 0.663368 cumulative IPC: 0.686511 (Simulation time: 0 hr 38 min 3 sec) 
select_counter is 855
Heartbeat CPU 0 instructions: 91000001 cycles: 123201982 heartbeat IPC: 0.663483 cumulative IPC: 0.686217 (Simulation time: 0 hr 38 min 23 sec) 
select_counter is 898
Heartbeat CPU 0 instructions: 92000000 cycles: 124709949 heartbeat IPC: 0.663144 cumulative IPC: 0.685926 (Simulation time: 0 hr 38 min 42 sec) 
select_counter is 938
Heartbeat CPU 0 instructions: 93000001 cycles: 126217408 heartbeat IPC: 0.663369 cumulative IPC: 0.685645 (Simulation time: 0 hr 39 min 2 sec) 
select_counter is 984
Heartbeat CPU 0 instructions: 94000001 cycles: 127724113 heartbeat IPC: 0.6637 cumulative IPC: 0.685375 (Simulation time: 0 hr 39 min 21 sec) 
select_counter is 1015
Heartbeat CPU 0 instructions: 95000001 cycles: 129230973 heartbeat IPC: 0.663632 cumulative IPC: 0.685111 (Simulation time: 0 hr 39 min 39 sec) 
select_counter is 1018
Heartbeat CPU 0 instructions: 96000000 cycles: 130738718 heartbeat IPC: 0.663241 cumulative IPC: 0.684848 (Simulation time: 0 hr 39 min 58 sec) 
select_counter is 1021
Heartbeat CPU 0 instructions: 97000000 cycles: 132247801 heartbeat IPC: 0.662654 cumulative IPC: 0.684585 (Simulation time: 0 hr 40 min 16 sec) 
select_counter is 1021
Heartbeat CPU 0 instructions: 98000000 cycles: 133754975 heartbeat IPC: 0.663493 cumulative IPC: 0.684337 (Simulation time: 0 hr 40 min 34 sec) 
select_counter is 1018
Heartbeat CPU 0 instructions: 99000000 cycles: 135261333 heartbeat IPC: 0.663853 cumulative IPC: 0.6841 (Simulation time: 0 hr 40 min 52 sec) 
select_counter is 1022
Heartbeat CPU 0 instructions: 100000000 cycles: 136767752 heartbeat IPC: 0.663826 cumulative IPC: 0.683868 (Simulation time: 0 hr 41 min 9 sec) 
select_counter is 1015
Heartbeat CPU 0 instructions: 101000002 cycles: 138275790 heartbeat IPC: 0.663115 cumulative IPC: 0.683633 (Simulation time: 0 hr 41 min 26 sec) 
select_counter is 1022
Heartbeat CPU 0 instructions: 102000002 cycles: 139782340 heartbeat IPC: 0.663768 cumulative IPC: 0.683411 (Simulation time: 0 hr 41 min 43 sec) 
select_counter is 1019
Heartbeat CPU 0 instructions: 103000002 cycles: 141288794 heartbeat IPC: 0.66381 cumulative IPC: 0.683194 (Simulation time: 0 hr 41 min 58 sec) 
select_counter is 1019
Heartbeat CPU 0 instructions: 104000000 cycles: 142795564 heartbeat IPC: 0.66367 cumulative IPC: 0.68298 (Simulation time: 0 hr 42 min 13 sec) 
select_counter is 1023
Heartbeat CPU 0 instructions: 105000001 cycles: 144302643 heartbeat IPC: 0.663536 cumulative IPC: 0.68277 (Simulation time: 0 hr 42 min 27 sec) 
select_counter is 1019
Heartbeat CPU 0 instructions: 106000001 cycles: 145810461 heartbeat IPC: 0.66321 cumulative IPC: 0.68256 (Simulation time: 0 hr 42 min 41 sec) 
select_counter is 1018
Heartbeat CPU 0 instructions: 107000000 cycles: 147315598 heartbeat IPC: 0.664391 cumulative IPC: 0.682367 (Simulation time: 0 hr 42 min 55 sec) 
select_counter is 1023
Heartbeat CPU 0 instructions: 108000000 cycles: 148822251 heartbeat IPC: 0.663723 cumulative IPC: 0.682172 (Simulation time: 0 hr 43 min 9 sec) 
select_counter is 1021
Heartbeat CPU 0 instructions: 109000000 cycles: 150333263 heartbeat IPC: 0.661808 cumulative IPC: 0.68196 (Simulation time: 0 hr 43 min 21 sec) 
select_counter is 939
Heartbeat CPU 0 instructions: 110000001 cycles: 151844552 heartbeat IPC: 0.661687 cumulative IPC: 0.681751 (Simulation time: 0 hr 43 min 34 sec) 
select_counter is 850
Finished CPU 0 instructions: 100000000 cycles: 146681099 cummulative IPC: 0.681751 (Simulation time: 0 hr 43 min 34 sec) 

ChampSim completed all CPUs

Region of Interest Statistics

CPU 0 cummulative IPC: 0.681751 instructions: 100000000 cycles: 146681099
LLC TOTAL     ACCESS:    1086077  HIT:     245317  MISS:     840760
LLC LOAD      ACCESS:      57222  HIT:       8612  MISS:      48610
LLC RFO       ACCESS:     201474  HIT:       1296  MISS:     200178
LLC PREFETCH  ACCESS:     599217  HIT:      13142  MISS:     586075
LLC WRITEBACK ACCESS:     228164  HIT:     222267  MISS:       5897
Ship samples: 
5, 40, 69, 123, 155, 190, 192, 242, 262, 316, 328, 371, 385, 421, 474, 490, 528, 564, 585, 636, 640, 685, 704, 751, 797, 827, 861, 868, 906, 931, 978, 1012, 1051, 1060, 1098, 1137, 1176, 1203, 1245, 1278, 1295, 1312, 1351, 1386, 1422, 1462, 1498, 1506, 1555, 1593, 1607, 1640, 1672, 1719, 1759, 1761, 1807, 1850, 1862, 1896, 1937, 1972, 1993, 2016, 
Lime duel samples: 
3, 53, 68, 113, 141, 163, 219, 232, 263, 318, 340, 369, 414, 444, 453, 488, 527, 558, 577, 610, 652, 695, 712, 767, 774, 812, 837, 878, 926, 937, 964, 1005, 1026, 1064, 1092, 1120, 1163, 1214, 1240, 1251, 1307, 1337, 1356, 1380, 1426, 1453, 1472, 1514, 1557, 1574, 1629, 1642, 1695, 1724, 1734, 1781, 1806, 1825, 1878, 1892, 1940, 1983, 1995, 2038, 
Lime samples: 
3, 113, 219, 318, 414, 488, 577, 695, 774, 878, 964, 1064, 1163, 1251, 1356, 1453, 1557, 1642, 1734, 1825, 1940, 
Insertion Distribution: 
	LOAD 211 0 0 0 0 0 1156 1076 
	RFO 0 0 0 0 0 0 7626 6050 
	PREF 0 0 0 0 0 0 15102 20347 
	WRITEBACK 0 0 0 0 0 0 0 5144 
Total Prefetch Downgrades: 20
