
*** ChampSim Multicore Out-of-Order Simulator ***

Warmup Instructions: 10000000
Simulation Instructions: 100000000
Configuration: 2
Number of CPUs: 1
LLC sets: 2048
LLC ways: 16
Off-chip DRAM Channels: 1 Width: 64-bit Data Rate: 1600 MT/s

CPU 0 runs /datasets/cs240c-wi22-a00-public/data/Assignment2-gz/bzip2_259B.trace.gz
CPU 0 L1D next line prefetcher
CPU 0 L2C IP-based stride prefetcher
Heartbeat CPU 0 instructions: 1000002 cycles: 428875 heartbeat IPC: 2.33169 cumulative IPC: 2.33169 (Simulation time: 0 hr 0 min 20 sec) 
select_counter is 510
Heartbeat CPU 0 instructions: 2000003 cycles: 861057 heartbeat IPC: 2.31384 cumulative IPC: 2.32273 (Simulation time: 0 hr 0 min 40 sec) 
select_counter is 510
Heartbeat CPU 0 instructions: 3000001 cycles: 1286790 heartbeat IPC: 2.34889 cumulative IPC: 2.33138 (Simulation time: 0 hr 1 min 0 sec) 
select_counter is 510
Heartbeat CPU 0 instructions: 4000000 cycles: 1685062 heartbeat IPC: 2.51084 cumulative IPC: 2.3738 (Simulation time: 0 hr 1 min 18 sec) 
select_counter is 511
Heartbeat CPU 0 instructions: 5000001 cycles: 2103495 heartbeat IPC: 2.38987 cumulative IPC: 2.377 (Simulation time: 0 hr 1 min 37 sec) 
select_counter is 511
Heartbeat CPU 0 instructions: 6000001 cycles: 2532858 heartbeat IPC: 2.32903 cumulative IPC: 2.36887 (Simulation time: 0 hr 2 min 0 sec) 
select_counter is 511
Heartbeat CPU 0 instructions: 7000003 cycles: 2961906 heartbeat IPC: 2.33075 cumulative IPC: 2.36334 (Simulation time: 0 hr 2 min 21 sec) 
select_counter is 511
Heartbeat CPU 0 instructions: 8000000 cycles: 3391719 heartbeat IPC: 2.32659 cumulative IPC: 2.35869 (Simulation time: 0 hr 2 min 42 sec) 
select_counter is 511
Heartbeat CPU 0 instructions: 9000000 cycles: 3819845 heartbeat IPC: 2.33576 cumulative IPC: 2.35612 (Simulation time: 0 hr 3 min 4 sec) 
select_counter is 511
Heartbeat CPU 0 instructions: 10000002 cycles: 4193917 heartbeat IPC: 2.67329 cumulative IPC: 2.38441 (Simulation time: 0 hr 3 min 25 sec) 
select_counter is 510

Warmup complete CPU 0 instructions: 10000002 cycles: 4193917 (Simulation time: 0 hr 3 min 25 sec) 

Heartbeat CPU 0 instructions: 11000002 cycles: 5030458 heartbeat IPC: 1.1954 cumulative IPC: 1.1954 (Simulation time: 0 hr 3 min 45 sec) 
select_counter is 559
Heartbeat CPU 0 instructions: 12000000 cycles: 6131016 heartbeat IPC: 0.908628 cumulative IPC: 1.03247 (Simulation time: 0 hr 4 min 10 sec) 
select_counter is 397
Heartbeat CPU 0 instructions: 13000002 cycles: 7054417 heartbeat IPC: 1.08296 cumulative IPC: 1.04877 (Simulation time: 0 hr 4 min 33 sec) 
select_counter is 230
Heartbeat CPU 0 instructions: 14000003 cycles: 8001850 heartbeat IPC: 1.05548 cumulative IPC: 1.05044 (Simulation time: 0 hr 4 min 56 sec) 
select_counter is 990
Heartbeat CPU 0 instructions: 15000002 cycles: 9023941 heartbeat IPC: 0.978386 cumulative IPC: 1.03519 (Simulation time: 0 hr 5 min 21 sec) 
select_counter is 887
Heartbeat CPU 0 instructions: 16000000 cycles: 9992320 heartbeat IPC: 1.03265 cumulative IPC: 1.03477 (Simulation time: 0 hr 5 min 44 sec) 
select_counter is 800
Heartbeat CPU 0 instructions: 17000002 cycles: 11100180 heartbeat IPC: 0.902643 cumulative IPC: 1.01357 (Simulation time: 0 hr 6 min 9 sec) 
select_counter is 1023
Heartbeat CPU 0 instructions: 18000001 cycles: 12178239 heartbeat IPC: 0.927592 cumulative IPC: 1.00196 (Simulation time: 0 hr 6 min 31 sec) 
select_counter is 958
Heartbeat CPU 0 instructions: 19000003 cycles: 13121199 heartbeat IPC: 1.06049 cumulative IPC: 1.00815 (Simulation time: 0 hr 6 min 50 sec) 
select_counter is 884
Heartbeat CPU 0 instructions: 20000000 cycles: 14110531 heartbeat IPC: 1.01078 cumulative IPC: 1.00841 (Simulation time: 0 hr 7 min 10 sec) 
select_counter is 861
Heartbeat CPU 0 instructions: 21000001 cycles: 15004720 heartbeat IPC: 1.11833 cumulative IPC: 1.0175 (Simulation time: 0 hr 7 min 29 sec) 
select_counter is 822
Heartbeat CPU 0 instructions: 22000001 cycles: 15905614 heartbeat IPC: 1.11001 cumulative IPC: 1.02462 (Simulation time: 0 hr 7 min 49 sec) 
select_counter is 812
Heartbeat CPU 0 instructions: 23000002 cycles: 16801339 heartbeat IPC: 1.11642 cumulative IPC: 1.03114 (Simulation time: 0 hr 8 min 8 sec) 
select_counter is 777
Heartbeat CPU 0 instructions: 24000000 cycles: 17695993 heartbeat IPC: 1.11775 cumulative IPC: 1.03688 (Simulation time: 0 hr 8 min 28 sec) 
select_counter is 732
Heartbeat CPU 0 instructions: 25000000 cycles: 18589181 heartbeat IPC: 1.11959 cumulative IPC: 1.04201 (Simulation time: 0 hr 8 min 48 sec) 
select_counter is 701
Heartbeat CPU 0 instructions: 26000000 cycles: 19498319 heartbeat IPC: 1.09994 cumulative IPC: 1.04545 (Simulation time: 0 hr 9 min 8 sec) 
select_counter is 653
Heartbeat CPU 0 instructions: 27000003 cycles: 20411567 heartbeat IPC: 1.095 cumulative IPC: 1.04824 (Simulation time: 0 hr 9 min 29 sec) 
select_counter is 595
Heartbeat CPU 0 instructions: 28000000 cycles: 21315241 heartbeat IPC: 1.10659 cumulative IPC: 1.05132 (Simulation time: 0 hr 9 min 48 sec) 
select_counter is 543
Heartbeat CPU 0 instructions: 29000000 cycles: 22210054 heartbeat IPC: 1.11755 cumulative IPC: 1.05461 (Simulation time: 0 hr 10 min 8 sec) 
select_counter is 478
Heartbeat CPU 0 instructions: 30000000 cycles: 23188688 heartbeat IPC: 1.02183 cumulative IPC: 1.05292 (Simulation time: 0 hr 10 min 27 sec) 
select_counter is 447
Heartbeat CPU 0 instructions: 31000001 cycles: 24096386 heartbeat IPC: 1.10169 cumulative IPC: 1.05515 (Simulation time: 0 hr 10 min 46 sec) 
select_counter is 407
Heartbeat CPU 0 instructions: 32000000 cycles: 24992569 heartbeat IPC: 1.11584 cumulative IPC: 1.05776 (Simulation time: 0 hr 11 min 5 sec) 
select_counter is 404
Heartbeat CPU 0 instructions: 33000002 cycles: 26212487 heartbeat IPC: 0.819729 cumulative IPC: 1.04457 (Simulation time: 0 hr 11 min 26 sec) 
select_counter is 332
Heartbeat CPU 0 instructions: 34000003 cycles: 27553225 heartbeat IPC: 0.745859 cumulative IPC: 1.02743 (Simulation time: 0 hr 11 min 50 sec) 
select_counter is 192
Heartbeat CPU 0 instructions: 35000001 cycles: 28628329 heartbeat IPC: 0.930141 cumulative IPC: 1.02315 (Simulation time: 0 hr 12 min 11 sec) 
select_counter is 113
Heartbeat CPU 0 instructions: 36000000 cycles: 29811125 heartbeat IPC: 0.845454 cumulative IPC: 1.01494 (Simulation time: 0 hr 12 min 31 sec) 
select_counter is 117
Heartbeat CPU 0 instructions: 37000002 cycles: 30854133 heartbeat IPC: 0.958767 cumulative IPC: 1.01275 (Simulation time: 0 hr 12 min 51 sec) 
select_counter is 117
Heartbeat CPU 0 instructions: 38000003 cycles: 31969593 heartbeat IPC: 0.896492 cumulative IPC: 1.00808 (Simulation time: 0 hr 13 min 13 sec) 
select_counter is 118
Heartbeat CPU 0 instructions: 39000001 cycles: 33113566 heartbeat IPC: 0.874145 cumulative IPC: 1.00278 (Simulation time: 0 hr 13 min 38 sec) 
select_counter is 116
Heartbeat CPU 0 instructions: 40000000 cycles: 34183038 heartbeat IPC: 0.93504 cumulative IPC: 1.00036 (Simulation time: 0 hr 13 min 56 sec) 
select_counter is 126
Heartbeat CPU 0 instructions: 41000001 cycles: 35372781 heartbeat IPC: 0.840518 cumulative IPC: 0.994263 (Simulation time: 0 hr 14 min 14 sec) 
select_counter is 133
Heartbeat CPU 0 instructions: 42000000 cycles: 36582766 heartbeat IPC: 0.826456 cumulative IPC: 0.987994 (Simulation time: 0 hr 14 min 33 sec) 
select_counter is 134
Heartbeat CPU 0 instructions: 43000003 cycles: 37799276 heartbeat IPC: 0.822026 cumulative IPC: 0.981986 (Simulation time: 0 hr 14 min 51 sec) 
select_counter is 132
Heartbeat CPU 0 instructions: 44000000 cycles: 39012431 heartbeat IPC: 0.824295 cumulative IPC: 0.976492 (Simulation time: 0 hr 15 min 10 sec) 
select_counter is 129
Heartbeat CPU 0 instructions: 45000000 cycles: 40234171 heartbeat IPC: 0.818505 cumulative IPC: 0.971136 (Simulation time: 0 hr 15 min 29 sec) 
select_counter is 134
Heartbeat CPU 0 instructions: 46000002 cycles: 41474326 heartbeat IPC: 0.806352 cumulative IPC: 0.965655 (Simulation time: 0 hr 15 min 47 sec) 
select_counter is 136
Heartbeat CPU 0 instructions: 47000000 cycles: 42705556 heartbeat IPC: 0.812194 cumulative IPC: 0.960748 (Simulation time: 0 hr 16 min 6 sec) 
select_counter is 139
Heartbeat CPU 0 instructions: 48000000 cycles: 43943734 heartbeat IPC: 0.807638 cumulative IPC: 0.955979 (Simulation time: 0 hr 16 min 25 sec) 
select_counter is 141
Heartbeat CPU 0 instructions: 49000003 cycles: 45213604 heartbeat IPC: 0.787485 cumulative IPC: 0.950763 (Simulation time: 0 hr 16 min 43 sec) 
select_counter is 137
Heartbeat CPU 0 instructions: 50000001 cycles: 46252651 heartbeat IPC: 0.962418 cumulative IPC: 0.951051 (Simulation time: 0 hr 17 min 2 sec) 
select_counter is 147
Heartbeat CPU 0 instructions: 51000002 cycles: 47417556 heartbeat IPC: 0.85844 cumulative IPC: 0.948555 (Simulation time: 0 hr 17 min 21 sec) 
select_counter is 145
Heartbeat CPU 0 instructions: 52000000 cycles: 48535718 heartbeat IPC: 0.894323 cumulative IPC: 0.947187 (Simulation time: 0 hr 17 min 40 sec) 
select_counter is 145
Heartbeat CPU 0 instructions: 53000001 cycles: 49732229 heartbeat IPC: 0.835764 cumulative IPC: 0.94426 (Simulation time: 0 hr 17 min 59 sec) 
select_counter is 148
Heartbeat CPU 0 instructions: 54000000 cycles: 50958029 heartbeat IPC: 0.815793 cumulative IPC: 0.940892 (Simulation time: 0 hr 18 min 18 sec) 
select_counter is 144
Heartbeat CPU 0 instructions: 55000000 cycles: 52109632 heartbeat IPC: 0.868355 cumulative IPC: 0.939149 (Simulation time: 0 hr 18 min 37 sec) 
select_counter is 154
Heartbeat CPU 0 instructions: 56000000 cycles: 53333559 heartbeat IPC: 0.817042 cumulative IPC: 0.936108 (Simulation time: 0 hr 18 min 56 sec) 
select_counter is 153
Heartbeat CPU 0 instructions: 57000000 cycles: 54554607 heartbeat IPC: 0.818969 cumulative IPC: 0.933268 (Simulation time: 0 hr 19 min 15 sec) 
select_counter is 153
Heartbeat CPU 0 instructions: 58000002 cycles: 55587820 heartbeat IPC: 0.967857 cumulative IPC: 0.933963 (Simulation time: 0 hr 19 min 34 sec) 
select_counter is 182
Heartbeat CPU 0 instructions: 59000000 cycles: 56688902 heartbeat IPC: 0.908196 cumulative IPC: 0.933422 (Simulation time: 0 hr 19 min 53 sec) 
select_counter is 185
Heartbeat CPU 0 instructions: 60000000 cycles: 57868766 heartbeat IPC: 0.847555 cumulative IPC: 0.931535 (Simulation time: 0 hr 20 min 11 sec) 
select_counter is 197
Heartbeat CPU 0 instructions: 61000000 cycles: 59013093 heartbeat IPC: 0.873876 cumulative IPC: 0.930331 (Simulation time: 0 hr 20 min 29 sec) 
select_counter is 199
Heartbeat CPU 0 instructions: 62000002 cycles: 59857828 heartbeat IPC: 1.18381 cumulative IPC: 0.934178 (Simulation time: 0 hr 20 min 47 sec) 
select_counter is 158
Heartbeat CPU 0 instructions: 63000003 cycles: 60750981 heartbeat IPC: 1.11963 cumulative IPC: 0.937107 (Simulation time: 0 hr 21 min 8 sec) 
select_counter is 993
Heartbeat CPU 0 instructions: 64000000 cycles: 61794424 heartbeat IPC: 0.958363 cumulative IPC: 0.937492 (Simulation time: 0 hr 21 min 32 sec) 
select_counter is 908
Heartbeat CPU 0 instructions: 65000003 cycles: 62762884 heartbeat IPC: 1.03257 cumulative IPC: 0.939064 (Simulation time: 0 hr 21 min 55 sec) 
select_counter is 872
Heartbeat CPU 0 instructions: 66000003 cycles: 63712959 heartbeat IPC: 1.05255 cumulative IPC: 0.940875 (Simulation time: 0 hr 22 min 18 sec) 
select_counter is 893
Heartbeat CPU 0 instructions: 67000003 cycles: 64761603 heartbeat IPC: 0.953612 cumulative IPC: 0.941096 (Simulation time: 0 hr 22 min 42 sec) 
select_counter is 931
Heartbeat CPU 0 instructions: 68000000 cycles: 65826618 heartbeat IPC: 0.938951 cumulative IPC: 0.941059 (Simulation time: 0 hr 23 min 5 sec) 
select_counter is 1008
Heartbeat CPU 0 instructions: 69000003 cycles: 66930770 heartbeat IPC: 0.905675 cumulative IPC: 0.940436 (Simulation time: 0 hr 23 min 29 sec) 
select_counter is 964
Heartbeat CPU 0 instructions: 70000003 cycles: 68184201 heartbeat IPC: 0.79781 cumulative IPC: 0.937642 (Simulation time: 0 hr 23 min 53 sec) 
select_counter is 960
Heartbeat CPU 0 instructions: 71000000 cycles: 69562727 heartbeat IPC: 0.72541 cumulative IPC: 0.933167 (Simulation time: 0 hr 24 min 16 sec) 
select_counter is 869
Heartbeat CPU 0 instructions: 72000000 cycles: 70753942 heartbeat IPC: 0.839479 cumulative IPC: 0.93149 (Simulation time: 0 hr 24 min 37 sec) 
select_counter is 826
Heartbeat CPU 0 instructions: 73000003 cycles: 72077334 heartbeat IPC: 0.755636 cumulative IPC: 0.928062 (Simulation time: 0 hr 25 min 0 sec) 
select_counter is 751
Heartbeat CPU 0 instructions: 74000001 cycles: 73368540 heartbeat IPC: 0.774468 cumulative IPC: 0.925195 (Simulation time: 0 hr 25 min 22 sec) 
select_counter is 698
Heartbeat CPU 0 instructions: 75000000 cycles: 74551677 heartbeat IPC: 0.84521 cumulative IPC: 0.92385 (Simulation time: 0 hr 25 min 44 sec) 
select_counter is 633
Heartbeat CPU 0 instructions: 76000000 cycles: 75664519 heartbeat IPC: 0.8986 cumulative IPC: 0.923457 (Simulation time: 0 hr 26 min 6 sec) 
select_counter is 581
Heartbeat CPU 0 instructions: 77000003 cycles: 76636635 heartbeat IPC: 1.02869 cumulative IPC: 0.924869 (Simulation time: 0 hr 26 min 25 sec) 
select_counter is 567
Heartbeat CPU 0 instructions: 78000000 cycles: 77602268 heartbeat IPC: 1.03559 cumulative IPC: 0.926325 (Simulation time: 0 hr 26 min 44 sec) 
select_counter is 552
Heartbeat CPU 0 instructions: 79000003 cycles: 78680641 heartbeat IPC: 0.927326 cumulative IPC: 0.92634 (Simulation time: 0 hr 27 min 3 sec) 
select_counter is 498
Heartbeat CPU 0 instructions: 80000000 cycles: 79922597 heartbeat IPC: 0.805179 cumulative IPC: 0.924353 (Simulation time: 0 hr 27 min 25 sec) 
select_counter is 387
Heartbeat CPU 0 instructions: 81000001 cycles: 81111932 heartbeat IPC: 0.840807 cumulative IPC: 0.923061 (Simulation time: 0 hr 27 min 47 sec) 
select_counter is 324
Heartbeat CPU 0 instructions: 82000000 cycles: 82222260 heartbeat IPC: 0.900634 cumulative IPC: 0.922742 (Simulation time: 0 hr 28 min 8 sec) 
select_counter is 254
Heartbeat CPU 0 instructions: 83000002 cycles: 83269863 heartbeat IPC: 0.954562 cumulative IPC: 0.923163 (Simulation time: 0 hr 28 min 29 sec) 
select_counter is 194
Heartbeat CPU 0 instructions: 84000000 cycles: 84211389 heartbeat IPC: 1.0621 cumulative IPC: 0.924798 (Simulation time: 0 hr 28 min 49 sec) 
select_counter is 178
Heartbeat CPU 0 instructions: 85000003 cycles: 85146555 heartbeat IPC: 1.06933 cumulative IPC: 0.926468 (Simulation time: 0 hr 29 min 10 sec) 
select_counter is 152
Heartbeat CPU 0 instructions: 86000003 cycles: 86187125 heartbeat IPC: 0.961012 cumulative IPC: 0.926906 (Simulation time: 0 hr 29 min 30 sec) 
select_counter is 136
Heartbeat CPU 0 instructions: 87000002 cycles: 87246832 heartbeat IPC: 0.943656 cumulative IPC: 0.92712 (Simulation time: 0 hr 29 min 50 sec) 
select_counter is 87
Heartbeat CPU 0 instructions: 88000000 cycles: 88347876 heartbeat IPC: 0.908227 cumulative IPC: 0.926873 (Simulation time: 0 hr 30 min 11 sec) 
select_counter is 82
Heartbeat CPU 0 instructions: 89000002 cycles: 89354428 heartbeat IPC: 0.993493 cumulative IPC: 0.92766 (Simulation time: 0 hr 30 min 39 sec) 
select_counter is 61
Heartbeat CPU 0 instructions: 90000001 cycles: 90477771 heartbeat IPC: 0.890199 cumulative IPC: 0.927172 (Simulation time: 0 hr 31 min 6 sec) 
select_counter is 61
Heartbeat CPU 0 instructions: 91000002 cycles: 91591919 heartbeat IPC: 0.897548 cumulative IPC: 0.926795 (Simulation time: 0 hr 31 min 34 sec) 
select_counter is 55
Heartbeat CPU 0 instructions: 92000000 cycles: 92630412 heartbeat IPC: 0.962932 cumulative IPC: 0.927219 (Simulation time: 0 hr 32 min 1 sec) 
select_counter is 32
Heartbeat CPU 0 instructions: 93000000 cycles: 93819530 heartbeat IPC: 0.840959 cumulative IPC: 0.926075 (Simulation time: 0 hr 32 min 28 sec) 
select_counter is 25
Heartbeat CPU 0 instructions: 94000003 cycles: 94995729 heartbeat IPC: 0.850199 cumulative IPC: 0.925092 (Simulation time: 0 hr 32 min 46 sec) 
select_counter is 19
Heartbeat CPU 0 instructions: 95000002 cycles: 96180225 heartbeat IPC: 0.84424 cumulative IPC: 0.924051 (Simulation time: 0 hr 33 min 5 sec) 
select_counter is 22
Heartbeat CPU 0 instructions: 96000000 cycles: 97350204 heartbeat IPC: 0.854715 cumulative IPC: 0.92318 (Simulation time: 0 hr 33 min 22 sec) 
select_counter is 20
Heartbeat CPU 0 instructions: 97000002 cycles: 98567123 heartbeat IPC: 0.821749 cumulative IPC: 0.921872 (Simulation time: 0 hr 33 min 39 sec) 
select_counter is 19
Heartbeat CPU 0 instructions: 98000000 cycles: 99800528 heartbeat IPC: 0.810762 cumulative IPC: 0.920438 (Simulation time: 0 hr 33 min 56 sec) 
select_counter is 18
Heartbeat CPU 0 instructions: 99000000 cycles: 101040502 heartbeat IPC: 0.806469 cumulative IPC: 0.918979 (Simulation time: 0 hr 34 min 14 sec) 
select_counter is 11
Heartbeat CPU 0 instructions: 100000000 cycles: 102282564 heartbeat IPC: 0.805113 cumulative IPC: 0.917537 (Simulation time: 0 hr 34 min 32 sec) 
select_counter is 5
Heartbeat CPU 0 instructions: 101000003 cycles: 103430187 heartbeat IPC: 0.871369 cumulative IPC: 0.917003 (Simulation time: 0 hr 34 min 50 sec) 
select_counter is 1013
Heartbeat CPU 0 instructions: 102000000 cycles: 104548767 heartbeat IPC: 0.893988 cumulative IPC: 0.916747 (Simulation time: 0 hr 35 min 7 sec) 
select_counter is 1004
Heartbeat CPU 0 instructions: 103000000 cycles: 105650123 heartbeat IPC: 0.907972 cumulative IPC: 0.916652 (Simulation time: 0 hr 35 min 24 sec) 
select_counter is 1006
Heartbeat CPU 0 instructions: 104000000 cycles: 106802389 heartbeat IPC: 0.867855 cumulative IPC: 0.916104 (Simulation time: 0 hr 35 min 40 sec) 
select_counter is 1000
Heartbeat CPU 0 instructions: 105000002 cycles: 108012864 heartbeat IPC: 0.826124 cumulative IPC: 0.915055 (Simulation time: 0 hr 36 min 1 sec) 
select_counter is 995
Heartbeat CPU 0 instructions: 106000001 cycles: 109146424 heartbeat IPC: 0.882176 cumulative IPC: 0.914699 (Simulation time: 0 hr 36 min 26 sec) 
select_counter is 981
Heartbeat CPU 0 instructions: 107000000 cycles: 110350010 heartbeat IPC: 0.83085 cumulative IPC: 0.913749 (Simulation time: 0 hr 36 min 49 sec) 
select_counter is 975
Heartbeat CPU 0 instructions: 108000000 cycles: 111548348 heartbeat IPC: 0.834489 cumulative IPC: 0.912864 (Simulation time: 0 hr 37 min 8 sec) 
select_counter is 971
Heartbeat CPU 0 instructions: 109000000 cycles: 112560694 heartbeat IPC: 0.987805 cumulative IPC: 0.913564 (Simulation time: 0 hr 37 min 24 sec) 
select_counter is 954
Heartbeat CPU 0 instructions: 110000000 cycles: 113721220 heartbeat IPC: 0.861678 cumulative IPC: 0.913014 (Simulation time: 0 hr 37 min 41 sec) 
select_counter is 961
Finished CPU 0 instructions: 100000002 cycles: 109527305 cummulative IPC: 0.913014 (Simulation time: 0 hr 37 min 41 sec) 

ChampSim completed all CPUs

Region of Interest Statistics

CPU 0 cummulative IPC: 0.913014 instructions: 100000002 cycles: 109527305
LLC TOTAL     ACCESS:    1373521  HIT:    1038671  MISS:     334850
LLC LOAD      ACCESS:     396202  HIT:     345261  MISS:      50941
LLC RFO       ACCESS:     104383  HIT:      45048  MISS:      59335
LLC PREFETCH  ACCESS:     675955  HIT:     500978  MISS:     174977
LLC WRITEBACK ACCESS:     196981  HIT:     147384  MISS:      49597
Ship samples: 
18, 41, 64, 122, 145, 166, 216, 228, 275, 318, 331, 355, 408, 430, 473, 498, 541, 565, 593, 620, 645, 672, 725, 743, 792, 816, 855, 890, 899, 943, 962, 1018, 1030, 1067, 1090, 1130, 1172, 1192, 1221, 1253, 1309, 1319, 1347, 1395, 1414, 1448, 1473, 1505, 1559, 1581, 1600, 1644, 1686, 1697, 1730, 1771, 1807, 1839, 1865, 1918, 1939, 1975, 1992, 2044, 
Lime duel samples: 
6, 59, 69, 126, 138, 183, 196, 238, 281, 303, 324, 363, 407, 431, 448, 500, 533, 567, 603, 639, 648, 689, 723, 761, 772, 811, 835, 883, 911, 936, 988, 1009, 1049, 1077, 1093, 1139, 1171, 1214, 1229, 1261, 1296, 1320, 1360, 1398, 1419, 1456, 1480, 1506, 1544, 1580, 1625, 1656, 1684, 1717, 1755, 1767, 1823, 1843, 1874, 1891, 1935, 1958, 2004, 2041, 
Lime samples: 
6, 126, 196, 303, 407, 500, 603, 689, 772, 883, 988, 1077, 1171, 1261, 1360, 1456, 1544, 1656, 1755, 1843, 1935, 
Insertion Distribution: 
	LOAD 18788 0 0 0 0 0 5011 177 
	RFO 9343 0 0 0 0 0 21316 22643 
	PREF 0 7627 0 0 0 0 27831 35781 
	WRITEBACK 0 0 0 0 0 0 0 16248 
Total Prefetch Downgrades: 18428
