
*** ChampSim Multicore Out-of-Order Simulator ***

Warmup Instructions: 10000000
Simulation Instructions: 100000000
Configuration: 2
Number of CPUs: 1
LLC sets: 2048
LLC ways: 16
Off-chip DRAM Channels: 1 Width: 64-bit Data Rate: 1600 MT/s

CPU 0 runs /datasets/cs240c-wi22-a00-public/data/Assignment2-gz/leslie3d_94B.trace.gz
CPU 0 L1D next line prefetcher
CPU 0 L2C IP-based stride prefetcher
Heartbeat CPU 0 instructions: 1000003 cycles: 597056 heartbeat IPC: 1.67489 cumulative IPC: 1.67489 (Simulation time: 0 hr 0 min 28 sec) 
select_counter is 386
Heartbeat CPU 0 instructions: 2000002 cycles: 1215907 heartbeat IPC: 1.6159 cumulative IPC: 1.64486 (Simulation time: 0 hr 0 min 59 sec) 
select_counter is 136
Heartbeat CPU 0 instructions: 3000003 cycles: 1867667 heartbeat IPC: 1.53431 cumulative IPC: 1.60628 (Simulation time: 0 hr 1 min 29 sec) 
select_counter is 68
Heartbeat CPU 0 instructions: 4000000 cycles: 2518900 heartbeat IPC: 1.53554 cumulative IPC: 1.58799 (Simulation time: 0 hr 1 min 56 sec) 
select_counter is 937
Heartbeat CPU 0 instructions: 5000002 cycles: 3083909 heartbeat IPC: 1.76989 cumulative IPC: 1.62132 (Simulation time: 0 hr 2 min 22 sec) 
select_counter is 938
Heartbeat CPU 0 instructions: 6000002 cycles: 3734614 heartbeat IPC: 1.53679 cumulative IPC: 1.60659 (Simulation time: 0 hr 2 min 46 sec) 
select_counter is 928
Heartbeat CPU 0 instructions: 7000000 cycles: 4385336 heartbeat IPC: 1.53675 cumulative IPC: 1.59623 (Simulation time: 0 hr 3 min 11 sec) 
select_counter is 894
Heartbeat CPU 0 instructions: 8000000 cycles: 4950344 heartbeat IPC: 1.76989 cumulative IPC: 1.61605 (Simulation time: 0 hr 3 min 36 sec) 
select_counter is 847
Heartbeat CPU 0 instructions: 9000000 cycles: 5601214 heartbeat IPC: 1.53641 cumulative IPC: 1.60679 (Simulation time: 0 hr 4 min 8 sec) 
select_counter is 812
Heartbeat CPU 0 instructions: 10000001 cycles: 6252433 heartbeat IPC: 1.53558 cumulative IPC: 1.59938 (Simulation time: 0 hr 4 min 37 sec) 
select_counter is 766

Warmup complete CPU 0 instructions: 10000001 cycles: 6252433 (Simulation time: 0 hr 4 min 37 sec) 

Heartbeat CPU 0 instructions: 11000000 cycles: 7482779 heartbeat IPC: 0.812779 cumulative IPC: 0.812779 (Simulation time: 0 hr 5 min 6 sec) 
select_counter is 700
Heartbeat CPU 0 instructions: 12000000 cycles: 9317380 heartbeat IPC: 0.545078 cumulative IPC: 0.652539 (Simulation time: 0 hr 5 min 38 sec) 
select_counter is 459
Heartbeat CPU 0 instructions: 13000000 cycles: 11133696 heartbeat IPC: 0.550565 cumulative IPC: 0.614595 (Simulation time: 0 hr 6 min 11 sec) 
select_counter is 158
Heartbeat CPU 0 instructions: 14000001 cycles: 13064234 heartbeat IPC: 0.517991 cumulative IPC: 0.587216 (Simulation time: 0 hr 6 min 44 sec) 
select_counter is 241
Heartbeat CPU 0 instructions: 15000001 cycles: 15014710 heartbeat IPC: 0.512695 cumulative IPC: 0.570628 (Simulation time: 0 hr 7 min 21 sec) 
select_counter is 531
Heartbeat CPU 0 instructions: 16000000 cycles: 16986737 heartbeat IPC: 0.507092 cumulative IPC: 0.558956 (Simulation time: 0 hr 7 min 55 sec) 
select_counter is 903
Heartbeat CPU 0 instructions: 17000001 cycles: 18910195 heartbeat IPC: 0.519898 cumulative IPC: 0.55302 (Simulation time: 0 hr 8 min 25 sec) 
select_counter is 844
Heartbeat CPU 0 instructions: 18000002 cycles: 20897081 heartbeat IPC: 0.503301 cumulative IPC: 0.546275 (Simulation time: 0 hr 9 min 1 sec) 
select_counter is 755
Heartbeat CPU 0 instructions: 19000001 cycles: 22896913 heartbeat IPC: 0.500041 cumulative IPC: 0.54072 (Simulation time: 0 hr 9 min 36 sec) 
select_counter is 593
Heartbeat CPU 0 instructions: 20000000 cycles: 24882383 heartbeat IPC: 0.503659 cumulative IPC: 0.53677 (Simulation time: 0 hr 10 min 9 sec) 
select_counter is 520
Heartbeat CPU 0 instructions: 21000002 cycles: 26815826 heartbeat IPC: 0.517213 cumulative IPC: 0.534931 (Simulation time: 0 hr 10 min 41 sec) 
select_counter is 359
Heartbeat CPU 0 instructions: 22000002 cycles: 29084058 heartbeat IPC: 0.440872 cumulative IPC: 0.525587 (Simulation time: 0 hr 11 min 13 sec) 
select_counter is 876
Heartbeat CPU 0 instructions: 23000000 cycles: 31506622 heartbeat IPC: 0.412785 cumulative IPC: 0.514766 (Simulation time: 0 hr 11 min 50 sec) 
select_counter is 1021
Heartbeat CPU 0 instructions: 24000000 cycles: 33945645 heartbeat IPC: 0.41 cumulative IPC: 0.505539 (Simulation time: 0 hr 12 min 29 sec) 
select_counter is 1023
Heartbeat CPU 0 instructions: 25000000 cycles: 36354029 heartbeat IPC: 0.415216 cumulative IPC: 0.498312 (Simulation time: 0 hr 13 min 8 sec) 
select_counter is 997
Heartbeat CPU 0 instructions: 26000002 cycles: 38635979 heartbeat IPC: 0.438223 cumulative IPC: 0.494078 (Simulation time: 0 hr 13 min 43 sec) 
select_counter is 1019
Heartbeat CPU 0 instructions: 27000001 cycles: 40973141 heartbeat IPC: 0.427869 cumulative IPC: 0.489621 (Simulation time: 0 hr 14 min 18 sec) 
select_counter is 1020
Heartbeat CPU 0 instructions: 28000000 cycles: 43352302 heartbeat IPC: 0.420316 cumulative IPC: 0.485177 (Simulation time: 0 hr 14 min 53 sec) 
select_counter is 1023
Heartbeat CPU 0 instructions: 29000000 cycles: 45717394 heartbeat IPC: 0.422817 cumulative IPC: 0.48144 (Simulation time: 0 hr 15 min 29 sec) 
select_counter is 1022
Heartbeat CPU 0 instructions: 30000000 cycles: 47143874 heartbeat IPC: 0.701026 cumulative IPC: 0.4891 (Simulation time: 0 hr 15 min 57 sec) 
select_counter is 889
Heartbeat CPU 0 instructions: 31000002 cycles: 48481135 heartbeat IPC: 0.747799 cumulative IPC: 0.497292 (Simulation time: 0 hr 16 min 26 sec) 
select_counter is 712
Heartbeat CPU 0 instructions: 32000000 cycles: 49840396 heartbeat IPC: 0.735692 cumulative IPC: 0.504726 (Simulation time: 0 hr 16 min 54 sec) 
select_counter is 492
Heartbeat CPU 0 instructions: 33000001 cycles: 51186402 heartbeat IPC: 0.742939 cumulative IPC: 0.511862 (Simulation time: 0 hr 17 min 21 sec) 
select_counter is 300
Heartbeat CPU 0 instructions: 34000003 cycles: 52499389 heartbeat IPC: 0.761624 cumulative IPC: 0.518953 (Simulation time: 0 hr 17 min 51 sec) 
select_counter is 112
Heartbeat CPU 0 instructions: 35000001 cycles: 53775788 heartbeat IPC: 0.783453 cumulative IPC: 0.526057 (Simulation time: 0 hr 18 min 23 sec) 
select_counter is 920
Heartbeat CPU 0 instructions: 36000000 cycles: 55130767 heartbeat IPC: 0.738018 cumulative IPC: 0.531933 (Simulation time: 0 hr 18 min 52 sec) 
select_counter is 774
Heartbeat CPU 0 instructions: 37000003 cycles: 56480851 heartbeat IPC: 0.740697 cumulative IPC: 0.537544 (Simulation time: 0 hr 19 min 21 sec) 
select_counter is 595
Heartbeat CPU 0 instructions: 38000000 cycles: 57840727 heartbeat IPC: 0.735359 cumulative IPC: 0.542759 (Simulation time: 0 hr 19 min 50 sec) 
select_counter is 387
Heartbeat CPU 0 instructions: 39000000 cycles: 59146199 heartbeat IPC: 0.766006 cumulative IPC: 0.548269 (Simulation time: 0 hr 20 min 17 sec) 
select_counter is 234
Heartbeat CPU 0 instructions: 40000000 cycles: 60408090 heartbeat IPC: 0.792461 cumulative IPC: 0.553959 (Simulation time: 0 hr 20 min 45 sec) 
select_counter is 91
Heartbeat CPU 0 instructions: 41000002 cycles: 61721740 heartbeat IPC: 0.761239 cumulative IPC: 0.558868 (Simulation time: 0 hr 21 min 18 sec) 
select_counter is 952
Heartbeat CPU 0 instructions: 42000002 cycles: 63023662 heartbeat IPC: 0.768095 cumulative IPC: 0.563666 (Simulation time: 0 hr 21 min 50 sec) 
select_counter is 778
Heartbeat CPU 0 instructions: 43000002 cycles: 64390563 heartbeat IPC: 0.731582 cumulative IPC: 0.567614 (Simulation time: 0 hr 22 min 21 sec) 
select_counter is 593
Heartbeat CPU 0 instructions: 44000000 cycles: 65721781 heartbeat IPC: 0.75119 cumulative IPC: 0.571723 (Simulation time: 0 hr 22 min 49 sec) 
select_counter is 392
Heartbeat CPU 0 instructions: 45000003 cycles: 67014570 heartbeat IPC: 0.773524 cumulative IPC: 0.576017 (Simulation time: 0 hr 23 min 16 sec) 
select_counter is 219
Heartbeat CPU 0 instructions: 46000001 cycles: 68337416 heartbeat IPC: 0.755944 cumulative IPC: 0.57985 (Simulation time: 0 hr 23 min 42 sec) 
select_counter is 5
Heartbeat CPU 0 instructions: 47000000 cycles: 69607304 heartbeat IPC: 0.78747 cumulative IPC: 0.584012 (Simulation time: 0 hr 24 min 9 sec) 
select_counter is 871
Heartbeat CPU 0 instructions: 48000000 cycles: 70983144 heartbeat IPC: 0.726829 cumulative IPC: 0.587047 (Simulation time: 0 hr 24 min 35 sec) 
select_counter is 620
Heartbeat CPU 0 instructions: 49000001 cycles: 72319814 heartbeat IPC: 0.748129 cumulative IPC: 0.590306 (Simulation time: 0 hr 25 min 2 sec) 
select_counter is 394
Heartbeat CPU 0 instructions: 50000001 cycles: 73642061 heartbeat IPC: 0.756288 cumulative IPC: 0.593563 (Simulation time: 0 hr 25 min 29 sec) 
select_counter is 226
Heartbeat CPU 0 instructions: 51000003 cycles: 74927188 heartbeat IPC: 0.778135 cumulative IPC: 0.597017 (Simulation time: 0 hr 25 min 56 sec) 
select_counter is 35
Heartbeat CPU 0 instructions: 52000000 cycles: 76195306 heartbeat IPC: 0.788568 cumulative IPC: 0.60049 (Simulation time: 0 hr 26 min 24 sec) 
select_counter is 935
Heartbeat CPU 0 instructions: 53000002 cycles: 77556340 heartbeat IPC: 0.734737 cumulative IPC: 0.603052 (Simulation time: 0 hr 26 min 58 sec) 
select_counter is 780
Heartbeat CPU 0 instructions: 54000001 cycles: 78876118 heartbeat IPC: 0.757702 cumulative IPC: 0.605863 (Simulation time: 0 hr 27 min 27 sec) 
select_counter is 590
Heartbeat CPU 0 instructions: 55000000 cycles: 80246153 heartbeat IPC: 0.729908 cumulative IPC: 0.60816 (Simulation time: 0 hr 27 min 56 sec) 
select_counter is 469
Heartbeat CPU 0 instructions: 56000000 cycles: 81559222 heartbeat IPC: 0.761575 cumulative IPC: 0.610835 (Simulation time: 0 hr 28 min 27 sec) 
select_counter is 329
Heartbeat CPU 0 instructions: 57000000 cycles: 82879140 heartbeat IPC: 0.757623 cumulative IPC: 0.613363 (Simulation time: 0 hr 28 min 57 sec) 
select_counter is 221
Heartbeat CPU 0 instructions: 58000001 cycles: 84172290 heartbeat IPC: 0.773306 cumulative IPC: 0.616018 (Simulation time: 0 hr 29 min 27 sec) 
select_counter is 124
Heartbeat CPU 0 instructions: 59000000 cycles: 85447099 heartbeat IPC: 0.78443 cumulative IPC: 0.618729 (Simulation time: 0 hr 29 min 54 sec) 
select_counter is 23
Heartbeat CPU 0 instructions: 60000000 cycles: 86759204 heartbeat IPC: 0.762134 cumulative IPC: 0.621066 (Simulation time: 0 hr 30 min 21 sec) 
select_counter is 912
Heartbeat CPU 0 instructions: 61000001 cycles: 88080117 heartbeat IPC: 0.757053 cumulative IPC: 0.623261 (Simulation time: 0 hr 30 min 50 sec) 
select_counter is 778
Heartbeat CPU 0 instructions: 62000002 cycles: 89419585 heartbeat IPC: 0.746566 cumulative IPC: 0.625247 (Simulation time: 0 hr 31 min 23 sec) 
select_counter is 653
Heartbeat CPU 0 instructions: 63000000 cycles: 90744567 heartbeat IPC: 0.754726 cumulative IPC: 0.627277 (Simulation time: 0 hr 31 min 54 sec) 
select_counter is 508
Heartbeat CPU 0 instructions: 64000000 cycles: 92076143 heartbeat IPC: 0.75099 cumulative IPC: 0.629197 (Simulation time: 0 hr 32 min 24 sec) 
select_counter is 328
Heartbeat CPU 0 instructions: 65000000 cycles: 93386098 heartbeat IPC: 0.763385 cumulative IPC: 0.631214 (Simulation time: 0 hr 32 min 53 sec) 
select_counter is 215
Heartbeat CPU 0 instructions: 66000000 cycles: 94708069 heartbeat IPC: 0.756446 cumulative IPC: 0.633086 (Simulation time: 0 hr 33 min 24 sec) 
select_counter is 130
Heartbeat CPU 0 instructions: 67000003 cycles: 96013331 heartbeat IPC: 0.766132 cumulative IPC: 0.63502 (Simulation time: 0 hr 33 min 52 sec) 
select_counter is 1011
Heartbeat CPU 0 instructions: 68000000 cycles: 97309492 heartbeat IPC: 0.771507 cumulative IPC: 0.636963 (Simulation time: 0 hr 34 min 21 sec) 
select_counter is 898
Heartbeat CPU 0 instructions: 69000000 cycles: 98643521 heartbeat IPC: 0.749609 cumulative IPC: 0.63859 (Simulation time: 0 hr 34 min 49 sec) 
select_counter is 801
Heartbeat CPU 0 instructions: 70000001 cycles: 99977252 heartbeat IPC: 0.749777 cumulative IPC: 0.640172 (Simulation time: 0 hr 35 min 17 sec) 
select_counter is 680
Heartbeat CPU 0 instructions: 71000002 cycles: 101337024 heartbeat IPC: 0.735418 cumulative IPC: 0.641534 (Simulation time: 0 hr 35 min 47 sec) 
select_counter is 577
Heartbeat CPU 0 instructions: 72000000 cycles: 102668037 heartbeat IPC: 0.751306 cumulative IPC: 0.643049 (Simulation time: 0 hr 36 min 12 sec) 
select_counter is 443
Heartbeat CPU 0 instructions: 73000000 cycles: 103985504 heartbeat IPC: 0.759032 cumulative IPC: 0.644613 (Simulation time: 0 hr 36 min 36 sec) 
select_counter is 350
Heartbeat CPU 0 instructions: 74000000 cycles: 105285352 heartbeat IPC: 0.769321 cumulative IPC: 0.64625 (Simulation time: 0 hr 36 min 59 sec) 
select_counter is 199
Heartbeat CPU 0 instructions: 75000002 cycles: 106572349 heartbeat IPC: 0.777004 cumulative IPC: 0.647927 (Simulation time: 0 hr 37 min 21 sec) 
select_counter is 90
Heartbeat CPU 0 instructions: 76000000 cycles: 107888577 heartbeat IPC: 0.759745 cumulative IPC: 0.649375 (Simulation time: 0 hr 37 min 44 sec) 
select_counter is 997
Heartbeat CPU 0 instructions: 77000000 cycles: 109175807 heartbeat IPC: 0.776862 cumulative IPC: 0.65097 (Simulation time: 0 hr 38 min 7 sec) 
select_counter is 913
Heartbeat CPU 0 instructions: 78000003 cycles: 110552579 heartbeat IPC: 0.726339 cumulative IPC: 0.651965 (Simulation time: 0 hr 38 min 29 sec) 
select_counter is 814
Heartbeat CPU 0 instructions: 79000000 cycles: 112037060 heartbeat IPC: 0.673634 cumulative IPC: 0.652269 (Simulation time: 0 hr 38 min 49 sec) 
select_counter is 816
Heartbeat CPU 0 instructions: 80000000 cycles: 113641145 heartbeat IPC: 0.623408 cumulative IPC: 0.651838 (Simulation time: 0 hr 39 min 8 sec) 
select_counter is 1021
Heartbeat CPU 0 instructions: 81000002 cycles: 115243733 heartbeat IPC: 0.623992 cumulative IPC: 0.651428 (Simulation time: 0 hr 39 min 28 sec) 
select_counter is 1019
Heartbeat CPU 0 instructions: 82000003 cycles: 116898379 heartbeat IPC: 0.60436 cumulative IPC: 0.650724 (Simulation time: 0 hr 39 min 46 sec) 
select_counter is 1022
Heartbeat CPU 0 instructions: 83000003 cycles: 118564210 heartbeat IPC: 0.600301 cumulative IPC: 0.649976 (Simulation time: 0 hr 40 min 5 sec) 
select_counter is 1020
Heartbeat CPU 0 instructions: 84000000 cycles: 120185987 heartbeat IPC: 0.616606 cumulative IPC: 0.649501 (Simulation time: 0 hr 40 min 23 sec) 
select_counter is 1023
Heartbeat CPU 0 instructions: 85000001 cycles: 121834895 heartbeat IPC: 0.606463 cumulative IPC: 0.648887 (Simulation time: 0 hr 40 min 41 sec) 
select_counter is 1022
Heartbeat CPU 0 instructions: 86000002 cycles: 123456403 heartbeat IPC: 0.61671 cumulative IPC: 0.648442 (Simulation time: 0 hr 41 min 0 sec) 
select_counter is 1020
Heartbeat CPU 0 instructions: 87000000 cycles: 125091038 heartbeat IPC: 0.611756 cumulative IPC: 0.647938 (Simulation time: 0 hr 41 min 18 sec) 
select_counter is 1015
Heartbeat CPU 0 instructions: 88000000 cycles: 126743369 heartbeat IPC: 0.605206 cumulative IPC: 0.647352 (Simulation time: 0 hr 41 min 42 sec) 
select_counter is 1007
Heartbeat CPU 0 instructions: 89000002 cycles: 128365126 heartbeat IPC: 0.616616 cumulative IPC: 0.646943 (Simulation time: 0 hr 42 min 5 sec) 
select_counter is 1000
Heartbeat CPU 0 instructions: 90000001 cycles: 129996220 heartbeat IPC: 0.613085 cumulative IPC: 0.646497 (Simulation time: 0 hr 42 min 19 sec) 
select_counter is 983
Heartbeat CPU 0 instructions: 91000003 cycles: 131623934 heartbeat IPC: 0.61436 cumulative IPC: 0.64608 (Simulation time: 0 hr 42 min 35 sec) 
select_counter is 957
Heartbeat CPU 0 instructions: 92000000 cycles: 133264920 heartbeat IPC: 0.609388 cumulative IPC: 0.645606 (Simulation time: 0 hr 42 min 50 sec) 
select_counter is 948
Heartbeat CPU 0 instructions: 93000001 cycles: 134937320 heartbeat IPC: 0.597944 cumulative IPC: 0.644986 (Simulation time: 0 hr 43 min 6 sec) 
select_counter is 936
Heartbeat CPU 0 instructions: 94000003 cycles: 136583096 heartbeat IPC: 0.607617 cumulative IPC: 0.644515 (Simulation time: 0 hr 43 min 21 sec) 
select_counter is 915
Heartbeat CPU 0 instructions: 95000002 cycles: 138277425 heartbeat IPC: 0.590204 cumulative IPC: 0.643817 (Simulation time: 0 hr 43 min 34 sec) 
select_counter is 885
Heartbeat CPU 0 instructions: 96000000 cycles: 139925311 heartbeat IPC: 0.606837 cumulative IPC: 0.643362 (Simulation time: 0 hr 43 min 47 sec) 
select_counter is 871
Heartbeat CPU 0 instructions: 97000003 cycles: 141933573 heartbeat IPC: 0.497945 cumulative IPC: 0.641209 (Simulation time: 0 hr 44 min 2 sec) 
select_counter is 887
Heartbeat CPU 0 instructions: 98000002 cycles: 147641799 heartbeat IPC: 0.175186 cumulative IPC: 0.622395 (Simulation time: 0 hr 44 min 31 sec) 
select_counter is 1022
Heartbeat CPU 0 instructions: 99000000 cycles: 150794449 heartbeat IPC: 0.317193 cumulative IPC: 0.615738 (Simulation time: 0 hr 44 min 53 sec) 
select_counter is 1018
Heartbeat CPU 0 instructions: 100000000 cycles: 152410429 heartbeat IPC: 0.61882 cumulative IPC: 0.615772 (Simulation time: 0 hr 45 min 4 sec) 
select_counter is 1006
Heartbeat CPU 0 instructions: 101000002 cycles: 153676252 heartbeat IPC: 0.790001 cumulative IPC: 0.617268 (Simulation time: 0 hr 45 min 13 sec) 
select_counter is 958
Heartbeat CPU 0 instructions: 102000003 cycles: 155076572 heartbeat IPC: 0.714123 cumulative IPC: 0.618179 (Simulation time: 0 hr 45 min 22 sec) 
select_counter is 1022
Heartbeat CPU 0 instructions: 103000002 cycles: 156530332 heartbeat IPC: 0.687871 cumulative IPC: 0.618854 (Simulation time: 0 hr 45 min 30 sec) 
select_counter is 1022
Heartbeat CPU 0 instructions: 104000000 cycles: 158016919 heartbeat IPC: 0.67268 cumulative IPC: 0.619381 (Simulation time: 0 hr 45 min 38 sec) 
select_counter is 1021
Heartbeat CPU 0 instructions: 105000001 cycles: 159561154 heartbeat IPC: 0.64757 cumulative IPC: 0.619665 (Simulation time: 0 hr 45 min 46 sec) 
select_counter is 1023
Heartbeat CPU 0 instructions: 106000001 cycles: 161118460 heartbeat IPC: 0.642135 cumulative IPC: 0.619891 (Simulation time: 0 hr 45 min 54 sec) 
select_counter is 1023
Heartbeat CPU 0 instructions: 107000001 cycles: 162659963 heartbeat IPC: 0.648718 cumulative IPC: 0.620175 (Simulation time: 0 hr 46 min 1 sec) 
select_counter is 1021
Heartbeat CPU 0 instructions: 108000000 cycles: 164206865 heartbeat IPC: 0.646453 cumulative IPC: 0.620432 (Simulation time: 0 hr 46 min 8 sec) 
select_counter is 1021
Heartbeat CPU 0 instructions: 109000001 cycles: 165720598 heartbeat IPC: 0.660619 cumulative IPC: 0.620814 (Simulation time: 0 hr 46 min 15 sec) 
select_counter is 1021
Heartbeat CPU 0 instructions: 110000001 cycles: 167247054 heartbeat IPC: 0.655112 cumulative IPC: 0.621139 (Simulation time: 0 hr 46 min 22 sec) 
select_counter is 1022
Finished CPU 0 instructions: 100000000 cycles: 160994621 cummulative IPC: 0.621139 (Simulation time: 0 hr 46 min 22 sec) 

ChampSim completed all CPUs

Region of Interest Statistics

CPU 0 cummulative IPC: 0.621139 instructions: 100000000 cycles: 160994621
LLC TOTAL     ACCESS:    4606584  HIT:    1095013  MISS:    3511571
LLC LOAD      ACCESS:     465147  HIT:      77675  MISS:     387472
LLC RFO       ACCESS:     743529  HIT:      94949  MISS:     648580
LLC PREFETCH  ACCESS:    2298038  HIT:     286262  MISS:    2011776
LLC WRITEBACK ACCESS:    1099870  HIT:     636127  MISS:     463743
Ship samples: 
19, 33, 87, 122, 129, 171, 221, 251, 283, 306, 339, 374, 387, 443, 462, 497, 531, 564, 597, 632, 670, 679, 733, 767, 768, 808, 844, 877, 917, 934, 983, 996, 1048, 1087, 1101, 1125, 1180, 1197, 1247, 1279, 1294, 1341, 1344, 1377, 1427, 1440, 1480, 1524, 1567, 1575, 1609, 1661, 1677, 1700, 1744, 1789, 1814, 1834, 1863, 1919, 1935, 1956, 1994, 2040, 
Lime duel samples: 
27, 37, 83, 98, 141, 175, 208, 249, 259, 318, 335, 379, 409, 439, 470, 494, 513, 562, 586, 622, 662, 675, 731, 738, 792, 817, 852, 894, 912, 936, 963, 1015, 1034, 1077, 1095, 1141, 1168, 1184, 1246, 1254, 1296, 1331, 1356, 1389, 1417, 1444, 1482, 1514, 1536, 1587, 1612, 1644, 1669, 1706, 1740, 1763, 1822, 1850, 1878, 1899, 1946, 1983, 2007, 2041, 
Lime samples: 
27, 98, 208, 318, 409, 494, 586, 675, 792, 894, 963, 1077, 1168, 1254, 1356, 1444, 1536, 1644, 1740, 1850, 1946, 
Insertion Distribution: 
	LOAD 16509 0 0 0 0 0 7384 65612 
	RFO 285 0 0 0 0 0 2471 80950 
	PREF 0 32472 0 0 0 0 66614 394731 
	WRITEBACK 0 0 0 0 0 0 0 125882 
Total Prefetch Downgrades: 26175
