
*** ChampSim Multicore Out-of-Order Simulator ***

Warmup Instructions: 10000000
Simulation Instructions: 100000000
Configuration: 1
Number of CPUs: 1
LLC sets: 2048
LLC ways: 16
Off-chip DRAM Channels: 1 Width: 64-bit Data Rate: 1600 MT/s

CPU 0 runs /datasets/cs240c-wi22-a00-public/data/Assignment2-gz/gcc_56B.trace.gz
Heartbeat CPU 0 instructions: 1000003 cycles: 954224 heartbeat IPC: 1.04798 cumulative IPC: 1.04798 (Simulation time: 0 hr 0 min 32 sec) 
select_counter is 517
Heartbeat CPU 0 instructions: 2000001 cycles: 1898520 heartbeat IPC: 1.05899 cumulative IPC: 1.05345 (Simulation time: 0 hr 1 min 2 sec) 
select_counter is 528
Heartbeat CPU 0 instructions: 3000001 cycles: 2885882 heartbeat IPC: 1.0128 cumulative IPC: 1.03954 (Simulation time: 0 hr 1 min 34 sec) 
select_counter is 528
Heartbeat CPU 0 instructions: 4000000 cycles: 3848631 heartbeat IPC: 1.03869 cumulative IPC: 1.03933 (Simulation time: 0 hr 2 min 5 sec) 
select_counter is 525
Heartbeat CPU 0 instructions: 5000002 cycles: 4738254 heartbeat IPC: 1.12407 cumulative IPC: 1.05524 (Simulation time: 0 hr 2 min 37 sec) 
select_counter is 525
Heartbeat CPU 0 instructions: 6000000 cycles: 5686318 heartbeat IPC: 1.05478 cumulative IPC: 1.05516 (Simulation time: 0 hr 3 min 10 sec) 
select_counter is 511
Heartbeat CPU 0 instructions: 7000000 cycles: 6650679 heartbeat IPC: 1.03696 cumulative IPC: 1.05252 (Simulation time: 0 hr 3 min 39 sec) 
select_counter is 503
Heartbeat CPU 0 instructions: 8000000 cycles: 7612020 heartbeat IPC: 1.04021 cumulative IPC: 1.05097 (Simulation time: 0 hr 4 min 11 sec) 
select_counter is 497
Heartbeat CPU 0 instructions: 9000000 cycles: 8623625 heartbeat IPC: 0.988528 cumulative IPC: 1.04364 (Simulation time: 0 hr 4 min 40 sec) 
select_counter is 489
Heartbeat CPU 0 instructions: 10000002 cycles: 9584267 heartbeat IPC: 1.04097 cumulative IPC: 1.04338 (Simulation time: 0 hr 5 min 9 sec) 
select_counter is 479

Warmup complete CPU 0 instructions: 10000002 cycles: 9584267 (Simulation time: 0 hr 5 min 9 sec) 

Heartbeat CPU 0 instructions: 11000000 cycles: 10948191 heartbeat IPC: 0.733177 cumulative IPC: 0.733177 (Simulation time: 0 hr 5 min 42 sec) 
select_counter is 464
Heartbeat CPU 0 instructions: 12000000 cycles: 12388136 heartbeat IPC: 0.694471 cumulative IPC: 0.713299 (Simulation time: 0 hr 6 min 9 sec) 
select_counter is 455
Heartbeat CPU 0 instructions: 13000001 cycles: 13783889 heartbeat IPC: 0.71646 cumulative IPC: 0.71435 (Simulation time: 0 hr 6 min 42 sec) 
select_counter is 444
Heartbeat CPU 0 instructions: 14000000 cycles: 15122910 heartbeat IPC: 0.746814 cumulative IPC: 0.722198 (Simulation time: 0 hr 7 min 16 sec) 
select_counter is 437
Heartbeat CPU 0 instructions: 15000003 cycles: 16508180 heartbeat IPC: 0.721883 cumulative IPC: 0.722135 (Simulation time: 0 hr 7 min 51 sec) 
select_counter is 433
Heartbeat CPU 0 instructions: 16000000 cycles: 17840039 heartbeat IPC: 0.750828 cumulative IPC: 0.726764 (Simulation time: 0 hr 8 min 24 sec) 
select_counter is 425
Heartbeat CPU 0 instructions: 17000001 cycles: 19170204 heartbeat IPC: 0.751787 cumulative IPC: 0.730236 (Simulation time: 0 hr 8 min 57 sec) 
select_counter is 418
Heartbeat CPU 0 instructions: 18000000 cycles: 20569468 heartbeat IPC: 0.714661 cumulative IPC: 0.728252 (Simulation time: 0 hr 9 min 28 sec) 
select_counter is 404
Heartbeat CPU 0 instructions: 19000000 cycles: 21953000 heartbeat IPC: 0.722788 cumulative IPC: 0.727641 (Simulation time: 0 hr 9 min 59 sec) 
select_counter is 397
Heartbeat CPU 0 instructions: 20000000 cycles: 23324866 heartbeat IPC: 0.728934 cumulative IPC: 0.72777 (Simulation time: 0 hr 10 min 33 sec) 
select_counter is 389
Heartbeat CPU 0 instructions: 21000000 cycles: 24674786 heartbeat IPC: 0.740785 cumulative IPC: 0.728934 (Simulation time: 0 hr 11 min 3 sec) 
select_counter is 381
Heartbeat CPU 0 instructions: 22000000 cycles: 26008438 heartbeat IPC: 0.749821 cumulative IPC: 0.73063 (Simulation time: 0 hr 11 min 33 sec) 
select_counter is 378
Heartbeat CPU 0 instructions: 23000000 cycles: 27348599 heartbeat IPC: 0.746179 cumulative IPC: 0.731803 (Simulation time: 0 hr 12 min 1 sec) 
select_counter is 366
Heartbeat CPU 0 instructions: 24000000 cycles: 28718573 heartbeat IPC: 0.729941 cumulative IPC: 0.73167 (Simulation time: 0 hr 12 min 36 sec) 
select_counter is 357
Heartbeat CPU 0 instructions: 25000000 cycles: 30098222 heartbeat IPC: 0.724822 cumulative IPC: 0.731209 (Simulation time: 0 hr 13 min 6 sec) 
select_counter is 351
Heartbeat CPU 0 instructions: 26000002 cycles: 31515249 heartbeat IPC: 0.705704 cumulative IPC: 0.729562 (Simulation time: 0 hr 13 min 37 sec) 
select_counter is 341
Heartbeat CPU 0 instructions: 27000000 cycles: 32907275 heartbeat IPC: 0.718376 cumulative IPC: 0.728894 (Simulation time: 0 hr 14 min 9 sec) 
select_counter is 335
Heartbeat CPU 0 instructions: 28000000 cycles: 34249448 heartbeat IPC: 0.74506 cumulative IPC: 0.729774 (Simulation time: 0 hr 14 min 43 sec) 
select_counter is 324
Heartbeat CPU 0 instructions: 29000000 cycles: 35598926 heartbeat IPC: 0.741027 cumulative IPC: 0.730357 (Simulation time: 0 hr 15 min 20 sec) 
select_counter is 316
Heartbeat CPU 0 instructions: 30000000 cycles: 36953168 heartbeat IPC: 0.73842 cumulative IPC: 0.730756 (Simulation time: 0 hr 15 min 52 sec) 
select_counter is 309
Heartbeat CPU 0 instructions: 31000000 cycles: 38316191 heartbeat IPC: 0.733663 cumulative IPC: 0.730894 (Simulation time: 0 hr 16 min 23 sec) 
select_counter is 287
Heartbeat CPU 0 instructions: 32000000 cycles: 39704661 heartbeat IPC: 0.720217 cumulative IPC: 0.730402 (Simulation time: 0 hr 16 min 51 sec) 
select_counter is 279
Heartbeat CPU 0 instructions: 33000002 cycles: 41122144 heartbeat IPC: 0.705477 cumulative IPC: 0.729282 (Simulation time: 0 hr 17 min 23 sec) 
select_counter is 271
Heartbeat CPU 0 instructions: 34000002 cycles: 42495116 heartbeat IPC: 0.728347 cumulative IPC: 0.729243 (Simulation time: 0 hr 17 min 55 sec) 
select_counter is 255
Heartbeat CPU 0 instructions: 35000002 cycles: 43852333 heartbeat IPC: 0.736802 cumulative IPC: 0.729542 (Simulation time: 0 hr 18 min 30 sec) 
select_counter is 241
Heartbeat CPU 0 instructions: 36000000 cycles: 45190294 heartbeat IPC: 0.747404 cumulative IPC: 0.730213 (Simulation time: 0 hr 19 min 3 sec) 
select_counter is 230
Heartbeat CPU 0 instructions: 37000000 cycles: 46512144 heartbeat IPC: 0.756516 cumulative IPC: 0.731155 (Simulation time: 0 hr 19 min 36 sec) 
select_counter is 216
Heartbeat CPU 0 instructions: 38000002 cycles: 47858577 heartbeat IPC: 0.742705 cumulative IPC: 0.731561 (Simulation time: 0 hr 20 min 6 sec) 
select_counter is 204
Heartbeat CPU 0 instructions: 39000000 cycles: 49274884 heartbeat IPC: 0.70606 cumulative IPC: 0.730651 (Simulation time: 0 hr 20 min 36 sec) 
select_counter is 179
Heartbeat CPU 0 instructions: 40000000 cycles: 50649234 heartbeat IPC: 0.727617 cumulative IPC: 0.73055 (Simulation time: 0 hr 21 min 9 sec) 
select_counter is 168
Heartbeat CPU 0 instructions: 41000001 cycles: 52000553 heartbeat IPC: 0.740018 cumulative IPC: 0.730851 (Simulation time: 0 hr 21 min 45 sec) 
select_counter is 162
Heartbeat CPU 0 instructions: 42000003 cycles: 53342313 heartbeat IPC: 0.745291 cumulative IPC: 0.731294 (Simulation time: 0 hr 22 min 17 sec) 
select_counter is 158
Heartbeat CPU 0 instructions: 43000001 cycles: 54691788 heartbeat IPC: 0.741027 cumulative IPC: 0.731585 (Simulation time: 0 hr 22 min 51 sec) 
select_counter is 154
Heartbeat CPU 0 instructions: 44000000 cycles: 56030760 heartbeat IPC: 0.746841 cumulative IPC: 0.732025 (Simulation time: 0 hr 23 min 23 sec) 
select_counter is 141
Heartbeat CPU 0 instructions: 45000000 cycles: 57416785 heartbeat IPC: 0.721488 cumulative IPC: 0.73172 (Simulation time: 0 hr 23 min 52 sec) 
select_counter is 142
Heartbeat CPU 0 instructions: 46000000 cycles: 58821437 heartbeat IPC: 0.71192 cumulative IPC: 0.731155 (Simulation time: 0 hr 24 min 25 sec) 
select_counter is 129
Heartbeat CPU 0 instructions: 47000002 cycles: 60208959 heartbeat IPC: 0.720711 cumulative IPC: 0.730869 (Simulation time: 0 hr 24 min 57 sec) 
select_counter is 117
Heartbeat CPU 0 instructions: 48000000 cycles: 61569539 heartbeat IPC: 0.734979 cumulative IPC: 0.730976 (Simulation time: 0 hr 25 min 28 sec) 
select_counter is 110
Heartbeat CPU 0 instructions: 49000002 cycles: 62906586 heartbeat IPC: 0.747918 cumulative IPC: 0.731401 (Simulation time: 0 hr 25 min 58 sec) 
select_counter is 100
Heartbeat CPU 0 instructions: 50000000 cycles: 64243335 heartbeat IPC: 0.748082 cumulative IPC: 0.731809 (Simulation time: 0 hr 26 min 32 sec) 
select_counter is 98
Heartbeat CPU 0 instructions: 51000000 cycles: 65615658 heartbeat IPC: 0.728691 cumulative IPC: 0.731733 (Simulation time: 0 hr 27 min 4 sec) 
select_counter is 87
Heartbeat CPU 0 instructions: 52000000 cycles: 67024987 heartbeat IPC: 0.709558 cumulative IPC: 0.731189 (Simulation time: 0 hr 27 min 33 sec) 
select_counter is 81
Heartbeat CPU 0 instructions: 53000001 cycles: 68375984 heartbeat IPC: 0.740195 cumulative IPC: 0.731396 (Simulation time: 0 hr 28 min 4 sec) 
select_counter is 70
Heartbeat CPU 0 instructions: 54000000 cycles: 69703140 heartbeat IPC: 0.75349 cumulative IPC: 0.731883 (Simulation time: 0 hr 28 min 39 sec) 
select_counter is 71
Heartbeat CPU 0 instructions: 55000001 cycles: 71022822 heartbeat IPC: 0.757759 cumulative IPC: 0.732439 (Simulation time: 0 hr 29 min 15 sec) 
select_counter is 59
Heartbeat CPU 0 instructions: 56000000 cycles: 72361113 heartbeat IPC: 0.747221 cumulative IPC: 0.732754 (Simulation time: 0 hr 29 min 47 sec) 
select_counter is 56
Heartbeat CPU 0 instructions: 57000001 cycles: 73709701 heartbeat IPC: 0.741517 cumulative IPC: 0.732938 (Simulation time: 0 hr 30 min 21 sec) 
select_counter is 49
Heartbeat CPU 0 instructions: 58000000 cycles: 75104810 heartbeat IPC: 0.716789 cumulative IPC: 0.732595 (Simulation time: 0 hr 30 min 57 sec) 
select_counter is 44
Heartbeat CPU 0 instructions: 59000000 cycles: 76515276 heartbeat IPC: 0.708986 cumulative IPC: 0.732097 (Simulation time: 0 hr 31 min 30 sec) 
select_counter is 18
Heartbeat CPU 0 instructions: 60000000 cycles: 77904983 heartbeat IPC: 0.719576 cumulative IPC: 0.731842 (Simulation time: 0 hr 32 min 1 sec) 
select_counter is 2
Heartbeat CPU 0 instructions: 61000000 cycles: 79250922 heartbeat IPC: 0.742976 cumulative IPC: 0.732058 (Simulation time: 0 hr 32 min 32 sec) 
select_counter is 1020
Heartbeat CPU 0 instructions: 62000002 cycles: 80630266 heartbeat IPC: 0.724984 cumulative IPC: 0.73192 (Simulation time: 0 hr 33 min 2 sec) 
select_counter is 1008
Heartbeat CPU 0 instructions: 63000003 cycles: 81962686 heartbeat IPC: 0.750515 cumulative IPC: 0.732262 (Simulation time: 0 hr 33 min 36 sec) 
select_counter is 1012
Heartbeat CPU 0 instructions: 64000000 cycles: 83303237 heartbeat IPC: 0.74596 cumulative IPC: 0.732512 (Simulation time: 0 hr 34 min 10 sec) 
select_counter is 1013
Heartbeat CPU 0 instructions: 65000000 cycles: 84671067 heartbeat IPC: 0.731085 cumulative IPC: 0.732486 (Simulation time: 0 hr 34 min 38 sec) 
select_counter is 985
Heartbeat CPU 0 instructions: 66000002 cycles: 86083772 heartbeat IPC: 0.707863 cumulative IPC: 0.732031 (Simulation time: 0 hr 35 min 11 sec) 
select_counter is 968
Heartbeat CPU 0 instructions: 67000002 cycles: 87492046 heartbeat IPC: 0.710089 cumulative IPC: 0.731634 (Simulation time: 0 hr 35 min 39 sec) 
select_counter is 959
Heartbeat CPU 0 instructions: 68000000 cycles: 88861914 heartbeat IPC: 0.729996 cumulative IPC: 0.731606 (Simulation time: 0 hr 36 min 10 sec) 
select_counter is 959
Heartbeat CPU 0 instructions: 69000000 cycles: 90207362 heartbeat IPC: 0.743247 cumulative IPC: 0.7318 (Simulation time: 0 hr 36 min 38 sec) 
select_counter is 950
Heartbeat CPU 0 instructions: 70000000 cycles: 91552047 heartbeat IPC: 0.743669 cumulative IPC: 0.731995 (Simulation time: 0 hr 37 min 5 sec) 
select_counter is 946
Heartbeat CPU 0 instructions: 71000003 cycles: 92922304 heartbeat IPC: 0.729792 cumulative IPC: 0.731959 (Simulation time: 0 hr 37 min 32 sec) 
select_counter is 934
Heartbeat CPU 0 instructions: 72000000 cycles: 94290930 heartbeat IPC: 0.730658 cumulative IPC: 0.731938 (Simulation time: 0 hr 37 min 57 sec) 
select_counter is 920
Heartbeat CPU 0 instructions: 73000003 cycles: 95686700 heartbeat IPC: 0.716453 cumulative IPC: 0.731687 (Simulation time: 0 hr 38 min 22 sec) 
select_counter is 907
Heartbeat CPU 0 instructions: 74000001 cycles: 97113755 heartbeat IPC: 0.700742 cumulative IPC: 0.731182 (Simulation time: 0 hr 38 min 46 sec) 
select_counter is 903
Heartbeat CPU 0 instructions: 75000003 cycles: 98515750 heartbeat IPC: 0.713271 cumulative IPC: 0.7309 (Simulation time: 0 hr 39 min 11 sec) 
select_counter is 889
Heartbeat CPU 0 instructions: 76000000 cycles: 99883204 heartbeat IPC: 0.731284 cumulative IPC: 0.730906 (Simulation time: 0 hr 39 min 36 sec) 
select_counter is 887
Heartbeat CPU 0 instructions: 77000003 cycles: 101245558 heartbeat IPC: 0.734026 cumulative IPC: 0.730952 (Simulation time: 0 hr 40 min 2 sec) 
select_counter is 879
Heartbeat CPU 0 instructions: 78000001 cycles: 102607523 heartbeat IPC: 0.734232 cumulative IPC: 0.731 (Simulation time: 0 hr 40 min 26 sec) 
select_counter is 875
Heartbeat CPU 0 instructions: 79000000 cycles: 103993207 heartbeat IPC: 0.721665 cumulative IPC: 0.730863 (Simulation time: 0 hr 40 min 47 sec) 
select_counter is 869
Heartbeat CPU 0 instructions: 80000000 cycles: 105367254 heartbeat IPC: 0.727777 cumulative IPC: 0.730819 (Simulation time: 0 hr 41 min 11 sec) 
select_counter is 868
Heartbeat CPU 0 instructions: 81000002 cycles: 106771191 heartbeat IPC: 0.712284 cumulative IPC: 0.730551 (Simulation time: 0 hr 41 min 35 sec) 
select_counter is 850
Heartbeat CPU 0 instructions: 82000000 cycles: 108171046 heartbeat IPC: 0.714358 cumulative IPC: 0.730321 (Simulation time: 0 hr 41 min 59 sec) 
select_counter is 840
Heartbeat CPU 0 instructions: 83000003 cycles: 109533061 heartbeat IPC: 0.734209 cumulative IPC: 0.730374 (Simulation time: 0 hr 42 min 22 sec) 
select_counter is 842
Heartbeat CPU 0 instructions: 84000000 cycles: 110907545 heartbeat IPC: 0.727544 cumulative IPC: 0.730336 (Simulation time: 0 hr 42 min 46 sec) 
select_counter is 825
Heartbeat CPU 0 instructions: 85000002 cycles: 112249616 heartbeat IPC: 0.745119 cumulative IPC: 0.730529 (Simulation time: 0 hr 43 min 9 sec) 
select_counter is 814
Heartbeat CPU 0 instructions: 86000003 cycles: 113583398 heartbeat IPC: 0.749748 cumulative IPC: 0.730775 (Simulation time: 0 hr 43 min 32 sec) 
select_counter is 809
Heartbeat CPU 0 instructions: 87000000 cycles: 114997166 heartbeat IPC: 0.707327 cumulative IPC: 0.730461 (Simulation time: 0 hr 43 min 56 sec) 
select_counter is 806
Heartbeat CPU 0 instructions: 88000000 cycles: 116377368 heartbeat IPC: 0.724532 cumulative IPC: 0.730384 (Simulation time: 0 hr 44 min 18 sec) 
select_counter is 794
Heartbeat CPU 0 instructions: 89000000 cycles: 117765109 heartbeat IPC: 0.720596 cumulative IPC: 0.730259 (Simulation time: 0 hr 44 min 39 sec) 
select_counter is 783
Heartbeat CPU 0 instructions: 90000000 cycles: 119109722 heartbeat IPC: 0.743708 cumulative IPC: 0.730424 (Simulation time: 0 hr 44 min 59 sec) 
select_counter is 774
Heartbeat CPU 0 instructions: 91000001 cycles: 120444303 heartbeat IPC: 0.7493 cumulative IPC: 0.730651 (Simulation time: 0 hr 45 min 17 sec) 
select_counter is 762
Heartbeat CPU 0 instructions: 92000000 cycles: 121794066 heartbeat IPC: 0.74087 cumulative IPC: 0.730774 (Simulation time: 0 hr 45 min 38 sec) 
select_counter is 745
Heartbeat CPU 0 instructions: 93000003 cycles: 123205611 heartbeat IPC: 0.708446 cumulative IPC: 0.730497 (Simulation time: 0 hr 45 min 56 sec) 
select_counter is 718
Heartbeat CPU 0 instructions: 94000000 cycles: 124580541 heartbeat IPC: 0.727308 cumulative IPC: 0.730458 (Simulation time: 0 hr 46 min 13 sec) 
select_counter is 681
Heartbeat CPU 0 instructions: 95000000 cycles: 125964815 heartbeat IPC: 0.7224 cumulative IPC: 0.730363 (Simulation time: 0 hr 46 min 31 sec) 
select_counter is 647
Heartbeat CPU 0 instructions: 96000000 cycles: 127327563 heartbeat IPC: 0.733811 cumulative IPC: 0.730403 (Simulation time: 0 hr 46 min 49 sec) 
select_counter is 619
Heartbeat CPU 0 instructions: 97000000 cycles: 128662559 heartbeat IPC: 0.749066 cumulative IPC: 0.730612 (Simulation time: 0 hr 47 min 6 sec) 
select_counter is 577
Heartbeat CPU 0 instructions: 98000003 cycles: 129999679 heartbeat IPC: 0.747878 cumulative IPC: 0.730803 (Simulation time: 0 hr 47 min 21 sec) 
select_counter is 546
Heartbeat CPU 0 instructions: 99000000 cycles: 131416696 heartbeat IPC: 0.705706 cumulative IPC: 0.730512 (Simulation time: 0 hr 47 min 36 sec) 
select_counter is 526
Heartbeat CPU 0 instructions: 100000000 cycles: 132788104 heartbeat IPC: 0.729178 cumulative IPC: 0.730497 (Simulation time: 0 hr 47 min 50 sec) 
select_counter is 510
Heartbeat CPU 0 instructions: 101000000 cycles: 134151239 heartbeat IPC: 0.733603 cumulative IPC: 0.730531 (Simulation time: 0 hr 48 min 3 sec) 
select_counter is 503
Heartbeat CPU 0 instructions: 102000001 cycles: 135476477 heartbeat IPC: 0.754582 cumulative IPC: 0.730784 (Simulation time: 0 hr 48 min 17 sec) 
select_counter is 494
Heartbeat CPU 0 instructions: 103000001 cycles: 136791977 heartbeat IPC: 0.760167 cumulative IPC: 0.731088 (Simulation time: 0 hr 48 min 30 sec) 
select_counter is 486
Heartbeat CPU 0 instructions: 104000000 cycles: 138107542 heartbeat IPC: 0.760129 cumulative IPC: 0.731385 (Simulation time: 0 hr 48 min 43 sec) 
select_counter is 477
Heartbeat CPU 0 instructions: 105000002 cycles: 139505143 heartbeat IPC: 0.715513 cumulative IPC: 0.731214 (Simulation time: 0 hr 48 min 56 sec) 
select_counter is 465
Heartbeat CPU 0 instructions: 106000000 cycles: 140930184 heartbeat IPC: 0.701733 cumulative IPC: 0.730894 (Simulation time: 0 hr 49 min 8 sec) 
select_counter is 456
Heartbeat CPU 0 instructions: 107000002 cycles: 142336607 heartbeat IPC: 0.711025 cumulative IPC: 0.730684 (Simulation time: 0 hr 49 min 19 sec) 
select_counter is 440
Heartbeat CPU 0 instructions: 108000000 cycles: 143706455 heartbeat IPC: 0.730007 cumulative IPC: 0.730677 (Simulation time: 0 hr 49 min 30 sec) 
select_counter is 422
Heartbeat CPU 0 instructions: 109000000 cycles: 145056481 heartbeat IPC: 0.740726 cumulative IPC: 0.730777 (Simulation time: 0 hr 49 min 41 sec) 
select_counter is 397
Heartbeat CPU 0 instructions: 110000000 cycles: 146401327 heartbeat IPC: 0.74358 cumulative IPC: 0.730903 (Simulation time: 0 hr 49 min 51 sec) 
select_counter is 367
Finished CPU 0 instructions: 100000003 cycles: 136817062 cummulative IPC: 0.730903 (Simulation time: 0 hr 49 min 51 sec) 

ChampSim completed all CPUs

Region of Interest Statistics

CPU 0 cummulative IPC: 0.730903 instructions: 100000003 cycles: 136817062
LLC TOTAL     ACCESS:   21200174  HIT:   21127618  MISS:      72556
LLC LOAD      ACCESS:     194764  HIT:     145245  MISS:      49519
LLC RFO       ACCESS:   10471722  HIT:   10460932  MISS:      10790
LLC PREFETCH  ACCESS:          0  HIT:          0  MISS:          0
LLC WRITEBACK ACCESS:   10533688  HIT:   10521441  MISS:      12247
Ship samples: 
27, 54, 75, 97, 136, 170, 216, 228, 278, 298, 340, 358, 399, 447, 470, 504, 528, 562, 591, 637, 647, 678, 705, 767, 781, 813, 837, 892, 913, 951, 977, 1020, 1041, 1071, 1102, 1136, 1178, 1215, 1242, 1269, 1309, 1332, 1364, 1379, 1417, 1457, 1485, 1515, 1544, 1580, 1630, 1632, 1665, 1711, 1745, 1789, 1802, 1832, 1859, 1891, 1951, 1976, 2007, 2027, 
Lime duel samples: 
26, 49, 86, 100, 158, 190, 207, 226, 284, 311, 351, 383, 388, 444, 477, 506, 519, 558, 597, 624, 654, 701, 713, 739, 793, 831, 844, 882, 897, 953, 971, 1023, 1055, 1073, 1090, 1149, 1173, 1207, 1244, 1278, 1287, 1314, 1346, 1392, 1414, 1467, 1498, 1529, 1566, 1581, 1605, 1634, 1685, 1724, 1759, 1782, 1811, 1855, 1882, 1902, 1950, 1981, 1997, 2019, 
Lime samples: 
26, 100, 207, 311, 388, 506, 597, 701, 793, 882, 971, 1073, 1173, 1278, 1346, 1467, 1566, 1634, 1759, 1855, 1950, 
Insertion Distribution: 
	LOAD 4870 0 0 0 0 0 13194 10092 
	RFO 0 0 0 0 0 0 3892 2751 
	PREF 0 0 0 0 0 0 0 0 
	WRITEBACK 0 0 0 0 0 0 0 56 
Total Prefetch Downgrades: 0
