
*** ChampSim Multicore Out-of-Order Simulator ***

Warmup Instructions: 10000000
Simulation Instructions: 100000000
Configuration: 1
Number of CPUs: 1
LLC sets: 2048
LLC ways: 16
Off-chip DRAM Channels: 1 Width: 64-bit Data Rate: 1600 MT/s

CPU 0 runs /datasets/cs240c-wi22-a00-public/data/Assignment2-gz/omnetpp_340B.trace.gz
Heartbeat CPU 0 instructions: 1000001 cycles: 578280 heartbeat IPC: 1.72927 cumulative IPC: 1.72927 (Simulation time: 0 hr 0 min 31 sec) 
select_counter is 558
Heartbeat CPU 0 instructions: 2000000 cycles: 1162466 heartbeat IPC: 1.71178 cumulative IPC: 1.72048 (Simulation time: 0 hr 1 min 0 sec) 
select_counter is 606
Heartbeat CPU 0 instructions: 3000001 cycles: 1760246 heartbeat IPC: 1.67286 cumulative IPC: 1.70431 (Simulation time: 0 hr 1 min 33 sec) 
select_counter is 657
Heartbeat CPU 0 instructions: 4000000 cycles: 2381500 heartbeat IPC: 1.60965 cumulative IPC: 1.67961 (Simulation time: 0 hr 2 min 5 sec) 
select_counter is 805
Heartbeat CPU 0 instructions: 5000002 cycles: 2957060 heartbeat IPC: 1.73744 cumulative IPC: 1.69087 (Simulation time: 0 hr 2 min 34 sec) 
select_counter is 875
Heartbeat CPU 0 instructions: 6000003 cycles: 3559502 heartbeat IPC: 1.65991 cumulative IPC: 1.68563 (Simulation time: 0 hr 3 min 7 sec) 
select_counter is 1003
Heartbeat CPU 0 instructions: 7000003 cycles: 4209736 heartbeat IPC: 1.53791 cumulative IPC: 1.66281 (Simulation time: 0 hr 3 min 41 sec) 
select_counter is 1023
Heartbeat CPU 0 instructions: 8000000 cycles: 4805281 heartbeat IPC: 1.67913 cumulative IPC: 1.66483 (Simulation time: 0 hr 4 min 12 sec) 
select_counter is 1023
Heartbeat CPU 0 instructions: 9000002 cycles: 5438463 heartbeat IPC: 1.57933 cumulative IPC: 1.65488 (Simulation time: 0 hr 4 min 41 sec) 
select_counter is 1021
Heartbeat CPU 0 instructions: 10000002 cycles: 6034540 heartbeat IPC: 1.67764 cumulative IPC: 1.65713 (Simulation time: 0 hr 5 min 8 sec) 
select_counter is 995

Warmup complete CPU 0 instructions: 10000002 cycles: 6034540 (Simulation time: 0 hr 5 min 8 sec) 

Heartbeat CPU 0 instructions: 11000000 cycles: 9867434 heartbeat IPC: 0.260899 cumulative IPC: 0.260899 (Simulation time: 0 hr 5 min 44 sec) 
select_counter is 1021
Heartbeat CPU 0 instructions: 12000000 cycles: 13637699 heartbeat IPC: 0.265233 cumulative IPC: 0.263048 (Simulation time: 0 hr 6 min 19 sec) 
select_counter is 964
Heartbeat CPU 0 instructions: 13000000 cycles: 17813172 heartbeat IPC: 0.239494 cumulative IPC: 0.254698 (Simulation time: 0 hr 7 min 0 sec) 
select_counter is 963
Heartbeat CPU 0 instructions: 14000001 cycles: 21915851 heartbeat IPC: 0.243743 cumulative IPC: 0.251868 (Simulation time: 0 hr 7 min 36 sec) 
select_counter is 960
Heartbeat CPU 0 instructions: 15000003 cycles: 26380980 heartbeat IPC: 0.223958 cumulative IPC: 0.245743 (Simulation time: 0 hr 8 min 18 sec) 
select_counter is 895
Heartbeat CPU 0 instructions: 16000000 cycles: 30955736 heartbeat IPC: 0.21859 cumulative IPC: 0.240759 (Simulation time: 0 hr 8 min 57 sec) 
select_counter is 886
Heartbeat CPU 0 instructions: 17000000 cycles: 35098193 heartbeat IPC: 0.241403 cumulative IPC: 0.240851 (Simulation time: 0 hr 9 min 33 sec) 
select_counter is 969
Heartbeat CPU 0 instructions: 18000000 cycles: 39293907 heartbeat IPC: 0.238338 cumulative IPC: 0.240534 (Simulation time: 0 hr 10 min 12 sec) 
select_counter is 972
Heartbeat CPU 0 instructions: 19000000 cycles: 43818763 heartbeat IPC: 0.221002 cumulative IPC: 0.238195 (Simulation time: 0 hr 10 min 47 sec) 
select_counter is 1018
Heartbeat CPU 0 instructions: 20000000 cycles: 48323563 heartbeat IPC: 0.221985 cumulative IPC: 0.236468 (Simulation time: 0 hr 11 min 23 sec) 
select_counter is 952
Heartbeat CPU 0 instructions: 21000000 cycles: 52037263 heartbeat IPC: 0.269273 cumulative IPC: 0.239116 (Simulation time: 0 hr 12 min 0 sec) 
select_counter is 922
Heartbeat CPU 0 instructions: 22000001 cycles: 56106043 heartbeat IPC: 0.245774 cumulative IPC: 0.239657 (Simulation time: 0 hr 12 min 42 sec) 
select_counter is 930
Heartbeat CPU 0 instructions: 23000001 cycles: 60152368 heartbeat IPC: 0.247138 cumulative IPC: 0.240217 (Simulation time: 0 hr 13 min 21 sec) 
select_counter is 999
Heartbeat CPU 0 instructions: 24000000 cycles: 64251152 heartbeat IPC: 0.243975 cumulative IPC: 0.240481 (Simulation time: 0 hr 14 min 1 sec) 
select_counter is 1010
Heartbeat CPU 0 instructions: 25000000 cycles: 68372788 heartbeat IPC: 0.242622 cumulative IPC: 0.240623 (Simulation time: 0 hr 14 min 40 sec) 
select_counter is 1014
Heartbeat CPU 0 instructions: 26000001 cycles: 72702001 heartbeat IPC: 0.230989 cumulative IPC: 0.239997 (Simulation time: 0 hr 15 min 17 sec) 
select_counter is 1022
Heartbeat CPU 0 instructions: 27000000 cycles: 77092973 heartbeat IPC: 0.22774 cumulative IPC: 0.23924 (Simulation time: 0 hr 16 min 1 sec) 
select_counter is 1007
Heartbeat CPU 0 instructions: 28000000 cycles: 81619930 heartbeat IPC: 0.220899 cumulative IPC: 0.238141 (Simulation time: 0 hr 16 min 47 sec) 
select_counter is 971
Heartbeat CPU 0 instructions: 29000000 cycles: 85985716 heartbeat IPC: 0.229054 cumulative IPC: 0.237645 (Simulation time: 0 hr 17 min 25 sec) 
select_counter is 886
Heartbeat CPU 0 instructions: 30000000 cycles: 89867528 heartbeat IPC: 0.257612 cumulative IPC: 0.23857 (Simulation time: 0 hr 18 min 0 sec) 
select_counter is 936
Heartbeat CPU 0 instructions: 31000000 cycles: 94028764 heartbeat IPC: 0.240313 cumulative IPC: 0.238652 (Simulation time: 0 hr 18 min 41 sec) 
select_counter is 947
Heartbeat CPU 0 instructions: 32000000 cycles: 97992714 heartbeat IPC: 0.252274 cumulative IPC: 0.239239 (Simulation time: 0 hr 19 min 19 sec) 
select_counter is 1009
Heartbeat CPU 0 instructions: 33000003 cycles: 101989340 heartbeat IPC: 0.250212 cumulative IPC: 0.239696 (Simulation time: 0 hr 20 min 2 sec) 
select_counter is 1017
Heartbeat CPU 0 instructions: 34000001 cycles: 106438455 heartbeat IPC: 0.224763 cumulative IPC: 0.239034 (Simulation time: 0 hr 20 min 41 sec) 
select_counter is 1011
Heartbeat CPU 0 instructions: 35000002 cycles: 110346587 heartbeat IPC: 0.255877 cumulative IPC: 0.239666 (Simulation time: 0 hr 21 min 23 sec) 
select_counter is 1008
Heartbeat CPU 0 instructions: 36000000 cycles: 114980106 heartbeat IPC: 0.215818 cumulative IPC: 0.238651 (Simulation time: 0 hr 22 min 4 sec) 
select_counter is 1022
Heartbeat CPU 0 instructions: 37000000 cycles: 119798658 heartbeat IPC: 0.207531 cumulative IPC: 0.237333 (Simulation time: 0 hr 22 min 43 sec) 
select_counter is 1019
Heartbeat CPU 0 instructions: 38000000 cycles: 123964740 heartbeat IPC: 0.240034 cumulative IPC: 0.237429 (Simulation time: 0 hr 23 min 18 sec) 
select_counter is 1008
Heartbeat CPU 0 instructions: 39000001 cycles: 128526464 heartbeat IPC: 0.219216 cumulative IPC: 0.23675 (Simulation time: 0 hr 23 min 59 sec) 
select_counter is 996
Heartbeat CPU 0 instructions: 40000000 cycles: 132326444 heartbeat IPC: 0.263159 cumulative IPC: 0.237545 (Simulation time: 0 hr 24 min 34 sec) 
select_counter is 994
Heartbeat CPU 0 instructions: 41000000 cycles: 136208219 heartbeat IPC: 0.257614 cumulative IPC: 0.238143 (Simulation time: 0 hr 25 min 11 sec) 
select_counter is 1022
Heartbeat CPU 0 instructions: 42000001 cycles: 140784736 heartbeat IPC: 0.218507 cumulative IPC: 0.237476 (Simulation time: 0 hr 25 min 52 sec) 
select_counter is 1017
Heartbeat CPU 0 instructions: 43000001 cycles: 145440127 heartbeat IPC: 0.214805 cumulative IPC: 0.236719 (Simulation time: 0 hr 26 min 32 sec) 
select_counter is 1018
Heartbeat CPU 0 instructions: 44000000 cycles: 149623740 heartbeat IPC: 0.239028 cumulative IPC: 0.236787 (Simulation time: 0 hr 27 min 9 sec) 
select_counter is 1012
Heartbeat CPU 0 instructions: 45000003 cycles: 153801781 heartbeat IPC: 0.239347 cumulative IPC: 0.236859 (Simulation time: 0 hr 27 min 45 sec) 
select_counter is 1007
Heartbeat CPU 0 instructions: 46000003 cycles: 158096430 heartbeat IPC: 0.232848 cumulative IPC: 0.236746 (Simulation time: 0 hr 28 min 23 sec) 
select_counter is 1022
Heartbeat CPU 0 instructions: 47000000 cycles: 161385867 heartbeat IPC: 0.304002 cumulative IPC: 0.23817 (Simulation time: 0 hr 29 min 0 sec) 
select_counter is 1022
Heartbeat CPU 0 instructions: 48000000 cycles: 165565878 heartbeat IPC: 0.239234 cumulative IPC: 0.238198 (Simulation time: 0 hr 29 min 40 sec) 
select_counter is 1020
Heartbeat CPU 0 instructions: 49000000 cycles: 168734522 heartbeat IPC: 0.315592 cumulative IPC: 0.239705 (Simulation time: 0 hr 30 min 17 sec) 
select_counter is 1023
Heartbeat CPU 0 instructions: 50000001 cycles: 173116449 heartbeat IPC: 0.22821 cumulative IPC: 0.239404 (Simulation time: 0 hr 30 min 58 sec) 
select_counter is 1013
Heartbeat CPU 0 instructions: 51000003 cycles: 177122234 heartbeat IPC: 0.249639 cumulative IPC: 0.239643 (Simulation time: 0 hr 31 min 33 sec) 
select_counter is 1015
Heartbeat CPU 0 instructions: 52000000 cycles: 181535778 heartbeat IPC: 0.226575 cumulative IPC: 0.239315 (Simulation time: 0 hr 32 min 13 sec) 
select_counter is 1021
Heartbeat CPU 0 instructions: 53000000 cycles: 186580256 heartbeat IPC: 0.198237 cumulative IPC: 0.238167 (Simulation time: 0 hr 32 min 50 sec) 
select_counter is 983
Heartbeat CPU 0 instructions: 54000002 cycles: 191197494 heartbeat IPC: 0.21658 cumulative IPC: 0.237629 (Simulation time: 0 hr 33 min 32 sec) 
select_counter is 983
Heartbeat CPU 0 instructions: 55000001 cycles: 195465222 heartbeat IPC: 0.234316 cumulative IPC: 0.237554 (Simulation time: 0 hr 34 min 12 sec) 
select_counter is 1019
Heartbeat CPU 0 instructions: 56000000 cycles: 200165303 heartbeat IPC: 0.212762 cumulative IPC: 0.236954 (Simulation time: 0 hr 34 min 48 sec) 
select_counter is 981
Heartbeat CPU 0 instructions: 57000001 cycles: 204616310 heartbeat IPC: 0.224668 cumulative IPC: 0.236678 (Simulation time: 0 hr 35 min 35 sec) 
select_counter is 1022
Heartbeat CPU 0 instructions: 58000000 cycles: 208285434 heartbeat IPC: 0.272544 cumulative IPC: 0.237329 (Simulation time: 0 hr 36 min 10 sec) 
select_counter is 1012
Heartbeat CPU 0 instructions: 59000003 cycles: 212631406 heartbeat IPC: 0.230099 cumulative IPC: 0.237177 (Simulation time: 0 hr 36 min 44 sec) 
select_counter is 1003
Heartbeat CPU 0 instructions: 60000000 cycles: 217488146 heartbeat IPC: 0.205899 cumulative IPC: 0.236458 (Simulation time: 0 hr 37 min 17 sec) 
select_counter is 1014
Heartbeat CPU 0 instructions: 61000001 cycles: 222509008 heartbeat IPC: 0.199169 cumulative IPC: 0.235594 (Simulation time: 0 hr 37 min 51 sec) 
select_counter is 954
Heartbeat CPU 0 instructions: 62000000 cycles: 227597290 heartbeat IPC: 0.19653 cumulative IPC: 0.234696 (Simulation time: 0 hr 38 min 23 sec) 
select_counter is 824
Heartbeat CPU 0 instructions: 63000001 cycles: 231907608 heartbeat IPC: 0.232002 cumulative IPC: 0.234645 (Simulation time: 0 hr 38 min 52 sec) 
select_counter is 781
Heartbeat CPU 0 instructions: 64000000 cycles: 236114159 heartbeat IPC: 0.237724 cumulative IPC: 0.234701 (Simulation time: 0 hr 39 min 25 sec) 
select_counter is 780
Heartbeat CPU 0 instructions: 65000001 cycles: 239835883 heartbeat IPC: 0.268693 cumulative IPC: 0.235242 (Simulation time: 0 hr 39 min 55 sec) 
select_counter is 853
Heartbeat CPU 0 instructions: 66000002 cycles: 243892764 heartbeat IPC: 0.246495 cumulative IPC: 0.235434 (Simulation time: 0 hr 40 min 29 sec) 
select_counter is 1019
Heartbeat CPU 0 instructions: 67000002 cycles: 248041880 heartbeat IPC: 0.241015 cumulative IPC: 0.23553 (Simulation time: 0 hr 40 min 58 sec) 
select_counter is 1022
Heartbeat CPU 0 instructions: 68000000 cycles: 252121322 heartbeat IPC: 0.245131 cumulative IPC: 0.235689 (Simulation time: 0 hr 41 min 28 sec) 
select_counter is 1020
Heartbeat CPU 0 instructions: 69000000 cycles: 256324165 heartbeat IPC: 0.237934 cumulative IPC: 0.235727 (Simulation time: 0 hr 41 min 57 sec) 
select_counter is 1019
Heartbeat CPU 0 instructions: 70000001 cycles: 259925274 heartbeat IPC: 0.277692 cumulative IPC: 0.236322 (Simulation time: 0 hr 42 min 22 sec) 
select_counter is 1022
Heartbeat CPU 0 instructions: 71000003 cycles: 264118562 heartbeat IPC: 0.238477 cumulative IPC: 0.236357 (Simulation time: 0 hr 42 min 52 sec) 
select_counter is 1017
Heartbeat CPU 0 instructions: 72000000 cycles: 269009004 heartbeat IPC: 0.20448 cumulative IPC: 0.235764 (Simulation time: 0 hr 43 min 21 sec) 
select_counter is 1014
Heartbeat CPU 0 instructions: 73000002 cycles: 273320139 heartbeat IPC: 0.231958 cumulative IPC: 0.235703 (Simulation time: 0 hr 43 min 48 sec) 
select_counter is 1022
Heartbeat CPU 0 instructions: 74000000 cycles: 277394707 heartbeat IPC: 0.245424 cumulative IPC: 0.235849 (Simulation time: 0 hr 44 min 14 sec) 
select_counter is 1019
Heartbeat CPU 0 instructions: 75000003 cycles: 281903126 heartbeat IPC: 0.221808 cumulative IPC: 0.235619 (Simulation time: 0 hr 44 min 40 sec) 
select_counter is 1010
Heartbeat CPU 0 instructions: 76000000 cycles: 286167706 heartbeat IPC: 0.234489 cumulative IPC: 0.235602 (Simulation time: 0 hr 45 min 5 sec) 
select_counter is 1013
Heartbeat CPU 0 instructions: 77000002 cycles: 291501743 heartbeat IPC: 0.187476 cumulative IPC: 0.234703 (Simulation time: 0 hr 45 min 30 sec) 
select_counter is 873
Heartbeat CPU 0 instructions: 78000003 cycles: 295793423 heartbeat IPC: 0.233009 cumulative IPC: 0.234678 (Simulation time: 0 hr 45 min 51 sec) 
select_counter is 843
Heartbeat CPU 0 instructions: 79000002 cycles: 300035039 heartbeat IPC: 0.235759 cumulative IPC: 0.234693 (Simulation time: 0 hr 46 min 12 sec) 
select_counter is 804
Heartbeat CPU 0 instructions: 80000000 cycles: 304241592 heartbeat IPC: 0.237724 cumulative IPC: 0.234736 (Simulation time: 0 hr 46 min 33 sec) 
select_counter is 901
Heartbeat CPU 0 instructions: 81000002 cycles: 308816594 heartbeat IPC: 0.21858 cumulative IPC: 0.234492 (Simulation time: 0 hr 46 min 53 sec) 
select_counter is 1010
Heartbeat CPU 0 instructions: 82000000 cycles: 313667226 heartbeat IPC: 0.206158 cumulative IPC: 0.234045 (Simulation time: 0 hr 47 min 14 sec) 
select_counter is 976
Heartbeat CPU 0 instructions: 83000002 cycles: 317783938 heartbeat IPC: 0.242913 cumulative IPC: 0.234162 (Simulation time: 0 hr 47 min 32 sec) 
select_counter is 1018
Heartbeat CPU 0 instructions: 84000000 cycles: 322146956 heartbeat IPC: 0.229199 cumulative IPC: 0.234094 (Simulation time: 0 hr 47 min 49 sec) 
select_counter is 1020
Heartbeat CPU 0 instructions: 85000000 cycles: 326012646 heartbeat IPC: 0.258686 cumulative IPC: 0.234391 (Simulation time: 0 hr 48 min 5 sec) 
select_counter is 1023
Heartbeat CPU 0 instructions: 86000000 cycles: 330185566 heartbeat IPC: 0.23964 cumulative IPC: 0.234459 (Simulation time: 0 hr 48 min 20 sec) 
select_counter is 1023
Heartbeat CPU 0 instructions: 87000001 cycles: 334288264 heartbeat IPC: 0.243742 cumulative IPC: 0.234575 (Simulation time: 0 hr 48 min 36 sec) 
select_counter is 1018
Heartbeat CPU 0 instructions: 88000000 cycles: 338372469 heartbeat IPC: 0.244845 cumulative IPC: 0.234701 (Simulation time: 0 hr 48 min 51 sec) 
select_counter is 1020
Heartbeat CPU 0 instructions: 89000003 cycles: 342035192 heartbeat IPC: 0.273022 cumulative IPC: 0.235119 (Simulation time: 0 hr 49 min 5 sec) 
select_counter is 1021
Heartbeat CPU 0 instructions: 90000000 cycles: 346179087 heartbeat IPC: 0.241318 cumulative IPC: 0.235194 (Simulation time: 0 hr 49 min 18 sec) 
select_counter is 1023
Heartbeat CPU 0 instructions: 91000001 cycles: 349947274 heartbeat IPC: 0.26538 cumulative IPC: 0.235525 (Simulation time: 0 hr 49 min 31 sec) 
select_counter is 1023
Heartbeat CPU 0 instructions: 92000000 cycles: 354336608 heartbeat IPC: 0.227825 cumulative IPC: 0.235428 (Simulation time: 0 hr 49 min 44 sec) 
select_counter is 1015
Heartbeat CPU 0 instructions: 93000001 cycles: 359192613 heartbeat IPC: 0.205931 cumulative IPC: 0.235022 (Simulation time: 0 hr 49 min 55 sec) 
select_counter is 1023
Heartbeat CPU 0 instructions: 94000001 cycles: 363341233 heartbeat IPC: 0.241044 cumulative IPC: 0.235092 (Simulation time: 0 hr 50 min 5 sec) 
select_counter is 1023
Heartbeat CPU 0 instructions: 95000000 cycles: 367745468 heartbeat IPC: 0.227054 cumulative IPC: 0.234994 (Simulation time: 0 hr 50 min 14 sec) 
select_counter is 1013
Heartbeat CPU 0 instructions: 96000000 cycles: 372599233 heartbeat IPC: 0.206026 cumulative IPC: 0.234611 (Simulation time: 0 hr 50 min 22 sec) 
select_counter is 998
Heartbeat CPU 0 instructions: 97000000 cycles: 376645872 heartbeat IPC: 0.247119 cumulative IPC: 0.234747 (Simulation time: 0 hr 50 min 28 sec) 
select_counter is 1019
Heartbeat CPU 0 instructions: 98000000 cycles: 381270031 heartbeat IPC: 0.216256 cumulative IPC: 0.234519 (Simulation time: 0 hr 50 min 35 sec) 
select_counter is 1015
Heartbeat CPU 0 instructions: 99000000 cycles: 386180219 heartbeat IPC: 0.203658 cumulative IPC: 0.234121 (Simulation time: 0 hr 50 min 41 sec) 
select_counter is 995
Heartbeat CPU 0 instructions: 100000000 cycles: 390684537 heartbeat IPC: 0.222009 cumulative IPC: 0.233979 (Simulation time: 0 hr 50 min 46 sec) 
select_counter is 1005
Heartbeat CPU 0 instructions: 101000000 cycles: 395040367 heartbeat IPC: 0.229577 cumulative IPC: 0.23393 (Simulation time: 0 hr 50 min 51 sec) 
select_counter is 1023
Heartbeat CPU 0 instructions: 102000003 cycles: 399284515 heartbeat IPC: 0.235619 cumulative IPC: 0.233948 (Simulation time: 0 hr 50 min 55 sec) 
select_counter is 1023
Heartbeat CPU 0 instructions: 103000000 cycles: 403473993 heartbeat IPC: 0.238693 cumulative IPC: 0.233998 (Simulation time: 0 hr 50 min 59 sec) 
select_counter is 1020
Heartbeat CPU 0 instructions: 104000000 cycles: 407526563 heartbeat IPC: 0.246757 cumulative IPC: 0.234127 (Simulation time: 0 hr 51 min 3 sec) 
select_counter is 1014
Heartbeat CPU 0 instructions: 105000003 cycles: 411691450 heartbeat IPC: 0.240103 cumulative IPC: 0.234188 (Simulation time: 0 hr 51 min 8 sec) 
select_counter is 1011
Heartbeat CPU 0 instructions: 106000001 cycles: 415426544 heartbeat IPC: 0.26773 cumulative IPC: 0.234494 (Simulation time: 0 hr 51 min 11 sec) 
select_counter is 1023
Heartbeat CPU 0 instructions: 107000000 cycles: 419950811 heartbeat IPC: 0.22103 cumulative IPC: 0.234347 (Simulation time: 0 hr 51 min 16 sec) 
select_counter is 948
Heartbeat CPU 0 instructions: 108000000 cycles: 424430242 heartbeat IPC: 0.223243 cumulative IPC: 0.234228 (Simulation time: 0 hr 51 min 20 sec) 
select_counter is 875
Heartbeat CPU 0 instructions: 109000000 cycles: 429332275 heartbeat IPC: 0.203997 cumulative IPC: 0.233878 (Simulation time: 0 hr 51 min 25 sec) 
select_counter is 909
Heartbeat CPU 0 instructions: 110000000 cycles: 433378694 heartbeat IPC: 0.247132 cumulative IPC: 0.234003 (Simulation time: 0 hr 51 min 29 sec) 
select_counter is 1002
Finished CPU 0 instructions: 100000000 cycles: 427344158 cummulative IPC: 0.234003 (Simulation time: 0 hr 51 min 29 sec) 

ChampSim completed all CPUs

Region of Interest Statistics

CPU 0 cummulative IPC: 0.234003 instructions: 100000000 cycles: 427344158
LLC TOTAL     ACCESS:    3244354  HIT:    1386079  MISS:    1858275
LLC LOAD      ACCESS:    1933964  HIT:     481233  MISS:    1452731
LLC RFO       ACCESS:     327377  HIT:      81632  MISS:     245745
LLC PREFETCH  ACCESS:          0  HIT:          0  MISS:          0
LLC WRITEBACK ACCESS:     983013  HIT:     823214  MISS:     159799
Ship samples: 
8, 34, 78, 111, 143, 175, 216, 239, 263, 308, 332, 356, 397, 443, 458, 498, 522, 549, 595, 635, 659, 678, 720, 751, 779, 808, 838, 885, 927, 954, 968, 1021, 1040, 1087, 1094, 1137, 1179, 1185, 1230, 1256, 1298, 1313, 1365, 1385, 1430, 1467, 1487, 1522, 1563, 1570, 1611, 1659, 1675, 1715, 1740, 1779, 1804, 1847, 1867, 1909, 1923, 1953, 1993, 2033, 
Lime duel samples: 
29, 46, 82, 97, 159, 187, 197, 244, 272, 300, 339, 381, 411, 425, 459, 488, 534, 548, 588, 612, 654, 673, 711, 758, 796, 802, 840, 868, 912, 928, 967, 1004, 1043, 1058, 1091, 1146, 1177, 1208, 1228, 1264, 1305, 1329, 1369, 1398, 1428, 1443, 1503, 1528, 1567, 1585, 1601, 1651, 1671, 1724, 1754, 1787, 1822, 1845, 1857, 1888, 1922, 1968, 2002, 2035, 
Lime samples: 
29, 97, 197, 300, 411, 488, 588, 673, 796, 868, 967, 1058, 1177, 1264, 1369, 1443, 1567, 1651, 1754, 1845, 1922, 
Insertion Distribution: 
	LOAD 4348 0 0 0 0 0 11433 39462 
	RFO 1880 0 0 0 0 0 3103 4015 
	PREF 0 0 0 0 0 0 0 0 
	WRITEBACK 0 0 0 0 0 0 0 13205 
Total Prefetch Downgrades: 0
