
*** ChampSim Multicore Out-of-Order Simulator ***

Warmup Instructions: 10000000
Simulation Instructions: 100000000
Configuration: 1
Number of CPUs: 1
LLC sets: 2048
LLC ways: 16
Off-chip DRAM Channels: 1 Width: 64-bit Data Rate: 1600 MT/s

CPU 0 runs /datasets/cs240c-wi22-a00-public/data/Assignment2-gz/libquantum_1210B.trace.gz
Heartbeat CPU 0 instructions: 1000003 cycles: 314916 heartbeat IPC: 3.17546 cumulative IPC: 3.17546 (Simulation time: 0 hr 0 min 16 sec) 
select_counter is 545
Heartbeat CPU 0 instructions: 2000000 cycles: 630173 heartbeat IPC: 3.17201 cumulative IPC: 3.17373 (Simulation time: 0 hr 0 min 32 sec) 
select_counter is 922
Heartbeat CPU 0 instructions: 3000003 cycles: 945982 heartbeat IPC: 3.16648 cumulative IPC: 3.17131 (Simulation time: 0 hr 0 min 48 sec) 
select_counter is 1021
Heartbeat CPU 0 instructions: 4000000 cycles: 1260334 heartbeat IPC: 3.18114 cumulative IPC: 3.17376 (Simulation time: 0 hr 1 min 5 sec) 
select_counter is 1023
Heartbeat CPU 0 instructions: 5000000 cycles: 1576820 heartbeat IPC: 3.1597 cumulative IPC: 3.17094 (Simulation time: 0 hr 1 min 24 sec) 
select_counter is 1022
Heartbeat CPU 0 instructions: 6000000 cycles: 1891319 heartbeat IPC: 3.17966 cumulative IPC: 3.17239 (Simulation time: 0 hr 1 min 40 sec) 
select_counter is 1023
Heartbeat CPU 0 instructions: 7000000 cycles: 2206983 heartbeat IPC: 3.16793 cumulative IPC: 3.17175 (Simulation time: 0 hr 1 min 55 sec) 
select_counter is 1023
Heartbeat CPU 0 instructions: 8000000 cycles: 2522387 heartbeat IPC: 3.17054 cumulative IPC: 3.1716 (Simulation time: 0 hr 2 min 9 sec) 
select_counter is 1021
Heartbeat CPU 0 instructions: 9000000 cycles: 2837146 heartbeat IPC: 3.17703 cumulative IPC: 3.1722 (Simulation time: 0 hr 2 min 27 sec) 
select_counter is 1010
Heartbeat CPU 0 instructions: 10000001 cycles: 3153454 heartbeat IPC: 3.16148 cumulative IPC: 3.17113 (Simulation time: 0 hr 2 min 42 sec) 
select_counter is 996

Warmup complete CPU 0 instructions: 10000001 cycles: 3153454 (Simulation time: 0 hr 2 min 42 sec) 

Heartbeat CPU 0 instructions: 11000001 cycles: 6252726 heartbeat IPC: 0.322656 cumulative IPC: 0.322656 (Simulation time: 0 hr 3 min 9 sec) 
select_counter is 971
Heartbeat CPU 0 instructions: 12000000 cycles: 9251535 heartbeat IPC: 0.333465 cumulative IPC: 0.327972 (Simulation time: 0 hr 3 min 35 sec) 
select_counter is 962
Heartbeat CPU 0 instructions: 13000003 cycles: 13137956 heartbeat IPC: 0.257307 cumulative IPC: 0.300466 (Simulation time: 0 hr 4 min 7 sec) 
select_counter is 1023
Heartbeat CPU 0 instructions: 14000001 cycles: 17031104 heartbeat IPC: 0.256861 cumulative IPC: 0.288233 (Simulation time: 0 hr 4 min 36 sec) 
select_counter is 1023
Heartbeat CPU 0 instructions: 15000002 cycles: 20963119 heartbeat IPC: 0.254323 cumulative IPC: 0.280746 (Simulation time: 0 hr 5 min 3 sec) 
select_counter is 1023
Heartbeat CPU 0 instructions: 16000000 cycles: 24888878 heartbeat IPC: 0.254727 cumulative IPC: 0.276047 (Simulation time: 0 hr 5 min 33 sec) 
select_counter is 1022
Heartbeat CPU 0 instructions: 17000000 cycles: 28812149 heartbeat IPC: 0.254889 cumulative IPC: 0.272812 (Simulation time: 0 hr 6 min 2 sec) 
select_counter is 1022
Heartbeat CPU 0 instructions: 18000000 cycles: 32758642 heartbeat IPC: 0.25339 cumulative IPC: 0.270223 (Simulation time: 0 hr 6 min 33 sec) 
select_counter is 1023
Heartbeat CPU 0 instructions: 19000000 cycles: 36484096 heartbeat IPC: 0.268424 cumulative IPC: 0.270022 (Simulation time: 0 hr 7 min 0 sec) 
select_counter is 509
Heartbeat CPU 0 instructions: 20000000 cycles: 40311290 heartbeat IPC: 0.261288 cumulative IPC: 0.269122 (Simulation time: 0 hr 7 min 31 sec) 
select_counter is 486
Heartbeat CPU 0 instructions: 21000001 cycles: 44134157 heartbeat IPC: 0.261584 cumulative IPC: 0.268419 (Simulation time: 0 hr 7 min 58 sec) 
select_counter is 470
Heartbeat CPU 0 instructions: 22000001 cycles: 47944414 heartbeat IPC: 0.26245 cumulative IPC: 0.267911 (Simulation time: 0 hr 8 min 28 sec) 
select_counter is 458
Heartbeat CPU 0 instructions: 23000000 cycles: 51802437 heartbeat IPC: 0.2592 cumulative IPC: 0.26722 (Simulation time: 0 hr 8 min 55 sec) 
select_counter is 447
Heartbeat CPU 0 instructions: 24000000 cycles: 55681240 heartbeat IPC: 0.257811 cumulative IPC: 0.266526 (Simulation time: 0 hr 9 min 22 sec) 
select_counter is 433
Heartbeat CPU 0 instructions: 25000000 cycles: 59570200 heartbeat IPC: 0.257138 cumulative IPC: 0.265878 (Simulation time: 0 hr 9 min 47 sec) 
select_counter is 413
Heartbeat CPU 0 instructions: 26000000 cycles: 63451572 heartbeat IPC: 0.257641 cumulative IPC: 0.265348 (Simulation time: 0 hr 10 min 12 sec) 
select_counter is 389
Heartbeat CPU 0 instructions: 27000003 cycles: 67327419 heartbeat IPC: 0.258009 cumulative IPC: 0.264905 (Simulation time: 0 hr 10 min 42 sec) 
select_counter is 364
Heartbeat CPU 0 instructions: 28000000 cycles: 70997359 heartbeat IPC: 0.272483 cumulative IPC: 0.265315 (Simulation time: 0 hr 11 min 11 sec) 
select_counter is 225
Heartbeat CPU 0 instructions: 29000002 cycles: 72990507 heartbeat IPC: 0.50172 cumulative IPC: 0.272062 (Simulation time: 0 hr 11 min 42 sec) 
select_counter is 766
Heartbeat CPU 0 instructions: 30000001 cycles: 74906821 heartbeat IPC: 0.521835 cumulative IPC: 0.278733 (Simulation time: 0 hr 12 min 9 sec) 
select_counter is 765
Heartbeat CPU 0 instructions: 31000000 cycles: 76822720 heartbeat IPC: 0.521948 cumulative IPC: 0.285058 (Simulation time: 0 hr 12 min 37 sec) 
select_counter is 765
Heartbeat CPU 0 instructions: 32000000 cycles: 78738440 heartbeat IPC: 0.521997 cumulative IPC: 0.291063 (Simulation time: 0 hr 13 min 10 sec) 
select_counter is 765
Heartbeat CPU 0 instructions: 33000000 cycles: 80654387 heartbeat IPC: 0.521935 cumulative IPC: 0.296771 (Simulation time: 0 hr 13 min 38 sec) 
select_counter is 764
Heartbeat CPU 0 instructions: 34000002 cycles: 82552118 heartbeat IPC: 0.526946 cumulative IPC: 0.302272 (Simulation time: 0 hr 14 min 4 sec) 
select_counter is 877
Heartbeat CPU 0 instructions: 35000001 cycles: 83998593 heartbeat IPC: 0.691335 cumulative IPC: 0.309233 (Simulation time: 0 hr 14 min 28 sec) 
select_counter is 1023
Heartbeat CPU 0 instructions: 36000000 cycles: 85736656 heartbeat IPC: 0.575353 cumulative IPC: 0.314834 (Simulation time: 0 hr 14 min 54 sec) 
select_counter is 717
Heartbeat CPU 0 instructions: 37000003 cycles: 87652606 heartbeat IPC: 0.521936 cumulative IPC: 0.31953 (Simulation time: 0 hr 15 min 21 sec) 
select_counter is 717
Heartbeat CPU 0 instructions: 38000002 cycles: 89568322 heartbeat IPC: 0.521998 cumulative IPC: 0.324018 (Simulation time: 0 hr 15 min 49 sec) 
select_counter is 716
Heartbeat CPU 0 instructions: 39000001 cycles: 91484119 heartbeat IPC: 0.521975 cumulative IPC: 0.328312 (Simulation time: 0 hr 16 min 16 sec) 
select_counter is 716
Heartbeat CPU 0 instructions: 40000000 cycles: 93399919 heartbeat IPC: 0.521975 cumulative IPC: 0.332423 (Simulation time: 0 hr 16 min 41 sec) 
select_counter is 715
Heartbeat CPU 0 instructions: 41000001 cycles: 95315758 heartbeat IPC: 0.521965 cumulative IPC: 0.336363 (Simulation time: 0 hr 17 min 8 sec) 
select_counter is 717
Heartbeat CPU 0 instructions: 42000000 cycles: 97231474 heartbeat IPC: 0.521998 cumulative IPC: 0.340143 (Simulation time: 0 hr 17 min 36 sec) 
select_counter is 716
Heartbeat CPU 0 instructions: 43000002 cycles: 99147272 heartbeat IPC: 0.521977 cumulative IPC: 0.343772 (Simulation time: 0 hr 18 min 4 sec) 
select_counter is 717
Heartbeat CPU 0 instructions: 44000000 cycles: 101063072 heartbeat IPC: 0.521974 cumulative IPC: 0.347259 (Simulation time: 0 hr 18 min 30 sec) 
select_counter is 715
Heartbeat CPU 0 instructions: 45000000 cycles: 102978914 heartbeat IPC: 0.521964 cumulative IPC: 0.350612 (Simulation time: 0 hr 18 min 59 sec) 
select_counter is 715
Heartbeat CPU 0 instructions: 46000001 cycles: 104894632 heartbeat IPC: 0.521998 cumulative IPC: 0.353839 (Simulation time: 0 hr 19 min 26 sec) 
select_counter is 716
Heartbeat CPU 0 instructions: 47000002 cycles: 106739067 heartbeat IPC: 0.542172 cumulative IPC: 0.357192 (Simulation time: 0 hr 19 min 54 sec) 
select_counter is 468
Heartbeat CPU 0 instructions: 48000000 cycles: 109765225 heartbeat IPC: 0.330451 cumulative IPC: 0.356433 (Simulation time: 0 hr 20 min 24 sec) 
select_counter is 913
Heartbeat CPU 0 instructions: 49000003 cycles: 112849910 heartbeat IPC: 0.324183 cumulative IPC: 0.355527 (Simulation time: 0 hr 20 min 52 sec) 
select_counter is 888
Heartbeat CPU 0 instructions: 50000003 cycles: 115955648 heartbeat IPC: 0.321985 cumulative IPC: 0.354603 (Simulation time: 0 hr 21 min 19 sec) 
select_counter is 882
Heartbeat CPU 0 instructions: 51000000 cycles: 119074176 heartbeat IPC: 0.320663 cumulative IPC: 0.35369 (Simulation time: 0 hr 21 min 48 sec) 
select_counter is 873
Heartbeat CPU 0 instructions: 52000000 cycles: 122146945 heartbeat IPC: 0.325439 cumulative IPC: 0.35296 (Simulation time: 0 hr 22 min 17 sec) 
select_counter is 1023
Heartbeat CPU 0 instructions: 53000003 cycles: 124693508 heartbeat IPC: 0.392687 cumulative IPC: 0.353793 (Simulation time: 0 hr 22 min 45 sec) 
select_counter is 1008
Heartbeat CPU 0 instructions: 54000003 cycles: 127781783 heartbeat IPC: 0.323805 cumulative IPC: 0.35305 (Simulation time: 0 hr 23 min 16 sec) 
select_counter is 551
Heartbeat CPU 0 instructions: 55000002 cycles: 130875130 heartbeat IPC: 0.323274 cumulative IPC: 0.352329 (Simulation time: 0 hr 23 min 46 sec) 
select_counter is 536
Heartbeat CPU 0 instructions: 56000000 cycles: 134005681 heartbeat IPC: 0.319432 cumulative IPC: 0.351542 (Simulation time: 0 hr 24 min 15 sec) 
select_counter is 516
Heartbeat CPU 0 instructions: 57000001 cycles: 137214341 heartbeat IPC: 0.311657 cumulative IPC: 0.350587 (Simulation time: 0 hr 24 min 46 sec) 
select_counter is 501
Heartbeat CPU 0 instructions: 58000000 cycles: 140451165 heartbeat IPC: 0.308945 cumulative IPC: 0.349605 (Simulation time: 0 hr 25 min 15 sec) 
select_counter is 492
Heartbeat CPU 0 instructions: 59000000 cycles: 143667249 heartbeat IPC: 0.310937 cumulative IPC: 0.34872 (Simulation time: 0 hr 25 min 44 sec) 
select_counter is 473
Heartbeat CPU 0 instructions: 60000000 cycles: 146864801 heartbeat IPC: 0.312739 cumulative IPC: 0.34792 (Simulation time: 0 hr 26 min 13 sec) 
select_counter is 451
Heartbeat CPU 0 instructions: 61000001 cycles: 150088521 heartbeat IPC: 0.310201 cumulative IPC: 0.347092 (Simulation time: 0 hr 26 min 40 sec) 
select_counter is 421
Heartbeat CPU 0 instructions: 62000000 cycles: 153325364 heartbeat IPC: 0.308943 cumulative IPC: 0.34627 (Simulation time: 0 hr 27 min 7 sec) 
select_counter is 389
Heartbeat CPU 0 instructions: 63000001 cycles: 156063001 heartbeat IPC: 0.365279 cumulative IPC: 0.34661 (Simulation time: 0 hr 27 min 33 sec) 
select_counter is 768
Heartbeat CPU 0 instructions: 64000000 cycles: 158942356 heartbeat IPC: 0.3473 cumulative IPC: 0.346623 (Simulation time: 0 hr 27 min 57 sec) 
select_counter is 451
Heartbeat CPU 0 instructions: 65000000 cycles: 162067085 heartbeat IPC: 0.320028 cumulative IPC: 0.3461 (Simulation time: 0 hr 28 min 25 sec) 
select_counter is 428
Heartbeat CPU 0 instructions: 66000001 cycles: 165245896 heartbeat IPC: 0.314583 cumulative IPC: 0.345482 (Simulation time: 0 hr 28 min 52 sec) 
select_counter is 416
Heartbeat CPU 0 instructions: 67000000 cycles: 168321026 heartbeat IPC: 0.325189 cumulative IPC: 0.345104 (Simulation time: 0 hr 29 min 18 sec) 
select_counter is 406
Heartbeat CPU 0 instructions: 68000000 cycles: 171510191 heartbeat IPC: 0.313562 cumulative IPC: 0.344507 (Simulation time: 0 hr 29 min 47 sec) 
select_counter is 385
Heartbeat CPU 0 instructions: 69000002 cycles: 174595669 heartbeat IPC: 0.3241 cumulative IPC: 0.344139 (Simulation time: 0 hr 30 min 16 sec) 
select_counter is 557
Heartbeat CPU 0 instructions: 70000001 cycles: 177160429 heartbeat IPC: 0.3899 cumulative IPC: 0.344814 (Simulation time: 0 hr 30 min 39 sec) 
select_counter is 1023
Heartbeat CPU 0 instructions: 71000000 cycles: 180082680 heartbeat IPC: 0.342202 cumulative IPC: 0.344771 (Simulation time: 0 hr 31 min 6 sec) 
select_counter is 622
Heartbeat CPU 0 instructions: 72000000 cycles: 183081580 heartbeat IPC: 0.333456 cumulative IPC: 0.344582 (Simulation time: 0 hr 31 min 39 sec) 
select_counter is 549
Heartbeat CPU 0 instructions: 73000002 cycles: 186155636 heartbeat IPC: 0.325304 cumulative IPC: 0.344258 (Simulation time: 0 hr 32 min 6 sec) 
select_counter is 544
Heartbeat CPU 0 instructions: 74000002 cycles: 189128017 heartbeat IPC: 0.336431 cumulative IPC: 0.344133 (Simulation time: 0 hr 32 min 32 sec) 
select_counter is 528
Heartbeat CPU 0 instructions: 75000001 cycles: 192182339 heartbeat IPC: 0.327405 cumulative IPC: 0.343863 (Simulation time: 0 hr 32 min 58 sec) 
select_counter is 521
Heartbeat CPU 0 instructions: 76000000 cycles: 195209963 heartbeat IPC: 0.330292 cumulative IPC: 0.343649 (Simulation time: 0 hr 33 min 20 sec) 
select_counter is 515
Heartbeat CPU 0 instructions: 77000002 cycles: 198348744 heartbeat IPC: 0.318596 cumulative IPC: 0.343246 (Simulation time: 0 hr 33 min 42 sec) 
select_counter is 503
Heartbeat CPU 0 instructions: 78000002 cycles: 201546148 heartbeat IPC: 0.312754 cumulative IPC: 0.342755 (Simulation time: 0 hr 34 min 5 sec) 
select_counter is 487
Heartbeat CPU 0 instructions: 79000001 cycles: 204618564 heartbeat IPC: 0.325476 cumulative IPC: 0.342491 (Simulation time: 0 hr 34 min 34 sec) 
select_counter is 467
Heartbeat CPU 0 instructions: 80000000 cycles: 207817443 heartbeat IPC: 0.312609 cumulative IPC: 0.342024 (Simulation time: 0 hr 35 min 0 sec) 
select_counter is 451
Heartbeat CPU 0 instructions: 81000001 cycles: 210945287 heartbeat IPC: 0.319709 cumulative IPC: 0.341688 (Simulation time: 0 hr 35 min 23 sec) 
select_counter is 431
Heartbeat CPU 0 instructions: 82000000 cycles: 214099079 heartbeat IPC: 0.317078 cumulative IPC: 0.34132 (Simulation time: 0 hr 35 min 46 sec) 
select_counter is 415
Heartbeat CPU 0 instructions: 83000001 cycles: 216597114 heartbeat IPC: 0.400315 cumulative IPC: 0.342011 (Simulation time: 0 hr 36 min 7 sec) 
select_counter is 566
Heartbeat CPU 0 instructions: 84000000 cycles: 220063937 heartbeat IPC: 0.288448 cumulative IPC: 0.341155 (Simulation time: 0 hr 36 min 30 sec) 
select_counter is 447
Heartbeat CPU 0 instructions: 85000001 cycles: 223540029 heartbeat IPC: 0.28768 cumulative IPC: 0.340311 (Simulation time: 0 hr 36 min 52 sec) 
select_counter is 422
Heartbeat CPU 0 instructions: 86000000 cycles: 227033165 heartbeat IPC: 0.286275 cumulative IPC: 0.339468 (Simulation time: 0 hr 37 min 14 sec) 
select_counter is 413
Heartbeat CPU 0 instructions: 87000003 cycles: 230531565 heartbeat IPC: 0.285846 cumulative IPC: 0.338643 (Simulation time: 0 hr 37 min 36 sec) 
select_counter is 390
Heartbeat CPU 0 instructions: 88000000 cycles: 233819071 heartbeat IPC: 0.304181 cumulative IPC: 0.338152 (Simulation time: 0 hr 37 min 59 sec) 
select_counter is 1022
Heartbeat CPU 0 instructions: 89000001 cycles: 236816113 heartbeat IPC: 0.333663 cumulative IPC: 0.338094 (Simulation time: 0 hr 38 min 23 sec) 
select_counter is 798
Heartbeat CPU 0 instructions: 90000000 cycles: 240175437 heartbeat IPC: 0.297679 cumulative IPC: 0.337521 (Simulation time: 0 hr 38 min 53 sec) 
select_counter is 551
Heartbeat CPU 0 instructions: 91000002 cycles: 243510424 heartbeat IPC: 0.299852 cumulative IPC: 0.336999 (Simulation time: 0 hr 39 min 15 sec) 
select_counter is 539
Heartbeat CPU 0 instructions: 92000000 cycles: 246843615 heartbeat IPC: 0.300012 cumulative IPC: 0.336493 (Simulation time: 0 hr 39 min 42 sec) 
select_counter is 522
Heartbeat CPU 0 instructions: 93000003 cycles: 250190268 heartbeat IPC: 0.298807 cumulative IPC: 0.335982 (Simulation time: 0 hr 40 min 4 sec) 
select_counter is 517
Heartbeat CPU 0 instructions: 94000000 cycles: 253691975 heartbeat IPC: 0.285574 cumulative IPC: 0.335278 (Simulation time: 0 hr 40 min 25 sec) 
select_counter is 497
Heartbeat CPU 0 instructions: 95000002 cycles: 257202793 heartbeat IPC: 0.284834 cumulative IPC: 0.334581 (Simulation time: 0 hr 40 min 45 sec) 
select_counter is 484
Heartbeat CPU 0 instructions: 96000000 cycles: 260720317 heartbeat IPC: 0.28429 cumulative IPC: 0.333894 (Simulation time: 0 hr 41 min 5 sec) 
select_counter is 456
Heartbeat CPU 0 instructions: 97000001 cycles: 264247608 heartbeat IPC: 0.283504 cumulative IPC: 0.333213 (Simulation time: 0 hr 41 min 30 sec) 
select_counter is 431
Heartbeat CPU 0 instructions: 98000002 cycles: 267745380 heartbeat IPC: 0.285897 cumulative IPC: 0.332588 (Simulation time: 0 hr 41 min 52 sec) 
select_counter is 415
Heartbeat CPU 0 instructions: 99000002 cycles: 269361758 heartbeat IPC: 0.618667 cumulative IPC: 0.334325 (Simulation time: 0 hr 42 min 12 sec) 
select_counter is 799
Heartbeat CPU 0 instructions: 100000000 cycles: 271360484 heartbeat IPC: 0.500318 cumulative IPC: 0.335562 (Simulation time: 0 hr 42 min 32 sec) 
select_counter is 774
Heartbeat CPU 0 instructions: 101000000 cycles: 273359220 heartbeat IPC: 0.500316 cumulative IPC: 0.33678 (Simulation time: 0 hr 42 min 53 sec) 
select_counter is 774
Heartbeat CPU 0 instructions: 102000001 cycles: 275357832 heartbeat IPC: 0.500348 cumulative IPC: 0.337981 (Simulation time: 0 hr 43 min 12 sec) 
select_counter is 774
Heartbeat CPU 0 instructions: 103000002 cycles: 277356521 heartbeat IPC: 0.500328 cumulative IPC: 0.339165 (Simulation time: 0 hr 43 min 33 sec) 
select_counter is 775
Heartbeat CPU 0 instructions: 104000000 cycles: 279354551 heartbeat IPC: 0.500492 cumulative IPC: 0.340332 (Simulation time: 0 hr 43 min 54 sec) 
select_counter is 812
Heartbeat CPU 0 instructions: 105000000 cycles: 281192959 heartbeat IPC: 0.543949 cumulative IPC: 0.341678 (Simulation time: 0 hr 44 min 13 sec) 
select_counter is 1023
Heartbeat CPU 0 instructions: 106000000 cycles: 282958694 heartbeat IPC: 0.566336 cumulative IPC: 0.343096 (Simulation time: 0 hr 44 min 30 sec) 
select_counter is 888
Heartbeat CPU 0 instructions: 107000000 cycles: 284951670 heartbeat IPC: 0.501762 cumulative IPC: 0.344218 (Simulation time: 0 hr 44 min 49 sec) 
select_counter is 717
Heartbeat CPU 0 instructions: 108000000 cycles: 286950365 heartbeat IPC: 0.500326 cumulative IPC: 0.345317 (Simulation time: 0 hr 45 min 5 sec) 
select_counter is 717
Heartbeat CPU 0 instructions: 109000001 cycles: 288949103 heartbeat IPC: 0.500316 cumulative IPC: 0.346401 (Simulation time: 0 hr 45 min 21 sec) 
select_counter is 716
Heartbeat CPU 0 instructions: 110000000 cycles: 290947800 heartbeat IPC: 0.500325 cumulative IPC: 0.34747 (Simulation time: 0 hr 45 min 36 sec) 
select_counter is 716
Finished CPU 0 instructions: 100000003 cycles: 287794348 cummulative IPC: 0.34747 (Simulation time: 0 hr 45 min 36 sec) 

ChampSim completed all CPUs

Region of Interest Statistics

CPU 0 cummulative IPC: 0.34747 instructions: 100000003 cycles: 287794348
LLC TOTAL     ACCESS:    4047234  HIT:     290185  MISS:    3757049
LLC LOAD      ACCESS:    3006773  HIT:     129991  MISS:    2876782
LLC RFO       ACCESS:         24  HIT:         14  MISS:         10
LLC PREFETCH  ACCESS:          0  HIT:          0  MISS:          0
LLC WRITEBACK ACCESS:    1040437  HIT:     160180  MISS:     880257
Ship samples: 
6, 53, 69, 100, 144, 169, 223, 237, 285, 295, 324, 371, 387, 429, 466, 483, 528, 570, 599, 621, 652, 700, 719, 758, 792, 821, 854, 889, 918, 949, 989, 1011, 1031, 1069, 1109, 1138, 1169, 1211, 1235, 1267, 1309, 1318, 1368, 1385, 1434, 1457, 1483, 1517, 1548, 1593, 1615, 1646, 1672, 1724, 1745, 1771, 1823, 1845, 1873, 1894, 1949, 1955, 2012, 2044, 
Lime duel samples: 
1, 35, 66, 127, 152, 173, 212, 249, 267, 302, 329, 376, 397, 442, 449, 493, 536, 568, 597, 638, 648, 694, 715, 746, 780, 829, 860, 873, 899, 954, 963, 1005, 1045, 1064, 1094, 1141, 1164, 1213, 1243, 1256, 1296, 1327, 1350, 1407, 1422, 1470, 1495, 1508, 1555, 1594, 1602, 1643, 1664, 1705, 1755, 1775, 1807, 1842, 1879, 1919, 1931, 1975, 1993, 2032, 
Lime samples: 
1, 127, 212, 302, 397, 493, 597, 694, 780, 873, 963, 1064, 1164, 1256, 1350, 1470, 1555, 1643, 1755, 1842, 1931, 
Insertion Distribution: 
	LOAD 23364 0 0 0 0 0 18588 1151887 
	RFO 0 0 0 0 0 0 4 0 
	PREF 0 0 0 0 0 0 0 0 
	WRITEBACK 0 0 0 0 0 0 0 528216 
Total Prefetch Downgrades: 0
