
*** ChampSim Multicore Out-of-Order Simulator ***

Warmup Instructions: 10000000
Simulation Instructions: 100000000
Configuration: 1
Number of CPUs: 1
LLC sets: 2048
LLC ways: 16
Off-chip DRAM Channels: 1 Width: 64-bit Data Rate: 1600 MT/s

CPU 0 runs /datasets/cs240c-wi22-a00-public/data/Assignment2-gz/sphinx3_1339B.trace.gz
Heartbeat CPU 0 instructions: 1000001 cycles: 338437 heartbeat IPC: 2.95476 cumulative IPC: 2.95476 (Simulation time: 0 hr 0 min 20 sec) 
select_counter is 512
Heartbeat CPU 0 instructions: 2000001 cycles: 691940 heartbeat IPC: 2.82883 cumulative IPC: 2.89043 (Simulation time: 0 hr 0 min 43 sec) 
select_counter is 516
Heartbeat CPU 0 instructions: 3000000 cycles: 1081972 heartbeat IPC: 2.56389 cumulative IPC: 2.77272 (Simulation time: 0 hr 1 min 8 sec) 
select_counter is 533
Heartbeat CPU 0 instructions: 4000000 cycles: 1526802 heartbeat IPC: 2.24805 cumulative IPC: 2.61986 (Simulation time: 0 hr 1 min 33 sec) 
select_counter is 505
Heartbeat CPU 0 instructions: 5000003 cycles: 1865262 heartbeat IPC: 2.95457 cumulative IPC: 2.68059 (Simulation time: 0 hr 1 min 53 sec) 
select_counter is 406
Heartbeat CPU 0 instructions: 6000002 cycles: 2248368 heartbeat IPC: 2.61024 cumulative IPC: 2.6686 (Simulation time: 0 hr 2 min 15 sec) 
select_counter is 328
Heartbeat CPU 0 instructions: 7000001 cycles: 2711460 heartbeat IPC: 2.1594 cumulative IPC: 2.58164 (Simulation time: 0 hr 2 min 39 sec) 
select_counter is 239
Heartbeat CPU 0 instructions: 8000000 cycles: 3049901 heartbeat IPC: 2.95472 cumulative IPC: 2.62304 (Simulation time: 0 hr 3 min 6 sec) 
select_counter is 290
Heartbeat CPU 0 instructions: 9000003 cycles: 3405705 heartbeat IPC: 2.81054 cumulative IPC: 2.64263 (Simulation time: 0 hr 3 min 27 sec) 
select_counter is 257
Heartbeat CPU 0 instructions: 10000001 cycles: 3791815 heartbeat IPC: 2.58993 cumulative IPC: 2.63726 (Simulation time: 0 hr 3 min 56 sec) 
select_counter is 81

Warmup complete CPU 0 instructions: 10000001 cycles: 3791815 (Simulation time: 0 hr 3 min 56 sec) 

Heartbeat CPU 0 instructions: 11000000 cycles: 4921475 heartbeat IPC: 0.885221 cumulative IPC: 0.885221 (Simulation time: 0 hr 4 min 24 sec) 
select_counter is 65
Heartbeat CPU 0 instructions: 12000000 cycles: 6281809 heartbeat IPC: 0.735114 cumulative IPC: 0.803214 (Simulation time: 0 hr 4 min 51 sec) 
select_counter is 71
Heartbeat CPU 0 instructions: 13000000 cycles: 8071746 heartbeat IPC: 0.558679 cumulative IPC: 0.700946 (Simulation time: 0 hr 5 min 19 sec) 
select_counter is 1017
Heartbeat CPU 0 instructions: 14000000 cycles: 9191824 heartbeat IPC: 0.892795 cumulative IPC: 0.740739 (Simulation time: 0 hr 5 min 43 sec) 
select_counter is 892
Heartbeat CPU 0 instructions: 15000002 cycles: 10531456 heartbeat IPC: 0.746475 cumulative IPC: 0.741879 (Simulation time: 0 hr 6 min 7 sec) 
select_counter is 962
Heartbeat CPU 0 instructions: 16000000 cycles: 12274533 heartbeat IPC: 0.573697 cumulative IPC: 0.70732 (Simulation time: 0 hr 6 min 31 sec) 
select_counter is 926
Heartbeat CPU 0 instructions: 17000001 cycles: 13999821 heartbeat IPC: 0.579614 cumulative IPC: 0.685736 (Simulation time: 0 hr 6 min 58 sec) 
select_counter is 850
Heartbeat CPU 0 instructions: 18000003 cycles: 15254571 heartbeat IPC: 0.796973 cumulative IPC: 0.697913 (Simulation time: 0 hr 7 min 20 sec) 
select_counter is 796
Heartbeat CPU 0 instructions: 19000003 cycles: 16575317 heartbeat IPC: 0.757148 cumulative IPC: 0.704033 (Simulation time: 0 hr 7 min 45 sec) 
select_counter is 721
Heartbeat CPU 0 instructions: 20000000 cycles: 17946364 heartbeat IPC: 0.729367 cumulative IPC: 0.706487 (Simulation time: 0 hr 8 min 12 sec) 
select_counter is 736
Heartbeat CPU 0 instructions: 21000000 cycles: 19834583 heartbeat IPC: 0.5296 cumulative IPC: 0.685667 (Simulation time: 0 hr 8 min 42 sec) 
select_counter is 649
Heartbeat CPU 0 instructions: 22000000 cycles: 21376137 heartbeat IPC: 0.648696 cumulative IPC: 0.682426 (Simulation time: 0 hr 9 min 10 sec) 
select_counter is 480
Heartbeat CPU 0 instructions: 23000002 cycles: 22526825 heartbeat IPC: 0.869047 cumulative IPC: 0.693888 (Simulation time: 0 hr 9 min 36 sec) 
select_counter is 582
Heartbeat CPU 0 instructions: 24000000 cycles: 23836124 heartbeat IPC: 0.763766 cumulative IPC: 0.698453 (Simulation time: 0 hr 10 min 1 sec) 
select_counter is 568
Heartbeat CPU 0 instructions: 25000001 cycles: 25398814 heartbeat IPC: 0.639923 cumulative IPC: 0.694219 (Simulation time: 0 hr 10 min 26 sec) 
select_counter is 368
Heartbeat CPU 0 instructions: 26000002 cycles: 26518639 heartbeat IPC: 0.892998 cumulative IPC: 0.704014 (Simulation time: 0 hr 10 min 49 sec) 
select_counter is 471
Heartbeat CPU 0 instructions: 27000003 cycles: 27478240 heartbeat IPC: 1.0421 cumulative IPC: 0.717711 (Simulation time: 0 hr 11 min 14 sec) 
select_counter is 490
Heartbeat CPU 0 instructions: 28000000 cycles: 28851671 heartbeat IPC: 0.728101 cumulative IPC: 0.71828 (Simulation time: 0 hr 11 min 37 sec) 
select_counter is 378
Heartbeat CPU 0 instructions: 29000003 cycles: 29978855 heartbeat IPC: 0.887169 cumulative IPC: 0.72555 (Simulation time: 0 hr 12 min 2 sec) 
select_counter is 412
Heartbeat CPU 0 instructions: 30000002 cycles: 30943290 heartbeat IPC: 1.03688 cumulative IPC: 0.736608 (Simulation time: 0 hr 12 min 25 sec) 
select_counter is 449
Heartbeat CPU 0 instructions: 31000003 cycles: 32189179 heartbeat IPC: 0.80264 cumulative IPC: 0.739505 (Simulation time: 0 hr 12 min 51 sec) 
select_counter is 361
Heartbeat CPU 0 instructions: 32000000 cycles: 33353283 heartbeat IPC: 0.859027 cumulative IPC: 0.744212 (Simulation time: 0 hr 13 min 18 sec) 
select_counter is 384
Heartbeat CPU 0 instructions: 33000001 cycles: 34336748 heartbeat IPC: 1.01681 cumulative IPC: 0.752989 (Simulation time: 0 hr 13 min 43 sec) 
select_counter is 426
Heartbeat CPU 0 instructions: 34000001 cycles: 36285622 heartbeat IPC: 0.513117 cumulative IPC: 0.738602 (Simulation time: 0 hr 14 min 11 sec) 
select_counter is 412
Heartbeat CPU 0 instructions: 35000001 cycles: 37506372 heartbeat IPC: 0.819169 cumulative IPC: 0.741519 (Simulation time: 0 hr 14 min 39 sec) 
select_counter is 283
Heartbeat CPU 0 instructions: 36000000 cycles: 38649978 heartbeat IPC: 0.874426 cumulative IPC: 0.74588 (Simulation time: 0 hr 15 min 6 sec) 
select_counter is 407
Heartbeat CPU 0 instructions: 37000003 cycles: 39999743 heartbeat IPC: 0.740872 cumulative IPC: 0.745693 (Simulation time: 0 hr 15 min 33 sec) 
select_counter is 420
Heartbeat CPU 0 instructions: 38000001 cycles: 41718297 heartbeat IPC: 0.581883 cumulative IPC: 0.73827 (Simulation time: 0 hr 16 min 0 sec) 
select_counter is 314
Heartbeat CPU 0 instructions: 39000003 cycles: 42897304 heartbeat IPC: 0.848173 cumulative IPC: 0.741584 (Simulation time: 0 hr 16 min 23 sec) 
select_counter is 307
Heartbeat CPU 0 instructions: 40000000 cycles: 43929234 heartbeat IPC: 0.969055 cumulative IPC: 0.747432 (Simulation time: 0 hr 16 min 45 sec) 
select_counter is 346
Heartbeat CPU 0 instructions: 41000001 cycles: 45796731 heartbeat IPC: 0.535477 cumulative IPC: 0.738009 (Simulation time: 0 hr 17 min 11 sec) 
select_counter is 357
Heartbeat CPU 0 instructions: 42000002 cycles: 46938772 heartbeat IPC: 0.875626 cumulative IPC: 0.741651 (Simulation time: 0 hr 17 min 38 sec) 
select_counter is 220
Heartbeat CPU 0 instructions: 43000001 cycles: 48053799 heartbeat IPC: 0.896838 cumulative IPC: 0.745561 (Simulation time: 0 hr 18 min 3 sec) 
select_counter is 338
Heartbeat CPU 0 instructions: 44000000 cycles: 49560989 heartbeat IPC: 0.663486 cumulative IPC: 0.742858 (Simulation time: 0 hr 18 min 29 sec) 
select_counter is 341
Heartbeat CPU 0 instructions: 45000002 cycles: 50974305 heartbeat IPC: 0.707557 cumulative IPC: 0.741801 (Simulation time: 0 hr 18 min 54 sec) 
select_counter is 184
Heartbeat CPU 0 instructions: 46000003 cycles: 52100410 heartbeat IPC: 0.888018 cumulative IPC: 0.745209 (Simulation time: 0 hr 19 min 19 sec) 
select_counter is 272
Heartbeat CPU 0 instructions: 47000001 cycles: 53137741 heartbeat IPC: 0.964011 cumulative IPC: 0.749809 (Simulation time: 0 hr 19 min 46 sec) 
select_counter is 294
Heartbeat CPU 0 instructions: 48000000 cycles: 54548832 heartbeat IPC: 0.708671 cumulative IPC: 0.748665 (Simulation time: 0 hr 20 min 14 sec) 
select_counter is 204
Heartbeat CPU 0 instructions: 49000002 cycles: 55690525 heartbeat IPC: 0.875894 cumulative IPC: 0.751464 (Simulation time: 0 hr 20 min 39 sec) 
select_counter is 252
Heartbeat CPU 0 instructions: 50000000 cycles: 56706031 heartbeat IPC: 0.984729 cumulative IPC: 0.75594 (Simulation time: 0 hr 21 min 3 sec) 
select_counter is 294
Heartbeat CPU 0 instructions: 51000003 cycles: 58498334 heartbeat IPC: 0.557943 cumulative IPC: 0.749454 (Simulation time: 0 hr 21 min 31 sec) 
select_counter is 276
Heartbeat CPU 0 instructions: 52000000 cycles: 59612121 heartbeat IPC: 0.897835 cumulative IPC: 0.752414 (Simulation time: 0 hr 21 min 58 sec) 
select_counter is 206
Heartbeat CPU 0 instructions: 53000002 cycles: 60666974 heartbeat IPC: 0.948001 cumulative IPC: 0.756042 (Simulation time: 0 hr 22 min 22 sec) 
select_counter is 279
Heartbeat CPU 0 instructions: 54000003 cycles: 62355777 heartbeat IPC: 0.592136 cumulative IPC: 0.751315 (Simulation time: 0 hr 22 min 51 sec) 
select_counter is 268
Heartbeat CPU 0 instructions: 55000001 cycles: 63486041 heartbeat IPC: 0.884747 cumulative IPC: 0.753842 (Simulation time: 0 hr 23 min 16 sec) 
select_counter is 137
Heartbeat CPU 0 instructions: 56000000 cycles: 64637062 heartbeat IPC: 0.868793 cumulative IPC: 0.756016 (Simulation time: 0 hr 23 min 42 sec) 
select_counter is 258
Heartbeat CPU 0 instructions: 57000000 cycles: 65941205 heartbeat IPC: 0.766787 cumulative IPC: 0.756242 (Simulation time: 0 hr 24 min 10 sec) 
select_counter is 252
Heartbeat CPU 0 instructions: 58000000 cycles: 67478192 heartbeat IPC: 0.650624 cumulative IPC: 0.753693 (Simulation time: 0 hr 24 min 34 sec) 
select_counter is 102
Heartbeat CPU 0 instructions: 59000001 cycles: 68602827 heartbeat IPC: 0.889178 cumulative IPC: 0.756044 (Simulation time: 0 hr 25 min 1 sec) 
select_counter is 182
Heartbeat CPU 0 instructions: 60000000 cycles: 69624470 heartbeat IPC: 0.978815 cumulative IPC: 0.759501 (Simulation time: 0 hr 25 min 28 sec) 
select_counter is 211
Heartbeat CPU 0 instructions: 61000000 cycles: 71552198 heartbeat IPC: 0.518745 cumulative IPC: 0.752652 (Simulation time: 0 hr 25 min 55 sec) 
select_counter is 210
Heartbeat CPU 0 instructions: 62000002 cycles: 72710335 heartbeat IPC: 0.863457 cumulative IPC: 0.754514 (Simulation time: 0 hr 26 min 20 sec) 
select_counter is 212
Heartbeat CPU 0 instructions: 63000003 cycles: 73802955 heartbeat IPC: 0.915232 cumulative IPC: 0.757022 (Simulation time: 0 hr 26 min 44 sec) 
select_counter is 85
Heartbeat CPU 0 instructions: 64000000 cycles: 74922266 heartbeat IPC: 0.893404 cumulative IPC: 0.759169 (Simulation time: 0 hr 27 min 10 sec) 
select_counter is 167
Heartbeat CPU 0 instructions: 65000000 cycles: 76465132 heartbeat IPC: 0.648144 cumulative IPC: 0.756811 (Simulation time: 0 hr 27 min 36 sec) 
select_counter is 138
Heartbeat CPU 0 instructions: 66000001 cycles: 77772060 heartbeat IPC: 0.765154 cumulative IPC: 0.756959 (Simulation time: 0 hr 28 min 3 sec) 
select_counter is 6
Heartbeat CPU 0 instructions: 67000000 cycles: 78944573 heartbeat IPC: 0.852868 cumulative IPC: 0.758455 (Simulation time: 0 hr 28 min 28 sec) 
select_counter is 104
Heartbeat CPU 0 instructions: 68000000 cycles: 80088985 heartbeat IPC: 0.873811 cumulative IPC: 0.760185 (Simulation time: 0 hr 28 min 55 sec) 
select_counter is 101
Heartbeat CPU 0 instructions: 69000003 cycles: 81749252 heartbeat IPC: 0.602315 cumulative IPC: 0.756823 (Simulation time: 0 hr 29 min 23 sec) 
select_counter is 18
Heartbeat CPU 0 instructions: 70000003 cycles: 82918828 heartbeat IPC: 0.855011 cumulative IPC: 0.758275 (Simulation time: 0 hr 29 min 50 sec) 
select_counter is 1023
Heartbeat CPU 0 instructions: 71000001 cycles: 84078177 heartbeat IPC: 0.862551 cumulative IPC: 0.75978 (Simulation time: 0 hr 30 min 18 sec) 
select_counter is 1010
Heartbeat CPU 0 instructions: 72000000 cycles: 86005045 heartbeat IPC: 0.518976 cumulative IPC: 0.754137 (Simulation time: 0 hr 30 min 49 sec) 
select_counter is 986
Heartbeat CPU 0 instructions: 73000001 cycles: 87250440 heartbeat IPC: 0.802959 cumulative IPC: 0.754865 (Simulation time: 0 hr 31 min 14 sec) 
select_counter is 890
Heartbeat CPU 0 instructions: 74000001 cycles: 88453055 heartbeat IPC: 0.831521 cumulative IPC: 0.755954 (Simulation time: 0 hr 31 min 39 sec) 
select_counter is 988
Heartbeat CPU 0 instructions: 75000003 cycles: 90193759 heartbeat IPC: 0.574481 cumulative IPC: 0.752298 (Simulation time: 0 hr 32 min 11 sec) 
select_counter is 966
Heartbeat CPU 0 instructions: 76000000 cycles: 91594360 heartbeat IPC: 0.713977 cumulative IPC: 0.751687 (Simulation time: 0 hr 32 min 38 sec) 
select_counter is 829
Heartbeat CPU 0 instructions: 77000002 cycles: 92755363 heartbeat IPC: 0.861326 cumulative IPC: 0.753117 (Simulation time: 0 hr 33 min 4 sec) 
select_counter is 944
Heartbeat CPU 0 instructions: 78000002 cycles: 94125155 heartbeat IPC: 0.730038 cumulative IPC: 0.752768 (Simulation time: 0 hr 33 min 28 sec) 
select_counter is 946
Heartbeat CPU 0 instructions: 79000001 cycles: 95861765 heartbeat IPC: 0.575834 cumulative IPC: 0.74943 (Simulation time: 0 hr 33 min 52 sec) 
select_counter is 829
Heartbeat CPU 0 instructions: 80000000 cycles: 96991962 heartbeat IPC: 0.884801 cumulative IPC: 0.751072 (Simulation time: 0 hr 34 min 23 sec) 
select_counter is 862
Heartbeat CPU 0 instructions: 81000003 cycles: 98146117 heartbeat IPC: 0.866437 cumulative IPC: 0.752483 (Simulation time: 0 hr 34 min 49 sec) 
select_counter is 904
Heartbeat CPU 0 instructions: 82000003 cycles: 100000519 heartbeat IPC: 0.539257 cumulative IPC: 0.748373 (Simulation time: 0 hr 35 min 13 sec) 
select_counter is 875
Heartbeat CPU 0 instructions: 83000001 cycles: 101191641 heartbeat IPC: 0.839543 cumulative IPC: 0.749488 (Simulation time: 0 hr 35 min 34 sec) 
select_counter is 837
Heartbeat CPU 0 instructions: 84000000 cycles: 102264152 heartbeat IPC: 0.93239 cumulative IPC: 0.75148 (Simulation time: 0 hr 35 min 55 sec) 
select_counter is 918
Heartbeat CPU 0 instructions: 85000002 cycles: 104017185 heartbeat IPC: 0.570441 cumulative IPC: 0.748314 (Simulation time: 0 hr 36 min 18 sec) 
select_counter is 927
Heartbeat CPU 0 instructions: 86000003 cycles: 105352256 heartbeat IPC: 0.749025 cumulative IPC: 0.748323 (Simulation time: 0 hr 36 min 41 sec) 
select_counter is 793
Heartbeat CPU 0 instructions: 87000003 cycles: 106422539 heartbeat IPC: 0.934332 cumulative IPC: 0.750263 (Simulation time: 0 hr 37 min 2 sec) 
select_counter is 925
Heartbeat CPU 0 instructions: 88000000 cycles: 107948174 heartbeat IPC: 0.655463 cumulative IPC: 0.748874 (Simulation time: 0 hr 37 min 24 sec) 
select_counter is 915
Heartbeat CPU 0 instructions: 89000000 cycles: 109520114 heartbeat IPC: 0.636157 cumulative IPC: 0.747198 (Simulation time: 0 hr 37 min 48 sec) 
select_counter is 786
Heartbeat CPU 0 instructions: 90000000 cycles: 110576239 heartbeat IPC: 0.946858 cumulative IPC: 0.749173 (Simulation time: 0 hr 38 min 8 sec) 
select_counter is 904
Heartbeat CPU 0 instructions: 91000000 cycles: 111735944 heartbeat IPC: 0.862288 cumulative IPC: 0.750388 (Simulation time: 0 hr 38 min 29 sec) 
select_counter is 926
Heartbeat CPU 0 instructions: 92000000 cycles: 113641744 heartbeat IPC: 0.524714 cumulative IPC: 0.746473 (Simulation time: 0 hr 38 min 51 sec) 
select_counter is 860
Heartbeat CPU 0 instructions: 93000001 cycles: 114775443 heartbeat IPC: 0.882069 cumulative IPC: 0.747858 (Simulation time: 0 hr 39 min 11 sec) 
select_counter is 854
Heartbeat CPU 0 instructions: 94000000 cycles: 115904257 heartbeat IPC: 0.885885 cumulative IPC: 0.749248 (Simulation time: 0 hr 39 min 31 sec) 
select_counter is 926
Heartbeat CPU 0 instructions: 95000003 cycles: 117800261 heartbeat IPC: 0.527427 cumulative IPC: 0.745559 (Simulation time: 0 hr 39 min 54 sec) 
select_counter is 931
Heartbeat CPU 0 instructions: 96000000 cycles: 119053840 heartbeat IPC: 0.797714 cumulative IPC: 0.746126 (Simulation time: 0 hr 40 min 14 sec) 
select_counter is 816
Heartbeat CPU 0 instructions: 97000002 cycles: 120177572 heartbeat IPC: 0.889894 cumulative IPC: 0.747514 (Simulation time: 0 hr 40 min 33 sec) 
select_counter is 924
Heartbeat CPU 0 instructions: 98000000 cycles: 121857760 heartbeat IPC: 0.59517 cumulative IPC: 0.745346 (Simulation time: 0 hr 40 min 55 sec) 
select_counter is 919
Heartbeat CPU 0 instructions: 99000003 cycles: 123549657 heartbeat IPC: 0.591054 cumulative IPC: 0.743166 (Simulation time: 0 hr 41 min 17 sec) 
select_counter is 775
Heartbeat CPU 0 instructions: 100000000 cycles: 124654837 heartbeat IPC: 0.904827 cumulative IPC: 0.744645 (Simulation time: 0 hr 41 min 37 sec) 
select_counter is 861
Heartbeat CPU 0 instructions: 101000000 cycles: 125841077 heartbeat IPC: 0.843 cumulative IPC: 0.745601 (Simulation time: 0 hr 41 min 57 sec) 
select_counter is 873
Heartbeat CPU 0 instructions: 102000001 cycles: 128163162 heartbeat IPC: 0.430648 cumulative IPC: 0.73972 (Simulation time: 0 hr 42 min 19 sec) 
select_counter is 861
Heartbeat CPU 0 instructions: 103000000 cycles: 129516038 heartbeat IPC: 0.739165 cumulative IPC: 0.739714 (Simulation time: 0 hr 42 min 39 sec) 
select_counter is 871
Heartbeat CPU 0 instructions: 104000000 cycles: 130805553 heartbeat IPC: 0.775485 cumulative IPC: 0.740077 (Simulation time: 0 hr 42 min 59 sec) 
select_counter is 735
Heartbeat CPU 0 instructions: 105000003 cycles: 131973933 heartbeat IPC: 0.855888 cumulative IPC: 0.741133 (Simulation time: 0 hr 43 min 17 sec) 
select_counter is 813
Heartbeat CPU 0 instructions: 106000000 cycles: 133329872 heartbeat IPC: 0.737494 cumulative IPC: 0.741095 (Simulation time: 0 hr 43 min 37 sec) 
select_counter is 800
Heartbeat CPU 0 instructions: 107000001 cycles: 135726929 heartbeat IPC: 0.417179 cumulative IPC: 0.73521 (Simulation time: 0 hr 43 min 58 sec) 
select_counter is 778
Heartbeat CPU 0 instructions: 108000000 cycles: 137097685 heartbeat IPC: 0.729524 cumulative IPC: 0.735151 (Simulation time: 0 hr 44 min 15 sec) 
select_counter is 659
Heartbeat CPU 0 instructions: 109000000 cycles: 138309902 heartbeat IPC: 0.824935 cumulative IPC: 0.73596 (Simulation time: 0 hr 44 min 34 sec) 
select_counter is 747
Heartbeat CPU 0 instructions: 110000003 cycles: 140093187 heartbeat IPC: 0.560765 cumulative IPC: 0.733668 (Simulation time: 0 hr 44 min 52 sec) 
select_counter is 704
Finished CPU 0 instructions: 100000002 cycles: 136301372 cummulative IPC: 0.733668 (Simulation time: 0 hr 44 min 52 sec) 

ChampSim completed all CPUs

Region of Interest Statistics

CPU 0 cummulative IPC: 0.733668 instructions: 100000002 cycles: 136301372
LLC TOTAL     ACCESS:    1449250  HIT:     925448  MISS:     523802
LLC LOAD      ACCESS:    1202451  HIT:     723793  MISS:     478658
LLC RFO       ACCESS:     114007  HIT:      84735  MISS:      29272
LLC PREFETCH  ACCESS:          0  HIT:          0  MISS:          0
LLC WRITEBACK ACCESS:     132792  HIT:     116920  MISS:      15872
Ship samples: 
0, 33, 67, 119, 133, 180, 213, 253, 282, 310, 347, 369, 410, 421, 455, 490, 525, 545, 594, 630, 655, 676, 713, 761, 784, 831, 853, 866, 916, 937, 963, 1016, 1042, 1057, 1119, 1145, 1181, 1202, 1239, 1250, 1305, 1327, 1360, 1392, 1419, 1454, 1482, 1532, 1551, 1574, 1622, 1655, 1694, 1714, 1759, 1789, 1814, 1832, 1886, 1898, 1938, 1975, 2015, 2041, 
Lime duel samples: 
19, 55, 89, 103, 134, 183, 205, 254, 277, 289, 321, 376, 399, 428, 470, 502, 520, 555, 592, 632, 663, 682, 708, 738, 771, 804, 840, 878, 897, 953, 970, 1009, 1038, 1064, 1098, 1144, 1161, 1214, 1247, 1269, 1287, 1313, 1359, 1394, 1412, 1465, 1486, 1510, 1564, 1597, 1614, 1632, 1683, 1706, 1749, 1780, 1817, 1836, 1862, 1912, 1929, 1976, 2012, 2036, 
Lime samples: 
19, 103, 205, 289, 399, 502, 592, 682, 771, 878, 970, 1064, 1161, 1269, 1359, 1465, 1564, 1632, 1749, 1836, 1929, 
Insertion Distribution: 
	LOAD 13464 0 0 0 0 0 50039 198544 
	RFO 3057 0 0 0 0 0 6766 5191 
	PREF 0 0 0 0 0 0 0 0 
	WRITEBACK 0 0 0 0 0 0 0 7676 
Total Prefetch Downgrades: 0
