
*** ChampSim Multicore Out-of-Order Simulator ***

Warmup Instructions: 10000000
Simulation Instructions: 100000000
Configuration: 1
Number of CPUs: 1
LLC sets: 2048
LLC ways: 16
Off-chip DRAM Channels: 1 Width: 64-bit Data Rate: 1600 MT/s

CPU 0 runs /datasets/cs240c-wi22-a00-public/data/Assignment2-gz/milc_360B.trace.gz
Heartbeat CPU 0 instructions: 1000001 cycles: 549889 heartbeat IPC: 1.81855 cumulative IPC: 1.81855 (Simulation time: 0 hr 0 min 24 sec) 
select_counter is 569
Heartbeat CPU 0 instructions: 2000003 cycles: 1099779 heartbeat IPC: 1.81855 cumulative IPC: 1.81855 (Simulation time: 0 hr 0 min 46 sec) 
select_counter is 682
Heartbeat CPU 0 instructions: 3000001 cycles: 1649612 heartbeat IPC: 1.81873 cumulative IPC: 1.81861 (Simulation time: 0 hr 1 min 13 sec) 
select_counter is 716
Heartbeat CPU 0 instructions: 4000000 cycles: 2199464 heartbeat IPC: 1.81867 cumulative IPC: 1.81862 (Simulation time: 0 hr 1 min 37 sec) 
select_counter is 770
Heartbeat CPU 0 instructions: 5000002 cycles: 2749347 heartbeat IPC: 1.81857 cumulative IPC: 1.81861 (Simulation time: 0 hr 2 min 0 sec) 
select_counter is 884
Heartbeat CPU 0 instructions: 6000001 cycles: 3299240 heartbeat IPC: 1.81853 cumulative IPC: 1.8186 (Simulation time: 0 hr 2 min 24 sec) 
select_counter is 976
Heartbeat CPU 0 instructions: 7000000 cycles: 3849091 heartbeat IPC: 1.81867 cumulative IPC: 1.81861 (Simulation time: 0 hr 2 min 48 sec) 
select_counter is 1021
Heartbeat CPU 0 instructions: 8000000 cycles: 4398930 heartbeat IPC: 1.81871 cumulative IPC: 1.81862 (Simulation time: 0 hr 3 min 12 sec) 
select_counter is 1016
Heartbeat CPU 0 instructions: 9000001 cycles: 4948828 heartbeat IPC: 1.81852 cumulative IPC: 1.81861 (Simulation time: 0 hr 3 min 38 sec) 
select_counter is 1021
Heartbeat CPU 0 instructions: 10000001 cycles: 5498685 heartbeat IPC: 1.81865 cumulative IPC: 1.81862 (Simulation time: 0 hr 4 min 4 sec) 
select_counter is 1022

Warmup complete CPU 0 instructions: 10000001 cycles: 5498685 (Simulation time: 0 hr 4 min 4 sec) 

Heartbeat CPU 0 instructions: 11000001 cycles: 7435717 heartbeat IPC: 0.516254 cumulative IPC: 0.516254 (Simulation time: 0 hr 4 min 31 sec) 
select_counter is 1022
Heartbeat CPU 0 instructions: 12000000 cycles: 9387012 heartbeat IPC: 0.51248 cumulative IPC: 0.51436 (Simulation time: 0 hr 4 min 58 sec) 
select_counter is 1014
Heartbeat CPU 0 instructions: 13000001 cycles: 11317098 heartbeat IPC: 0.518112 cumulative IPC: 0.515604 (Simulation time: 0 hr 5 min 27 sec) 
select_counter is 1016
Heartbeat CPU 0 instructions: 14000001 cycles: 13264964 heartbeat IPC: 0.513382 cumulative IPC: 0.515047 (Simulation time: 0 hr 5 min 52 sec) 
select_counter is 1018
Heartbeat CPU 0 instructions: 15000003 cycles: 15191373 heartbeat IPC: 0.519102 cumulative IPC: 0.515853 (Simulation time: 0 hr 6 min 18 sec) 
select_counter is 1023
Heartbeat CPU 0 instructions: 16000000 cycles: 17125575 heartbeat IPC: 0.517008 cumulative IPC: 0.516045 (Simulation time: 0 hr 6 min 45 sec) 
select_counter is 1007
Heartbeat CPU 0 instructions: 17000003 cycles: 19073021 heartbeat IPC: 0.513495 cumulative IPC: 0.515679 (Simulation time: 0 hr 7 min 12 sec) 
select_counter is 1018
Heartbeat CPU 0 instructions: 18000002 cycles: 21016478 heartbeat IPC: 0.514547 cumulative IPC: 0.515537 (Simulation time: 0 hr 7 min 40 sec) 
select_counter is 989
Heartbeat CPU 0 instructions: 19000000 cycles: 22971645 heartbeat IPC: 0.511464 cumulative IPC: 0.515082 (Simulation time: 0 hr 8 min 10 sec) 
select_counter is 1016
Heartbeat CPU 0 instructions: 20000000 cycles: 24939751 heartbeat IPC: 0.508103 cumulative IPC: 0.514375 (Simulation time: 0 hr 8 min 36 sec) 
select_counter is 998
Heartbeat CPU 0 instructions: 21000002 cycles: 26849491 heartbeat IPC: 0.523633 cumulative IPC: 0.515203 (Simulation time: 0 hr 9 min 3 sec) 
select_counter is 1023
Heartbeat CPU 0 instructions: 22000003 cycles: 28800572 heartbeat IPC: 0.512537 cumulative IPC: 0.51498 (Simulation time: 0 hr 9 min 31 sec) 
select_counter is 1017
Heartbeat CPU 0 instructions: 23000001 cycles: 30732562 heartbeat IPC: 0.5176 cumulative IPC: 0.51518 (Simulation time: 0 hr 10 min 1 sec) 
select_counter is 1018
Heartbeat CPU 0 instructions: 24000000 cycles: 32693572 heartbeat IPC: 0.509941 cumulative IPC: 0.514803 (Simulation time: 0 hr 10 min 29 sec) 
select_counter is 1014
Heartbeat CPU 0 instructions: 25000003 cycles: 34625823 heartbeat IPC: 0.517533 cumulative IPC: 0.514984 (Simulation time: 0 hr 10 min 56 sec) 
select_counter is 1023
Heartbeat CPU 0 instructions: 26000003 cycles: 36543887 heartbeat IPC: 0.521359 cumulative IPC: 0.515378 (Simulation time: 0 hr 11 min 24 sec) 
select_counter is 1016
Heartbeat CPU 0 instructions: 27000001 cycles: 38464470 heartbeat IPC: 0.520674 cumulative IPC: 0.515686 (Simulation time: 0 hr 11 min 51 sec) 
select_counter is 1015
Heartbeat CPU 0 instructions: 28000000 cycles: 40375940 heartbeat IPC: 0.523157 cumulative IPC: 0.516096 (Simulation time: 0 hr 12 min 19 sec) 
select_counter is 1016
Heartbeat CPU 0 instructions: 29000003 cycles: 42324576 heartbeat IPC: 0.513181 cumulative IPC: 0.515941 (Simulation time: 0 hr 12 min 47 sec) 
select_counter is 1019
Heartbeat CPU 0 instructions: 30000000 cycles: 44241933 heartbeat IPC: 0.52155 cumulative IPC: 0.516219 (Simulation time: 0 hr 13 min 15 sec) 
select_counter is 1010
Heartbeat CPU 0 instructions: 31000000 cycles: 46179543 heartbeat IPC: 0.5161 cumulative IPC: 0.516213 (Simulation time: 0 hr 13 min 44 sec) 
select_counter is 1023
Heartbeat CPU 0 instructions: 32000000 cycles: 48095431 heartbeat IPC: 0.521951 cumulative IPC: 0.516471 (Simulation time: 0 hr 14 min 11 sec) 
select_counter is 1017
Heartbeat CPU 0 instructions: 33000000 cycles: 50022354 heartbeat IPC: 0.518962 cumulative IPC: 0.516579 (Simulation time: 0 hr 14 min 37 sec) 
select_counter is 1007
Heartbeat CPU 0 instructions: 34000002 cycles: 51928670 heartbeat IPC: 0.524573 cumulative IPC: 0.516907 (Simulation time: 0 hr 15 min 4 sec) 
select_counter is 1021
Heartbeat CPU 0 instructions: 35000001 cycles: 53862385 heartbeat IPC: 0.517139 cumulative IPC: 0.516917 (Simulation time: 0 hr 15 min 35 sec) 
select_counter is 1009
Heartbeat CPU 0 instructions: 36000000 cycles: 55779948 heartbeat IPC: 0.521495 cumulative IPC: 0.517091 (Simulation time: 0 hr 16 min 7 sec) 
select_counter is 1009
Heartbeat CPU 0 instructions: 37000000 cycles: 57704428 heartbeat IPC: 0.519621 cumulative IPC: 0.517184 (Simulation time: 0 hr 16 min 41 sec) 
select_counter is 1020
Heartbeat CPU 0 instructions: 38000001 cycles: 59636054 heartbeat IPC: 0.517699 cumulative IPC: 0.517203 (Simulation time: 0 hr 17 min 15 sec) 
select_counter is 1020
Heartbeat CPU 0 instructions: 39000000 cycles: 61564310 heartbeat IPC: 0.518603 cumulative IPC: 0.517251 (Simulation time: 0 hr 17 min 43 sec) 
select_counter is 1010
Heartbeat CPU 0 instructions: 40000000 cycles: 63490275 heartbeat IPC: 0.51922 cumulative IPC: 0.517316 (Simulation time: 0 hr 18 min 10 sec) 
select_counter is 1020
Heartbeat CPU 0 instructions: 41000002 cycles: 65435213 heartbeat IPC: 0.514156 cumulative IPC: 0.517214 (Simulation time: 0 hr 18 min 39 sec) 
select_counter is 1023
Heartbeat CPU 0 instructions: 42000001 cycles: 67352512 heartbeat IPC: 0.521567 cumulative IPC: 0.517349 (Simulation time: 0 hr 19 min 9 sec) 
select_counter is 1017
Heartbeat CPU 0 instructions: 43000000 cycles: 69272030 heartbeat IPC: 0.520964 cumulative IPC: 0.517458 (Simulation time: 0 hr 19 min 36 sec) 
select_counter is 1014
Heartbeat CPU 0 instructions: 44000000 cycles: 72100420 heartbeat IPC: 0.353558 cumulative IPC: 0.510497 (Simulation time: 0 hr 20 min 9 sec) 
select_counter is 1015
Heartbeat CPU 0 instructions: 45000002 cycles: 75637815 heartbeat IPC: 0.282694 cumulative IPC: 0.499008 (Simulation time: 0 hr 20 min 47 sec) 
select_counter is 1023
Heartbeat CPU 0 instructions: 46000001 cycles: 79151750 heartbeat IPC: 0.284581 cumulative IPC: 0.488778 (Simulation time: 0 hr 21 min 22 sec) 
select_counter is 1023
Heartbeat CPU 0 instructions: 47000000 cycles: 82702445 heartbeat IPC: 0.281635 cumulative IPC: 0.479251 (Simulation time: 0 hr 21 min 56 sec) 
select_counter is 1023
Heartbeat CPU 0 instructions: 48000000 cycles: 86194394 heartbeat IPC: 0.286373 cumulative IPC: 0.470905 (Simulation time: 0 hr 22 min 31 sec) 
select_counter is 1023
Heartbeat CPU 0 instructions: 49000003 cycles: 89630516 heartbeat IPC: 0.291027 cumulative IPC: 0.463558 (Simulation time: 0 hr 23 min 14 sec) 
select_counter is 1021
Heartbeat CPU 0 instructions: 50000002 cycles: 92705024 heartbeat IPC: 0.325255 cumulative IPC: 0.458682 (Simulation time: 0 hr 23 min 47 sec) 
select_counter is 1018
Heartbeat CPU 0 instructions: 51000002 cycles: 94695343 heartbeat IPC: 0.502432 cumulative IPC: 0.459658 (Simulation time: 0 hr 24 min 15 sec) 
select_counter is 1021
Heartbeat CPU 0 instructions: 52000000 cycles: 97328522 heartbeat IPC: 0.379768 cumulative IPC: 0.457368 (Simulation time: 0 hr 24 min 40 sec) 
select_counter is 1020
Heartbeat CPU 0 instructions: 53000001 cycles: 100287607 heartbeat IPC: 0.337943 cumulative IPC: 0.45364 (Simulation time: 0 hr 25 min 11 sec) 
select_counter is 1019
Heartbeat CPU 0 instructions: 54000003 cycles: 103203033 heartbeat IPC: 0.343004 cumulative IPC: 0.450338 (Simulation time: 0 hr 25 min 40 sec) 
select_counter is 1022
Heartbeat CPU 0 instructions: 55000003 cycles: 106113377 heartbeat IPC: 0.343602 cumulative IPC: 0.447251 (Simulation time: 0 hr 26 min 9 sec) 
select_counter is 1021
Heartbeat CPU 0 instructions: 56000000 cycles: 109013784 heartbeat IPC: 0.344778 cumulative IPC: 0.44438 (Simulation time: 0 hr 26 min 44 sec) 
select_counter is 1021
Heartbeat CPU 0 instructions: 57000000 cycles: 111907180 heartbeat IPC: 0.345615 cumulative IPC: 0.441694 (Simulation time: 0 hr 27 min 16 sec) 
select_counter is 1017
Heartbeat CPU 0 instructions: 58000001 cycles: 114784503 heartbeat IPC: 0.347546 cumulative IPC: 0.439215 (Simulation time: 0 hr 27 min 45 sec) 
select_counter is 1021
Heartbeat CPU 0 instructions: 59000001 cycles: 117683974 heartbeat IPC: 0.344891 cumulative IPC: 0.436777 (Simulation time: 0 hr 28 min 16 sec) 
select_counter is 1022
Heartbeat CPU 0 instructions: 60000000 cycles: 120581161 heartbeat IPC: 0.345162 cumulative IPC: 0.434471 (Simulation time: 0 hr 28 min 43 sec) 
select_counter is 1021
Heartbeat CPU 0 instructions: 61000002 cycles: 123462171 heartbeat IPC: 0.347101 cumulative IPC: 0.432337 (Simulation time: 0 hr 29 min 16 sec) 
select_counter is 1023
Heartbeat CPU 0 instructions: 62000003 cycles: 126340120 heartbeat IPC: 0.34747 cumulative IPC: 0.430316 (Simulation time: 0 hr 29 min 46 sec) 
select_counter is 1017
Heartbeat CPU 0 instructions: 63000000 cycles: 129248798 heartbeat IPC: 0.343798 cumulative IPC: 0.428282 (Simulation time: 0 hr 30 min 13 sec) 
select_counter is 1022
Heartbeat CPU 0 instructions: 64000000 cycles: 132130560 heartbeat IPC: 0.34701 cumulative IPC: 0.426433 (Simulation time: 0 hr 30 min 41 sec) 
select_counter is 1021
Heartbeat CPU 0 instructions: 65000000 cycles: 135015951 heartbeat IPC: 0.346573 cumulative IPC: 0.424654 (Simulation time: 0 hr 31 min 10 sec) 
select_counter is 1023
Heartbeat CPU 0 instructions: 66000001 cycles: 137899366 heartbeat IPC: 0.346811 cumulative IPC: 0.422959 (Simulation time: 0 hr 31 min 35 sec) 
select_counter is 1021
Heartbeat CPU 0 instructions: 67000002 cycles: 140769663 heartbeat IPC: 0.348396 cumulative IPC: 0.421376 (Simulation time: 0 hr 32 min 1 sec) 
select_counter is 1023
Heartbeat CPU 0 instructions: 68000000 cycles: 143625006 heartbeat IPC: 0.35022 cumulative IPC: 0.419905 (Simulation time: 0 hr 32 min 34 sec) 
select_counter is 1023
Heartbeat CPU 0 instructions: 69000003 cycles: 146463183 heartbeat IPC: 0.35234 cumulative IPC: 0.418545 (Simulation time: 0 hr 33 min 15 sec) 
select_counter is 1019
Heartbeat CPU 0 instructions: 70000000 cycles: 149315762 heartbeat IPC: 0.350559 cumulative IPC: 0.417197 (Simulation time: 0 hr 33 min 48 sec) 
select_counter is 1023
Heartbeat CPU 0 instructions: 71000000 cycles: 152162081 heartbeat IPC: 0.351331 cumulative IPC: 0.415918 (Simulation time: 0 hr 34 min 16 sec) 
select_counter is 1023
Heartbeat CPU 0 instructions: 72000000 cycles: 154980148 heartbeat IPC: 0.354853 cumulative IPC: 0.414767 (Simulation time: 0 hr 34 min 48 sec) 
select_counter is 1020
Heartbeat CPU 0 instructions: 73000001 cycles: 157779340 heartbeat IPC: 0.357246 cumulative IPC: 0.41371 (Simulation time: 0 hr 35 min 24 sec) 
select_counter is 1001
Heartbeat CPU 0 instructions: 74000002 cycles: 159785757 heartbeat IPC: 0.498401 cumulative IPC: 0.414811 (Simulation time: 0 hr 35 min 51 sec) 
select_counter is 422
Heartbeat CPU 0 instructions: 75000002 cycles: 161785780 heartbeat IPC: 0.499994 cumulative IPC: 0.415901 (Simulation time: 0 hr 36 min 17 sec) 
select_counter is 846
Heartbeat CPU 0 instructions: 76000000 cycles: 163753939 heartbeat IPC: 0.508088 cumulative IPC: 0.417048 (Simulation time: 0 hr 36 min 45 sec) 
select_counter is 186
Heartbeat CPU 0 instructions: 77000000 cycles: 165720618 heartbeat IPC: 0.508471 cumulative IPC: 0.41817 (Simulation time: 0 hr 37 min 12 sec) 
select_counter is 632
Heartbeat CPU 0 instructions: 78000002 cycles: 167724917 heartbeat IPC: 0.498929 cumulative IPC: 0.419168 (Simulation time: 0 hr 37 min 37 sec) 
select_counter is 37
Heartbeat CPU 0 instructions: 79000001 cycles: 169737167 heartbeat IPC: 0.496956 cumulative IPC: 0.420121 (Simulation time: 0 hr 38 min 2 sec) 
select_counter is 512
Heartbeat CPU 0 instructions: 80000000 cycles: 171774669 heartbeat IPC: 0.490797 cumulative IPC: 0.420987 (Simulation time: 0 hr 38 min 33 sec) 
select_counter is 960
Heartbeat CPU 0 instructions: 81000003 cycles: 173794674 heartbeat IPC: 0.49505 cumulative IPC: 0.421876 (Simulation time: 0 hr 39 min 5 sec) 
select_counter is 347
Heartbeat CPU 0 instructions: 82000000 cycles: 175807066 heartbeat IPC: 0.49692 cumulative IPC: 0.422763 (Simulation time: 0 hr 39 min 31 sec) 
select_counter is 776
Heartbeat CPU 0 instructions: 83000002 cycles: 177847655 heartbeat IPC: 0.490056 cumulative IPC: 0.423559 (Simulation time: 0 hr 40 min 4 sec) 
select_counter is 163
Heartbeat CPU 0 instructions: 84000000 cycles: 179884693 heartbeat IPC: 0.490908 cumulative IPC: 0.424346 (Simulation time: 0 hr 40 min 30 sec) 
select_counter is 636
Heartbeat CPU 0 instructions: 85000001 cycles: 181901462 heartbeat IPC: 0.495843 cumulative IPC: 0.425163 (Simulation time: 0 hr 40 min 55 sec) 
select_counter is 24
Heartbeat CPU 0 instructions: 86000000 cycles: 183931723 heartbeat IPC: 0.492547 cumulative IPC: 0.42593 (Simulation time: 0 hr 41 min 19 sec) 
select_counter is 471
Heartbeat CPU 0 instructions: 87000000 cycles: 185948807 heartbeat IPC: 0.495765 cumulative IPC: 0.426711 (Simulation time: 0 hr 41 min 44 sec) 
select_counter is 910
Heartbeat CPU 0 instructions: 88000000 cycles: 187980545 heartbeat IPC: 0.492189 cumulative IPC: 0.42744 (Simulation time: 0 hr 42 min 6 sec) 
select_counter is 323
Heartbeat CPU 0 instructions: 89000002 cycles: 190029491 heartbeat IPC: 0.488057 cumulative IPC: 0.428113 (Simulation time: 0 hr 42 min 29 sec) 
select_counter is 772
Heartbeat CPU 0 instructions: 90000002 cycles: 192066893 heartbeat IPC: 0.490821 cumulative IPC: 0.428798 (Simulation time: 0 hr 42 min 54 sec) 
select_counter is 210
Heartbeat CPU 0 instructions: 91000003 cycles: 194102345 heartbeat IPC: 0.491292 cumulative IPC: 0.429472 (Simulation time: 0 hr 43 min 15 sec) 
select_counter is 620
Heartbeat CPU 0 instructions: 92000000 cycles: 196135773 heartbeat IPC: 0.491779 cumulative IPC: 0.430137 (Simulation time: 0 hr 43 min 35 sec) 
select_counter is 1018
Heartbeat CPU 0 instructions: 93000003 cycles: 198162248 heartbeat IPC: 0.493469 cumulative IPC: 0.430803 (Simulation time: 0 hr 43 min 55 sec) 
select_counter is 349
Heartbeat CPU 0 instructions: 94000001 cycles: 200181080 heartbeat IPC: 0.495335 cumulative IPC: 0.431472 (Simulation time: 0 hr 44 min 15 sec) 
select_counter is 833
Heartbeat CPU 0 instructions: 95000000 cycles: 202204499 heartbeat IPC: 0.494213 cumulative IPC: 0.432117 (Simulation time: 0 hr 44 min 37 sec) 
select_counter is 209
Heartbeat CPU 0 instructions: 96000000 cycles: 204225724 heartbeat IPC: 0.494749 cumulative IPC: 0.432754 (Simulation time: 0 hr 44 min 55 sec) 
select_counter is 622
Heartbeat CPU 0 instructions: 97000002 cycles: 206251428 heartbeat IPC: 0.493657 cumulative IPC: 0.433369 (Simulation time: 0 hr 45 min 12 sec) 
select_counter is 47
Heartbeat CPU 0 instructions: 98000003 cycles: 208283782 heartbeat IPC: 0.492041 cumulative IPC: 0.433957 (Simulation time: 0 hr 45 min 30 sec) 
select_counter is 475
Heartbeat CPU 0 instructions: 99000000 cycles: 210314332 heartbeat IPC: 0.492476 cumulative IPC: 0.434537 (Simulation time: 0 hr 45 min 47 sec) 
select_counter is 916
Heartbeat CPU 0 instructions: 100000000 cycles: 212357597 heartbeat IPC: 0.489413 cumulative IPC: 0.435079 (Simulation time: 0 hr 46 min 4 sec) 
select_counter is 367
Heartbeat CPU 0 instructions: 101000000 cycles: 214379801 heartbeat IPC: 0.49451 cumulative IPC: 0.435654 (Simulation time: 0 hr 46 min 22 sec) 
select_counter is 780
Heartbeat CPU 0 instructions: 102000000 cycles: 216403905 heartbeat IPC: 0.494046 cumulative IPC: 0.436215 (Simulation time: 0 hr 46 min 38 sec) 
select_counter is 227
Heartbeat CPU 0 instructions: 103000002 cycles: 218429617 heartbeat IPC: 0.493655 cumulative IPC: 0.436761 (Simulation time: 0 hr 46 min 54 sec) 
select_counter is 671
Heartbeat CPU 0 instructions: 104000000 cycles: 220472807 heartbeat IPC: 0.48943 cumulative IPC: 0.437262 (Simulation time: 0 hr 47 min 9 sec) 
select_counter is 119
Heartbeat CPU 0 instructions: 105000003 cycles: 222519302 heartbeat IPC: 0.488642 cumulative IPC: 0.437746 (Simulation time: 0 hr 47 min 23 sec) 
select_counter is 531
Heartbeat CPU 0 instructions: 106000002 cycles: 224550678 heartbeat IPC: 0.492277 cumulative IPC: 0.438252 (Simulation time: 0 hr 47 min 36 sec) 
select_counter is 954
Heartbeat CPU 0 instructions: 107000000 cycles: 226599606 heartbeat IPC: 0.488059 cumulative IPC: 0.438714 (Simulation time: 0 hr 47 min 50 sec) 
select_counter is 398
Heartbeat CPU 0 instructions: 108000000 cycles: 228624010 heartbeat IPC: 0.493973 cumulative IPC: 0.439215 (Simulation time: 0 hr 48 min 4 sec) 
select_counter is 838
Heartbeat CPU 0 instructions: 109000002 cycles: 230638864 heartbeat IPC: 0.496315 cumulative IPC: 0.439726 (Simulation time: 0 hr 48 min 16 sec) 
select_counter is 263
Heartbeat CPU 0 instructions: 110000000 cycles: 232664285 heartbeat IPC: 0.493724 cumulative IPC: 0.440207 (Simulation time: 0 hr 48 min 30 sec) 
select_counter is 700
Finished CPU 0 instructions: 100000003 cycles: 227165601 cummulative IPC: 0.440207 (Simulation time: 0 hr 48 min 30 sec) 

ChampSim completed all CPUs

Region of Interest Statistics

CPU 0 cummulative IPC: 0.440207 instructions: 100000003 cycles: 227165601
LLC TOTAL     ACCESS:    2838711  HIT:     392798  MISS:    2445913
LLC LOAD      ACCESS:    1956031  HIT:      13622  MISS:    1942409
LLC RFO       ACCESS:     140009  HIT:          0  MISS:     140009
LLC PREFETCH  ACCESS:          0  HIT:          0  MISS:          0
LLC WRITEBACK ACCESS:     742671  HIT:     379176  MISS:     363495
Ship samples: 
19, 46, 77, 97, 154, 178, 208, 253, 264, 290, 328, 369, 388, 438, 466, 500, 522, 544, 592, 635, 648, 701, 723, 764, 796, 817, 855, 877, 921, 950, 963, 1022, 1032, 1071, 1113, 1137, 1175, 1211, 1220, 1274, 1309, 1321, 1358, 1383, 1421, 1448, 1498, 1534, 1558, 1586, 1625, 1639, 1684, 1703, 1747, 1790, 1820, 1832, 1870, 1904, 1943, 1981, 1987, 2046, 
Lime duel samples: 
5, 32, 71, 117, 156, 167, 210, 229, 257, 302, 330, 364, 402, 428, 449, 507, 530, 571, 607, 609, 651, 686, 728, 762, 777, 806, 841, 867, 899, 942, 980, 1000, 1054, 1086, 1097, 1146, 1159, 1194, 1233, 1271, 1280, 1323, 1364, 1399, 1413, 1468, 1494, 1511, 1560, 1576, 1616, 1657, 1667, 1720, 1739, 1768, 1809, 1837, 1876, 1889, 1942, 1963, 2006, 2035, 
Lime samples: 
5, 117, 210, 302, 402, 507, 607, 686, 777, 867, 980, 1086, 1159, 1271, 1364, 1468, 1560, 1657, 1739, 1837, 1942, 
Insertion Distribution: 
	LOAD 0 0 0 0 0 0 67211 247293 
	RFO 0 0 0 0 0 0 754 3623 
	PREF 0 0 0 0 0 0 0 0 
	WRITEBACK 0 0 0 0 0 0 0 71714 
Total Prefetch Downgrades: 0
