
*** ChampSim Multicore Out-of-Order Simulator ***

Warmup Instructions: 10000000
Simulation Instructions: 100000000
Configuration: 1
Number of CPUs: 1
LLC sets: 2048
LLC ways: 16
Off-chip DRAM Channels: 1 Width: 64-bit Data Rate: 1600 MT/s

CPU 0 runs /datasets/cs240c-wi22-a00-public/data/Assignment2-gz/zeusmp_100B.trace.gz
Heartbeat CPU 0 instructions: 1000002 cycles: 464468 heartbeat IPC: 2.15301 cumulative IPC: 2.15301 (Simulation time: 0 hr 0 min 22 sec) 
select_counter is 498
Heartbeat CPU 0 instructions: 2000001 cycles: 928928 heartbeat IPC: 2.15304 cumulative IPC: 2.15302 (Simulation time: 0 hr 0 min 45 sec) 
select_counter is 528
Heartbeat CPU 0 instructions: 3000003 cycles: 1393617 heartbeat IPC: 2.15198 cumulative IPC: 2.15267 (Simulation time: 0 hr 1 min 7 sec) 
select_counter is 536
Heartbeat CPU 0 instructions: 4000000 cycles: 1858062 heartbeat IPC: 2.1531 cumulative IPC: 2.15278 (Simulation time: 0 hr 1 min 30 sec) 
select_counter is 525
Heartbeat CPU 0 instructions: 5000003 cycles: 2322491 heartbeat IPC: 2.15319 cumulative IPC: 2.15286 (Simulation time: 0 hr 1 min 54 sec) 
select_counter is 520
Heartbeat CPU 0 instructions: 6000001 cycles: 2787246 heartbeat IPC: 2.15167 cumulative IPC: 2.15266 (Simulation time: 0 hr 2 min 17 sec) 
select_counter is 521
Heartbeat CPU 0 instructions: 7000001 cycles: 3251587 heartbeat IPC: 2.15359 cumulative IPC: 2.1528 (Simulation time: 0 hr 2 min 39 sec) 
select_counter is 535
Heartbeat CPU 0 instructions: 8000000 cycles: 3716295 heartbeat IPC: 2.15189 cumulative IPC: 2.15268 (Simulation time: 0 hr 3 min 0 sec) 
select_counter is 581
Heartbeat CPU 0 instructions: 9000003 cycles: 4180636 heartbeat IPC: 2.1536 cumulative IPC: 2.15278 (Simulation time: 0 hr 3 min 23 sec) 
select_counter is 653
Heartbeat CPU 0 instructions: 10000001 cycles: 4645607 heartbeat IPC: 2.15067 cumulative IPC: 2.15257 (Simulation time: 0 hr 3 min 45 sec) 
select_counter is 696

Warmup complete CPU 0 instructions: 10000001 cycles: 4645607 (Simulation time: 0 hr 3 min 45 sec) 

Heartbeat CPU 0 instructions: 11000000 cycles: 5567421 heartbeat IPC: 1.08482 cumulative IPC: 1.08482 (Simulation time: 0 hr 4 min 10 sec) 
select_counter is 727
Heartbeat CPU 0 instructions: 12000000 cycles: 6493599 heartbeat IPC: 1.07971 cumulative IPC: 1.08226 (Simulation time: 0 hr 4 min 35 sec) 
select_counter is 735
Heartbeat CPU 0 instructions: 13000001 cycles: 7436835 heartbeat IPC: 1.06018 cumulative IPC: 1.0748 (Simulation time: 0 hr 4 min 57 sec) 
select_counter is 749
Heartbeat CPU 0 instructions: 14000003 cycles: 8359828 heartbeat IPC: 1.08343 cumulative IPC: 1.07694 (Simulation time: 0 hr 5 min 22 sec) 
select_counter is 778
Heartbeat CPU 0 instructions: 15000002 cycles: 9284922 heartbeat IPC: 1.08097 cumulative IPC: 1.07775 (Simulation time: 0 hr 5 min 45 sec) 
select_counter is 825
Heartbeat CPU 0 instructions: 16000000 cycles: 10209768 heartbeat IPC: 1.08126 cumulative IPC: 1.07833 (Simulation time: 0 hr 6 min 9 sec) 
select_counter is 887
Heartbeat CPU 0 instructions: 17000003 cycles: 11176297 heartbeat IPC: 1.03463 cumulative IPC: 1.07186 (Simulation time: 0 hr 6 min 34 sec) 
select_counter is 938
Heartbeat CPU 0 instructions: 18000000 cycles: 12066943 heartbeat IPC: 1.12278 cumulative IPC: 1.07797 (Simulation time: 0 hr 7 min 0 sec) 
select_counter is 939
Heartbeat CPU 0 instructions: 19000002 cycles: 12952460 heartbeat IPC: 1.12929 cumulative IPC: 1.08344 (Simulation time: 0 hr 7 min 27 sec) 
select_counter is 941
Heartbeat CPU 0 instructions: 20000000 cycles: 13816476 heartbeat IPC: 1.15738 cumulative IPC: 1.09041 (Simulation time: 0 hr 7 min 50 sec) 
select_counter is 983
Heartbeat CPU 0 instructions: 21000001 cycles: 14692915 heartbeat IPC: 1.14098 cumulative IPC: 1.09482 (Simulation time: 0 hr 8 min 16 sec) 
select_counter is 995
Heartbeat CPU 0 instructions: 22000001 cycles: 15560475 heartbeat IPC: 1.15266 cumulative IPC: 1.09942 (Simulation time: 0 hr 8 min 36 sec) 
select_counter is 1021
Heartbeat CPU 0 instructions: 23000002 cycles: 16444169 heartbeat IPC: 1.13161 cumulative IPC: 1.10183 (Simulation time: 0 hr 8 min 59 sec) 
select_counter is 1022
Heartbeat CPU 0 instructions: 24000000 cycles: 17309732 heartbeat IPC: 1.15532 cumulative IPC: 1.10548 (Simulation time: 0 hr 9 min 21 sec) 
select_counter is 1017
Heartbeat CPU 0 instructions: 25000002 cycles: 18187609 heartbeat IPC: 1.13911 cumulative IPC: 1.10766 (Simulation time: 0 hr 9 min 48 sec) 
select_counter is 1021
Heartbeat CPU 0 instructions: 26000001 cycles: 19053305 heartbeat IPC: 1.15514 cumulative IPC: 1.11052 (Simulation time: 0 hr 10 min 11 sec) 
select_counter is 1020
Heartbeat CPU 0 instructions: 27000000 cycles: 19934452 heartbeat IPC: 1.13488 cumulative IPC: 1.11192 (Simulation time: 0 hr 10 min 34 sec) 
select_counter is 1021
Heartbeat CPU 0 instructions: 28000000 cycles: 20804425 heartbeat IPC: 1.14946 cumulative IPC: 1.11394 (Simulation time: 0 hr 10 min 56 sec) 
select_counter is 1019
Heartbeat CPU 0 instructions: 29000000 cycles: 21671217 heartbeat IPC: 1.15368 cumulative IPC: 1.11597 (Simulation time: 0 hr 11 min 19 sec) 
select_counter is 1021
Heartbeat CPU 0 instructions: 30000003 cycles: 22550245 heartbeat IPC: 1.13762 cumulative IPC: 1.11703 (Simulation time: 0 hr 11 min 43 sec) 
select_counter is 1022
Heartbeat CPU 0 instructions: 31000000 cycles: 23415240 heartbeat IPC: 1.15607 cumulative IPC: 1.11883 (Simulation time: 0 hr 12 min 4 sec) 
select_counter is 1023
Heartbeat CPU 0 instructions: 32000000 cycles: 24299172 heartbeat IPC: 1.13131 cumulative IPC: 1.11939 (Simulation time: 0 hr 12 min 30 sec) 
select_counter is 1020
Heartbeat CPU 0 instructions: 33000002 cycles: 25164882 heartbeat IPC: 1.15512 cumulative IPC: 1.1209 (Simulation time: 0 hr 12 min 55 sec) 
select_counter is 1018
Heartbeat CPU 0 instructions: 34000002 cycles: 26041306 heartbeat IPC: 1.141 cumulative IPC: 1.12172 (Simulation time: 0 hr 13 min 20 sec) 
select_counter is 1023
Heartbeat CPU 0 instructions: 35000003 cycles: 26910339 heartbeat IPC: 1.15071 cumulative IPC: 1.12285 (Simulation time: 0 hr 13 min 42 sec) 
select_counter is 1017
Heartbeat CPU 0 instructions: 36000000 cycles: 27789916 heartbeat IPC: 1.13691 cumulative IPC: 1.12339 (Simulation time: 0 hr 14 min 7 sec) 
select_counter is 1023
Heartbeat CPU 0 instructions: 37000001 cycles: 28661356 heartbeat IPC: 1.14753 cumulative IPC: 1.12426 (Simulation time: 0 hr 14 min 28 sec) 
select_counter is 1018
Heartbeat CPU 0 instructions: 38000003 cycles: 29537170 heartbeat IPC: 1.1418 cumulative IPC: 1.12488 (Simulation time: 0 hr 14 min 51 sec) 
select_counter is 1012
Heartbeat CPU 0 instructions: 39000001 cycles: 30404854 heartbeat IPC: 1.15249 cumulative IPC: 1.12581 (Simulation time: 0 hr 15 min 14 sec) 
select_counter is 1012
Heartbeat CPU 0 instructions: 40000000 cycles: 31284234 heartbeat IPC: 1.13716 cumulative IPC: 1.12618 (Simulation time: 0 hr 15 min 40 sec) 
select_counter is 1017
Heartbeat CPU 0 instructions: 41000002 cycles: 32153776 heartbeat IPC: 1.15003 cumulative IPC: 1.12694 (Simulation time: 0 hr 16 min 11 sec) 
select_counter is 1023
Heartbeat CPU 0 instructions: 42000000 cycles: 33019492 heartbeat IPC: 1.15511 cumulative IPC: 1.1278 (Simulation time: 0 hr 16 min 34 sec) 
select_counter is 1023
Heartbeat CPU 0 instructions: 43000003 cycles: 33895245 heartbeat IPC: 1.14188 cumulative IPC: 1.12822 (Simulation time: 0 hr 17 min 0 sec) 
select_counter is 1002
Heartbeat CPU 0 instructions: 44000000 cycles: 34760000 heartbeat IPC: 1.15639 cumulative IPC: 1.12903 (Simulation time: 0 hr 17 min 27 sec) 
select_counter is 1021
Heartbeat CPU 0 instructions: 45000001 cycles: 35637219 heartbeat IPC: 1.13997 cumulative IPC: 1.12934 (Simulation time: 0 hr 17 min 50 sec) 
select_counter is 1021
Heartbeat CPU 0 instructions: 46000002 cycles: 36509184 heartbeat IPC: 1.14684 cumulative IPC: 1.12982 (Simulation time: 0 hr 18 min 12 sec) 
select_counter is 1020
Heartbeat CPU 0 instructions: 47000003 cycles: 37387051 heartbeat IPC: 1.13913 cumulative IPC: 1.13007 (Simulation time: 0 hr 18 min 34 sec) 
select_counter is 1023
Heartbeat CPU 0 instructions: 48000000 cycles: 38252090 heartbeat IPC: 1.15601 cumulative IPC: 1.13073 (Simulation time: 0 hr 18 min 57 sec) 
select_counter is 1017
Heartbeat CPU 0 instructions: 49000001 cycles: 39130046 heartbeat IPC: 1.13901 cumulative IPC: 1.13094 (Simulation time: 0 hr 19 min 21 sec) 
select_counter is 1020
Heartbeat CPU 0 instructions: 50000001 cycles: 40000973 heartbeat IPC: 1.1482 cumulative IPC: 1.13137 (Simulation time: 0 hr 19 min 45 sec) 
select_counter is 1019
Heartbeat CPU 0 instructions: 51000002 cycles: 40876029 heartbeat IPC: 1.14279 cumulative IPC: 1.13165 (Simulation time: 0 hr 20 min 6 sec) 
select_counter is 1011
Heartbeat CPU 0 instructions: 52000000 cycles: 41741266 heartbeat IPC: 1.15575 cumulative IPC: 1.13221 (Simulation time: 0 hr 20 min 28 sec) 
select_counter is 1021
Heartbeat CPU 0 instructions: 53000001 cycles: 42618706 heartbeat IPC: 1.13968 cumulative IPC: 1.13238 (Simulation time: 0 hr 20 min 52 sec) 
select_counter is 1020
Heartbeat CPU 0 instructions: 54000003 cycles: 43484271 heartbeat IPC: 1.15532 cumulative IPC: 1.13289 (Simulation time: 0 hr 21 min 14 sec) 
select_counter is 1022
Heartbeat CPU 0 instructions: 55000003 cycles: 44361221 heartbeat IPC: 1.14032 cumulative IPC: 1.13306 (Simulation time: 0 hr 21 min 35 sec) 
select_counter is 1023
Heartbeat CPU 0 instructions: 56000000 cycles: 45227188 heartbeat IPC: 1.15477 cumulative IPC: 1.13352 (Simulation time: 0 hr 21 min 56 sec) 
select_counter is 992
Heartbeat CPU 0 instructions: 57000003 cycles: 46092400 heartbeat IPC: 1.15579 cumulative IPC: 1.13398 (Simulation time: 0 hr 22 min 22 sec) 
select_counter is 1004
Heartbeat CPU 0 instructions: 58000003 cycles: 46970842 heartbeat IPC: 1.13838 cumulative IPC: 1.13408 (Simulation time: 0 hr 22 min 44 sec) 
select_counter is 1021
Heartbeat CPU 0 instructions: 59000002 cycles: 47841598 heartbeat IPC: 1.14843 cumulative IPC: 1.13436 (Simulation time: 0 hr 23 min 14 sec) 
select_counter is 996
Heartbeat CPU 0 instructions: 60000000 cycles: 48722287 heartbeat IPC: 1.13547 cumulative IPC: 1.13439 (Simulation time: 0 hr 23 min 37 sec) 
select_counter is 970
Heartbeat CPU 0 instructions: 61000000 cycles: 49590942 heartbeat IPC: 1.15121 cumulative IPC: 1.13471 (Simulation time: 0 hr 24 min 0 sec) 
select_counter is 978
Heartbeat CPU 0 instructions: 62000001 cycles: 50471684 heartbeat IPC: 1.13541 cumulative IPC: 1.13473 (Simulation time: 0 hr 24 min 21 sec) 
select_counter is 982
Heartbeat CPU 0 instructions: 63000001 cycles: 51341719 heartbeat IPC: 1.14938 cumulative IPC: 1.135 (Simulation time: 0 hr 24 min 42 sec) 
select_counter is 966
Heartbeat CPU 0 instructions: 64000000 cycles: 52226915 heartbeat IPC: 1.12969 cumulative IPC: 1.1349 (Simulation time: 0 hr 25 min 4 sec) 
select_counter is 921
Heartbeat CPU 0 instructions: 65000003 cycles: 53093950 heartbeat IPC: 1.15336 cumulative IPC: 1.13523 (Simulation time: 0 hr 25 min 25 sec) 
select_counter is 937
Heartbeat CPU 0 instructions: 66000002 cycles: 53974100 heartbeat IPC: 1.13617 cumulative IPC: 1.13525 (Simulation time: 0 hr 25 min 46 sec) 
select_counter is 925
Heartbeat CPU 0 instructions: 67000000 cycles: 54841689 heartbeat IPC: 1.15262 cumulative IPC: 1.13555 (Simulation time: 0 hr 26 min 9 sec) 
select_counter is 911
Heartbeat CPU 0 instructions: 68000000 cycles: 55724239 heartbeat IPC: 1.13308 cumulative IPC: 1.1355 (Simulation time: 0 hr 26 min 31 sec) 
select_counter is 867
Heartbeat CPU 0 instructions: 69000000 cycles: 56595953 heartbeat IPC: 1.14717 cumulative IPC: 1.1357 (Simulation time: 0 hr 26 min 59 sec) 
select_counter is 918
Heartbeat CPU 0 instructions: 70000003 cycles: 57463216 heartbeat IPC: 1.15306 cumulative IPC: 1.13598 (Simulation time: 0 hr 27 min 21 sec) 
select_counter is 922
Heartbeat CPU 0 instructions: 71000003 cycles: 58343122 heartbeat IPC: 1.13648 cumulative IPC: 1.13599 (Simulation time: 0 hr 27 min 43 sec) 
select_counter is 894
Heartbeat CPU 0 instructions: 72000000 cycles: 59210623 heartbeat IPC: 1.15273 cumulative IPC: 1.13626 (Simulation time: 0 hr 28 min 5 sec) 
select_counter is 875
Heartbeat CPU 0 instructions: 73000002 cycles: 60097602 heartbeat IPC: 1.12742 cumulative IPC: 1.13612 (Simulation time: 0 hr 28 min 25 sec) 
select_counter is 841
Heartbeat CPU 0 instructions: 74000003 cycles: 60965681 heartbeat IPC: 1.15197 cumulative IPC: 1.13636 (Simulation time: 0 hr 28 min 45 sec) 
select_counter is 881
Heartbeat CPU 0 instructions: 75000003 cycles: 61844097 heartbeat IPC: 1.13841 cumulative IPC: 1.13639 (Simulation time: 0 hr 29 min 9 sec) 
select_counter is 917
Heartbeat CPU 0 instructions: 76000000 cycles: 62710968 heartbeat IPC: 1.15357 cumulative IPC: 1.13665 (Simulation time: 0 hr 29 min 33 sec) 
select_counter is 895
Heartbeat CPU 0 instructions: 77000003 cycles: 63595969 heartbeat IPC: 1.12995 cumulative IPC: 1.13655 (Simulation time: 0 hr 29 min 54 sec) 
select_counter is 857
Heartbeat CPU 0 instructions: 78000001 cycles: 64467616 heartbeat IPC: 1.14725 cumulative IPC: 1.13671 (Simulation time: 0 hr 30 min 15 sec) 
select_counter is 820
Heartbeat CPU 0 instructions: 79000000 cycles: 65349345 heartbeat IPC: 1.13413 cumulative IPC: 1.13667 (Simulation time: 0 hr 30 min 36 sec) 
select_counter is 823
Heartbeat CPU 0 instructions: 80000000 cycles: 66216929 heartbeat IPC: 1.15263 cumulative IPC: 1.13689 (Simulation time: 0 hr 30 min 58 sec) 
select_counter is 829
Heartbeat CPU 0 instructions: 81000003 cycles: 67100081 heartbeat IPC: 1.13231 cumulative IPC: 1.13683 (Simulation time: 0 hr 31 min 24 sec) 
select_counter is 807
Heartbeat CPU 0 instructions: 82000001 cycles: 67972419 heartbeat IPC: 1.14634 cumulative IPC: 1.13696 (Simulation time: 0 hr 31 min 46 sec) 
select_counter is 806
Heartbeat CPU 0 instructions: 83000002 cycles: 68839054 heartbeat IPC: 1.15389 cumulative IPC: 1.13719 (Simulation time: 0 hr 32 min 8 sec) 
select_counter is 787
Heartbeat CPU 0 instructions: 84000000 cycles: 69716757 heartbeat IPC: 1.13934 cumulative IPC: 1.13722 (Simulation time: 0 hr 32 min 29 sec) 
select_counter is 775
Heartbeat CPU 0 instructions: 85000001 cycles: 70585135 heartbeat IPC: 1.15157 cumulative IPC: 1.13741 (Simulation time: 0 hr 32 min 54 sec) 
select_counter is 782
Heartbeat CPU 0 instructions: 86000001 cycles: 71465555 heartbeat IPC: 1.13582 cumulative IPC: 1.13738 (Simulation time: 0 hr 33 min 17 sec) 
select_counter is 750
Heartbeat CPU 0 instructions: 87000001 cycles: 72337396 heartbeat IPC: 1.147 cumulative IPC: 1.13751 (Simulation time: 0 hr 33 min 42 sec) 
select_counter is 734
Heartbeat CPU 0 instructions: 88000000 cycles: 73217195 heartbeat IPC: 1.13662 cumulative IPC: 1.1375 (Simulation time: 0 hr 34 min 6 sec) 
select_counter is 719
Heartbeat CPU 0 instructions: 89000003 cycles: 74084341 heartbeat IPC: 1.15321 cumulative IPC: 1.13769 (Simulation time: 0 hr 34 min 30 sec) 
select_counter is 728
Heartbeat CPU 0 instructions: 90000001 cycles: 74964122 heartbeat IPC: 1.13664 cumulative IPC: 1.13768 (Simulation time: 0 hr 34 min 55 sec) 
select_counter is 730
Heartbeat CPU 0 instructions: 91000000 cycles: 75839784 heartbeat IPC: 1.14199 cumulative IPC: 1.13773 (Simulation time: 0 hr 35 min 17 sec) 
select_counter is 734
Heartbeat CPU 0 instructions: 92000000 cycles: 76721305 heartbeat IPC: 1.1344 cumulative IPC: 1.13769 (Simulation time: 0 hr 35 min 38 sec) 
select_counter is 695
Heartbeat CPU 0 instructions: 93000001 cycles: 77589900 heartbeat IPC: 1.15129 cumulative IPC: 1.13785 (Simulation time: 0 hr 35 min 58 sec) 
select_counter is 668
Heartbeat CPU 0 instructions: 94000003 cycles: 78469906 heartbeat IPC: 1.13636 cumulative IPC: 1.13784 (Simulation time: 0 hr 36 min 20 sec) 
select_counter is 678
Heartbeat CPU 0 instructions: 95000003 cycles: 79337445 heartbeat IPC: 1.15269 cumulative IPC: 1.13801 (Simulation time: 0 hr 36 min 42 sec) 
select_counter is 676
Heartbeat CPU 0 instructions: 96000000 cycles: 80213363 heartbeat IPC: 1.14166 cumulative IPC: 1.13805 (Simulation time: 0 hr 37 min 7 sec) 
select_counter is 664
Heartbeat CPU 0 instructions: 97000000 cycles: 81094838 heartbeat IPC: 1.13446 cumulative IPC: 1.13801 (Simulation time: 0 hr 37 min 29 sec) 
select_counter is 653
Heartbeat CPU 0 instructions: 98000001 cycles: 81962448 heartbeat IPC: 1.15259 cumulative IPC: 1.13817 (Simulation time: 0 hr 37 min 53 sec) 
select_counter is 649
Heartbeat CPU 0 instructions: 99000001 cycles: 82842936 heartbeat IPC: 1.13573 cumulative IPC: 1.13815 (Simulation time: 0 hr 38 min 16 sec) 
select_counter is 654
Heartbeat CPU 0 instructions: 100000000 cycles: 83718054 heartbeat IPC: 1.1427 cumulative IPC: 1.1382 (Simulation time: 0 hr 38 min 40 sec) 
select_counter is 617
Heartbeat CPU 0 instructions: 101000002 cycles: 84600050 heartbeat IPC: 1.13379 cumulative IPC: 1.13815 (Simulation time: 0 hr 39 min 4 sec) 
select_counter is 608
Heartbeat CPU 0 instructions: 102000003 cycles: 85466207 heartbeat IPC: 1.15453 cumulative IPC: 1.13832 (Simulation time: 0 hr 39 min 35 sec) 
select_counter is 605
Heartbeat CPU 0 instructions: 103000001 cycles: 86346199 heartbeat IPC: 1.13637 cumulative IPC: 1.1383 (Simulation time: 0 hr 39 min 55 sec) 
select_counter is 601
Heartbeat CPU 0 instructions: 104000000 cycles: 87212759 heartbeat IPC: 1.15399 cumulative IPC: 1.13847 (Simulation time: 0 hr 40 min 14 sec) 
select_counter is 617
Heartbeat CPU 0 instructions: 105000003 cycles: 88096792 heartbeat IPC: 1.13118 cumulative IPC: 1.13839 (Simulation time: 0 hr 40 min 34 sec) 
select_counter is 576
Heartbeat CPU 0 instructions: 106000002 cycles: 88963004 heartbeat IPC: 1.15445 cumulative IPC: 1.13856 (Simulation time: 0 hr 40 min 55 sec) 
select_counter is 573
Heartbeat CPU 0 instructions: 107000000 cycles: 89843362 heartbeat IPC: 1.1359 cumulative IPC: 1.13853 (Simulation time: 0 hr 41 min 14 sec) 
select_counter is 599
Heartbeat CPU 0 instructions: 108000000 cycles: 90709207 heartbeat IPC: 1.15494 cumulative IPC: 1.13869 (Simulation time: 0 hr 41 min 32 sec) 
select_counter is 578
Heartbeat CPU 0 instructions: 109000002 cycles: 91581854 heartbeat IPC: 1.14594 cumulative IPC: 1.13877 (Simulation time: 0 hr 41 min 51 sec) 
select_counter is 586
Heartbeat CPU 0 instructions: 110000000 cycles: 92463333 heartbeat IPC: 1.13445 cumulative IPC: 1.13872 (Simulation time: 0 hr 42 min 9 sec) 
select_counter is 552
Finished CPU 0 instructions: 100000003 cycles: 87817727 cummulative IPC: 1.13872 (Simulation time: 0 hr 42 min 9 sec) 

ChampSim completed all CPUs

Region of Interest Statistics

CPU 0 cummulative IPC: 1.13872 instructions: 100000003 cycles: 87817727
LLC TOTAL     ACCESS:     789887  HIT:     175936  MISS:     613951
LLC LOAD      ACCESS:     401402  HIT:      91501  MISS:     309901
LLC RFO       ACCESS:     194179  HIT:        911  MISS:     193268
LLC PREFETCH  ACCESS:          0  HIT:          0  MISS:          0
LLC WRITEBACK ACCESS:     194306  HIT:      83524  MISS:     110782
Ship samples: 
26, 57, 81, 97, 144, 160, 213, 241, 263, 293, 349, 355, 407, 434, 464, 488, 521, 549, 597, 615, 666, 684, 725, 754, 797, 813, 842, 875, 900, 943, 973, 1001, 1036, 1069, 1096, 1144, 1176, 1196, 1243, 1260, 1311, 1330, 1355, 1386, 1435, 1444, 1488, 1535, 1563, 1598, 1601, 1637, 1690, 1702, 1744, 1774, 1805, 1848, 1886, 1895, 1947, 1953, 2008, 2024, 
Lime duel samples: 
29, 36, 76, 109, 148, 161, 220, 240, 267, 298, 334, 361, 401, 435, 462, 496, 532, 564, 598, 633, 662, 675, 714, 759, 799, 800, 858, 881, 897, 957, 980, 1015, 1047, 1070, 1089, 1140, 1154, 1188, 1229, 1278, 1304, 1338, 1353, 1405, 1423, 1465, 1480, 1517, 1564, 1581, 1603, 1654, 1689, 1714, 1749, 1779, 1807, 1824, 1880, 1890, 1945, 1963, 1996, 2017, 
Lime samples: 
29, 109, 220, 298, 401, 496, 598, 675, 799, 881, 980, 1070, 1154, 1278, 1353, 1465, 1564, 1654, 1749, 1824, 1945, 
Insertion Distribution: 
	LOAD 2899 0 0 0 0 0 5846 7098 
	RFO 0 0 0 0 0 0 2212 6341 
	PREF 0 0 0 0 0 0 0 0 
	WRITEBACK 0 0 0 0 0 0 0 5514 
Total Prefetch Downgrades: 0
