
*** ChampSim Multicore Out-of-Order Simulator ***

Warmup Instructions: 10000000
Simulation Instructions: 100000000
Configuration: 1
Number of CPUs: 1
LLC sets: 2048
LLC ways: 16
Off-chip DRAM Channels: 1 Width: 64-bit Data Rate: 1600 MT/s

CPU 0 runs /datasets/cs240c-wi22-a00-public/data/Assignment2-gz/astar_23B.trace.gz
Heartbeat CPU 0 instructions: 1000000 cycles: 360103 heartbeat IPC: 2.77698 cumulative IPC: 2.77698 (Simulation time: 0 hr 0 min 26 sec) 
select_counter is 502
Heartbeat CPU 0 instructions: 2000001 cycles: 720987 heartbeat IPC: 2.77098 cumulative IPC: 2.77398 (Simulation time: 0 hr 0 min 51 sec) 
select_counter is 577
Heartbeat CPU 0 instructions: 3000000 cycles: 1079939 heartbeat IPC: 2.78589 cumulative IPC: 2.77793 (Simulation time: 0 hr 1 min 12 sec) 
select_counter is 612
Heartbeat CPU 0 instructions: 4000000 cycles: 1441400 heartbeat IPC: 2.76655 cumulative IPC: 2.77508 (Simulation time: 0 hr 1 min 33 sec) 
select_counter is 635
Heartbeat CPU 0 instructions: 5000000 cycles: 1803483 heartbeat IPC: 2.7618 cumulative IPC: 2.77241 (Simulation time: 0 hr 1 min 54 sec) 
select_counter is 602
Heartbeat CPU 0 instructions: 6000002 cycles: 2165161 heartbeat IPC: 2.7649 cumulative IPC: 2.77116 (Simulation time: 0 hr 2 min 22 sec) 
select_counter is 614
Heartbeat CPU 0 instructions: 7000002 cycles: 2526750 heartbeat IPC: 2.76557 cumulative IPC: 2.77036 (Simulation time: 0 hr 2 min 43 sec) 
select_counter is 616
Heartbeat CPU 0 instructions: 8000000 cycles: 2889658 heartbeat IPC: 2.75551 cumulative IPC: 2.76849 (Simulation time: 0 hr 3 min 4 sec) 
select_counter is 620
Heartbeat CPU 0 instructions: 9000000 cycles: 3252684 heartbeat IPC: 2.75462 cumulative IPC: 2.76695 (Simulation time: 0 hr 3 min 28 sec) 
select_counter is 603
Heartbeat CPU 0 instructions: 10000003 cycles: 3617580 heartbeat IPC: 2.74051 cumulative IPC: 2.76428 (Simulation time: 0 hr 3 min 55 sec) 
select_counter is 628

Warmup complete CPU 0 instructions: 10000003 cycles: 3617580 (Simulation time: 0 hr 3 min 55 sec) 

Heartbeat CPU 0 instructions: 11000000 cycles: 6795049 heartbeat IPC: 0.314715 cumulative IPC: 0.314715 (Simulation time: 0 hr 4 min 18 sec) 
select_counter is 651
Heartbeat CPU 0 instructions: 12000000 cycles: 9662703 heartbeat IPC: 0.348717 cumulative IPC: 0.330845 (Simulation time: 0 hr 4 min 43 sec) 
select_counter is 627
Heartbeat CPU 0 instructions: 13000002 cycles: 12398051 heartbeat IPC: 0.365585 cumulative IPC: 0.341667 (Simulation time: 0 hr 5 min 4 sec) 
select_counter is 615
Heartbeat CPU 0 instructions: 14000001 cycles: 15408809 heartbeat IPC: 0.332142 cumulative IPC: 0.339235 (Simulation time: 0 hr 5 min 26 sec) 
select_counter is 612
Heartbeat CPU 0 instructions: 15000000 cycles: 18711843 heartbeat IPC: 0.302752 cumulative IPC: 0.331251 (Simulation time: 0 hr 5 min 45 sec) 
select_counter is 604
Heartbeat CPU 0 instructions: 16000000 cycles: 21651253 heartbeat IPC: 0.340204 cumulative IPC: 0.332711 (Simulation time: 0 hr 6 min 4 sec) 
select_counter is 611
Heartbeat CPU 0 instructions: 17000002 cycles: 24378504 heartbeat IPC: 0.36667 cumulative IPC: 0.337172 (Simulation time: 0 hr 6 min 31 sec) 
select_counter is 634
Heartbeat CPU 0 instructions: 18000000 cycles: 27186052 heartbeat IPC: 0.356182 cumulative IPC: 0.339436 (Simulation time: 0 hr 6 min 52 sec) 
select_counter is 638
Heartbeat CPU 0 instructions: 19000000 cycles: 30117552 heartbeat IPC: 0.341122 cumulative IPC: 0.339623 (Simulation time: 0 hr 7 min 12 sec) 
select_counter is 647
Heartbeat CPU 0 instructions: 20000000 cycles: 33152794 heartbeat IPC: 0.329463 cumulative IPC: 0.338579 (Simulation time: 0 hr 7 min 35 sec) 
select_counter is 668
Heartbeat CPU 0 instructions: 21000001 cycles: 36232320 heartbeat IPC: 0.324726 cumulative IPC: 0.337271 (Simulation time: 0 hr 7 min 58 sec) 
select_counter is 720
Heartbeat CPU 0 instructions: 22000002 cycles: 39353128 heartbeat IPC: 0.32043 cumulative IPC: 0.3358 (Simulation time: 0 hr 8 min 18 sec) 
select_counter is 704
Heartbeat CPU 0 instructions: 23000003 cycles: 42702686 heartbeat IPC: 0.298547 cumulative IPC: 0.332608 (Simulation time: 0 hr 8 min 41 sec) 
select_counter is 765
Heartbeat CPU 0 instructions: 24000000 cycles: 46243470 heartbeat IPC: 0.282422 cumulative IPC: 0.328439 (Simulation time: 0 hr 9 min 5 sec) 
select_counter is 735
Heartbeat CPU 0 instructions: 25000000 cycles: 50123961 heartbeat IPC: 0.257699 cumulative IPC: 0.322536 (Simulation time: 0 hr 9 min 34 sec) 
select_counter is 692
Heartbeat CPU 0 instructions: 26000000 cycles: 54287529 heartbeat IPC: 0.240179 cumulative IPC: 0.315769 (Simulation time: 0 hr 10 min 1 sec) 
select_counter is 676
Heartbeat CPU 0 instructions: 27000000 cycles: 58270625 heartbeat IPC: 0.251061 cumulative IPC: 0.311053 (Simulation time: 0 hr 10 min 31 sec) 
select_counter is 666
Heartbeat CPU 0 instructions: 28000000 cycles: 62111471 heartbeat IPC: 0.260359 cumulative IPC: 0.307724 (Simulation time: 0 hr 10 min 56 sec) 
select_counter is 627
Heartbeat CPU 0 instructions: 29000000 cycles: 65649137 heartbeat IPC: 0.282672 cumulative IPC: 0.306296 (Simulation time: 0 hr 11 min 18 sec) 
select_counter is 610
Heartbeat CPU 0 instructions: 30000000 cycles: 69254025 heartbeat IPC: 0.277401 cumulative IPC: 0.304709 (Simulation time: 0 hr 11 min 38 sec) 
select_counter is 585
Heartbeat CPU 0 instructions: 31000001 cycles: 72919355 heartbeat IPC: 0.272827 cumulative IPC: 0.303023 (Simulation time: 0 hr 12 min 1 sec) 
select_counter is 556
Heartbeat CPU 0 instructions: 32000000 cycles: 76767318 heartbeat IPC: 0.259878 cumulative IPC: 0.300753 (Simulation time: 0 hr 12 min 26 sec) 
select_counter is 525
Heartbeat CPU 0 instructions: 33000001 cycles: 80804539 heartbeat IPC: 0.247695 cumulative IPC: 0.297978 (Simulation time: 0 hr 12 min 50 sec) 
select_counter is 574
Heartbeat CPU 0 instructions: 34000003 cycles: 84898319 heartbeat IPC: 0.244274 cumulative IPC: 0.295273 (Simulation time: 0 hr 13 min 13 sec) 
select_counter is 578
Heartbeat CPU 0 instructions: 35000003 cycles: 88832110 heartbeat IPC: 0.254208 cumulative IPC: 0.293377 (Simulation time: 0 hr 13 min 38 sec) 
select_counter is 578
Heartbeat CPU 0 instructions: 36000000 cycles: 92989565 heartbeat IPC: 0.240531 cumulative IPC: 0.290919 (Simulation time: 0 hr 14 min 3 sec) 
select_counter is 594
Heartbeat CPU 0 instructions: 37000000 cycles: 97298608 heartbeat IPC: 0.23207 cumulative IPC: 0.288212 (Simulation time: 0 hr 14 min 23 sec) 
select_counter is 570
Heartbeat CPU 0 instructions: 38000003 cycles: 101430227 heartbeat IPC: 0.242037 cumulative IPC: 0.286262 (Simulation time: 0 hr 14 min 43 sec) 
select_counter is 521
Heartbeat CPU 0 instructions: 39000000 cycles: 105404568 heartbeat IPC: 0.251613 cumulative IPC: 0.284909 (Simulation time: 0 hr 15 min 9 sec) 
select_counter is 519
Heartbeat CPU 0 instructions: 40000000 cycles: 109265084 heartbeat IPC: 0.259033 cumulative IPC: 0.283963 (Simulation time: 0 hr 15 min 32 sec) 
select_counter is 473
Heartbeat CPU 0 instructions: 41000003 cycles: 113025280 heartbeat IPC: 0.265944 cumulative IPC: 0.283344 (Simulation time: 0 hr 15 min 51 sec) 
select_counter is 459
Heartbeat CPU 0 instructions: 42000000 cycles: 116753391 heartbeat IPC: 0.268232 cumulative IPC: 0.282846 (Simulation time: 0 hr 16 min 13 sec) 
select_counter is 393
Heartbeat CPU 0 instructions: 43000000 cycles: 120108192 heartbeat IPC: 0.29808 cumulative IPC: 0.283285 (Simulation time: 0 hr 16 min 35 sec) 
select_counter is 364
Heartbeat CPU 0 instructions: 44000000 cycles: 123350078 heartbeat IPC: 0.308462 cumulative IPC: 0.283966 (Simulation time: 0 hr 16 min 57 sec) 
select_counter is 351
Heartbeat CPU 0 instructions: 45000001 cycles: 126713377 heartbeat IPC: 0.297327 cumulative IPC: 0.284331 (Simulation time: 0 hr 17 min 20 sec) 
select_counter is 365
Heartbeat CPU 0 instructions: 46000003 cycles: 129888324 heartbeat IPC: 0.314967 cumulative IPC: 0.285102 (Simulation time: 0 hr 17 min 41 sec) 
select_counter is 351
Heartbeat CPU 0 instructions: 47000002 cycles: 133145687 heartbeat IPC: 0.306996 cumulative IPC: 0.285652 (Simulation time: 0 hr 18 min 3 sec) 
select_counter is 318
Heartbeat CPU 0 instructions: 48000000 cycles: 136424112 heartbeat IPC: 0.305024 cumulative IPC: 0.28613 (Simulation time: 0 hr 18 min 22 sec) 
select_counter is 222
Heartbeat CPU 0 instructions: 49000003 cycles: 139808178 heartbeat IPC: 0.295503 cumulative IPC: 0.286363 (Simulation time: 0 hr 18 min 42 sec) 
select_counter is 206
Heartbeat CPU 0 instructions: 50000000 cycles: 143085523 heartbeat IPC: 0.305124 cumulative IPC: 0.286804 (Simulation time: 0 hr 19 min 6 sec) 
select_counter is 225
Heartbeat CPU 0 instructions: 51000001 cycles: 146982237 heartbeat IPC: 0.256627 cumulative IPC: 0.285984 (Simulation time: 0 hr 19 min 28 sec) 
select_counter is 237
Heartbeat CPU 0 instructions: 52000000 cycles: 151048420 heartbeat IPC: 0.245931 cumulative IPC: 0.284879 (Simulation time: 0 hr 19 min 55 sec) 
select_counter is 137
Heartbeat CPU 0 instructions: 53000000 cycles: 153973063 heartbeat IPC: 0.341922 cumulative IPC: 0.285989 (Simulation time: 0 hr 20 min 18 sec) 
select_counter is 123
Heartbeat CPU 0 instructions: 54000002 cycles: 156934800 heartbeat IPC: 0.33764 cumulative IPC: 0.286987 (Simulation time: 0 hr 20 min 44 sec) 
select_counter is 157
Heartbeat CPU 0 instructions: 55000002 cycles: 159946119 heartbeat IPC: 0.33208 cumulative IPC: 0.287855 (Simulation time: 0 hr 21 min 9 sec) 
select_counter is 129
Heartbeat CPU 0 instructions: 56000000 cycles: 162962021 heartbeat IPC: 0.331575 cumulative IPC: 0.288683 (Simulation time: 0 hr 21 min 34 sec) 
select_counter is 97
Heartbeat CPU 0 instructions: 57000000 cycles: 165826354 heartbeat IPC: 0.349121 cumulative IPC: 0.28975 (Simulation time: 0 hr 21 min 57 sec) 
select_counter is 74
Heartbeat CPU 0 instructions: 58000001 cycles: 168616550 heartbeat IPC: 0.358398 cumulative IPC: 0.290911 (Simulation time: 0 hr 22 min 16 sec) 
select_counter is 26
Heartbeat CPU 0 instructions: 59000000 cycles: 171526714 heartbeat IPC: 0.343623 cumulative IPC: 0.291824 (Simulation time: 0 hr 22 min 35 sec) 
select_counter is 943
Heartbeat CPU 0 instructions: 60000000 cycles: 174479975 heartbeat IPC: 0.338609 cumulative IPC: 0.292633 (Simulation time: 0 hr 22 min 55 sec) 
select_counter is 945
Heartbeat CPU 0 instructions: 61000000 cycles: 177225574 heartbeat IPC: 0.364219 cumulative IPC: 0.293765 (Simulation time: 0 hr 23 min 21 sec) 
select_counter is 917
Heartbeat CPU 0 instructions: 62000003 cycles: 179904370 heartbeat IPC: 0.373303 cumulative IPC: 0.294974 (Simulation time: 0 hr 23 min 44 sec) 
select_counter is 846
Heartbeat CPU 0 instructions: 63000000 cycles: 182778452 heartbeat IPC: 0.347936 cumulative IPC: 0.295824 (Simulation time: 0 hr 24 min 7 sec) 
select_counter is 851
Heartbeat CPU 0 instructions: 64000000 cycles: 185523156 heartbeat IPC: 0.364338 cumulative IPC: 0.296857 (Simulation time: 0 hr 24 min 31 sec) 
select_counter is 800
Heartbeat CPU 0 instructions: 65000000 cycles: 188146465 heartbeat IPC: 0.381198 cumulative IPC: 0.298056 (Simulation time: 0 hr 24 min 53 sec) 
select_counter is 793
Heartbeat CPU 0 instructions: 66000000 cycles: 190825877 heartbeat IPC: 0.373216 cumulative IPC: 0.299132 (Simulation time: 0 hr 25 min 17 sec) 
select_counter is 766
Heartbeat CPU 0 instructions: 67000000 cycles: 193549467 heartbeat IPC: 0.367162 cumulative IPC: 0.300108 (Simulation time: 0 hr 25 min 39 sec) 
select_counter is 756
Heartbeat CPU 0 instructions: 68000000 cycles: 196247797 heartbeat IPC: 0.3706 cumulative IPC: 0.301095 (Simulation time: 0 hr 26 min 4 sec) 
select_counter is 699
Heartbeat CPU 0 instructions: 69000000 cycles: 199035452 heartbeat IPC: 0.358724 cumulative IPC: 0.301917 (Simulation time: 0 hr 26 min 24 sec) 
select_counter is 684
Heartbeat CPU 0 instructions: 70000000 cycles: 201940408 heartbeat IPC: 0.344239 cumulative IPC: 0.302537 (Simulation time: 0 hr 26 min 43 sec) 
select_counter is 678
Heartbeat CPU 0 instructions: 71000001 cycles: 204853169 heartbeat IPC: 0.343317 cumulative IPC: 0.303127 (Simulation time: 0 hr 27 min 6 sec) 
select_counter is 696
Heartbeat CPU 0 instructions: 72000000 cycles: 207811862 heartbeat IPC: 0.337987 cumulative IPC: 0.303632 (Simulation time: 0 hr 27 min 26 sec) 
select_counter is 636
Heartbeat CPU 0 instructions: 73000001 cycles: 210672378 heartbeat IPC: 0.349588 cumulative IPC: 0.304267 (Simulation time: 0 hr 27 min 47 sec) 
select_counter is 590
Heartbeat CPU 0 instructions: 74000002 cycles: 213228867 heartbeat IPC: 0.391162 cumulative IPC: 0.305327 (Simulation time: 0 hr 28 min 7 sec) 
select_counter is 595
Heartbeat CPU 0 instructions: 75000002 cycles: 216040092 heartbeat IPC: 0.355717 cumulative IPC: 0.305994 (Simulation time: 0 hr 28 min 27 sec) 
select_counter is 538
Heartbeat CPU 0 instructions: 76000000 cycles: 218827137 heartbeat IPC: 0.358802 cumulative IPC: 0.306678 (Simulation time: 0 hr 28 min 49 sec) 
select_counter is 476
Heartbeat CPU 0 instructions: 77000000 cycles: 222217789 heartbeat IPC: 0.294929 cumulative IPC: 0.306496 (Simulation time: 0 hr 29 min 15 sec) 
select_counter is 413
Heartbeat CPU 0 instructions: 78000003 cycles: 225508070 heartbeat IPC: 0.303926 cumulative IPC: 0.306457 (Simulation time: 0 hr 29 min 37 sec) 
select_counter is 373
Heartbeat CPU 0 instructions: 79000001 cycles: 228298778 heartbeat IPC: 0.358331 cumulative IPC: 0.307102 (Simulation time: 0 hr 29 min 59 sec) 
select_counter is 341
Heartbeat CPU 0 instructions: 80000000 cycles: 231244615 heartbeat IPC: 0.339462 cumulative IPC: 0.307521 (Simulation time: 0 hr 30 min 21 sec) 
select_counter is 289
Heartbeat CPU 0 instructions: 81000001 cycles: 234162663 heartbeat IPC: 0.342695 cumulative IPC: 0.307966 (Simulation time: 0 hr 30 min 42 sec) 
select_counter is 300
Heartbeat CPU 0 instructions: 82000002 cycles: 237059309 heartbeat IPC: 0.345227 cumulative IPC: 0.308428 (Simulation time: 0 hr 31 min 2 sec) 
select_counter is 264
Heartbeat CPU 0 instructions: 83000002 cycles: 239842743 heartbeat IPC: 0.359268 cumulative IPC: 0.309027 (Simulation time: 0 hr 31 min 20 sec) 
select_counter is 264
Heartbeat CPU 0 instructions: 84000000 cycles: 242682623 heartbeat IPC: 0.352127 cumulative IPC: 0.309539 (Simulation time: 0 hr 31 min 39 sec) 
select_counter is 211
Heartbeat CPU 0 instructions: 85000000 cycles: 245553511 heartbeat IPC: 0.348324 cumulative IPC: 0.309999 (Simulation time: 0 hr 31 min 57 sec) 
select_counter is 208
Heartbeat CPU 0 instructions: 86000001 cycles: 248310216 heartbeat IPC: 0.362752 cumulative IPC: 0.310594 (Simulation time: 0 hr 32 min 18 sec) 
select_counter is 227
Heartbeat CPU 0 instructions: 87000000 cycles: 251056918 heartbeat IPC: 0.364073 cumulative IPC: 0.311187 (Simulation time: 0 hr 32 min 37 sec) 
select_counter is 260
Heartbeat CPU 0 instructions: 88000000 cycles: 253938050 heartbeat IPC: 0.347086 cumulative IPC: 0.311601 (Simulation time: 0 hr 32 min 58 sec) 
select_counter is 292
Heartbeat CPU 0 instructions: 89000000 cycles: 256875722 heartbeat IPC: 0.340406 cumulative IPC: 0.311935 (Simulation time: 0 hr 33 min 18 sec) 
select_counter is 799
Heartbeat CPU 0 instructions: 90000001 cycles: 261059762 heartbeat IPC: 0.239004 cumulative IPC: 0.310749 (Simulation time: 0 hr 33 min 42 sec) 
select_counter is 727
Heartbeat CPU 0 instructions: 91000000 cycles: 264429445 heartbeat IPC: 0.296764 cumulative IPC: 0.310569 (Simulation time: 0 hr 34 min 2 sec) 
select_counter is 674
Heartbeat CPU 0 instructions: 92000000 cycles: 267667339 heartbeat IPC: 0.308843 cumulative IPC: 0.310548 (Simulation time: 0 hr 34 min 24 sec) 
select_counter is 615
Heartbeat CPU 0 instructions: 93000000 cycles: 270523087 heartbeat IPC: 0.350171 cumulative IPC: 0.310971 (Simulation time: 0 hr 34 min 44 sec) 
select_counter is 616
Heartbeat CPU 0 instructions: 94000003 cycles: 273345774 heartbeat IPC: 0.354273 cumulative IPC: 0.311425 (Simulation time: 0 hr 35 min 8 sec) 
select_counter is 638
Heartbeat CPU 0 instructions: 95000000 cycles: 276096150 heartbeat IPC: 0.363586 cumulative IPC: 0.311951 (Simulation time: 0 hr 35 min 30 sec) 
select_counter is 659
Heartbeat CPU 0 instructions: 96000000 cycles: 278915949 heartbeat IPC: 0.354635 cumulative IPC: 0.312388 (Simulation time: 0 hr 35 min 49 sec) 
select_counter is 616
Heartbeat CPU 0 instructions: 97000000 cycles: 281689238 heartbeat IPC: 0.360583 cumulative IPC: 0.312869 (Simulation time: 0 hr 36 min 14 sec) 
select_counter is 595
Heartbeat CPU 0 instructions: 98000000 cycles: 284563230 heartbeat IPC: 0.347948 cumulative IPC: 0.313228 (Simulation time: 0 hr 36 min 38 sec) 
select_counter is 537
Heartbeat CPU 0 instructions: 99000002 cycles: 287832109 heartbeat IPC: 0.305916 cumulative IPC: 0.313144 (Simulation time: 0 hr 36 min 59 sec) 
select_counter is 467
Heartbeat CPU 0 instructions: 100000000 cycles: 290826379 heartbeat IPC: 0.333971 cumulative IPC: 0.313361 (Simulation time: 0 hr 37 min 19 sec) 
select_counter is 463
Heartbeat CPU 0 instructions: 101000000 cycles: 294024318 heartbeat IPC: 0.312701 cumulative IPC: 0.313354 (Simulation time: 0 hr 37 min 38 sec) 
select_counter is 466
Heartbeat CPU 0 instructions: 102000001 cycles: 297743824 heartbeat IPC: 0.268853 cumulative IPC: 0.312791 (Simulation time: 0 hr 37 min 56 sec) 
select_counter is 501
Heartbeat CPU 0 instructions: 103000002 cycles: 301466735 heartbeat IPC: 0.268607 cumulative IPC: 0.312239 (Simulation time: 0 hr 38 min 19 sec) 
select_counter is 468
Heartbeat CPU 0 instructions: 104000000 cycles: 304797868 heartbeat IPC: 0.300198 cumulative IPC: 0.312105 (Simulation time: 0 hr 38 min 40 sec) 
select_counter is 412
Heartbeat CPU 0 instructions: 105000001 cycles: 307852326 heartbeat IPC: 0.327391 cumulative IPC: 0.312259 (Simulation time: 0 hr 39 min 3 sec) 
select_counter is 376
Heartbeat CPU 0 instructions: 106000001 cycles: 310720098 heartbeat IPC: 0.348703 cumulative IPC: 0.312599 (Simulation time: 0 hr 39 min 24 sec) 
select_counter is 331
Heartbeat CPU 0 instructions: 107000002 cycles: 313794379 heartbeat IPC: 0.32528 cumulative IPC: 0.312725 (Simulation time: 0 hr 39 min 47 sec) 
select_counter is 318
Heartbeat CPU 0 instructions: 108000000 cycles: 317000966 heartbeat IPC: 0.311857 cumulative IPC: 0.312716 (Simulation time: 0 hr 40 min 8 sec) 
select_counter is 282
Heartbeat CPU 0 instructions: 109000003 cycles: 320327460 heartbeat IPC: 0.300618 cumulative IPC: 0.312589 (Simulation time: 0 hr 40 min 28 sec) 
select_counter is 270
Heartbeat CPU 0 instructions: 110000003 cycles: 323547984 heartbeat IPC: 0.310508 cumulative IPC: 0.312568 (Simulation time: 0 hr 40 min 46 sec) 
select_counter is 296
Finished CPU 0 instructions: 100000000 cycles: 319930404 cummulative IPC: 0.312568 (Simulation time: 0 hr 40 min 46 sec) 

ChampSim completed all CPUs

Region of Interest Statistics

CPU 0 cummulative IPC: 0.312568 instructions: 100000000 cycles: 319930404
LLC TOTAL     ACCESS:    2825474  HIT:    2536239  MISS:     289235
LLC LOAD      ACCESS:    2094619  HIT:    1832972  MISS:     261647
LLC RFO       ACCESS:      16394  HIT:      16023  MISS:        371
LLC PREFETCH  ACCESS:          0  HIT:          0  MISS:          0
LLC WRITEBACK ACCESS:     714461  HIT:     687244  MISS:      27217
Ship samples: 
25, 61, 89, 107, 150, 165, 203, 238, 270, 293, 323, 355, 393, 442, 470, 497, 513, 572, 577, 629, 642, 691, 706, 759, 769, 818, 860, 869, 919, 957, 963, 1008, 1037, 1061, 1113, 1131, 1153, 1200, 1228, 1278, 1298, 1331, 1367, 1407, 1430, 1466, 1501, 1512, 1539, 1587, 1627, 1642, 1684, 1721, 1755, 1773, 1803, 1825, 1877, 1914, 1939, 1983, 1990, 2037, 
Lime duel samples: 
9, 45, 69, 126, 128, 166, 223, 231, 264, 301, 339, 370, 401, 417, 471, 484, 515, 566, 607, 636, 648, 692, 713, 764, 783, 810, 852, 886, 901, 959, 973, 1006, 1028, 1060, 1097, 1133, 1166, 1205, 1245, 1248, 1303, 1330, 1352, 1401, 1431, 1452, 1476, 1535, 1546, 1581, 1628, 1663, 1692, 1723, 1728, 1783, 1802, 1846, 1860, 1912, 1922, 1982, 2002, 2025, 
Lime samples: 
9, 126, 223, 301, 401, 484, 607, 692, 783, 886, 973, 1060, 1166, 1248, 1352, 1452, 1546, 1663, 1728, 1846, 1922, 
Insertion Distribution: 
	LOAD 74096 0 0 0 0 0 30829 1953 
	RFO 0 0 0 0 0 0 56 0 
	PREF 0 0 0 0 0 0 0 0 
	WRITEBACK 0 0 0 0 0 0 0 3804 
Total Prefetch Downgrades: 0
