
*** ChampSim Multicore Out-of-Order Simulator ***

Warmup Instructions: 10000000
Simulation Instructions: 100000000
Configuration: 1
Number of CPUs: 1
LLC sets: 2048
LLC ways: 16
Off-chip DRAM Channels: 1 Width: 64-bit Data Rate: 1600 MT/s

CPU 0 runs /datasets/cs240c-wi22-a00-public/data/Assignment2-gz/omnetpp_4B.trace.gz
Heartbeat CPU 0 instructions: 1000001 cycles: 566835 heartbeat IPC: 1.76418 cumulative IPC: 1.76418 (Simulation time: 0 hr 0 min 24 sec) 
select_counter is 522
Heartbeat CPU 0 instructions: 2000001 cycles: 1135228 heartbeat IPC: 1.75935 cumulative IPC: 1.76176 (Simulation time: 0 hr 0 min 49 sec) 
select_counter is 630
Heartbeat CPU 0 instructions: 3000001 cycles: 1722490 heartbeat IPC: 1.70282 cumulative IPC: 1.74167 (Simulation time: 0 hr 1 min 13 sec) 
select_counter is 778
Heartbeat CPU 0 instructions: 4000000 cycles: 2291700 heartbeat IPC: 1.75682 cumulative IPC: 1.74543 (Simulation time: 0 hr 1 min 35 sec) 
select_counter is 865
Heartbeat CPU 0 instructions: 5000000 cycles: 2865767 heartbeat IPC: 1.74196 cumulative IPC: 1.74473 (Simulation time: 0 hr 2 min 0 sec) 
select_counter is 974
Heartbeat CPU 0 instructions: 6000000 cycles: 3442062 heartbeat IPC: 1.73522 cumulative IPC: 1.74314 (Simulation time: 0 hr 2 min 24 sec) 
select_counter is 1022
Heartbeat CPU 0 instructions: 7000000 cycles: 4011296 heartbeat IPC: 1.75675 cumulative IPC: 1.74507 (Simulation time: 0 hr 2 min 46 sec) 
select_counter is 1019
Heartbeat CPU 0 instructions: 8000000 cycles: 4564775 heartbeat IPC: 1.80675 cumulative IPC: 1.75255 (Simulation time: 0 hr 3 min 10 sec) 
select_counter is 1000
Heartbeat CPU 0 instructions: 9000001 cycles: 5146892 heartbeat IPC: 1.71787 cumulative IPC: 1.74863 (Simulation time: 0 hr 3 min 32 sec) 
select_counter is 955
Heartbeat CPU 0 instructions: 10000000 cycles: 5700808 heartbeat IPC: 1.80533 cumulative IPC: 1.75414 (Simulation time: 0 hr 3 min 54 sec) 
select_counter is 1023

Warmup complete CPU 0 instructions: 10000003 cycles: 5700809 (Simulation time: 0 hr 3 min 54 sec) 

Heartbeat CPU 0 instructions: 11000000 cycles: 8988639 heartbeat IPC: 0.304152 cumulative IPC: 0.304151 (Simulation time: 0 hr 4 min 22 sec) 
select_counter is 1022
Heartbeat CPU 0 instructions: 12000000 cycles: 10145821 heartbeat IPC: 0.864168 cumulative IPC: 0.449942 (Simulation time: 0 hr 4 min 42 sec) 
select_counter is 1022
Heartbeat CPU 0 instructions: 13000003 cycles: 11291430 heartbeat IPC: 0.872901 cumulative IPC: 0.536613 (Simulation time: 0 hr 5 min 6 sec) 
select_counter is 1021
Heartbeat CPU 0 instructions: 14000000 cycles: 12411593 heartbeat IPC: 0.892725 cumulative IPC: 0.596055 (Simulation time: 0 hr 5 min 27 sec) 
select_counter is 1019
Heartbeat CPU 0 instructions: 15000000 cycles: 13550766 heartbeat IPC: 0.87783 cumulative IPC: 0.636946 (Simulation time: 0 hr 5 min 47 sec) 
select_counter is 1018
Heartbeat CPU 0 instructions: 16000000 cycles: 16508141 heartbeat IPC: 0.338138 cumulative IPC: 0.555178 (Simulation time: 0 hr 6 min 12 sec) 
select_counter is 1019
Heartbeat CPU 0 instructions: 17000003 cycles: 19494334 heartbeat IPC: 0.334876 cumulative IPC: 0.507484 (Simulation time: 0 hr 6 min 40 sec) 
select_counter is 1012
Heartbeat CPU 0 instructions: 18000002 cycles: 22373011 heartbeat IPC: 0.347381 cumulative IPC: 0.479841 (Simulation time: 0 hr 7 min 10 sec) 
select_counter is 1019
Heartbeat CPU 0 instructions: 19000002 cycles: 25258262 heartbeat IPC: 0.34659 cumulative IPC: 0.460183 (Simulation time: 0 hr 7 min 37 sec) 
select_counter is 1019
Heartbeat CPU 0 instructions: 20000000 cycles: 28715907 heartbeat IPC: 0.289214 cumulative IPC: 0.434497 (Simulation time: 0 hr 8 min 3 sec) 
select_counter is 985
Heartbeat CPU 0 instructions: 21000000 cycles: 32153578 heartbeat IPC: 0.290895 cumulative IPC: 0.415835 (Simulation time: 0 hr 8 min 27 sec) 
select_counter is 987
Heartbeat CPU 0 instructions: 22000001 cycles: 35466159 heartbeat IPC: 0.30188 cumulative IPC: 0.403153 (Simulation time: 0 hr 8 min 51 sec) 
select_counter is 1023
Heartbeat CPU 0 instructions: 23000000 cycles: 38420506 heartbeat IPC: 0.338484 cumulative IPC: 0.397314 (Simulation time: 0 hr 9 min 17 sec) 
select_counter is 994
Heartbeat CPU 0 instructions: 24000000 cycles: 41311173 heartbeat IPC: 0.345941 cumulative IPC: 0.393144 (Simulation time: 0 hr 9 min 42 sec) 
select_counter is 1000
Heartbeat CPU 0 instructions: 25000000 cycles: 44192735 heartbeat IPC: 0.347034 cumulative IPC: 0.389692 (Simulation time: 0 hr 10 min 5 sec) 
select_counter is 1022
Heartbeat CPU 0 instructions: 26000002 cycles: 47051895 heartbeat IPC: 0.349754 cumulative IPC: 0.386931 (Simulation time: 0 hr 10 min 30 sec) 
select_counter is 1023
Heartbeat CPU 0 instructions: 27000001 cycles: 49966532 heartbeat IPC: 0.343096 cumulative IPC: 0.384044 (Simulation time: 0 hr 10 min 54 sec) 
select_counter is 1018
Heartbeat CPU 0 instructions: 28000000 cycles: 52824111 heartbeat IPC: 0.349946 cumulative IPC: 0.381977 (Simulation time: 0 hr 11 min 17 sec) 
select_counter is 1022
Heartbeat CPU 0 instructions: 29000001 cycles: 55794825 heartbeat IPC: 0.33662 cumulative IPC: 0.379287 (Simulation time: 0 hr 11 min 46 sec) 
select_counter is 1022
Heartbeat CPU 0 instructions: 30000000 cycles: 58676220 heartbeat IPC: 0.347054 cumulative IPC: 0.377534 (Simulation time: 0 hr 12 min 12 sec) 
select_counter is 1023
Heartbeat CPU 0 instructions: 31000002 cycles: 61535124 heartbeat IPC: 0.349785 cumulative IPC: 0.376113 (Simulation time: 0 hr 12 min 39 sec) 
select_counter is 1022
Heartbeat CPU 0 instructions: 32000000 cycles: 64456571 heartbeat IPC: 0.342295 cumulative IPC: 0.374431 (Simulation time: 0 hr 13 min 6 sec) 
select_counter is 1023
Heartbeat CPU 0 instructions: 33000000 cycles: 67741126 heartbeat IPC: 0.304455 cumulative IPC: 0.370727 (Simulation time: 0 hr 13 min 34 sec) 
select_counter is 1014
Heartbeat CPU 0 instructions: 34000001 cycles: 71195501 heartbeat IPC: 0.289488 cumulative IPC: 0.366442 (Simulation time: 0 hr 14 min 1 sec) 
select_counter is 1008
Heartbeat CPU 0 instructions: 35000001 cycles: 74400553 heartbeat IPC: 0.312007 cumulative IPC: 0.363902 (Simulation time: 0 hr 14 min 30 sec) 
select_counter is 1001
Heartbeat CPU 0 instructions: 36000000 cycles: 77816994 heartbeat IPC: 0.292702 cumulative IPC: 0.360529 (Simulation time: 0 hr 14 min 58 sec) 
select_counter is 1023
Heartbeat CPU 0 instructions: 37000001 cycles: 80719400 heartbeat IPC: 0.344542 cumulative IPC: 0.359911 (Simulation time: 0 hr 15 min 23 sec) 
select_counter is 1023
Heartbeat CPU 0 instructions: 38000001 cycles: 84027332 heartbeat IPC: 0.302304 cumulative IPC: 0.357478 (Simulation time: 0 hr 15 min 49 sec) 
select_counter is 1015
Heartbeat CPU 0 instructions: 39000001 cycles: 86642649 heartbeat IPC: 0.382363 cumulative IPC: 0.358282 (Simulation time: 0 hr 16 min 11 sec) 
select_counter is 1021
Heartbeat CPU 0 instructions: 40000000 cycles: 87765195 heartbeat IPC: 0.890831 cumulative IPC: 0.365567 (Simulation time: 0 hr 16 min 33 sec) 
select_counter is 1019
Heartbeat CPU 0 instructions: 41000001 cycles: 88891356 heartbeat IPC: 0.887973 cumulative IPC: 0.372638 (Simulation time: 0 hr 16 min 52 sec) 
select_counter is 1018
Heartbeat CPU 0 instructions: 42000001 cycles: 90025603 heartbeat IPC: 0.881642 cumulative IPC: 0.379485 (Simulation time: 0 hr 17 min 12 sec) 
select_counter is 1016
Heartbeat CPU 0 instructions: 43000002 cycles: 91267223 heartbeat IPC: 0.8054 cumulative IPC: 0.385665 (Simulation time: 0 hr 17 min 37 sec) 
select_counter is 1005
Heartbeat CPU 0 instructions: 44000000 cycles: 94272725 heartbeat IPC: 0.332722 cumulative IPC: 0.383869 (Simulation time: 0 hr 18 min 1 sec) 
select_counter is 1023
Heartbeat CPU 0 instructions: 45000000 cycles: 97281932 heartbeat IPC: 0.332313 cumulative IPC: 0.382175 (Simulation time: 0 hr 18 min 27 sec) 
select_counter is 1022
Heartbeat CPU 0 instructions: 46000000 cycles: 100767320 heartbeat IPC: 0.286912 cumulative IPC: 0.378682 (Simulation time: 0 hr 18 min 51 sec) 
select_counter is 991
Heartbeat CPU 0 instructions: 47000000 cycles: 104238720 heartbeat IPC: 0.288068 cumulative IPC: 0.37549 (Simulation time: 0 hr 19 min 18 sec) 
select_counter is 985
Heartbeat CPU 0 instructions: 48000000 cycles: 107528556 heartbeat IPC: 0.303967 cumulative IPC: 0.373179 (Simulation time: 0 hr 19 min 43 sec) 
select_counter is 987
Heartbeat CPU 0 instructions: 49000000 cycles: 110603345 heartbeat IPC: 0.325226 cumulative IPC: 0.371774 (Simulation time: 0 hr 20 min 8 sec) 
select_counter is 999
Heartbeat CPU 0 instructions: 50000001 cycles: 113519878 heartbeat IPC: 0.342873 cumulative IPC: 0.370992 (Simulation time: 0 hr 20 min 33 sec) 
select_counter is 1023
Heartbeat CPU 0 instructions: 51000003 cycles: 116440523 heartbeat IPC: 0.342391 cumulative IPC: 0.370238 (Simulation time: 0 hr 20 min 59 sec) 
select_counter is 1022
Heartbeat CPU 0 instructions: 52000000 cycles: 119339192 heartbeat IPC: 0.344985 cumulative IPC: 0.369593 (Simulation time: 0 hr 21 min 26 sec) 
select_counter is 1022
Heartbeat CPU 0 instructions: 53000003 cycles: 122265974 heartbeat IPC: 0.341673 cumulative IPC: 0.368892 (Simulation time: 0 hr 21 min 54 sec) 
select_counter is 1021
Heartbeat CPU 0 instructions: 54000001 cycles: 125152320 heartbeat IPC: 0.346458 cumulative IPC: 0.36835 (Simulation time: 0 hr 22 min 18 sec) 
select_counter is 1023
Heartbeat CPU 0 instructions: 55000001 cycles: 128221777 heartbeat IPC: 0.325791 cumulative IPC: 0.367284 (Simulation time: 0 hr 22 min 45 sec) 
select_counter is 994
Heartbeat CPU 0 instructions: 56000000 cycles: 131156611 heartbeat IPC: 0.340734 cumulative IPC: 0.366663 (Simulation time: 0 hr 23 min 9 sec) 
select_counter is 999
Heartbeat CPU 0 instructions: 57000003 cycles: 134028505 heartbeat IPC: 0.348203 cumulative IPC: 0.36625 (Simulation time: 0 hr 23 min 35 sec) 
select_counter is 1023
Heartbeat CPU 0 instructions: 58000001 cycles: 137121254 heartbeat IPC: 0.323336 cumulative IPC: 0.36524 (Simulation time: 0 hr 24 min 3 sec) 
select_counter is 1021
Heartbeat CPU 0 instructions: 59000001 cycles: 140532948 heartbeat IPC: 0.29311 cumulative IPC: 0.363415 (Simulation time: 0 hr 24 min 29 sec) 
select_counter is 1006
Heartbeat CPU 0 instructions: 60000000 cycles: 143626370 heartbeat IPC: 0.323266 cumulative IPC: 0.362514 (Simulation time: 0 hr 24 min 55 sec) 
select_counter is 1004
Heartbeat CPU 0 instructions: 61000001 cycles: 146832387 heartbeat IPC: 0.311914 cumulative IPC: 0.361365 (Simulation time: 0 hr 25 min 23 sec) 
select_counter is 1008
Heartbeat CPU 0 instructions: 62000000 cycles: 150277678 heartbeat IPC: 0.290251 cumulative IPC: 0.35967 (Simulation time: 0 hr 25 min 51 sec) 
select_counter is 1017
Heartbeat CPU 0 instructions: 63000001 cycles: 153203943 heartbeat IPC: 0.341733 cumulative IPC: 0.359314 (Simulation time: 0 hr 26 min 18 sec) 
select_counter is 1007
Heartbeat CPU 0 instructions: 64000000 cycles: 156101416 heartbeat IPC: 0.345128 cumulative IPC: 0.359041 (Simulation time: 0 hr 26 min 45 sec) 
select_counter is 994
Heartbeat CPU 0 instructions: 65000001 cycles: 158993441 heartbeat IPC: 0.345779 cumulative IPC: 0.358791 (Simulation time: 0 hr 27 min 10 sec) 
select_counter is 979
Heartbeat CPU 0 instructions: 66000002 cycles: 163274006 heartbeat IPC: 0.233614 cumulative IPC: 0.35539 (Simulation time: 0 hr 27 min 38 sec) 
select_counter is 918
Heartbeat CPU 0 instructions: 67000001 cycles: 165010646 heartbeat IPC: 0.575824 cumulative IPC: 0.357793 (Simulation time: 0 hr 28 min 3 sec) 
select_counter is 935
Heartbeat CPU 0 instructions: 68000000 cycles: 166136891 heartbeat IPC: 0.887905 cumulative IPC: 0.361515 (Simulation time: 0 hr 28 min 26 sec) 
select_counter is 938
Heartbeat CPU 0 instructions: 69000003 cycles: 167278771 heartbeat IPC: 0.875751 cumulative IPC: 0.365149 (Simulation time: 0 hr 28 min 45 sec) 
select_counter is 937
Heartbeat CPU 0 instructions: 70000000 cycles: 168399085 heartbeat IPC: 0.892604 cumulative IPC: 0.368781 (Simulation time: 0 hr 29 min 6 sec) 
select_counter is 937
Heartbeat CPU 0 instructions: 71000001 cycles: 169574717 heartbeat IPC: 0.850607 cumulative IPC: 0.372237 (Simulation time: 0 hr 29 min 29 sec) 
select_counter is 936
Heartbeat CPU 0 instructions: 72000000 cycles: 173035242 heartbeat IPC: 0.288973 cumulative IPC: 0.370515 (Simulation time: 0 hr 29 min 57 sec) 
select_counter is 915
Heartbeat CPU 0 instructions: 73000000 cycles: 176549112 heartbeat IPC: 0.284587 cumulative IPC: 0.368748 (Simulation time: 0 hr 30 min 23 sec) 
select_counter is 965
Heartbeat CPU 0 instructions: 74000001 cycles: 180019044 heartbeat IPC: 0.28819 cumulative IPC: 0.367145 (Simulation time: 0 hr 30 min 48 sec) 
select_counter is 993
Heartbeat CPU 0 instructions: 75000001 cycles: 183043010 heartbeat IPC: 0.330692 cumulative IPC: 0.366523 (Simulation time: 0 hr 31 min 15 sec) 
select_counter is 1000
Heartbeat CPU 0 instructions: 76000000 cycles: 185923810 heartbeat IPC: 0.347125 cumulative IPC: 0.366213 (Simulation time: 0 hr 31 min 38 sec) 
select_counter is 1010
Heartbeat CPU 0 instructions: 77000000 cycles: 188830268 heartbeat IPC: 0.344061 cumulative IPC: 0.365861 (Simulation time: 0 hr 32 min 1 sec) 
select_counter is 1004
Heartbeat CPU 0 instructions: 78000001 cycles: 191738006 heartbeat IPC: 0.34391 cumulative IPC: 0.365518 (Simulation time: 0 hr 32 min 26 sec) 
select_counter is 999
Heartbeat CPU 0 instructions: 79000001 cycles: 194631307 heartbeat IPC: 0.345626 cumulative IPC: 0.365214 (Simulation time: 0 hr 32 min 50 sec) 
select_counter is 1000
Heartbeat CPU 0 instructions: 80000000 cycles: 197512722 heartbeat IPC: 0.347051 cumulative IPC: 0.364941 (Simulation time: 0 hr 33 min 13 sec) 
select_counter is 1000
Heartbeat CPU 0 instructions: 81000002 cycles: 200493015 heartbeat IPC: 0.335538 cumulative IPC: 0.364491 (Simulation time: 0 hr 33 min 36 sec) 
select_counter is 989
Heartbeat CPU 0 instructions: 82000001 cycles: 203427464 heartbeat IPC: 0.340779 cumulative IPC: 0.364139 (Simulation time: 0 hr 34 min 0 sec) 
select_counter is 952
Heartbeat CPU 0 instructions: 83000002 cycles: 206367698 heartbeat IPC: 0.340109 cumulative IPC: 0.363787 (Simulation time: 0 hr 34 min 23 sec) 
select_counter is 967
Heartbeat CPU 0 instructions: 84000000 cycles: 209338049 heartbeat IPC: 0.33666 cumulative IPC: 0.363391 (Simulation time: 0 hr 34 min 45 sec) 
select_counter is 966
Heartbeat CPU 0 instructions: 85000002 cycles: 212793602 heartbeat IPC: 0.28939 cumulative IPC: 0.362156 (Simulation time: 0 hr 35 min 9 sec) 
select_counter is 927
Heartbeat CPU 0 instructions: 86000002 cycles: 216243864 heartbeat IPC: 0.289833 cumulative IPC: 0.360971 (Simulation time: 0 hr 35 min 36 sec) 
select_counter is 872
Heartbeat CPU 0 instructions: 87000000 cycles: 219429330 heartbeat IPC: 0.313925 cumulative IPC: 0.36027 (Simulation time: 0 hr 36 min 2 sec) 
select_counter is 860
Heartbeat CPU 0 instructions: 88000000 cycles: 222542020 heartbeat IPC: 0.321266 cumulative IPC: 0.35971 (Simulation time: 0 hr 36 min 24 sec) 
select_counter is 893
Heartbeat CPU 0 instructions: 89000002 cycles: 225740569 heartbeat IPC: 0.312642 cumulative IPC: 0.359026 (Simulation time: 0 hr 36 min 46 sec) 
select_counter is 908
Heartbeat CPU 0 instructions: 90000001 cycles: 228645907 heartbeat IPC: 0.344194 cumulative IPC: 0.358833 (Simulation time: 0 hr 37 min 6 sec) 
select_counter is 893
Heartbeat CPU 0 instructions: 91000001 cycles: 231573511 heartbeat IPC: 0.341576 cumulative IPC: 0.358609 (Simulation time: 0 hr 37 min 26 sec) 
select_counter is 876
Heartbeat CPU 0 instructions: 92000000 cycles: 234642469 heartbeat IPC: 0.325843 cumulative IPC: 0.35817 (Simulation time: 0 hr 37 min 49 sec) 
select_counter is 850
Heartbeat CPU 0 instructions: 93000000 cycles: 237552461 heartbeat IPC: 0.343644 cumulative IPC: 0.357988 (Simulation time: 0 hr 38 min 10 sec) 
select_counter is 873
Heartbeat CPU 0 instructions: 94000000 cycles: 242263433 heartbeat IPC: 0.21227 cumulative IPC: 0.355086 (Simulation time: 0 hr 38 min 32 sec) 
select_counter is 852
Heartbeat CPU 0 instructions: 95000000 cycles: 243461925 heartbeat IPC: 0.834382 cumulative IPC: 0.357502 (Simulation time: 0 hr 38 min 52 sec) 
select_counter is 856
Heartbeat CPU 0 instructions: 96000000 cycles: 244605008 heartbeat IPC: 0.874827 cumulative IPC: 0.359977 (Simulation time: 0 hr 39 min 8 sec) 
select_counter is 854
Heartbeat CPU 0 instructions: 97000002 cycles: 245723480 heartbeat IPC: 0.894079 cumulative IPC: 0.362466 (Simulation time: 0 hr 39 min 25 sec) 
select_counter is 853
Heartbeat CPU 0 instructions: 98000001 cycles: 246865285 heartbeat IPC: 0.875805 cumulative IPC: 0.364896 (Simulation time: 0 hr 39 min 46 sec) 
select_counter is 851
Heartbeat CPU 0 instructions: 99000002 cycles: 248781632 heartbeat IPC: 0.521827 cumulative IPC: 0.366133 (Simulation time: 0 hr 40 min 5 sec) 
select_counter is 814
Heartbeat CPU 0 instructions: 100000000 cycles: 252322348 heartbeat IPC: 0.282428 cumulative IPC: 0.364932 (Simulation time: 0 hr 40 min 23 sec) 
select_counter is 758
Heartbeat CPU 0 instructions: 101000002 cycles: 255560804 heartbeat IPC: 0.30879 cumulative IPC: 0.364204 (Simulation time: 0 hr 40 min 43 sec) 
select_counter is 723
Heartbeat CPU 0 instructions: 102000001 cycles: 258680910 heartbeat IPC: 0.320502 cumulative IPC: 0.363665 (Simulation time: 0 hr 41 min 2 sec) 
select_counter is 752
Heartbeat CPU 0 instructions: 103000000 cycles: 261610611 heartbeat IPC: 0.341331 cumulative IPC: 0.363409 (Simulation time: 0 hr 41 min 23 sec) 
select_counter is 728
Heartbeat CPU 0 instructions: 104000000 cycles: 264557049 heartbeat IPC: 0.339393 cumulative IPC: 0.363136 (Simulation time: 0 hr 41 min 42 sec) 
select_counter is 710
Heartbeat CPU 0 instructions: 105000001 cycles: 267478513 heartbeat IPC: 0.342294 cumulative IPC: 0.362903 (Simulation time: 0 hr 42 min 0 sec) 
select_counter is 693
Heartbeat CPU 0 instructions: 106000000 cycles: 270551122 heartbeat IPC: 0.325456 cumulative IPC: 0.362469 (Simulation time: 0 hr 42 min 19 sec) 
select_counter is 667
Heartbeat CPU 0 instructions: 107000002 cycles: 273469336 heartbeat IPC: 0.342676 cumulative IPC: 0.362253 (Simulation time: 0 hr 42 min 39 sec) 
select_counter is 672
Heartbeat CPU 0 instructions: 108000000 cycles: 276382595 heartbeat IPC: 0.343257 cumulative IPC: 0.362049 (Simulation time: 0 hr 42 min 58 sec) 
select_counter is 674
Heartbeat CPU 0 instructions: 109000002 cycles: 279291700 heartbeat IPC: 0.343749 cumulative IPC: 0.361854 (Simulation time: 0 hr 43 min 16 sec) 
select_counter is 649
Heartbeat CPU 0 instructions: 110000001 cycles: 282258158 heartbeat IPC: 0.337102 cumulative IPC: 0.361589 (Simulation time: 0 hr 43 min 34 sec) 
select_counter is 612
Finished CPU 0 instructions: 100000001 cycles: 276557351 cummulative IPC: 0.361589 (Simulation time: 0 hr 43 min 34 sec) 

ChampSim completed all CPUs

Region of Interest Statistics

CPU 0 cummulative IPC: 0.361589 instructions: 100000001 cycles: 276557351
LLC TOTAL     ACCESS:    2613316  HIT:    2177821  MISS:     435495
LLC LOAD      ACCESS:    2495337  HIT:    2095733  MISS:     399604
LLC RFO       ACCESS:      37614  HIT:      21163  MISS:      16451
LLC PREFETCH  ACCESS:          0  HIT:          0  MISS:          0
LLC WRITEBACK ACCESS:      80365  HIT:      60925  MISS:      19440
Ship samples: 
17, 59, 78, 105, 147, 177, 211, 252, 259, 303, 351, 355, 392, 433, 468, 505, 522, 559, 587, 637, 651, 692, 722, 744, 793, 806, 859, 877, 925, 957, 985, 996, 1029, 1079, 1114, 1128, 1162, 1211, 1230, 1268, 1304, 1313, 1369, 1407, 1410, 1464, 1492, 1516, 1563, 1579, 1618, 1658, 1679, 1703, 1737, 1785, 1806, 1838, 1881, 1909, 1942, 1969, 2001, 2043, 
Lime duel samples: 
0, 47, 74, 118, 133, 179, 214, 227, 266, 296, 336, 356, 405, 436, 473, 507, 517, 565, 600, 632, 670, 687, 734, 753, 790, 823, 856, 873, 900, 958, 977, 1014, 1035, 1084, 1117, 1141, 1161, 1190, 1243, 1265, 1285, 1324, 1345, 1381, 1431, 1456, 1479, 1508, 1553, 1578, 1616, 1652, 1689, 1717, 1729, 1773, 1813, 1850, 1875, 1893, 1930, 1965, 1994, 2045, 
Lime samples: 
0, 118, 214, 296, 405, 507, 600, 687, 790, 873, 977, 1084, 1161, 1265, 1345, 1456, 1553, 1652, 1729, 1850, 1930, 
Insertion Distribution: 
	LOAD 5229 0 0 0 0 0 2753 7808 
	RFO 88 0 0 0 0 0 117 251 
	PREF 0 0 0 0 0 0 0 0 
	WRITEBACK 0 0 0 0 0 0 0 168 
Total Prefetch Downgrades: 0
