
*** ChampSim Multicore Out-of-Order Simulator ***

Warmup Instructions: 10000000
Simulation Instructions: 100000000
Configuration: 1
Number of CPUs: 1
LLC sets: 2048
LLC ways: 16
Off-chip DRAM Channels: 1 Width: 64-bit Data Rate: 1600 MT/s

CPU 0 runs /datasets/cs240c-wi22-a00-public/data/Assignment2-gz/perlbench_53B.trace.gz
Heartbeat CPU 0 instructions: 1000000 cycles: 617122 heartbeat IPC: 1.62043 cumulative IPC: 1.62043 (Simulation time: 0 hr 0 min 28 sec) 
select_counter is 503
Heartbeat CPU 0 instructions: 2000001 cycles: 1255808 heartbeat IPC: 1.56572 cumulative IPC: 1.5926 (Simulation time: 0 hr 0 min 59 sec) 
select_counter is 496
Heartbeat CPU 0 instructions: 3000002 cycles: 1912368 heartbeat IPC: 1.52309 cumulative IPC: 1.56874 (Simulation time: 0 hr 1 min 30 sec) 
select_counter is 497
Heartbeat CPU 0 instructions: 4000000 cycles: 2528843 heartbeat IPC: 1.62212 cumulative IPC: 1.58175 (Simulation time: 0 hr 2 min 0 sec) 
select_counter is 484
Heartbeat CPU 0 instructions: 5000001 cycles: 3158592 heartbeat IPC: 1.58794 cumulative IPC: 1.58298 (Simulation time: 0 hr 2 min 29 sec) 
select_counter is 482
Heartbeat CPU 0 instructions: 6000001 cycles: 3775083 heartbeat IPC: 1.62208 cumulative IPC: 1.58937 (Simulation time: 0 hr 2 min 55 sec) 
select_counter is 489
Heartbeat CPU 0 instructions: 7000002 cycles: 4399620 heartbeat IPC: 1.60119 cumulative IPC: 1.59105 (Simulation time: 0 hr 3 min 25 sec) 
select_counter is 481
Heartbeat CPU 0 instructions: 8000000 cycles: 5010252 heartbeat IPC: 1.63764 cumulative IPC: 1.59673 (Simulation time: 0 hr 3 min 53 sec) 
select_counter is 481
Heartbeat CPU 0 instructions: 9000000 cycles: 5663491 heartbeat IPC: 1.53083 cumulative IPC: 1.58913 (Simulation time: 0 hr 4 min 24 sec) 
select_counter is 477
Heartbeat CPU 0 instructions: 10000001 cycles: 6298825 heartbeat IPC: 1.57398 cumulative IPC: 1.5876 (Simulation time: 0 hr 4 min 54 sec) 
select_counter is 473

Warmup complete CPU 0 instructions: 10000001 cycles: 6298825 (Simulation time: 0 hr 4 min 54 sec) 

Heartbeat CPU 0 instructions: 11000000 cycles: 9191530 heartbeat IPC: 0.345697 cumulative IPC: 0.345697 (Simulation time: 0 hr 5 min 24 sec) 
select_counter is 473
Heartbeat CPU 0 instructions: 12000000 cycles: 12078222 heartbeat IPC: 0.346417 cumulative IPC: 0.346057 (Simulation time: 0 hr 5 min 58 sec) 
select_counter is 473
Heartbeat CPU 0 instructions: 13000000 cycles: 14441121 heartbeat IPC: 0.423209 cumulative IPC: 0.368446 (Simulation time: 0 hr 6 min 31 sec) 
select_counter is 476
Heartbeat CPU 0 instructions: 14000000 cycles: 16975268 heartbeat IPC: 0.39461 cumulative IPC: 0.374657 (Simulation time: 0 hr 7 min 8 sec) 
select_counter is 473
Heartbeat CPU 0 instructions: 15000001 cycles: 19758557 heartbeat IPC: 0.359288 cumulative IPC: 0.371478 (Simulation time: 0 hr 7 min 39 sec) 
select_counter is 470
Heartbeat CPU 0 instructions: 16000000 cycles: 22426983 heartbeat IPC: 0.374752 cumulative IPC: 0.37202 (Simulation time: 0 hr 8 min 10 sec) 
select_counter is 470
Heartbeat CPU 0 instructions: 17000001 cycles: 25127454 heartbeat IPC: 0.370306 cumulative IPC: 0.371774 (Simulation time: 0 hr 8 min 43 sec) 
select_counter is 469
Heartbeat CPU 0 instructions: 18000002 cycles: 27995539 heartbeat IPC: 0.348665 cumulative IPC: 0.368719 (Simulation time: 0 hr 9 min 17 sec) 
select_counter is 471
Heartbeat CPU 0 instructions: 19000000 cycles: 30848615 heartbeat IPC: 0.350498 cumulative IPC: 0.366602 (Simulation time: 0 hr 9 min 49 sec) 
select_counter is 465
Heartbeat CPU 0 instructions: 20000000 cycles: 33734443 heartbeat IPC: 0.346521 cumulative IPC: 0.36449 (Simulation time: 0 hr 10 min 26 sec) 
select_counter is 462
Heartbeat CPU 0 instructions: 21000000 cycles: 36114255 heartbeat IPC: 0.420201 cumulative IPC: 0.368936 (Simulation time: 0 hr 11 min 2 sec) 
select_counter is 462
Heartbeat CPU 0 instructions: 22000000 cycles: 38198625 heartbeat IPC: 0.479761 cumulative IPC: 0.376178 (Simulation time: 0 hr 11 min 37 sec) 
select_counter is 467
Heartbeat CPU 0 instructions: 23000001 cycles: 40135367 heartbeat IPC: 0.516332 cumulative IPC: 0.3842 (Simulation time: 0 hr 12 min 5 sec) 
select_counter is 471
Heartbeat CPU 0 instructions: 24000000 cycles: 42543250 heartbeat IPC: 0.415302 cumulative IPC: 0.386266 (Simulation time: 0 hr 12 min 43 sec) 
select_counter is 476
Heartbeat CPU 0 instructions: 25000000 cycles: 44555602 heartbeat IPC: 0.496931 cumulative IPC: 0.392087 (Simulation time: 0 hr 13 min 15 sec) 
select_counter is 478
Heartbeat CPU 0 instructions: 26000001 cycles: 46539865 heartbeat IPC: 0.503966 cumulative IPC: 0.397604 (Simulation time: 0 hr 13 min 46 sec) 
select_counter is 478
Heartbeat CPU 0 instructions: 27000002 cycles: 48835785 heartbeat IPC: 0.435556 cumulative IPC: 0.399652 (Simulation time: 0 hr 14 min 16 sec) 
select_counter is 475
Heartbeat CPU 0 instructions: 28000000 cycles: 51431997 heartbeat IPC: 0.385176 cumulative IPC: 0.39882 (Simulation time: 0 hr 14 min 51 sec) 
select_counter is 474
Heartbeat CPU 0 instructions: 29000000 cycles: 53760683 heartbeat IPC: 0.429427 cumulative IPC: 0.400321 (Simulation time: 0 hr 15 min 25 sec) 
select_counter is 470
Heartbeat CPU 0 instructions: 30000000 cycles: 55808805 heartbeat IPC: 0.488252 cumulative IPC: 0.403959 (Simulation time: 0 hr 16 min 0 sec) 
select_counter is 469
Heartbeat CPU 0 instructions: 31000001 cycles: 57796630 heartbeat IPC: 0.503063 cumulative IPC: 0.407784 (Simulation time: 0 hr 16 min 30 sec) 
select_counter is 469
Heartbeat CPU 0 instructions: 32000000 cycles: 59793030 heartbeat IPC: 0.500901 cumulative IPC: 0.411259 (Simulation time: 0 hr 16 min 58 sec) 
select_counter is 468
Heartbeat CPU 0 instructions: 33000003 cycles: 62276641 heartbeat IPC: 0.402641 cumulative IPC: 0.410877 (Simulation time: 0 hr 17 min 32 sec) 
select_counter is 462
Heartbeat CPU 0 instructions: 34000003 cycles: 64999153 heartbeat IPC: 0.367308 cumulative IPC: 0.408856 (Simulation time: 0 hr 18 min 3 sec) 
select_counter is 460
Heartbeat CPU 0 instructions: 35000000 cycles: 67579930 heartbeat IPC: 0.387479 cumulative IPC: 0.407956 (Simulation time: 0 hr 18 min 34 sec) 
select_counter is 453
Heartbeat CPU 0 instructions: 36000000 cycles: 70392089 heartbeat IPC: 0.355599 cumulative IPC: 0.405659 (Simulation time: 0 hr 19 min 5 sec) 
select_counter is 453
Heartbeat CPU 0 instructions: 37000002 cycles: 73278835 heartbeat IPC: 0.346411 cumulative IPC: 0.403105 (Simulation time: 0 hr 19 min 41 sec) 
select_counter is 447
Heartbeat CPU 0 instructions: 38000000 cycles: 76189874 heartbeat IPC: 0.343519 cumulative IPC: 0.400624 (Simulation time: 0 hr 20 min 14 sec) 
select_counter is 442
Heartbeat CPU 0 instructions: 39000001 cycles: 78888253 heartbeat IPC: 0.370593 cumulative IPC: 0.399507 (Simulation time: 0 hr 20 min 44 sec) 
select_counter is 441
Heartbeat CPU 0 instructions: 40000000 cycles: 81511499 heartbeat IPC: 0.381207 cumulative IPC: 0.398869 (Simulation time: 0 hr 21 min 17 sec) 
select_counter is 438
Heartbeat CPU 0 instructions: 41000002 cycles: 84424180 heartbeat IPC: 0.343327 cumulative IPC: 0.396798 (Simulation time: 0 hr 21 min 50 sec) 
select_counter is 429
Heartbeat CPU 0 instructions: 42000000 cycles: 87030953 heartbeat IPC: 0.383615 cumulative IPC: 0.396373 (Simulation time: 0 hr 22 min 23 sec) 
select_counter is 429
Heartbeat CPU 0 instructions: 43000002 cycles: 89917555 heartbeat IPC: 0.346429 cumulative IPC: 0.394648 (Simulation time: 0 hr 22 min 55 sec) 
select_counter is 426
Heartbeat CPU 0 instructions: 44000000 cycles: 92617906 heartbeat IPC: 0.370321 cumulative IPC: 0.393887 (Simulation time: 0 hr 23 min 30 sec) 
select_counter is 424
Heartbeat CPU 0 instructions: 45000001 cycles: 94086614 heartbeat IPC: 0.680871 cumulative IPC: 0.398689 (Simulation time: 0 hr 23 min 57 sec) 
select_counter is 424
Heartbeat CPU 0 instructions: 46000000 cycles: 96118825 heartbeat IPC: 0.492074 cumulative IPC: 0.400802 (Simulation time: 0 hr 24 min 24 sec) 
select_counter is 422
Heartbeat CPU 0 instructions: 47000002 cycles: 98034364 heartbeat IPC: 0.522047 cumulative IPC: 0.403333 (Simulation time: 0 hr 24 min 52 sec) 
select_counter is 422
Heartbeat CPU 0 instructions: 48000000 cycles: 99954758 heartbeat IPC: 0.520725 cumulative IPC: 0.40574 (Simulation time: 0 hr 25 min 23 sec) 
select_counter is 422
Heartbeat CPU 0 instructions: 49000000 cycles: 102326819 heartbeat IPC: 0.421574 cumulative IPC: 0.406132 (Simulation time: 0 hr 25 min 53 sec) 
select_counter is 419
Heartbeat CPU 0 instructions: 50000002 cycles: 104198342 heartbeat IPC: 0.534325 cumulative IPC: 0.408582 (Simulation time: 0 hr 26 min 25 sec) 
select_counter is 423
Heartbeat CPU 0 instructions: 51000000 cycles: 106129535 heartbeat IPC: 0.517814 cumulative IPC: 0.410695 (Simulation time: 0 hr 26 min 51 sec) 
select_counter is 423
Heartbeat CPU 0 instructions: 52000000 cycles: 108044489 heartbeat IPC: 0.522206 cumulative IPC: 0.412794 (Simulation time: 0 hr 27 min 22 sec) 
select_counter is 423
Heartbeat CPU 0 instructions: 53000002 cycles: 109997061 heartbeat IPC: 0.512146 cumulative IPC: 0.414665 (Simulation time: 0 hr 27 min 49 sec) 
select_counter is 423
Heartbeat CPU 0 instructions: 54000000 cycles: 112933820 heartbeat IPC: 0.340511 cumulative IPC: 0.412623 (Simulation time: 0 hr 28 min 26 sec) 
select_counter is 423
Heartbeat CPU 0 instructions: 55000000 cycles: 115444768 heartbeat IPC: 0.398256 cumulative IPC: 0.412292 (Simulation time: 0 hr 28 min 56 sec) 
select_counter is 422
Heartbeat CPU 0 instructions: 56000000 cycles: 118277308 heartbeat IPC: 0.35304 cumulative IPC: 0.410793 (Simulation time: 0 hr 29 min 29 sec) 
select_counter is 421
Heartbeat CPU 0 instructions: 57000001 cycles: 121329366 heartbeat IPC: 0.327648 cumulative IPC: 0.408587 (Simulation time: 0 hr 30 min 4 sec) 
select_counter is 407
Heartbeat CPU 0 instructions: 58000003 cycles: 124315534 heartbeat IPC: 0.334878 cumulative IPC: 0.406722 (Simulation time: 0 hr 30 min 48 sec) 
select_counter is 405
Heartbeat CPU 0 instructions: 59000002 cycles: 127266733 heartbeat IPC: 0.338845 cumulative IPC: 0.405066 (Simulation time: 0 hr 31 min 24 sec) 
select_counter is 399
Heartbeat CPU 0 instructions: 60000000 cycles: 130105876 heartbeat IPC: 0.352218 cumulative IPC: 0.403854 (Simulation time: 0 hr 31 min 59 sec) 
select_counter is 394
Heartbeat CPU 0 instructions: 61000002 cycles: 132753800 heartbeat IPC: 0.377655 cumulative IPC: 0.403306 (Simulation time: 0 hr 32 min 30 sec) 
select_counter is 393
Heartbeat CPU 0 instructions: 62000002 cycles: 135454261 heartbeat IPC: 0.370307 cumulative IPC: 0.402616 (Simulation time: 0 hr 33 min 4 sec) 
select_counter is 398
Heartbeat CPU 0 instructions: 63000001 cycles: 138135986 heartbeat IPC: 0.372894 cumulative IPC: 0.402011 (Simulation time: 0 hr 33 min 34 sec) 
select_counter is 397
Heartbeat CPU 0 instructions: 64000000 cycles: 140806209 heartbeat IPC: 0.3745 cumulative IPC: 0.401465 (Simulation time: 0 hr 34 min 2 sec) 
select_counter is 396
Heartbeat CPU 0 instructions: 65000003 cycles: 143457384 heartbeat IPC: 0.377192 cumulative IPC: 0.400996 (Simulation time: 0 hr 34 min 38 sec) 
select_counter is 396
Heartbeat CPU 0 instructions: 66000001 cycles: 146098786 heartbeat IPC: 0.378586 cumulative IPC: 0.400572 (Simulation time: 0 hr 35 min 8 sec) 
select_counter is 396
Heartbeat CPU 0 instructions: 67000001 cycles: 148729930 heartbeat IPC: 0.380063 cumulative IPC: 0.400193 (Simulation time: 0 hr 35 min 43 sec) 
select_counter is 398
Heartbeat CPU 0 instructions: 68000000 cycles: 151408585 heartbeat IPC: 0.373321 cumulative IPC: 0.399697 (Simulation time: 0 hr 36 min 19 sec) 
select_counter is 398
Heartbeat CPU 0 instructions: 69000001 cycles: 154064016 heartbeat IPC: 0.376587 cumulative IPC: 0.399282 (Simulation time: 0 hr 36 min 48 sec) 
select_counter is 400
Heartbeat CPU 0 instructions: 70000001 cycles: 156691295 heartbeat IPC: 0.380622 cumulative IPC: 0.398956 (Simulation time: 0 hr 37 min 14 sec) 
select_counter is 400
Heartbeat CPU 0 instructions: 71000001 cycles: 159436929 heartbeat IPC: 0.364215 cumulative IPC: 0.398333 (Simulation time: 0 hr 37 min 40 sec) 
select_counter is 397
Heartbeat CPU 0 instructions: 72000000 cycles: 162066256 heartbeat IPC: 0.380325 cumulative IPC: 0.398029 (Simulation time: 0 hr 38 min 8 sec) 
select_counter is 399
Heartbeat CPU 0 instructions: 73000002 cycles: 164776755 heartbeat IPC: 0.368937 cumulative IPC: 0.397532 (Simulation time: 0 hr 38 min 36 sec) 
select_counter is 395
Heartbeat CPU 0 instructions: 74000001 cycles: 167475887 heartbeat IPC: 0.370489 cumulative IPC: 0.397079 (Simulation time: 0 hr 39 min 1 sec) 
select_counter is 393
Heartbeat CPU 0 instructions: 75000001 cycles: 170146075 heartbeat IPC: 0.374505 cumulative IPC: 0.396711 (Simulation time: 0 hr 39 min 24 sec) 
select_counter is 391
Heartbeat CPU 0 instructions: 76000000 cycles: 172801101 heartbeat IPC: 0.376644 cumulative IPC: 0.396391 (Simulation time: 0 hr 39 min 48 sec) 
select_counter is 391
Heartbeat CPU 0 instructions: 77000002 cycles: 175484216 heartbeat IPC: 0.372702 cumulative IPC: 0.396015 (Simulation time: 0 hr 40 min 11 sec) 
select_counter is 391
Heartbeat CPU 0 instructions: 78000000 cycles: 178150083 heartbeat IPC: 0.375112 cumulative IPC: 0.395691 (Simulation time: 0 hr 40 min 34 sec) 
select_counter is 391
Heartbeat CPU 0 instructions: 79000002 cycles: 180822484 heartbeat IPC: 0.374196 cumulative IPC: 0.395362 (Simulation time: 0 hr 40 min 56 sec) 
select_counter is 391
Heartbeat CPU 0 instructions: 80000000 cycles: 183468461 heartbeat IPC: 0.377931 cumulative IPC: 0.395102 (Simulation time: 0 hr 41 min 21 sec) 
select_counter is 391
Heartbeat CPU 0 instructions: 81000000 cycles: 186092445 heartbeat IPC: 0.3811 cumulative IPC: 0.394897 (Simulation time: 0 hr 41 min 46 sec) 
select_counter is 391
Heartbeat CPU 0 instructions: 82000003 cycles: 188776250 heartbeat IPC: 0.372606 cumulative IPC: 0.394569 (Simulation time: 0 hr 42 min 13 sec) 
select_counter is 392
Heartbeat CPU 0 instructions: 83000000 cycles: 191436285 heartbeat IPC: 0.375934 cumulative IPC: 0.394302 (Simulation time: 0 hr 42 min 36 sec) 
select_counter is 392
Heartbeat CPU 0 instructions: 84000000 cycles: 194105536 heartbeat IPC: 0.374637 cumulative IPC: 0.394022 (Simulation time: 0 hr 42 min 59 sec) 
select_counter is 392
Heartbeat CPU 0 instructions: 85000002 cycles: 196802195 heartbeat IPC: 0.37083 cumulative IPC: 0.393694 (Simulation time: 0 hr 43 min 22 sec) 
select_counter is 389
Heartbeat CPU 0 instructions: 86000000 cycles: 199287063 heartbeat IPC: 0.402435 cumulative IPC: 0.393806 (Simulation time: 0 hr 43 min 48 sec) 
select_counter is 389
Heartbeat CPU 0 instructions: 87000000 cycles: 201434215 heartbeat IPC: 0.465733 cumulative IPC: 0.394598 (Simulation time: 0 hr 44 min 8 sec) 
select_counter is 390
Heartbeat CPU 0 instructions: 88000000 cycles: 203432767 heartbeat IPC: 0.500362 cumulative IPC: 0.39567 (Simulation time: 0 hr 44 min 29 sec) 
select_counter is 390
Heartbeat CPU 0 instructions: 89000001 cycles: 205514309 heartbeat IPC: 0.480414 cumulative IPC: 0.396556 (Simulation time: 0 hr 44 min 48 sec) 
select_counter is 392
Heartbeat CPU 0 instructions: 90000000 cycles: 208220665 heartbeat IPC: 0.3695 cumulative IPC: 0.396193 (Simulation time: 0 hr 45 min 9 sec) 
select_counter is 385
Heartbeat CPU 0 instructions: 91000001 cycles: 211024329 heartbeat IPC: 0.356676 cumulative IPC: 0.395652 (Simulation time: 0 hr 45 min 30 sec) 
select_counter is 398
Heartbeat CPU 0 instructions: 92000000 cycles: 213733192 heartbeat IPC: 0.369158 cumulative IPC: 0.395306 (Simulation time: 0 hr 45 min 47 sec) 
select_counter is 399
Heartbeat CPU 0 instructions: 93000000 cycles: 216396720 heartbeat IPC: 0.375442 cumulative IPC: 0.395054 (Simulation time: 0 hr 46 min 4 sec) 
select_counter is 401
Heartbeat CPU 0 instructions: 94000002 cycles: 219058979 heartbeat IPC: 0.375622 cumulative IPC: 0.394811 (Simulation time: 0 hr 46 min 22 sec) 
select_counter is 402
Heartbeat CPU 0 instructions: 95000000 cycles: 221688980 heartbeat IPC: 0.380227 cumulative IPC: 0.394633 (Simulation time: 0 hr 46 min 39 sec) 
select_counter is 401
Heartbeat CPU 0 instructions: 96000000 cycles: 224367189 heartbeat IPC: 0.373384 cumulative IPC: 0.394372 (Simulation time: 0 hr 46 min 56 sec) 
select_counter is 400
Heartbeat CPU 0 instructions: 97000000 cycles: 227020041 heartbeat IPC: 0.376953 cumulative IPC: 0.394162 (Simulation time: 0 hr 47 min 12 sec) 
select_counter is 400
Heartbeat CPU 0 instructions: 98000000 cycles: 229656757 heartbeat IPC: 0.37926 cumulative IPC: 0.393986 (Simulation time: 0 hr 47 min 28 sec) 
select_counter is 400
Heartbeat CPU 0 instructions: 99000002 cycles: 232277638 heartbeat IPC: 0.381552 cumulative IPC: 0.393842 (Simulation time: 0 hr 47 min 43 sec) 
select_counter is 400
Heartbeat CPU 0 instructions: 100000000 cycles: 234913128 heartbeat IPC: 0.379435 cumulative IPC: 0.393676 (Simulation time: 0 hr 47 min 57 sec) 
select_counter is 400
Heartbeat CPU 0 instructions: 101000002 cycles: 237581135 heartbeat IPC: 0.374812 cumulative IPC: 0.393459 (Simulation time: 0 hr 48 min 11 sec) 
select_counter is 399
Heartbeat CPU 0 instructions: 102000000 cycles: 240225349 heartbeat IPC: 0.378183 cumulative IPC: 0.393286 (Simulation time: 0 hr 48 min 25 sec) 
select_counter is 401
Heartbeat CPU 0 instructions: 103000000 cycles: 242867150 heartbeat IPC: 0.37853 cumulative IPC: 0.393121 (Simulation time: 0 hr 48 min 39 sec) 
select_counter is 401
Heartbeat CPU 0 instructions: 104000000 cycles: 245526231 heartbeat IPC: 0.37607 cumulative IPC: 0.392932 (Simulation time: 0 hr 48 min 53 sec) 
select_counter is 401
Heartbeat CPU 0 instructions: 105000003 cycles: 247705271 heartbeat IPC: 0.458919 cumulative IPC: 0.393527 (Simulation time: 0 hr 49 min 5 sec) 
select_counter is 399
Heartbeat CPU 0 instructions: 106000000 cycles: 249684019 heartbeat IPC: 0.505369 cumulative IPC: 0.394436 (Simulation time: 0 hr 49 min 16 sec) 
select_counter is 399
Heartbeat CPU 0 instructions: 107000003 cycles: 251661667 heartbeat IPC: 0.505653 cumulative IPC: 0.395333 (Simulation time: 0 hr 49 min 26 sec) 
select_counter is 400
Heartbeat CPU 0 instructions: 108000000 cycles: 254505221 heartbeat IPC: 0.351672 cumulative IPC: 0.394833 (Simulation time: 0 hr 49 min 37 sec) 
select_counter is 374
Heartbeat CPU 0 instructions: 109000001 cycles: 257230640 heartbeat IPC: 0.366916 cumulative IPC: 0.394529 (Simulation time: 0 hr 49 min 47 sec) 
select_counter is 371
Heartbeat CPU 0 instructions: 110000000 cycles: 259826476 heartbeat IPC: 0.385232 cumulative IPC: 0.394434 (Simulation time: 0 hr 49 min 56 sec) 
select_counter is 362
Finished CPU 0 instructions: 100000000 cycles: 253527652 cummulative IPC: 0.394434 (Simulation time: 0 hr 49 min 56 sec) 

ChampSim completed all CPUs

Region of Interest Statistics

CPU 0 cummulative IPC: 0.394434 instructions: 100000000 cycles: 253527652
LLC TOTAL     ACCESS:     411671  HIT:     389807  MISS:      21864
LLC LOAD      ACCESS:     296216  HIT:     280361  MISS:      15855
LLC RFO       ACCESS:      32929  HIT:      27594  MISS:       5335
LLC PREFETCH  ACCESS:          0  HIT:          0  MISS:          0
LLC WRITEBACK ACCESS:      82526  HIT:      81852  MISS:        674
Ship samples: 
18, 46, 65, 116, 131, 189, 198, 226, 281, 289, 324, 376, 399, 433, 470, 501, 522, 559, 592, 615, 650, 689, 712, 740, 778, 821, 851, 889, 913, 935, 988, 1008, 1024, 1074, 1090, 1125, 1182, 1213, 1225, 1255, 1287, 1313, 1354, 1405, 1412, 1442, 1474, 1511, 1553, 1587, 1619, 1633, 1678, 1719, 1728, 1770, 1818, 1827, 1862, 1919, 1925, 1963, 2004, 2026, 
Lime duel samples: 
16, 56, 70, 109, 155, 167, 221, 227, 276, 311, 340, 366, 394, 419, 453, 498, 520, 547, 588, 611, 660, 676, 720, 755, 769, 805, 846, 877, 898, 938, 967, 1021, 1030, 1087, 1105, 1145, 1165, 1206, 1222, 1250, 1299, 1340, 1371, 1402, 1435, 1445, 1472, 1522, 1538, 1593, 1620, 1656, 1681, 1726, 1751, 1790, 1800, 1836, 1860, 1888, 1931, 1954, 1991, 2034, 
Lime samples: 
16, 109, 221, 311, 394, 498, 588, 676, 769, 877, 967, 1087, 1165, 1250, 1371, 1445, 1538, 1656, 1751, 1836, 1931, 
Insertion Distribution: 
	LOAD 8290 0 0 0 0 0 25437 218 
	RFO 1083 0 0 0 0 0 5914 166 
	PREF 0 0 0 0 0 0 0 0 
	WRITEBACK 0 0 0 0 0 0 0 666 
Total Prefetch Downgrades: 0
