
*** ChampSim Multicore Out-of-Order Simulator ***

Warmup Instructions: 10000000
Simulation Instructions: 100000000
Configuration: 1
Number of CPUs: 1
LLC sets: 2048
LLC ways: 16
Off-chip DRAM Channels: 1 Width: 64-bit Data Rate: 1600 MT/s

CPU 0 runs /datasets/cs240c-wi22-a00-public/data/Assignment2-gz/wrf_1650B.trace.gz
Heartbeat CPU 0 instructions: 1000000 cycles: 514412 heartbeat IPC: 1.94397 cumulative IPC: 1.94397 (Simulation time: 0 hr 0 min 23 sec) 
select_counter is 508
Heartbeat CPU 0 instructions: 2000000 cycles: 1028660 heartbeat IPC: 1.94459 cumulative IPC: 1.94428 (Simulation time: 0 hr 0 min 49 sec) 
select_counter is 506
Heartbeat CPU 0 instructions: 3000001 cycles: 1546521 heartbeat IPC: 1.93102 cumulative IPC: 1.93984 (Simulation time: 0 hr 1 min 12 sec) 
select_counter is 505
Heartbeat CPU 0 instructions: 4000000 cycles: 2064469 heartbeat IPC: 1.93069 cumulative IPC: 1.93754 (Simulation time: 0 hr 1 min 37 sec) 
select_counter is 506
Heartbeat CPU 0 instructions: 5000001 cycles: 2582394 heartbeat IPC: 1.93078 cumulative IPC: 1.93619 (Simulation time: 0 hr 2 min 3 sec) 
select_counter is 505
Heartbeat CPU 0 instructions: 6000003 cycles: 3100401 heartbeat IPC: 1.93048 cumulative IPC: 1.93523 (Simulation time: 0 hr 2 min 31 sec) 
select_counter is 504
Heartbeat CPU 0 instructions: 7000000 cycles: 3618273 heartbeat IPC: 1.93097 cumulative IPC: 1.93462 (Simulation time: 0 hr 2 min 57 sec) 
select_counter is 506
Heartbeat CPU 0 instructions: 8000000 cycles: 4136215 heartbeat IPC: 1.93072 cumulative IPC: 1.93414 (Simulation time: 0 hr 3 min 21 sec) 
select_counter is 505
Heartbeat CPU 0 instructions: 9000001 cycles: 4650578 heartbeat IPC: 1.94415 cumulative IPC: 1.93524 (Simulation time: 0 hr 3 min 48 sec) 
select_counter is 502
Heartbeat CPU 0 instructions: 10000001 cycles: 5164793 heartbeat IPC: 1.94471 cumulative IPC: 1.93619 (Simulation time: 0 hr 4 min 13 sec) 
select_counter is 499

Warmup complete CPU 0 instructions: 10000001 cycles: 5164793 (Simulation time: 0 hr 4 min 13 sec) 

Heartbeat CPU 0 instructions: 11000000 cycles: 6775861 heartbeat IPC: 0.620706 cumulative IPC: 0.620706 (Simulation time: 0 hr 4 min 46 sec) 
select_counter is 499
Heartbeat CPU 0 instructions: 12000000 cycles: 8405091 heartbeat IPC: 0.613787 cumulative IPC: 0.617227 (Simulation time: 0 hr 5 min 17 sec) 
select_counter is 497
Heartbeat CPU 0 instructions: 13000002 cycles: 10041344 heartbeat IPC: 0.611154 cumulative IPC: 0.615189 (Simulation time: 0 hr 5 min 47 sec) 
select_counter is 497
Heartbeat CPU 0 instructions: 14000002 cycles: 11666513 heartbeat IPC: 0.615321 cumulative IPC: 0.615222 (Simulation time: 0 hr 6 min 16 sec) 
select_counter is 495
Heartbeat CPU 0 instructions: 15000001 cycles: 13279168 heartbeat IPC: 0.620095 cumulative IPC: 0.61619 (Simulation time: 0 hr 6 min 45 sec) 
select_counter is 495
Heartbeat CPU 0 instructions: 16000000 cycles: 14910002 heartbeat IPC: 0.613183 cumulative IPC: 0.615687 (Simulation time: 0 hr 7 min 13 sec) 
select_counter is 494
Heartbeat CPU 0 instructions: 17000000 cycles: 16545465 heartbeat IPC: 0.611448 cumulative IPC: 0.615078 (Simulation time: 0 hr 7 min 43 sec) 
select_counter is 500
Heartbeat CPU 0 instructions: 18000001 cycles: 18173921 heartbeat IPC: 0.614079 cumulative IPC: 0.614953 (Simulation time: 0 hr 8 min 12 sec) 
select_counter is 511
Heartbeat CPU 0 instructions: 19000003 cycles: 19790429 heartbeat IPC: 0.618619 cumulative IPC: 0.615358 (Simulation time: 0 hr 8 min 41 sec) 
select_counter is 516
Heartbeat CPU 0 instructions: 20000000 cycles: 21407852 heartbeat IPC: 0.618266 cumulative IPC: 0.615647 (Simulation time: 0 hr 9 min 14 sec) 
select_counter is 521
Heartbeat CPU 0 instructions: 21000000 cycles: 23045863 heartbeat IPC: 0.610497 cumulative IPC: 0.615176 (Simulation time: 0 hr 9 min 44 sec) 
select_counter is 526
Heartbeat CPU 0 instructions: 22000000 cycles: 24669338 heartbeat IPC: 0.615963 cumulative IPC: 0.615241 (Simulation time: 0 hr 10 min 16 sec) 
select_counter is 529
Heartbeat CPU 0 instructions: 23000003 cycles: 26307891 heartbeat IPC: 0.610296 cumulative IPC: 0.614858 (Simulation time: 0 hr 10 min 45 sec) 
select_counter is 539
Heartbeat CPU 0 instructions: 24000000 cycles: 27952922 heartbeat IPC: 0.607889 cumulative IPC: 0.614355 (Simulation time: 0 hr 11 min 14 sec) 
select_counter is 545
Heartbeat CPU 0 instructions: 25000000 cycles: 29583384 heartbeat IPC: 0.613323 cumulative IPC: 0.614286 (Simulation time: 0 hr 11 min 45 sec) 
select_counter is 557
Heartbeat CPU 0 instructions: 26000001 cycles: 31221859 heartbeat IPC: 0.610324 cumulative IPC: 0.614037 (Simulation time: 0 hr 12 min 15 sec) 
select_counter is 569
Heartbeat CPU 0 instructions: 27000003 cycles: 32852745 heartbeat IPC: 0.613165 cumulative IPC: 0.613986 (Simulation time: 0 hr 12 min 46 sec) 
select_counter is 569
Heartbeat CPU 0 instructions: 28000000 cycles: 34473822 heartbeat IPC: 0.616872 cumulative IPC: 0.614145 (Simulation time: 0 hr 13 min 18 sec) 
select_counter is 588
Heartbeat CPU 0 instructions: 29000001 cycles: 36098268 heartbeat IPC: 0.615595 cumulative IPC: 0.614221 (Simulation time: 0 hr 13 min 49 sec) 
select_counter is 602
Heartbeat CPU 0 instructions: 30000001 cycles: 37715142 heartbeat IPC: 0.618477 cumulative IPC: 0.614433 (Simulation time: 0 hr 14 min 21 sec) 
select_counter is 618
Heartbeat CPU 0 instructions: 31000000 cycles: 39347891 heartbeat IPC: 0.612463 cumulative IPC: 0.614339 (Simulation time: 0 hr 14 min 51 sec) 
select_counter is 635
Heartbeat CPU 0 instructions: 32000000 cycles: 40979727 heartbeat IPC: 0.612807 cumulative IPC: 0.614269 (Simulation time: 0 hr 15 min 21 sec) 
select_counter is 640
Heartbeat CPU 0 instructions: 33000001 cycles: 42617952 heartbeat IPC: 0.610417 cumulative IPC: 0.6141 (Simulation time: 0 hr 15 min 58 sec) 
select_counter is 654
Heartbeat CPU 0 instructions: 34000002 cycles: 44240688 heartbeat IPC: 0.616244 cumulative IPC: 0.614189 (Simulation time: 0 hr 16 min 37 sec) 
select_counter is 669
Heartbeat CPU 0 instructions: 35000001 cycles: 45895245 heartbeat IPC: 0.604391 cumulative IPC: 0.613791 (Simulation time: 0 hr 17 min 9 sec) 
select_counter is 689
Heartbeat CPU 0 instructions: 36000000 cycles: 47544428 heartbeat IPC: 0.60636 cumulative IPC: 0.613502 (Simulation time: 0 hr 17 min 42 sec) 
select_counter is 697
Heartbeat CPU 0 instructions: 37000003 cycles: 49179464 heartbeat IPC: 0.611609 cumulative IPC: 0.613432 (Simulation time: 0 hr 18 min 19 sec) 
select_counter is 705
Heartbeat CPU 0 instructions: 38000000 cycles: 50809498 heartbeat IPC: 0.613482 cumulative IPC: 0.613434 (Simulation time: 0 hr 18 min 49 sec) 
select_counter is 714
Heartbeat CPU 0 instructions: 39000001 cycles: 52433870 heartbeat IPC: 0.615623 cumulative IPC: 0.613509 (Simulation time: 0 hr 19 min 21 sec) 
select_counter is 735
Heartbeat CPU 0 instructions: 40000000 cycles: 54059644 heartbeat IPC: 0.615091 cumulative IPC: 0.613562 (Simulation time: 0 hr 19 min 57 sec) 
select_counter is 747
Heartbeat CPU 0 instructions: 41000000 cycles: 55702486 heartbeat IPC: 0.608701 cumulative IPC: 0.613403 (Simulation time: 0 hr 20 min 28 sec) 
select_counter is 757
Heartbeat CPU 0 instructions: 42000001 cycles: 57350035 heartbeat IPC: 0.606963 cumulative IPC: 0.6132 (Simulation time: 0 hr 21 min 1 sec) 
select_counter is 767
Heartbeat CPU 0 instructions: 43000001 cycles: 58988898 heartbeat IPC: 0.610179 cumulative IPC: 0.613108 (Simulation time: 0 hr 21 min 34 sec) 
select_counter is 782
Heartbeat CPU 0 instructions: 44000000 cycles: 60622025 heartbeat IPC: 0.612322 cumulative IPC: 0.613085 (Simulation time: 0 hr 22 min 4 sec) 
select_counter is 790
Heartbeat CPU 0 instructions: 45000000 cycles: 62268468 heartbeat IPC: 0.60737 cumulative IPC: 0.61292 (Simulation time: 0 hr 22 min 34 sec) 
select_counter is 802
Heartbeat CPU 0 instructions: 46000002 cycles: 64628561 heartbeat IPC: 0.423713 cumulative IPC: 0.605411 (Simulation time: 0 hr 23 min 7 sec) 
select_counter is 818
Heartbeat CPU 0 instructions: 47000002 cycles: 66929291 heartbeat IPC: 0.434645 cumulative IPC: 0.59905 (Simulation time: 0 hr 23 min 39 sec) 
select_counter is 951
Heartbeat CPU 0 instructions: 48000000 cycles: 69417504 heartbeat IPC: 0.401894 cumulative IPC: 0.591415 (Simulation time: 0 hr 24 min 12 sec) 
select_counter is 1022
Heartbeat CPU 0 instructions: 49000001 cycles: 71851450 heartbeat IPC: 0.410856 cumulative IPC: 0.584825 (Simulation time: 0 hr 24 min 45 sec) 
select_counter is 1021
Heartbeat CPU 0 instructions: 50000000 cycles: 74315398 heartbeat IPC: 0.405852 cumulative IPC: 0.578448 (Simulation time: 0 hr 25 min 21 sec) 
select_counter is 1023
Heartbeat CPU 0 instructions: 51000000 cycles: 76886083 heartbeat IPC: 0.389001 cumulative IPC: 0.571657 (Simulation time: 0 hr 25 min 54 sec) 
select_counter is 1022
Heartbeat CPU 0 instructions: 52000000 cycles: 79412140 heartbeat IPC: 0.395874 cumulative IPC: 0.565677 (Simulation time: 0 hr 26 min 32 sec) 
select_counter is 1019
Heartbeat CPU 0 instructions: 53000002 cycles: 81064881 heartbeat IPC: 0.605057 cumulative IPC: 0.566534 (Simulation time: 0 hr 27 min 5 sec) 
select_counter is 983
Heartbeat CPU 0 instructions: 54000002 cycles: 82561235 heartbeat IPC: 0.668291 cumulative IPC: 0.568502 (Simulation time: 0 hr 27 min 34 sec) 
select_counter is 992
Heartbeat CPU 0 instructions: 55000000 cycles: 84080459 heartbeat IPC: 0.658229 cumulative IPC: 0.570229 (Simulation time: 0 hr 28 min 4 sec) 
select_counter is 1020
Heartbeat CPU 0 instructions: 56000000 cycles: 85518817 heartbeat IPC: 0.695237 cumulative IPC: 0.572467 (Simulation time: 0 hr 28 min 34 sec) 
select_counter is 1021
Heartbeat CPU 0 instructions: 57000001 cycles: 86969892 heartbeat IPC: 0.689145 cumulative IPC: 0.574536 (Simulation time: 0 hr 29 min 4 sec) 
select_counter is 1022
Heartbeat CPU 0 instructions: 58000000 cycles: 88417620 heartbeat IPC: 0.690737 cumulative IPC: 0.576557 (Simulation time: 0 hr 29 min 33 sec) 
select_counter is 1023
Heartbeat CPU 0 instructions: 59000003 cycles: 89892503 heartbeat IPC: 0.678022 cumulative IPC: 0.578323 (Simulation time: 0 hr 30 min 5 sec) 
select_counter is 1022
Heartbeat CPU 0 instructions: 60000000 cycles: 91347775 heartbeat IPC: 0.687155 cumulative IPC: 0.580161 (Simulation time: 0 hr 30 min 36 sec) 
select_counter is 1022
Heartbeat CPU 0 instructions: 61000003 cycles: 93676650 heartbeat IPC: 0.429393 cumulative IPC: 0.576194 (Simulation time: 0 hr 31 min 6 sec) 
select_counter is 1019
Heartbeat CPU 0 instructions: 62000002 cycles: 96445566 heartbeat IPC: 0.361152 cumulative IPC: 0.569671 (Simulation time: 0 hr 31 min 37 sec) 
select_counter is 1016
Heartbeat CPU 0 instructions: 63000002 cycles: 99237088 heartbeat IPC: 0.358228 cumulative IPC: 0.563397 (Simulation time: 0 hr 32 min 6 sec) 
select_counter is 1013
Heartbeat CPU 0 instructions: 64000000 cycles: 102004934 heartbeat IPC: 0.361291 cumulative IPC: 0.55762 (Simulation time: 0 hr 32 min 40 sec) 
select_counter is 1023
Heartbeat CPU 0 instructions: 65000001 cycles: 104758807 heartbeat IPC: 0.363125 cumulative IPC: 0.552242 (Simulation time: 0 hr 33 min 16 sec) 
select_counter is 1020
Heartbeat CPU 0 instructions: 66000003 cycles: 107471696 heartbeat IPC: 0.368611 cumulative IPC: 0.547373 (Simulation time: 0 hr 33 min 47 sec) 
select_counter is 1023
Heartbeat CPU 0 instructions: 67000001 cycles: 110215543 heartbeat IPC: 0.364451 cumulative IPC: 0.542595 (Simulation time: 0 hr 34 min 19 sec) 
select_counter is 1022
Heartbeat CPU 0 instructions: 68000000 cycles: 112984663 heartbeat IPC: 0.361125 cumulative IPC: 0.537934 (Simulation time: 0 hr 34 min 48 sec) 
select_counter is 1020
Heartbeat CPU 0 instructions: 69000002 cycles: 115719110 heartbeat IPC: 0.365705 cumulative IPC: 0.533674 (Simulation time: 0 hr 35 min 18 sec) 
select_counter is 1021
Heartbeat CPU 0 instructions: 70000000 cycles: 118425892 heartbeat IPC: 0.369442 cumulative IPC: 0.529749 (Simulation time: 0 hr 35 min 48 sec) 
select_counter is 1019
Heartbeat CPU 0 instructions: 71000001 cycles: 121129690 heartbeat IPC: 0.36985 cumulative IPC: 0.526021 (Simulation time: 0 hr 36 min 15 sec) 
select_counter is 1018
Heartbeat CPU 0 instructions: 72000000 cycles: 123826059 heartbeat IPC: 0.370869 cumulative IPC: 0.522496 (Simulation time: 0 hr 36 min 44 sec) 
select_counter is 1022
Heartbeat CPU 0 instructions: 73000000 cycles: 126484911 heartbeat IPC: 0.376102 cumulative IPC: 0.519287 (Simulation time: 0 hr 37 min 10 sec) 
select_counter is 1020
Heartbeat CPU 0 instructions: 74000003 cycles: 129201533 heartbeat IPC: 0.368105 cumulative IPC: 0.515976 (Simulation time: 0 hr 37 min 36 sec) 
select_counter is 1023
Heartbeat CPU 0 instructions: 75000003 cycles: 131901866 heartbeat IPC: 0.370325 cumulative IPC: 0.512873 (Simulation time: 0 hr 38 min 2 sec) 
select_counter is 1019
Heartbeat CPU 0 instructions: 76000000 cycles: 134629621 heartbeat IPC: 0.366601 cumulative IPC: 0.509791 (Simulation time: 0 hr 38 min 28 sec) 
select_counter is 1018
Heartbeat CPU 0 instructions: 77000002 cycles: 137413096 heartbeat IPC: 0.359264 cumulative IPC: 0.506623 (Simulation time: 0 hr 38 min 52 sec) 
select_counter is 1020
Heartbeat CPU 0 instructions: 78000001 cycles: 140121254 heartbeat IPC: 0.369254 cumulative IPC: 0.503866 (Simulation time: 0 hr 39 min 18 sec) 
select_counter is 1023
Heartbeat CPU 0 instructions: 79000001 cycles: 142894015 heartbeat IPC: 0.360651 cumulative IPC: 0.500983 (Simulation time: 0 hr 39 min 42 sec) 
select_counter is 1022
Heartbeat CPU 0 instructions: 80000000 cycles: 145627231 heartbeat IPC: 0.365869 cumulative IPC: 0.498354 (Simulation time: 0 hr 40 min 6 sec) 
select_counter is 1020
Heartbeat CPU 0 instructions: 81000000 cycles: 148363834 heartbeat IPC: 0.365417 cumulative IPC: 0.495813 (Simulation time: 0 hr 40 min 30 sec) 
select_counter is 1020
Heartbeat CPU 0 instructions: 82000003 cycles: 151065380 heartbeat IPC: 0.37016 cumulative IPC: 0.493487 (Simulation time: 0 hr 40 min 53 sec) 
select_counter is 1018
Heartbeat CPU 0 instructions: 83000003 cycles: 153827575 heartbeat IPC: 0.362031 cumulative IPC: 0.491044 (Simulation time: 0 hr 41 min 17 sec) 
select_counter is 1018
Heartbeat CPU 0 instructions: 84000000 cycles: 156575205 heartbeat IPC: 0.363949 cumulative IPC: 0.488738 (Simulation time: 0 hr 41 min 42 sec) 
select_counter is 1021
Heartbeat CPU 0 instructions: 85000002 cycles: 159307494 heartbeat IPC: 0.365994 cumulative IPC: 0.486562 (Simulation time: 0 hr 42 min 6 sec) 
select_counter is 1022
Heartbeat CPU 0 instructions: 86000001 cycles: 161996079 heartbeat IPC: 0.371942 cumulative IPC: 0.484597 (Simulation time: 0 hr 42 min 29 sec) 
select_counter is 1019
Heartbeat CPU 0 instructions: 87000001 cycles: 164690072 heartbeat IPC: 0.371196 cumulative IPC: 0.482682 (Simulation time: 0 hr 42 min 52 sec) 
select_counter is 1017
Heartbeat CPU 0 instructions: 88000000 cycles: 167891219 heartbeat IPC: 0.312388 cumulative IPC: 0.479332 (Simulation time: 0 hr 43 min 16 sec) 
select_counter is 892
Heartbeat CPU 0 instructions: 89000003 cycles: 170974198 heartbeat IPC: 0.324363 cumulative IPC: 0.476451 (Simulation time: 0 hr 43 min 40 sec) 
select_counter is 907
Heartbeat CPU 0 instructions: 90000003 cycles: 174058065 heartbeat IPC: 0.324268 cumulative IPC: 0.473672 (Simulation time: 0 hr 44 min 5 sec) 
select_counter is 1004
Heartbeat CPU 0 instructions: 91000003 cycles: 177162125 heartbeat IPC: 0.322159 cumulative IPC: 0.470938 (Simulation time: 0 hr 44 min 27 sec) 
select_counter is 1023
Heartbeat CPU 0 instructions: 92000000 cycles: 180236190 heartbeat IPC: 0.325301 cumulative IPC: 0.46838 (Simulation time: 0 hr 44 min 51 sec) 
select_counter is 1022
Heartbeat CPU 0 instructions: 93000001 cycles: 183412394 heartbeat IPC: 0.314842 cumulative IPC: 0.465644 (Simulation time: 0 hr 45 min 12 sec) 
select_counter is 1023
Heartbeat CPU 0 instructions: 94000001 cycles: 186546778 heartbeat IPC: 0.319042 cumulative IPC: 0.463111 (Simulation time: 0 hr 45 min 32 sec) 
select_counter is 1021
Heartbeat CPU 0 instructions: 95000001 cycles: 189612128 heartbeat IPC: 0.326227 cumulative IPC: 0.460836 (Simulation time: 0 hr 45 min 51 sec) 
select_counter is 1021
Heartbeat CPU 0 instructions: 96000000 cycles: 192662641 heartbeat IPC: 0.327813 cumulative IPC: 0.458672 (Simulation time: 0 hr 46 min 9 sec) 
select_counter is 1021
Heartbeat CPU 0 instructions: 97000000 cycles: 195806868 heartbeat IPC: 0.318043 cumulative IPC: 0.456353 (Simulation time: 0 hr 46 min 28 sec) 
select_counter is 1021
Heartbeat CPU 0 instructions: 98000000 cycles: 198860802 heartbeat IPC: 0.327446 cumulative IPC: 0.45432 (Simulation time: 0 hr 46 min 47 sec) 
select_counter is 1019
Heartbeat CPU 0 instructions: 99000000 cycles: 201893358 heartbeat IPC: 0.329755 cumulative IPC: 0.4524 (Simulation time: 0 hr 47 min 5 sec) 
select_counter is 1021
Heartbeat CPU 0 instructions: 100000000 cycles: 205049133 heartbeat IPC: 0.316879 cumulative IPC: 0.45026 (Simulation time: 0 hr 47 min 22 sec) 
select_counter is 1018
Heartbeat CPU 0 instructions: 101000002 cycles: 208187284 heartbeat IPC: 0.31866 cumulative IPC: 0.448226 (Simulation time: 0 hr 47 min 39 sec) 
select_counter is 1022
Heartbeat CPU 0 instructions: 102000002 cycles: 211358806 heartbeat IPC: 0.315306 cumulative IPC: 0.446182 (Simulation time: 0 hr 47 min 54 sec) 
select_counter is 1019
Heartbeat CPU 0 instructions: 103000002 cycles: 214497548 heartbeat IPC: 0.318599 cumulative IPC: 0.444269 (Simulation time: 0 hr 48 min 9 sec) 
select_counter is 1021
Heartbeat CPU 0 instructions: 104000000 cycles: 217609670 heartbeat IPC: 0.321324 cumulative IPC: 0.442468 (Simulation time: 0 hr 48 min 24 sec) 
select_counter is 1023
Heartbeat CPU 0 instructions: 105000001 cycles: 220731429 heartbeat IPC: 0.320333 cumulative IPC: 0.440699 (Simulation time: 0 hr 48 min 38 sec) 
select_counter is 1021
Heartbeat CPU 0 instructions: 106000001 cycles: 223839485 heartbeat IPC: 0.321745 cumulative IPC: 0.439008 (Simulation time: 0 hr 48 min 52 sec) 
select_counter is 1021
Heartbeat CPU 0 instructions: 107000000 cycles: 226932397 heartbeat IPC: 0.32332 cumulative IPC: 0.437395 (Simulation time: 0 hr 49 min 6 sec) 
select_counter is 1023
Heartbeat CPU 0 instructions: 108000000 cycles: 230047879 heartbeat IPC: 0.320978 cumulative IPC: 0.435782 (Simulation time: 0 hr 49 min 19 sec) 
select_counter is 1023
Heartbeat CPU 0 instructions: 109000000 cycles: 233168229 heartbeat IPC: 0.320477 cumulative IPC: 0.434204 (Simulation time: 0 hr 49 min 31 sec) 
select_counter is 910
Heartbeat CPU 0 instructions: 110000000 cycles: 236198756 heartbeat IPC: 0.329976 cumulative IPC: 0.432837 (Simulation time: 0 hr 49 min 42 sec) 
select_counter is 808
Finished CPU 0 instructions: 100000003 cycles: 231033964 cummulative IPC: 0.432837 (Simulation time: 0 hr 49 min 42 sec) 

ChampSim completed all CPUs

Region of Interest Statistics

CPU 0 cummulative IPC: 0.432837 instructions: 100000003 cycles: 231033964
LLC TOTAL     ACCESS:    1058894  HIT:     267304  MISS:     791590
LLC LOAD      ACCESS:     632847  HIT:      48585  MISS:     584262
LLC RFO       ACCESS:     201034  HIT:        795  MISS:     200239
LLC PREFETCH  ACCESS:          0  HIT:          0  MISS:          0
LLC WRITEBACK ACCESS:     225013  HIT:     217924  MISS:       7089
Ship samples: 
5, 40, 69, 123, 155, 190, 192, 242, 262, 316, 328, 371, 385, 421, 474, 490, 528, 564, 585, 636, 640, 685, 704, 751, 797, 827, 861, 868, 906, 931, 978, 1012, 1051, 1060, 1098, 1137, 1176, 1203, 1245, 1278, 1295, 1312, 1351, 1386, 1422, 1462, 1498, 1506, 1555, 1593, 1607, 1640, 1672, 1719, 1759, 1761, 1807, 1850, 1862, 1896, 1937, 1972, 1993, 2016, 
Lime duel samples: 
3, 53, 68, 113, 141, 163, 219, 232, 263, 318, 340, 369, 414, 444, 453, 488, 527, 558, 577, 610, 652, 695, 712, 767, 774, 812, 837, 878, 926, 937, 964, 1005, 1026, 1064, 1092, 1120, 1163, 1214, 1240, 1251, 1307, 1337, 1356, 1380, 1426, 1453, 1472, 1514, 1557, 1574, 1629, 1642, 1695, 1724, 1734, 1781, 1806, 1825, 1878, 1892, 1940, 1983, 1995, 2038, 
Lime samples: 
3, 113, 219, 318, 414, 488, 577, 695, 774, 878, 964, 1064, 1163, 1251, 1356, 1453, 1557, 1642, 1734, 1825, 1940, 
Insertion Distribution: 
	LOAD 227 0 0 0 0 0 15576 21357 
	RFO 0 0 0 0 0 0 7642 5939 
	PREF 0 0 0 0 0 0 0 0 
	WRITEBACK 0 0 0 0 0 0 0 5011 
Total Prefetch Downgrades: 0
