
*** ChampSim Multicore Out-of-Order Simulator ***

Warmup Instructions: 10000000
Simulation Instructions: 100000000
Configuration: 1
Number of CPUs: 1
LLC sets: 2048
LLC ways: 16
Off-chip DRAM Channels: 1 Width: 64-bit Data Rate: 1600 MT/s

CPU 0 runs /datasets/cs240c-wi22-a00-public/data/Assignment2-gz/GemsFDTD_109B.trace.gz
Heartbeat CPU 0 instructions: 1000002 cycles: 577063 heartbeat IPC: 1.73292 cumulative IPC: 1.73292 (Simulation time: 0 hr 0 min 31 sec) 
select_counter is 508
Heartbeat CPU 0 instructions: 2000003 cycles: 1154102 heartbeat IPC: 1.73299 cumulative IPC: 1.73295 (Simulation time: 0 hr 1 min 3 sec) 
select_counter is 859
Heartbeat CPU 0 instructions: 3000000 cycles: 1730670 heartbeat IPC: 1.7344 cumulative IPC: 1.73343 (Simulation time: 0 hr 1 min 37 sec) 
select_counter is 1021
Heartbeat CPU 0 instructions: 4000000 cycles: 2307182 heartbeat IPC: 1.73457 cumulative IPC: 1.73372 (Simulation time: 0 hr 2 min 13 sec) 
select_counter is 1020
Heartbeat CPU 0 instructions: 5000000 cycles: 2884141 heartbeat IPC: 1.73323 cumulative IPC: 1.73362 (Simulation time: 0 hr 2 min 44 sec) 
select_counter is 1023
Heartbeat CPU 0 instructions: 6000002 cycles: 3460994 heartbeat IPC: 1.73355 cumulative IPC: 1.73361 (Simulation time: 0 hr 3 min 13 sec) 
select_counter is 1023
Heartbeat CPU 0 instructions: 7000001 cycles: 4038004 heartbeat IPC: 1.73307 cumulative IPC: 1.73353 (Simulation time: 0 hr 3 min 46 sec) 
select_counter is 1022
Heartbeat CPU 0 instructions: 8000000 cycles: 4614109 heartbeat IPC: 1.73579 cumulative IPC: 1.73381 (Simulation time: 0 hr 4 min 15 sec) 
select_counter is 1020
Heartbeat CPU 0 instructions: 9000002 cycles: 5190459 heartbeat IPC: 1.73506 cumulative IPC: 1.73395 (Simulation time: 0 hr 4 min 48 sec) 
select_counter is 1023
Heartbeat CPU 0 instructions: 10000001 cycles: 5766873 heartbeat IPC: 1.73486 cumulative IPC: 1.73404 (Simulation time: 0 hr 5 min 16 sec) 
select_counter is 1019

Warmup complete CPU 0 instructions: 10000001 cycles: 5766873 (Simulation time: 0 hr 5 min 16 sec) 

Heartbeat CPU 0 instructions: 11000001 cycles: 8285972 heartbeat IPC: 0.396967 cumulative IPC: 0.396967 (Simulation time: 0 hr 5 min 58 sec) 
select_counter is 985
Heartbeat CPU 0 instructions: 12000000 cycles: 10783868 heartbeat IPC: 0.400337 cumulative IPC: 0.398645 (Simulation time: 0 hr 6 min 37 sec) 
select_counter is 980
Heartbeat CPU 0 instructions: 13000001 cycles: 13373935 heartbeat IPC: 0.386091 cumulative IPC: 0.39437 (Simulation time: 0 hr 7 min 17 sec) 
select_counter is 945
Heartbeat CPU 0 instructions: 14000001 cycles: 15885500 heartbeat IPC: 0.398158 cumulative IPC: 0.395311 (Simulation time: 0 hr 7 min 55 sec) 
select_counter is 913
Heartbeat CPU 0 instructions: 15000000 cycles: 18405824 heartbeat IPC: 0.396774 cumulative IPC: 0.395602 (Simulation time: 0 hr 8 min 34 sec) 
select_counter is 875
Heartbeat CPU 0 instructions: 16000000 cycles: 20931086 heartbeat IPC: 0.395999 cumulative IPC: 0.395668 (Simulation time: 0 hr 9 min 11 sec) 
select_counter is 847
Heartbeat CPU 0 instructions: 17000000 cycles: 23483449 heartbeat IPC: 0.391794 cumulative IPC: 0.39511 (Simulation time: 0 hr 9 min 48 sec) 
select_counter is 807
Heartbeat CPU 0 instructions: 18000001 cycles: 25987708 heartbeat IPC: 0.39932 cumulative IPC: 0.395632 (Simulation time: 0 hr 10 min 24 sec) 
select_counter is 771
Heartbeat CPU 0 instructions: 19000001 cycles: 28519981 heartbeat IPC: 0.394902 cumulative IPC: 0.39555 (Simulation time: 0 hr 11 min 1 sec) 
select_counter is 724
Heartbeat CPU 0 instructions: 20000000 cycles: 30473588 heartbeat IPC: 0.511873 cumulative IPC: 0.404748 (Simulation time: 0 hr 11 min 34 sec) 
select_counter is 865
Heartbeat CPU 0 instructions: 21000001 cycles: 31848460 heartbeat IPC: 0.727341 cumulative IPC: 0.421753 (Simulation time: 0 hr 12 min 8 sec) 
select_counter is 1001
Heartbeat CPU 0 instructions: 22000001 cycles: 35309134 heartbeat IPC: 0.288961 cumulative IPC: 0.406198 (Simulation time: 0 hr 12 min 45 sec) 
select_counter is 1023
Heartbeat CPU 0 instructions: 23000001 cycles: 36616914 heartbeat IPC: 0.764655 cumulative IPC: 0.421393 (Simulation time: 0 hr 13 min 16 sec) 
select_counter is 1023
Heartbeat CPU 0 instructions: 24000000 cycles: 40097623 heartbeat IPC: 0.287297 cumulative IPC: 0.407798 (Simulation time: 0 hr 13 min 50 sec) 
select_counter is 1023
Heartbeat CPU 0 instructions: 25000003 cycles: 41378663 heartbeat IPC: 0.780618 cumulative IPC: 0.421209 (Simulation time: 0 hr 14 min 24 sec) 
select_counter is 1023
Heartbeat CPU 0 instructions: 26000000 cycles: 44863686 heartbeat IPC: 0.286941 cumulative IPC: 0.40924 (Simulation time: 0 hr 14 min 56 sec) 
select_counter is 1022
Heartbeat CPU 0 instructions: 27000000 cycles: 46118099 heartbeat IPC: 0.797186 cumulative IPC: 0.421301 (Simulation time: 0 hr 15 min 25 sec) 
select_counter is 1023
Heartbeat CPU 0 instructions: 28000000 cycles: 49594742 heartbeat IPC: 0.287634 cumulative IPC: 0.410698 (Simulation time: 0 hr 16 min 0 sec) 
select_counter is 1023
Heartbeat CPU 0 instructions: 29000000 cycles: 50853497 heartbeat IPC: 0.794436 cumulative IPC: 0.421411 (Simulation time: 0 hr 16 min 29 sec) 
select_counter is 1023
Heartbeat CPU 0 instructions: 30000003 cycles: 52562786 heartbeat IPC: 0.58504 cumulative IPC: 0.427388 (Simulation time: 0 hr 17 min 0 sec) 
select_counter is 1023
Heartbeat CPU 0 instructions: 31000002 cycles: 53777893 heartbeat IPC: 0.822972 cumulative IPC: 0.4374 (Simulation time: 0 hr 17 min 31 sec) 
select_counter is 1023
Heartbeat CPU 0 instructions: 32000000 cycles: 55338989 heartbeat IPC: 0.640574 cumulative IPC: 0.443798 (Simulation time: 0 hr 17 min 59 sec) 
select_counter is 1023
Heartbeat CPU 0 instructions: 33000003 cycles: 56557808 heartbeat IPC: 0.820469 cumulative IPC: 0.452837 (Simulation time: 0 hr 18 min 27 sec) 
select_counter is 1019
Heartbeat CPU 0 instructions: 34000002 cycles: 58063896 heartbeat IPC: 0.663971 cumulative IPC: 0.458917 (Simulation time: 0 hr 18 min 56 sec) 
select_counter is 1022
Heartbeat CPU 0 instructions: 35000003 cycles: 59342020 heartbeat IPC: 0.782398 cumulative IPC: 0.466634 (Simulation time: 0 hr 19 min 28 sec) 
select_counter is 1019
Heartbeat CPU 0 instructions: 36000000 cycles: 60889105 heartbeat IPC: 0.646375 cumulative IPC: 0.471679 (Simulation time: 0 hr 19 min 58 sec) 
select_counter is 1022
Heartbeat CPU 0 instructions: 37000000 cycles: 62237180 heartbeat IPC: 0.741799 cumulative IPC: 0.478127 (Simulation time: 0 hr 20 min 29 sec) 
select_counter is 1022
Heartbeat CPU 0 instructions: 38000001 cycles: 63585182 heartbeat IPC: 0.741839 cumulative IPC: 0.484276 (Simulation time: 0 hr 20 min 59 sec) 
select_counter is 1022
Heartbeat CPU 0 instructions: 39000000 cycles: 64933077 heartbeat IPC: 0.741897 cumulative IPC: 0.490145 (Simulation time: 0 hr 21 min 32 sec) 
select_counter is 1022
Heartbeat CPU 0 instructions: 40000000 cycles: 66281092 heartbeat IPC: 0.741831 cumulative IPC: 0.495751 (Simulation time: 0 hr 22 min 4 sec) 
select_counter is 1022
Heartbeat CPU 0 instructions: 41000000 cycles: 67707570 heartbeat IPC: 0.701027 cumulative IPC: 0.500479 (Simulation time: 0 hr 22 min 32 sec) 
select_counter is 1021
Heartbeat CPU 0 instructions: 42000000 cycles: 69056134 heartbeat IPC: 0.74153 cumulative IPC: 0.505615 (Simulation time: 0 hr 23 min 3 sec) 
select_counter is 1021
Heartbeat CPU 0 instructions: 43000002 cycles: 70404832 heartbeat IPC: 0.741457 cumulative IPC: 0.510536 (Simulation time: 0 hr 23 min 34 sec) 
select_counter is 1021
Heartbeat CPU 0 instructions: 44000000 cycles: 71753354 heartbeat IPC: 0.741551 cumulative IPC: 0.515257 (Simulation time: 0 hr 24 min 9 sec) 
select_counter is 1021
Heartbeat CPU 0 instructions: 45000001 cycles: 73101717 heartbeat IPC: 0.741641 cumulative IPC: 0.51979 (Simulation time: 0 hr 24 min 41 sec) 
select_counter is 1021
Heartbeat CPU 0 instructions: 46000002 cycles: 74653143 heartbeat IPC: 0.644569 cumulative IPC: 0.522601 (Simulation time: 0 hr 25 min 13 sec) 
select_counter is 1020
Heartbeat CPU 0 instructions: 47000001 cycles: 76087361 heartbeat IPC: 0.697243 cumulative IPC: 0.526162 (Simulation time: 0 hr 25 min 39 sec) 
select_counter is 1015
Heartbeat CPU 0 instructions: 48000000 cycles: 77651700 heartbeat IPC: 0.639247 cumulative IPC: 0.528623 (Simulation time: 0 hr 26 min 4 sec) 
select_counter is 1013
Heartbeat CPU 0 instructions: 49000003 cycles: 87468060 heartbeat IPC: 0.101871 cumulative IPC: 0.477349 (Simulation time: 0 hr 26 min 55 sec) 
select_counter is 1020
Heartbeat CPU 0 instructions: 50000002 cycles: 90835135 heartbeat IPC: 0.296993 cumulative IPC: 0.470211 (Simulation time: 0 hr 27 min 31 sec) 
select_counter is 1018
Heartbeat CPU 0 instructions: 51000003 cycles: 94360235 heartbeat IPC: 0.28368 cumulative IPC: 0.462789 (Simulation time: 0 hr 28 min 13 sec) 
select_counter is 1023
Heartbeat CPU 0 instructions: 52000000 cycles: 97872594 heartbeat IPC: 0.284708 cumulative IPC: 0.455998 (Simulation time: 0 hr 28 min 55 sec) 
select_counter is 1021
Heartbeat CPU 0 instructions: 53000001 cycles: 101062251 heartbeat IPC: 0.313514 cumulative IPC: 0.451229 (Simulation time: 0 hr 29 min 43 sec) 
select_counter is 1022
Heartbeat CPU 0 instructions: 54000000 cycles: 104197350 heartbeat IPC: 0.318969 cumulative IPC: 0.447016 (Simulation time: 0 hr 30 min 28 sec) 
select_counter is 1023
Heartbeat CPU 0 instructions: 55000002 cycles: 107345415 heartbeat IPC: 0.317656 cumulative IPC: 0.443007 (Simulation time: 0 hr 31 min 8 sec) 
select_counter is 1022
Heartbeat CPU 0 instructions: 56000000 cycles: 110460574 heartbeat IPC: 0.32101 cumulative IPC: 0.439377 (Simulation time: 0 hr 31 min 44 sec) 
select_counter is 1021
Heartbeat CPU 0 instructions: 57000002 cycles: 113645917 heartbeat IPC: 0.313939 cumulative IPC: 0.435673 (Simulation time: 0 hr 32 min 26 sec) 
select_counter is 1021
Heartbeat CPU 0 instructions: 58000002 cycles: 116718806 heartbeat IPC: 0.325427 cumulative IPC: 0.43262 (Simulation time: 0 hr 33 min 1 sec) 
select_counter is 1020
Heartbeat CPU 0 instructions: 59000001 cycles: 119866215 heartbeat IPC: 0.317721 cumulative IPC: 0.42945 (Simulation time: 0 hr 33 min 38 sec) 
select_counter is 1021
Heartbeat CPU 0 instructions: 60000000 cycles: 122987944 heartbeat IPC: 0.320335 cumulative IPC: 0.426544 (Simulation time: 0 hr 34 min 13 sec) 
select_counter is 1015
Heartbeat CPU 0 instructions: 61000001 cycles: 125989126 heartbeat IPC: 0.333202 cumulative IPC: 0.424214 (Simulation time: 0 hr 34 min 48 sec) 
select_counter is 1022
Heartbeat CPU 0 instructions: 62000003 cycles: 129019905 heartbeat IPC: 0.329949 cumulative IPC: 0.421896 (Simulation time: 0 hr 35 min 33 sec) 
select_counter is 1007
Heartbeat CPU 0 instructions: 63000001 cycles: 132054228 heartbeat IPC: 0.329562 cumulative IPC: 0.419678 (Simulation time: 0 hr 36 min 9 sec) 
select_counter is 1019
Heartbeat CPU 0 instructions: 64000000 cycles: 135150293 heartbeat IPC: 0.32299 cumulative IPC: 0.417364 (Simulation time: 0 hr 36 min 43 sec) 
select_counter is 1020
Heartbeat CPU 0 instructions: 65000003 cycles: 138265094 heartbeat IPC: 0.321049 cumulative IPC: 0.4151 (Simulation time: 0 hr 37 min 15 sec) 
select_counter is 1023
Heartbeat CPU 0 instructions: 66000002 cycles: 141368063 heartbeat IPC: 0.322272 cumulative IPC: 0.412976 (Simulation time: 0 hr 37 min 46 sec) 
select_counter is 1020
Heartbeat CPU 0 instructions: 67000000 cycles: 144439590 heartbeat IPC: 0.32557 cumulative IPC: 0.41104 (Simulation time: 0 hr 38 min 19 sec) 
select_counter is 1018
Heartbeat CPU 0 instructions: 68000000 cycles: 147519645 heartbeat IPC: 0.32467 cumulative IPC: 0.409163 (Simulation time: 0 hr 38 min 50 sec) 
select_counter is 1011
Heartbeat CPU 0 instructions: 69000000 cycles: 150606070 heartbeat IPC: 0.323999 cumulative IPC: 0.407348 (Simulation time: 0 hr 39 min 21 sec) 
select_counter is 974
Heartbeat CPU 0 instructions: 70000000 cycles: 153603548 heartbeat IPC: 0.333614 cumulative IPC: 0.405853 (Simulation time: 0 hr 39 min 51 sec) 
select_counter is 1012
Heartbeat CPU 0 instructions: 71000000 cycles: 156664477 heartbeat IPC: 0.326698 cumulative IPC: 0.404248 (Simulation time: 0 hr 40 min 26 sec) 
select_counter is 1004
Heartbeat CPU 0 instructions: 72000000 cycles: 159679775 heartbeat IPC: 0.331642 cumulative IPC: 0.402825 (Simulation time: 0 hr 40 min 56 sec) 
select_counter is 1009
Heartbeat CPU 0 instructions: 73000002 cycles: 162746772 heartbeat IPC: 0.326052 cumulative IPC: 0.401325 (Simulation time: 0 hr 41 min 27 sec) 
select_counter is 1005
Heartbeat CPU 0 instructions: 74000000 cycles: 165810108 heartbeat IPC: 0.326441 cumulative IPC: 0.399892 (Simulation time: 0 hr 41 min 56 sec) 
select_counter is 1012
Heartbeat CPU 0 instructions: 75000002 cycles: 168905141 heartbeat IPC: 0.323099 cumulative IPC: 0.398435 (Simulation time: 0 hr 42 min 26 sec) 
select_counter is 978
Heartbeat CPU 0 instructions: 76000000 cycles: 171956496 heartbeat IPC: 0.327723 cumulative IPC: 0.397137 (Simulation time: 0 hr 42 min 54 sec) 
select_counter is 1014
Heartbeat CPU 0 instructions: 77000003 cycles: 175094719 heartbeat IPC: 0.318653 cumulative IPC: 0.395682 (Simulation time: 0 hr 43 min 21 sec) 
select_counter is 1010
Heartbeat CPU 0 instructions: 78000003 cycles: 178146344 heartbeat IPC: 0.327694 cumulative IPC: 0.394479 (Simulation time: 0 hr 43 min 50 sec) 
select_counter is 1016
Heartbeat CPU 0 instructions: 79000001 cycles: 181146986 heartbeat IPC: 0.333261 cumulative IPC: 0.393431 (Simulation time: 0 hr 44 min 19 sec) 
select_counter is 1003
Heartbeat CPU 0 instructions: 80000000 cycles: 184173387 heartbeat IPC: 0.330425 cumulative IPC: 0.392362 (Simulation time: 0 hr 44 min 46 sec) 
select_counter is 1018
Heartbeat CPU 0 instructions: 81000000 cycles: 187222920 heartbeat IPC: 0.327919 cumulative IPC: 0.391279 (Simulation time: 0 hr 45 min 11 sec) 
select_counter is 1017
Heartbeat CPU 0 instructions: 82000001 cycles: 190274435 heartbeat IPC: 0.327706 cumulative IPC: 0.390228 (Simulation time: 0 hr 45 min 34 sec) 
select_counter is 988
Heartbeat CPU 0 instructions: 83000003 cycles: 193302063 heartbeat IPC: 0.330292 cumulative IPC: 0.38926 (Simulation time: 0 hr 45 min 56 sec) 
select_counter is 980
Heartbeat CPU 0 instructions: 84000000 cycles: 196315463 heartbeat IPC: 0.33185 cumulative IPC: 0.388352 (Simulation time: 0 hr 46 min 17 sec) 
select_counter is 988
Heartbeat CPU 0 instructions: 85000001 cycles: 199414778 heartbeat IPC: 0.322652 cumulative IPC: 0.387301 (Simulation time: 0 hr 46 min 37 sec) 
select_counter is 984
Heartbeat CPU 0 instructions: 86000002 cycles: 202468104 heartbeat IPC: 0.327512 cumulative IPC: 0.386373 (Simulation time: 0 hr 46 min 58 sec) 
select_counter is 1012
Heartbeat CPU 0 instructions: 87000000 cycles: 205524447 heartbeat IPC: 0.327188 cumulative IPC: 0.385467 (Simulation time: 0 hr 47 min 18 sec) 
select_counter is 1013
Heartbeat CPU 0 instructions: 88000000 cycles: 208641582 heartbeat IPC: 0.320807 cumulative IPC: 0.384474 (Simulation time: 0 hr 47 min 37 sec) 
select_counter is 998
Heartbeat CPU 0 instructions: 89000003 cycles: 211751964 heartbeat IPC: 0.321505 cumulative IPC: 0.383523 (Simulation time: 0 hr 47 min 54 sec) 
select_counter is 1014
Heartbeat CPU 0 instructions: 90000002 cycles: 214892766 heartbeat IPC: 0.31839 cumulative IPC: 0.382545 (Simulation time: 0 hr 48 min 10 sec) 
select_counter is 1018
Heartbeat CPU 0 instructions: 91000000 cycles: 218000129 heartbeat IPC: 0.321816 cumulative IPC: 0.381656 (Simulation time: 0 hr 48 min 27 sec) 
select_counter is 997
Heartbeat CPU 0 instructions: 92000000 cycles: 221096056 heartbeat IPC: 0.323005 cumulative IPC: 0.380812 (Simulation time: 0 hr 48 min 44 sec) 
select_counter is 1007
Heartbeat CPU 0 instructions: 93000001 cycles: 224209032 heartbeat IPC: 0.321236 cumulative IPC: 0.379963 (Simulation time: 0 hr 48 min 59 sec) 
select_counter is 1018
Heartbeat CPU 0 instructions: 94000000 cycles: 227262545 heartbeat IPC: 0.327491 cumulative IPC: 0.37924 (Simulation time: 0 hr 49 min 14 sec) 
select_counter is 1002
Heartbeat CPU 0 instructions: 95000001 cycles: 230289939 heartbeat IPC: 0.330317 cumulative IPC: 0.37858 (Simulation time: 0 hr 49 min 27 sec) 
select_counter is 1019
Heartbeat CPU 0 instructions: 96000000 cycles: 233369078 heartbeat IPC: 0.324766 cumulative IPC: 0.377852 (Simulation time: 0 hr 49 min 41 sec) 
select_counter is 1023
Heartbeat CPU 0 instructions: 97000002 cycles: 236460766 heartbeat IPC: 0.323449 cumulative IPC: 0.377123 (Simulation time: 0 hr 49 min 52 sec) 
select_counter is 1018
Heartbeat CPU 0 instructions: 98000000 cycles: 239600139 heartbeat IPC: 0.318534 cumulative IPC: 0.376337 (Simulation time: 0 hr 50 min 2 sec) 
select_counter is 1015
Heartbeat CPU 0 instructions: 99000000 cycles: 242607162 heartbeat IPC: 0.332555 cumulative IPC: 0.375781 (Simulation time: 0 hr 50 min 11 sec) 
select_counter is 925
Heartbeat CPU 0 instructions: 100000000 cycles: 245726276 heartbeat IPC: 0.320604 cumulative IPC: 0.375063 (Simulation time: 0 hr 50 min 19 sec) 
select_counter is 907
Heartbeat CPU 0 instructions: 101000001 cycles: 248825247 heartbeat IPC: 0.322688 cumulative IPC: 0.374396 (Simulation time: 0 hr 50 min 25 sec) 
select_counter is 918
Heartbeat CPU 0 instructions: 102000003 cycles: 251930599 heartbeat IPC: 0.322025 cumulative IPC: 0.373735 (Simulation time: 0 hr 50 min 32 sec) 
select_counter is 886
Heartbeat CPU 0 instructions: 103000000 cycles: 254969261 heartbeat IPC: 0.329091 cumulative IPC: 0.373191 (Simulation time: 0 hr 50 min 38 sec) 
select_counter is 820
Heartbeat CPU 0 instructions: 104000000 cycles: 258090226 heartbeat IPC: 0.320414 cumulative IPC: 0.372538 (Simulation time: 0 hr 50 min 43 sec) 
select_counter is 818
Heartbeat CPU 0 instructions: 105000000 cycles: 261182859 heartbeat IPC: 0.323349 cumulative IPC: 0.371942 (Simulation time: 0 hr 50 min 49 sec) 
select_counter is 779
Heartbeat CPU 0 instructions: 106000001 cycles: 264248408 heartbeat IPC: 0.326206 cumulative IPC: 0.3714 (Simulation time: 0 hr 50 min 53 sec) 
select_counter is 753
Heartbeat CPU 0 instructions: 107000003 cycles: 267349795 heartbeat IPC: 0.322437 cumulative IPC: 0.370819 (Simulation time: 0 hr 50 min 58 sec) 
select_counter is 734
Heartbeat CPU 0 instructions: 108000000 cycles: 270467193 heartbeat IPC: 0.320779 cumulative IPC: 0.37023 (Simulation time: 0 hr 51 min 2 sec) 
select_counter is 717
Heartbeat CPU 0 instructions: 109000003 cycles: 273508329 heartbeat IPC: 0.328825 cumulative IPC: 0.36976 (Simulation time: 0 hr 51 min 6 sec) 
select_counter is 670
Heartbeat CPU 0 instructions: 110000002 cycles: 276606885 heartbeat IPC: 0.322731 cumulative IPC: 0.369222 (Simulation time: 0 hr 51 min 10 sec) 
select_counter is 604
Finished CPU 0 instructions: 100000001 cycles: 270840012 cummulative IPC: 0.369222 (Simulation time: 0 hr 51 min 10 sec) 

ChampSim completed all CPUs

Region of Interest Statistics

CPU 0 cummulative IPC: 0.369222 instructions: 100000001 cycles: 270840012
LLC TOTAL     ACCESS:    4564554  HIT:    1191381  MISS:    3373173
LLC LOAD      ACCESS:    3073734  HIT:     634100  MISS:    2439634
LLC RFO       ACCESS:     126461  HIT:     113858  MISS:      12603
LLC PREFETCH  ACCESS:          0  HIT:          0  MISS:          0
LLC WRITEBACK ACCESS:    1364359  HIT:     443423  MISS:     920936
Ship samples: 
7, 56, 82, 125, 142, 187, 193, 254, 280, 305, 324, 361, 400, 442, 473, 510, 543, 555, 594, 615, 663, 680, 709, 764, 774, 824, 851, 869, 913, 955, 966, 995, 1038, 1086, 1098, 1134, 1159, 1209, 1244, 1257, 1283, 1324, 1348, 1402, 1425, 1440, 1486, 1533, 1554, 1598, 1600, 1661, 1666, 1716, 1740, 1760, 1823, 1830, 1886, 1913, 1941, 1958, 2013, 2016, 
Lime duel samples: 
12, 63, 86, 121, 144, 186, 219, 226, 259, 288, 347, 358, 410, 431, 471, 487, 536, 565, 600, 635, 653, 674, 728, 742, 797, 813, 842, 866, 899, 959, 971, 1017, 1029, 1070, 1089, 1125, 1153, 1206, 1228, 1269, 1282, 1314, 1366, 1393, 1429, 1461, 1495, 1508, 1565, 1595, 1628, 1644, 1671, 1719, 1758, 1789, 1807, 1836, 1859, 1888, 1935, 1977, 1987, 2019, 
Lime samples: 
12, 121, 219, 288, 410, 487, 600, 674, 797, 866, 971, 1070, 1153, 1269, 1366, 1461, 1565, 1644, 1758, 1836, 1935, 
Insertion Distribution: 
	LOAD 14542 0 0 0 0 0 30125 66279 
	RFO 18 0 0 0 0 0 79 809 
	PREF 0 0 0 0 0 0 0 0 
	WRITEBACK 0 0 0 0 0 0 0 39211 
Total Prefetch Downgrades: 0
