
*** ChampSim Multicore Out-of-Order Simulator ***

Warmup Instructions: 10000000
Simulation Instructions: 100000000
Configuration: 1
Number of CPUs: 1
LLC sets: 2048
LLC ways: 16
Off-chip DRAM Channels: 1 Width: 64-bit Data Rate: 1600 MT/s

CPU 0 runs /datasets/cs240c-wi22-a00-public/data/Assignment2-gz/soplex_66B.trace.gz
Heartbeat CPU 0 instructions: 1000003 cycles: 416342 heartbeat IPC: 2.40188 cumulative IPC: 2.40188 (Simulation time: 0 hr 0 min 21 sec) 
select_counter is 506
Heartbeat CPU 0 instructions: 2000002 cycles: 842806 heartbeat IPC: 2.34486 cumulative IPC: 2.37303 (Simulation time: 0 hr 0 min 50 sec) 
select_counter is 614
Heartbeat CPU 0 instructions: 3000003 cycles: 1252429 heartbeat IPC: 2.44127 cumulative IPC: 2.39535 (Simulation time: 0 hr 1 min 17 sec) 
select_counter is 579
Heartbeat CPU 0 instructions: 4000000 cycles: 1637616 heartbeat IPC: 2.59613 cumulative IPC: 2.44257 (Simulation time: 0 hr 1 min 42 sec) 
select_counter is 546
Heartbeat CPU 0 instructions: 5000000 cycles: 2039004 heartbeat IPC: 2.49135 cumulative IPC: 2.45218 (Simulation time: 0 hr 2 min 4 sec) 
select_counter is 586
Heartbeat CPU 0 instructions: 6000000 cycles: 2499235 heartbeat IPC: 2.17282 cumulative IPC: 2.40073 (Simulation time: 0 hr 2 min 29 sec) 
select_counter is 938
Heartbeat CPU 0 instructions: 7000002 cycles: 2871569 heartbeat IPC: 2.68577 cumulative IPC: 2.43769 (Simulation time: 0 hr 2 min 50 sec) 
select_counter is 1023
Heartbeat CPU 0 instructions: 8000000 cycles: 3297863 heartbeat IPC: 2.34579 cumulative IPC: 2.42581 (Simulation time: 0 hr 3 min 15 sec) 
select_counter is 1011
Heartbeat CPU 0 instructions: 9000003 cycles: 3737699 heartbeat IPC: 2.27358 cumulative IPC: 2.4079 (Simulation time: 0 hr 3 min 37 sec) 
select_counter is 613
Heartbeat CPU 0 instructions: 10000001 cycles: 4151617 heartbeat IPC: 2.41593 cumulative IPC: 2.4087 (Simulation time: 0 hr 3 min 59 sec) 
select_counter is 455

Warmup complete CPU 0 instructions: 10000001 cycles: 4151617 (Simulation time: 0 hr 3 min 59 sec) 

Heartbeat CPU 0 instructions: 11000001 cycles: 8010133 heartbeat IPC: 0.259167 cumulative IPC: 0.259167 (Simulation time: 0 hr 4 min 31 sec) 
select_counter is 492
Heartbeat CPU 0 instructions: 12000000 cycles: 9723158 heartbeat IPC: 0.583762 cumulative IPC: 0.358967 (Simulation time: 0 hr 4 min 52 sec) 
select_counter is 494
Heartbeat CPU 0 instructions: 13000001 cycles: 13002011 heartbeat IPC: 0.304985 cumulative IPC: 0.338968 (Simulation time: 0 hr 5 min 19 sec) 
select_counter is 528
Heartbeat CPU 0 instructions: 14000002 cycles: 16113319 heartbeat IPC: 0.321409 cumulative IPC: 0.334401 (Simulation time: 0 hr 5 min 46 sec) 
select_counter is 591
Heartbeat CPU 0 instructions: 15000002 cycles: 18881634 heartbeat IPC: 0.361231 cumulative IPC: 0.339443 (Simulation time: 0 hr 6 min 9 sec) 
select_counter is 623
Heartbeat CPU 0 instructions: 16000000 cycles: 22238641 heartbeat IPC: 0.297884 cumulative IPC: 0.331729 (Simulation time: 0 hr 6 min 40 sec) 
select_counter is 599
Heartbeat CPU 0 instructions: 17000001 cycles: 25140481 heartbeat IPC: 0.344609 cumulative IPC: 0.33351 (Simulation time: 0 hr 7 min 12 sec) 
select_counter is 597
Heartbeat CPU 0 instructions: 18000000 cycles: 27714602 heartbeat IPC: 0.388482 cumulative IPC: 0.339516 (Simulation time: 0 hr 7 min 45 sec) 
select_counter is 427
Heartbeat CPU 0 instructions: 19000002 cycles: 32038700 heartbeat IPC: 0.231263 cumulative IPC: 0.32273 (Simulation time: 0 hr 8 min 16 sec) 
select_counter is 484
Heartbeat CPU 0 instructions: 20000000 cycles: 33740620 heartbeat IPC: 0.58757 cumulative IPC: 0.337963 (Simulation time: 0 hr 8 min 34 sec) 
select_counter is 479
Heartbeat CPU 0 instructions: 21000000 cycles: 36601100 heartbeat IPC: 0.349592 cumulative IPC: 0.338988 (Simulation time: 0 hr 8 min 59 sec) 
select_counter is 498
Heartbeat CPU 0 instructions: 22000000 cycles: 40139616 heartbeat IPC: 0.282604 cumulative IPC: 0.333444 (Simulation time: 0 hr 9 min 30 sec) 
select_counter is 571
Heartbeat CPU 0 instructions: 23000000 cycles: 42999435 heartbeat IPC: 0.349672 cumulative IPC: 0.334639 (Simulation time: 0 hr 9 min 54 sec) 
select_counter is 539
Heartbeat CPU 0 instructions: 24000000 cycles: 46012064 heartbeat IPC: 0.331936 cumulative IPC: 0.334445 (Simulation time: 0 hr 10 min 20 sec) 
select_counter is 631
Heartbeat CPU 0 instructions: 25000003 cycles: 48913555 heartbeat IPC: 0.344651 cumulative IPC: 0.335106 (Simulation time: 0 hr 10 min 56 sec) 
select_counter is 345
Heartbeat CPU 0 instructions: 26000001 cycles: 52050609 heartbeat IPC: 0.31877 cumulative IPC: 0.334036 (Simulation time: 0 hr 11 min 29 sec) 
select_counter is 262
Heartbeat CPU 0 instructions: 27000002 cycles: 56388647 heartbeat IPC: 0.230519 cumulative IPC: 0.32544 (Simulation time: 0 hr 12 min 6 sec) 
select_counter is 217
Heartbeat CPU 0 instructions: 28000000 cycles: 58101115 heartbeat IPC: 0.583951 cumulative IPC: 0.333645 (Simulation time: 0 hr 12 min 28 sec) 
select_counter is 199
Heartbeat CPU 0 instructions: 29000002 cycles: 60483275 heartbeat IPC: 0.419788 cumulative IPC: 0.337288 (Simulation time: 0 hr 12 min 52 sec) 
select_counter is 203
Heartbeat CPU 0 instructions: 30000000 cycles: 64301040 heartbeat IPC: 0.261933 cumulative IPC: 0.332505 (Simulation time: 0 hr 13 min 25 sec) 
select_counter is 250
Heartbeat CPU 0 instructions: 31000001 cycles: 67054136 heartbeat IPC: 0.363228 cumulative IPC: 0.33385 (Simulation time: 0 hr 13 min 50 sec) 
select_counter is 212
Heartbeat CPU 0 instructions: 32000000 cycles: 69869455 heartbeat IPC: 0.355199 cumulative IPC: 0.334765 (Simulation time: 0 hr 14 min 15 sec) 
select_counter is 209
Heartbeat CPU 0 instructions: 33000001 cycles: 74235312 heartbeat IPC: 0.22905 cumulative IPC: 0.328179 (Simulation time: 0 hr 14 min 56 sec) 
select_counter is 163
Heartbeat CPU 0 instructions: 34000003 cycles: 76831602 heartbeat IPC: 0.385166 cumulative IPC: 0.330215 (Simulation time: 0 hr 15 min 28 sec) 
select_counter is 53
Heartbeat CPU 0 instructions: 35000003 cycles: 80585544 heartbeat IPC: 0.266387 cumulative IPC: 0.32708 (Simulation time: 0 hr 15 min 59 sec) 
select_counter is 988
Heartbeat CPU 0 instructions: 36000000 cycles: 82290873 heartbeat IPC: 0.586395 cumulative IPC: 0.332739 (Simulation time: 0 hr 16 min 19 sec) 
select_counter is 985
Heartbeat CPU 0 instructions: 37000000 cycles: 85527520 heartbeat IPC: 0.308962 cumulative IPC: 0.331794 (Simulation time: 0 hr 16 min 46 sec) 
select_counter is 985
Heartbeat CPU 0 instructions: 38000000 cycles: 88614898 heartbeat IPC: 0.323899 cumulative IPC: 0.331505 (Simulation time: 0 hr 17 min 15 sec) 
select_counter is 1018
Heartbeat CPU 0 instructions: 39000003 cycles: 91476960 heartbeat IPC: 0.349399 cumulative IPC: 0.332091 (Simulation time: 0 hr 17 min 40 sec) 
select_counter is 1012
Heartbeat CPU 0 instructions: 40000000 cycles: 94652851 heartbeat IPC: 0.314871 cumulative IPC: 0.331487 (Simulation time: 0 hr 18 min 8 sec) 
select_counter is 974
Heartbeat CPU 0 instructions: 41000001 cycles: 97413590 heartbeat IPC: 0.362222 cumulative IPC: 0.332397 (Simulation time: 0 hr 18 min 38 sec) 
select_counter is 879
Heartbeat CPU 0 instructions: 42000003 cycles: 99960066 heartbeat IPC: 0.3927 cumulative IPC: 0.334 (Simulation time: 0 hr 19 min 9 sec) 
select_counter is 839
Heartbeat CPU 0 instructions: 43000000 cycles: 104321063 heartbeat IPC: 0.229305 cumulative IPC: 0.329442 (Simulation time: 0 hr 19 min 44 sec) 
select_counter is 758
Heartbeat CPU 0 instructions: 44000000 cycles: 106024450 heartbeat IPC: 0.587066 cumulative IPC: 0.333749 (Simulation time: 0 hr 20 min 4 sec) 
select_counter is 749
Heartbeat CPU 0 instructions: 45000003 cycles: 108816341 heartbeat IPC: 0.358181 cumulative IPC: 0.334401 (Simulation time: 0 hr 20 min 29 sec) 
select_counter is 736
Heartbeat CPU 0 instructions: 46000003 cycles: 112296767 heartbeat IPC: 0.287321 cumulative IPC: 0.332886 (Simulation time: 0 hr 21 min 2 sec) 
select_counter is 713
Heartbeat CPU 0 instructions: 47000001 cycles: 115094803 heartbeat IPC: 0.357393 cumulative IPC: 0.333504 (Simulation time: 0 hr 21 min 29 sec) 
select_counter is 658
Heartbeat CPU 0 instructions: 48000000 cycles: 117999530 heartbeat IPC: 0.344266 cumulative IPC: 0.333779 (Simulation time: 0 hr 21 min 52 sec) 
select_counter is 692
Heartbeat CPU 0 instructions: 49000000 cycles: 121783124 heartbeat IPC: 0.264299 cumulative IPC: 0.331544 (Simulation time: 0 hr 22 min 34 sec) 
select_counter is 1019
Heartbeat CPU 0 instructions: 50000003 cycles: 128693636 heartbeat IPC: 0.144708 cumulative IPC: 0.321177 (Simulation time: 0 hr 23 min 15 sec) 
select_counter is 1020
Heartbeat CPU 0 instructions: 51000002 cycles: 131608158 heartbeat IPC: 0.343109 cumulative IPC: 0.321678 (Simulation time: 0 hr 23 min 51 sec) 
select_counter is 1021
Heartbeat CPU 0 instructions: 52000000 cycles: 136624096 heartbeat IPC: 0.199364 cumulative IPC: 0.317047 (Simulation time: 0 hr 24 min 27 sec) 
select_counter is 1020
Heartbeat CPU 0 instructions: 53000003 cycles: 140646832 heartbeat IPC: 0.248588 cumulative IPC: 0.315029 (Simulation time: 0 hr 25 min 5 sec) 
select_counter is 1022
Heartbeat CPU 0 instructions: 54000000 cycles: 144415384 heartbeat IPC: 0.265353 cumulative IPC: 0.313695 (Simulation time: 0 hr 25 min 43 sec) 
select_counter is 1016
Heartbeat CPU 0 instructions: 55000002 cycles: 149145562 heartbeat IPC: 0.211409 cumulative IPC: 0.310358 (Simulation time: 0 hr 26 min 14 sec) 
select_counter is 1023
Heartbeat CPU 0 instructions: 56000000 cycles: 152987939 heartbeat IPC: 0.260255 cumulative IPC: 0.309064 (Simulation time: 0 hr 26 min 51 sec) 
select_counter is 1019
Heartbeat CPU 0 instructions: 57000003 cycles: 155984623 heartbeat IPC: 0.333703 cumulative IPC: 0.309551 (Simulation time: 0 hr 27 min 22 sec) 
select_counter is 1021
Heartbeat CPU 0 instructions: 58000002 cycles: 158338698 heartbeat IPC: 0.424795 cumulative IPC: 0.31131 (Simulation time: 0 hr 27 min 53 sec) 
select_counter is 1020
Heartbeat CPU 0 instructions: 59000002 cycles: 160188397 heartbeat IPC: 0.540628 cumulative IPC: 0.314029 (Simulation time: 0 hr 28 min 25 sec) 
select_counter is 1022
Heartbeat CPU 0 instructions: 60000000 cycles: 162376142 heartbeat IPC: 0.457091 cumulative IPC: 0.316007 (Simulation time: 0 hr 28 min 52 sec) 
select_counter is 1023
Heartbeat CPU 0 instructions: 61000002 cycles: 166046314 heartbeat IPC: 0.272467 cumulative IPC: 0.31502 (Simulation time: 0 hr 29 min 27 sec) 
select_counter is 1021
Heartbeat CPU 0 instructions: 62000000 cycles: 169252291 heartbeat IPC: 0.311917 cumulative IPC: 0.314959 (Simulation time: 0 hr 30 min 6 sec) 
select_counter is 849
Heartbeat CPU 0 instructions: 63000002 cycles: 172603942 heartbeat IPC: 0.298361 cumulative IPC: 0.314629 (Simulation time: 0 hr 30 min 42 sec) 
select_counter is 490
Heartbeat CPU 0 instructions: 64000000 cycles: 176029281 heartbeat IPC: 0.291941 cumulative IPC: 0.314177 (Simulation time: 0 hr 31 min 9 sec) 
select_counter is 542
Heartbeat CPU 0 instructions: 65000000 cycles: 180532668 heartbeat IPC: 0.222055 cumulative IPC: 0.311825 (Simulation time: 0 hr 31 min 44 sec) 
select_counter is 57
Heartbeat CPU 0 instructions: 66000001 cycles: 182248186 heartbeat IPC: 0.582915 cumulative IPC: 0.314436 (Simulation time: 0 hr 32 min 3 sec) 
select_counter is 1023
Heartbeat CPU 0 instructions: 67000000 cycles: 183982324 heartbeat IPC: 0.576655 cumulative IPC: 0.316965 (Simulation time: 0 hr 32 min 22 sec) 
select_counter is 1017
Heartbeat CPU 0 instructions: 68000000 cycles: 188166653 heartbeat IPC: 0.238987 cumulative IPC: 0.315192 (Simulation time: 0 hr 32 min 52 sec) 
select_counter is 1022
Heartbeat CPU 0 instructions: 69000000 cycles: 191156796 heartbeat IPC: 0.334432 cumulative IPC: 0.315499 (Simulation time: 0 hr 33 min 12 sec) 
select_counter is 978
Heartbeat CPU 0 instructions: 70000001 cycles: 194065978 heartbeat IPC: 0.34374 cumulative IPC: 0.315932 (Simulation time: 0 hr 33 min 33 sec) 
select_counter is 910
Heartbeat CPU 0 instructions: 71000000 cycles: 196815793 heartbeat IPC: 0.36366 cumulative IPC: 0.316613 (Simulation time: 0 hr 34 min 1 sec) 
select_counter is 809
Heartbeat CPU 0 instructions: 72000000 cycles: 200524231 heartbeat IPC: 0.269655 cumulative IPC: 0.315726 (Simulation time: 0 hr 34 min 27 sec) 
select_counter is 736
Heartbeat CPU 0 instructions: 73000002 cycles: 204107260 heartbeat IPC: 0.279094 cumulative IPC: 0.31507 (Simulation time: 0 hr 35 min 0 sec) 
select_counter is 491
Heartbeat CPU 0 instructions: 74000000 cycles: 206649081 heartbeat IPC: 0.393418 cumulative IPC: 0.316053 (Simulation time: 0 hr 35 min 21 sec) 
select_counter is 465
Heartbeat CPU 0 instructions: 75000002 cycles: 208381893 heartbeat IPC: 0.577098 cumulative IPC: 0.318268 (Simulation time: 0 hr 35 min 41 sec) 
select_counter is 473
Heartbeat CPU 0 instructions: 76000000 cycles: 212430139 heartbeat IPC: 0.24702 cumulative IPC: 0.316883 (Simulation time: 0 hr 36 min 8 sec) 
select_counter is 514
Heartbeat CPU 0 instructions: 77000000 cycles: 215314716 heartbeat IPC: 0.346671 cumulative IPC: 0.31729 (Simulation time: 0 hr 36 min 28 sec) 
select_counter is 515
Heartbeat CPU 0 instructions: 78000003 cycles: 218122869 heartbeat IPC: 0.356107 cumulative IPC: 0.3178 (Simulation time: 0 hr 36 min 48 sec) 
select_counter is 507
Heartbeat CPU 0 instructions: 79000001 cycles: 221624783 heartbeat IPC: 0.285558 cumulative IPC: 0.317281 (Simulation time: 0 hr 37 min 15 sec) 
select_counter is 438
Heartbeat CPU 0 instructions: 80000000 cycles: 225349296 heartbeat IPC: 0.268491 cumulative IPC: 0.316459 (Simulation time: 0 hr 37 min 40 sec) 
select_counter is 365
Heartbeat CPU 0 instructions: 81000003 cycles: 229064054 heartbeat IPC: 0.269197 cumulative IPC: 0.315678 (Simulation time: 0 hr 38 min 8 sec) 
select_counter is 140
Heartbeat CPU 0 instructions: 82000000 cycles: 231238076 heartbeat IPC: 0.459976 cumulative IPC: 0.31706 (Simulation time: 0 hr 38 min 26 sec) 
select_counter is 97
Heartbeat CPU 0 instructions: 83000001 cycles: 232978789 heartbeat IPC: 0.574478 cumulative IPC: 0.319018 (Simulation time: 0 hr 38 min 50 sec) 
select_counter is 110
Heartbeat CPU 0 instructions: 84000000 cycles: 237104449 heartbeat IPC: 0.242385 cumulative IPC: 0.317661 (Simulation time: 0 hr 39 min 19 sec) 
select_counter is 121
Heartbeat CPU 0 instructions: 85000000 cycles: 239903511 heartbeat IPC: 0.357263 cumulative IPC: 0.318131 (Simulation time: 0 hr 39 min 40 sec) 
select_counter is 121
Heartbeat CPU 0 instructions: 86000000 cycles: 242765437 heartbeat IPC: 0.349415 cumulative IPC: 0.318506 (Simulation time: 0 hr 39 min 58 sec) 
select_counter is 117
Heartbeat CPU 0 instructions: 87000000 cycles: 246034139 heartbeat IPC: 0.305932 cumulative IPC: 0.318336 (Simulation time: 0 hr 40 min 23 sec) 
select_counter is 41
Heartbeat CPU 0 instructions: 88000000 cycles: 249332998 heartbeat IPC: 0.303135 cumulative IPC: 0.318132 (Simulation time: 0 hr 40 min 46 sec) 
select_counter is 920
Heartbeat CPU 0 instructions: 89000001 cycles: 253434754 heartbeat IPC: 0.243798 cumulative IPC: 0.316909 (Simulation time: 0 hr 41 min 13 sec) 
select_counter is 780
Heartbeat CPU 0 instructions: 90000002 cycles: 255142787 heartbeat IPC: 0.585469 cumulative IPC: 0.318736 (Simulation time: 0 hr 41 min 31 sec) 
select_counter is 758
Heartbeat CPU 0 instructions: 91000000 cycles: 256956350 heartbeat IPC: 0.5514 cumulative IPC: 0.320405 (Simulation time: 0 hr 41 min 48 sec) 
select_counter is 786
Heartbeat CPU 0 instructions: 92000000 cycles: 260949502 heartbeat IPC: 0.250429 cumulative IPC: 0.319317 (Simulation time: 0 hr 42 min 11 sec) 
select_counter is 818
Heartbeat CPU 0 instructions: 93000000 cycles: 263866302 heartbeat IPC: 0.342841 cumulative IPC: 0.319581 (Simulation time: 0 hr 42 min 28 sec) 
select_counter is 832
Heartbeat CPU 0 instructions: 94000001 cycles: 266712830 heartbeat IPC: 0.351306 cumulative IPC: 0.319925 (Simulation time: 0 hr 42 min 46 sec) 
select_counter is 828
Heartbeat CPU 0 instructions: 95000003 cycles: 270463103 heartbeat IPC: 0.266648 cumulative IPC: 0.319175 (Simulation time: 0 hr 43 min 10 sec) 
select_counter is 749
Heartbeat CPU 0 instructions: 96000000 cycles: 273055757 heartbeat IPC: 0.385704 cumulative IPC: 0.319817 (Simulation time: 0 hr 43 min 32 sec) 
select_counter is 587
Heartbeat CPU 0 instructions: 97000003 cycles: 277214290 heartbeat IPC: 0.24047 cumulative IPC: 0.318608 (Simulation time: 0 hr 43 min 55 sec) 
select_counter is 514
Heartbeat CPU 0 instructions: 98000003 cycles: 278927261 heartbeat IPC: 0.583781 cumulative IPC: 0.320261 (Simulation time: 0 hr 44 min 8 sec) 
select_counter is 505
Heartbeat CPU 0 instructions: 99000000 cycles: 281943905 heartbeat IPC: 0.331493 cumulative IPC: 0.320383 (Simulation time: 0 hr 44 min 25 sec) 
select_counter is 488
Heartbeat CPU 0 instructions: 100000000 cycles: 285311995 heartbeat IPC: 0.296904 cumulative IPC: 0.320102 (Simulation time: 0 hr 44 min 44 sec) 
select_counter is 609
Heartbeat CPU 0 instructions: 101000001 cycles: 288123972 heartbeat IPC: 0.355622 cumulative IPC: 0.320454 (Simulation time: 0 hr 44 min 59 sec) 
select_counter is 653
Heartbeat CPU 0 instructions: 102000000 cycles: 291193837 heartbeat IPC: 0.325747 cumulative IPC: 0.32051 (Simulation time: 0 hr 45 min 14 sec) 
select_counter is 767
Heartbeat CPU 0 instructions: 103000002 cycles: 295088335 heartbeat IPC: 0.256773 cumulative IPC: 0.319657 (Simulation time: 0 hr 45 min 35 sec) 
select_counter is 517
Heartbeat CPU 0 instructions: 104000000 cycles: 298006002 heartbeat IPC: 0.342739 cumulative IPC: 0.319886 (Simulation time: 0 hr 45 min 55 sec) 
select_counter is 484
Heartbeat CPU 0 instructions: 105000000 cycles: 301059789 heartbeat IPC: 0.327462 cumulative IPC: 0.319964 (Simulation time: 0 hr 46 min 11 sec) 
select_counter is 488
Heartbeat CPU 0 instructions: 106000001 cycles: 302781143 heartbeat IPC: 0.580939 cumulative IPC: 0.321469 (Simulation time: 0 hr 46 min 22 sec) 
select_counter is 489
Heartbeat CPU 0 instructions: 107000001 cycles: 306534111 heartbeat IPC: 0.266456 cumulative IPC: 0.320786 (Simulation time: 0 hr 46 min 38 sec) 
select_counter is 460
Heartbeat CPU 0 instructions: 108000000 cycles: 309412485 heartbeat IPC: 0.347418 cumulative IPC: 0.321037 (Simulation time: 0 hr 46 min 53 sec) 
select_counter is 499
Heartbeat CPU 0 instructions: 109000003 cycles: 312095206 heartbeat IPC: 0.372757 cumulative IPC: 0.321487 (Simulation time: 0 hr 47 min 4 sec) 
select_counter is 486
Heartbeat CPU 0 instructions: 110000003 cycles: 315563655 heartbeat IPC: 0.288313 cumulative IPC: 0.321118 (Simulation time: 0 hr 47 min 20 sec) 
select_counter is 379
Finished CPU 0 instructions: 100000002 cycles: 311412038 cummulative IPC: 0.321118 (Simulation time: 0 hr 47 min 20 sec) 

ChampSim completed all CPUs

Region of Interest Statistics

CPU 0 cummulative IPC: 0.321118 instructions: 100000002 cycles: 311412038
LLC TOTAL     ACCESS:    5290121  HIT:    2724022  MISS:    2566099
LLC LOAD      ACCESS:    3127278  HIT:    1371463  MISS:    1755815
LLC RFO       ACCESS:     652040  HIT:     249090  MISS:     402950
LLC PREFETCH  ACCESS:          0  HIT:          0  MISS:          0
LLC WRITEBACK ACCESS:    1510803  HIT:    1103469  MISS:     407334
Ship samples: 
25, 51, 85, 100, 133, 177, 220, 244, 285, 315, 335, 367, 406, 429, 475, 481, 518, 568, 586, 616, 649, 693, 724, 758, 773, 820, 842, 880, 922, 947, 969, 1013, 1027, 1076, 1110, 1136, 1160, 1184, 1237, 1251, 1284, 1323, 1366, 1376, 1439, 1453, 1484, 1524, 1552, 1579, 1628, 1650, 1664, 1698, 1731, 1789, 1821, 1845, 1861, 1892, 1929, 1964, 2004, 2021, 
Lime duel samples: 
5, 40, 68, 125, 159, 174, 215, 237, 287, 290, 348, 355, 400, 426, 456, 498, 515, 549, 579, 631, 664, 703, 726, 756, 784, 819, 835, 895, 914, 931, 989, 1017, 1036, 1069, 1115, 1140, 1164, 1189, 1246, 1264, 1288, 1335, 1358, 1404, 1424, 1459, 1480, 1507, 1551, 1576, 1606, 1659, 1668, 1715, 1749, 1765, 1799, 1833, 1875, 1909, 1924, 1969, 2005, 2016, 
Lime samples: 
5, 125, 215, 290, 400, 498, 579, 703, 784, 895, 989, 1069, 1164, 1264, 1358, 1459, 1551, 1659, 1749, 1833, 1924, 
Insertion Distribution: 
	LOAD 142644 0 0 0 0 0 54688 525673 
	RFO 37667 0 0 0 0 0 18780 52937 
	PREF 0 0 0 0 0 0 0 0 
	WRITEBACK 0 0 0 0 0 0 0 126637 
Total Prefetch Downgrades: 0
