
*** ChampSim Multicore Out-of-Order Simulator ***

Warmup Instructions: 10000000
Simulation Instructions: 100000000
Configuration: 1
Number of CPUs: 1
LLC sets: 2048
LLC ways: 16
Off-chip DRAM Channels: 1 Width: 64-bit Data Rate: 1600 MT/s

CPU 0 runs /datasets/cs240c-wi22-a00-public/data/Assignment2-gz/mcf_158B.trace.gz
Heartbeat CPU 0 instructions: 1000002 cycles: 496600 heartbeat IPC: 2.0137 cumulative IPC: 2.0137 (Simulation time: 0 hr 0 min 28 sec) 
select_counter is 498
Heartbeat CPU 0 instructions: 2000002 cycles: 992256 heartbeat IPC: 2.01753 cumulative IPC: 2.01561 (Simulation time: 0 hr 0 min 59 sec) 
select_counter is 390
Heartbeat CPU 0 instructions: 3000000 cycles: 1488576 heartbeat IPC: 2.01483 cumulative IPC: 2.01535 (Simulation time: 0 hr 1 min 29 sec) 
select_counter is 387
Heartbeat CPU 0 instructions: 4000000 cycles: 1983667 heartbeat IPC: 2.01983 cumulative IPC: 2.01647 (Simulation time: 0 hr 2 min 0 sec) 
select_counter is 389
Heartbeat CPU 0 instructions: 5000002 cycles: 2477450 heartbeat IPC: 2.02519 cumulative IPC: 2.0182 (Simulation time: 0 hr 2 min 33 sec) 
select_counter is 350
Heartbeat CPU 0 instructions: 6000001 cycles: 2976614 heartbeat IPC: 2.00335 cumulative IPC: 2.01571 (Simulation time: 0 hr 3 min 3 sec) 
select_counter is 343
Heartbeat CPU 0 instructions: 7000001 cycles: 3471520 heartbeat IPC: 2.02059 cumulative IPC: 2.01641 (Simulation time: 0 hr 3 min 34 sec) 
select_counter is 350
Heartbeat CPU 0 instructions: 8000000 cycles: 3967598 heartbeat IPC: 2.01581 cumulative IPC: 2.01633 (Simulation time: 0 hr 4 min 3 sec) 
select_counter is 380
Heartbeat CPU 0 instructions: 9000000 cycles: 4474264 heartbeat IPC: 1.97369 cumulative IPC: 2.0115 (Simulation time: 0 hr 4 min 36 sec) 
select_counter is 485
Heartbeat CPU 0 instructions: 10000001 cycles: 4998999 heartbeat IPC: 1.90573 cumulative IPC: 2.0004 (Simulation time: 0 hr 5 min 8 sec) 
select_counter is 146

Warmup complete CPU 0 instructions: 10000001 cycles: 4998999 (Simulation time: 0 hr 5 min 8 sec) 

Heartbeat CPU 0 instructions: 11000000 cycles: 17472949 heartbeat IPC: 0.080167 cumulative IPC: 0.080167 (Simulation time: 0 hr 5 min 53 sec) 
select_counter is 957
Heartbeat CPU 0 instructions: 12000000 cycles: 28949803 heartbeat IPC: 0.0871319 cumulative IPC: 0.0835045 (Simulation time: 0 hr 6 min 36 sec) 
select_counter is 933
Heartbeat CPU 0 instructions: 13000001 cycles: 40702669 heartbeat IPC: 0.0850857 cumulative IPC: 0.084025 (Simulation time: 0 hr 7 min 17 sec) 
select_counter is 883
Heartbeat CPU 0 instructions: 14000001 cycles: 51450389 heartbeat IPC: 0.093043 cumulative IPC: 0.0861115 (Simulation time: 0 hr 7 min 56 sec) 
select_counter is 905
Heartbeat CPU 0 instructions: 15000000 cycles: 63147962 heartbeat IPC: 0.0854877 cumulative IPC: 0.085986 (Simulation time: 0 hr 8 min 37 sec) 
select_counter is 869
Heartbeat CPU 0 instructions: 16000000 cycles: 80504049 heartbeat IPC: 0.0576167 cumulative IPC: 0.0794649 (Simulation time: 0 hr 9 min 38 sec) 
select_counter is 739
Heartbeat CPU 0 instructions: 17000001 cycles: 95083591 heartbeat IPC: 0.0685893 cumulative IPC: 0.0777047 (Simulation time: 0 hr 10 min 20 sec) 
select_counter is 191
Heartbeat CPU 0 instructions: 18000000 cycles: 107157922 heartbeat IPC: 0.0828202 cumulative IPC: 0.0783093 (Simulation time: 0 hr 11 min 2 sec) 
select_counter is 82
Heartbeat CPU 0 instructions: 19000001 cycles: 119905006 heartbeat IPC: 0.0784494 cumulative IPC: 0.0783249 (Simulation time: 0 hr 11 min 44 sec) 
select_counter is 90
Heartbeat CPU 0 instructions: 20000000 cycles: 132184703 heartbeat IPC: 0.0814352 cumulative IPC: 0.0786252 (Simulation time: 0 hr 12 min 24 sec) 
select_counter is 94
Heartbeat CPU 0 instructions: 21000000 cycles: 144324490 heartbeat IPC: 0.0823738 cumulative IPC: 0.0789518 (Simulation time: 0 hr 13 min 8 sec) 
select_counter is 128
Heartbeat CPU 0 instructions: 22000002 cycles: 156835264 heartbeat IPC: 0.0799313 cumulative IPC: 0.0790325 (Simulation time: 0 hr 13 min 56 sec) 
select_counter is 145
Heartbeat CPU 0 instructions: 23000002 cycles: 170183631 heartbeat IPC: 0.0749155 cumulative IPC: 0.0786998 (Simulation time: 0 hr 14 min 45 sec) 
select_counter is 88
Heartbeat CPU 0 instructions: 24000000 cycles: 187242965 heartbeat IPC: 0.0586188 cumulative IPC: 0.0768201 (Simulation time: 0 hr 15 min 45 sec) 
select_counter is 516
Heartbeat CPU 0 instructions: 25000000 cycles: 199376075 heartbeat IPC: 0.0824191 cumulative IPC: 0.0771696 (Simulation time: 0 hr 16 min 27 sec) 
select_counter is 283
Heartbeat CPU 0 instructions: 26000000 cycles: 208960916 heartbeat IPC: 0.104331 cumulative IPC: 0.078446 (Simulation time: 0 hr 17 min 10 sec) 
select_counter is 257
Heartbeat CPU 0 instructions: 27000002 cycles: 218650400 heartbeat IPC: 0.103205 cumulative IPC: 0.0795689 (Simulation time: 0 hr 17 min 45 sec) 
select_counter is 230
Heartbeat CPU 0 instructions: 28000000 cycles: 234044901 heartbeat IPC: 0.0649581 cumulative IPC: 0.0785869 (Simulation time: 0 hr 18 min 46 sec) 
select_counter is 111
Heartbeat CPU 0 instructions: 29000003 cycles: 243817418 heartbeat IPC: 0.102328 cumulative IPC: 0.0795584 (Simulation time: 0 hr 19 min 27 sec) 
select_counter is 898
Heartbeat CPU 0 instructions: 30000003 cycles: 252303873 heartbeat IPC: 0.117835 cumulative IPC: 0.0808719 (Simulation time: 0 hr 20 min 7 sec) 
select_counter is 805
Heartbeat CPU 0 instructions: 31000003 cycles: 261882231 heartbeat IPC: 0.104402 cumulative IPC: 0.0817492 (Simulation time: 0 hr 20 min 49 sec) 
select_counter is 785
Heartbeat CPU 0 instructions: 32000000 cycles: 277124705 heartbeat IPC: 0.065606 cumulative IPC: 0.080845 (Simulation time: 0 hr 21 min 46 sec) 
select_counter is 487
Heartbeat CPU 0 instructions: 33000000 cycles: 287016089 heartbeat IPC: 0.101098 cumulative IPC: 0.0815553 (Simulation time: 0 hr 22 min 24 sec) 
select_counter is 377
Heartbeat CPU 0 instructions: 34000000 cycles: 297154944 heartbeat IPC: 0.0986305 cumulative IPC: 0.0821479 (Simulation time: 0 hr 23 min 5 sec) 
select_counter is 381
Heartbeat CPU 0 instructions: 35000001 cycles: 307815949 heartbeat IPC: 0.0937999 cumulative IPC: 0.0825581 (Simulation time: 0 hr 23 min 42 sec) 
select_counter is 341
Heartbeat CPU 0 instructions: 36000000 cycles: 323603549 heartbeat IPC: 0.0633408 cumulative IPC: 0.0816059 (Simulation time: 0 hr 24 min 35 sec) 
select_counter is 214
Heartbeat CPU 0 instructions: 37000001 cycles: 334283692 heartbeat IPC: 0.0936318 cumulative IPC: 0.0819959 (Simulation time: 0 hr 25 min 15 sec) 
select_counter is 985
Heartbeat CPU 0 instructions: 38000000 cycles: 344871168 heartbeat IPC: 0.0944511 cumulative IPC: 0.0823839 (Simulation time: 0 hr 25 min 51 sec) 
select_counter is 885
Heartbeat CPU 0 instructions: 39000000 cycles: 353720118 heartbeat IPC: 0.113008 cumulative IPC: 0.083161 (Simulation time: 0 hr 26 min 25 sec) 
select_counter is 883
Heartbeat CPU 0 instructions: 40000000 cycles: 368885992 heartbeat IPC: 0.0659375 cumulative IPC: 0.0824432 (Simulation time: 0 hr 27 min 23 sec) 
select_counter is 656
Heartbeat CPU 0 instructions: 41000003 cycles: 380182602 heartbeat IPC: 0.0885224 cumulative IPC: 0.0826262 (Simulation time: 0 hr 28 min 9 sec) 
select_counter is 357
Heartbeat CPU 0 instructions: 42000000 cycles: 389143623 heartbeat IPC: 0.111594 cumulative IPC: 0.083302 (Simulation time: 0 hr 28 min 43 sec) 
select_counter is 295
Heartbeat CPU 0 instructions: 43000001 cycles: 400915849 heartbeat IPC: 0.0849458 cumulative IPC: 0.0833508 (Simulation time: 0 hr 29 min 24 sec) 
select_counter is 121
Heartbeat CPU 0 instructions: 44000000 cycles: 413419338 heartbeat IPC: 0.0799776 cumulative IPC: 0.0832476 (Simulation time: 0 hr 30 min 10 sec) 
select_counter is 870
Heartbeat CPU 0 instructions: 45000000 cycles: 421045418 heartbeat IPC: 0.131129 cumulative IPC: 0.0841252 (Simulation time: 0 hr 30 min 46 sec) 
select_counter is 793
Heartbeat CPU 0 instructions: 46000002 cycles: 432220978 heartbeat IPC: 0.0894812 cumulative IPC: 0.0842653 (Simulation time: 0 hr 31 min 26 sec) 
select_counter is 604
Heartbeat CPU 0 instructions: 47000002 cycles: 445234665 heartbeat IPC: 0.0768422 cumulative IPC: 0.0840459 (Simulation time: 0 hr 32 min 15 sec) 
select_counter is 345
Heartbeat CPU 0 instructions: 48000000 cycles: 453215412 heartbeat IPC: 0.125301 cumulative IPC: 0.0847805 (Simulation time: 0 hr 32 min 53 sec) 
select_counter is 324
Heartbeat CPU 0 instructions: 49000003 cycles: 464336244 heartbeat IPC: 0.0899216 cumulative IPC: 0.0849049 (Simulation time: 0 hr 33 min 42 sec) 
select_counter is 187
Heartbeat CPU 0 instructions: 50000000 cycles: 477090692 heartbeat IPC: 0.0784038 cumulative IPC: 0.0847293 (Simulation time: 0 hr 34 min 31 sec) 
select_counter is 26
Heartbeat CPU 0 instructions: 51000000 cycles: 484587540 heartbeat IPC: 0.133389 cumulative IPC: 0.0854899 (Simulation time: 0 hr 35 min 7 sec) 
select_counter is 982
Heartbeat CPU 0 instructions: 52000000 cycles: 495032138 heartbeat IPC: 0.0957433 cumulative IPC: 0.0857085 (Simulation time: 0 hr 35 min 46 sec) 
select_counter is 866
Heartbeat CPU 0 instructions: 53000000 cycles: 509059964 heartbeat IPC: 0.0712869 cumulative IPC: 0.0853071 (Simulation time: 0 hr 36 min 36 sec) 
select_counter is 565
Heartbeat CPU 0 instructions: 54000000 cycles: 517129161 heartbeat IPC: 0.123928 cumulative IPC: 0.0859157 (Simulation time: 0 hr 37 min 6 sec) 
select_counter is 487
Heartbeat CPU 0 instructions: 55000000 cycles: 526434260 heartbeat IPC: 0.107468 cumulative IPC: 0.0863003 (Simulation time: 0 hr 37 min 39 sec) 
select_counter is 462
Heartbeat CPU 0 instructions: 56000000 cycles: 541148222 heartbeat IPC: 0.0679627 cumulative IPC: 0.085797 (Simulation time: 0 hr 38 min 35 sec) 
select_counter is 195
Heartbeat CPU 0 instructions: 57000001 cycles: 548743524 heartbeat IPC: 0.13166 cumulative IPC: 0.0864377 (Simulation time: 0 hr 39 min 11 sec) 
select_counter is 95
Heartbeat CPU 0 instructions: 58000001 cycles: 556368926 heartbeat IPC: 0.131141 cumulative IPC: 0.0870559 (Simulation time: 0 hr 39 min 49 sec) 
select_counter is 77
Heartbeat CPU 0 instructions: 59000000 cycles: 572242812 heartbeat IPC: 0.0629965 cumulative IPC: 0.0863826 (Simulation time: 0 hr 40 min 38 sec) 
select_counter is 798
Heartbeat CPU 0 instructions: 60000000 cycles: 580165068 heartbeat IPC: 0.126227 cumulative IPC: 0.0869314 (Simulation time: 0 hr 41 min 7 sec) 
select_counter is 750
Heartbeat CPU 0 instructions: 61000000 cycles: 588401420 heartbeat IPC: 0.121413 cumulative IPC: 0.0874182 (Simulation time: 0 hr 41 min 38 sec) 
select_counter is 726
Heartbeat CPU 0 instructions: 62000001 cycles: 601382935 heartbeat IPC: 0.0770327 cumulative IPC: 0.0871922 (Simulation time: 0 hr 42 min 18 sec) 
select_counter is 599
Heartbeat CPU 0 instructions: 63000001 cycles: 612563917 heartbeat IPC: 0.0894376 cumulative IPC: 0.0872335 (Simulation time: 0 hr 42 min 55 sec) 
select_counter is 334
Heartbeat CPU 0 instructions: 64000000 cycles: 620114046 heartbeat IPC: 0.132448 cumulative IPC: 0.0877885 (Simulation time: 0 hr 43 min 21 sec) 
select_counter is 296
Heartbeat CPU 0 instructions: 65000000 cycles: 628533854 heartbeat IPC: 0.118768 cumulative IPC: 0.0882068 (Simulation time: 0 hr 43 min 50 sec) 
select_counter is 283
Heartbeat CPU 0 instructions: 66000000 cycles: 643466208 heartbeat IPC: 0.0669687 cumulative IPC: 0.0877101 (Simulation time: 0 hr 44 min 29 sec) 
select_counter is 937
Heartbeat CPU 0 instructions: 67000002 cycles: 650647535 heartbeat IPC: 0.13925 cumulative IPC: 0.0882833 (Simulation time: 0 hr 44 min 54 sec) 
select_counter is 883
Heartbeat CPU 0 instructions: 68000000 cycles: 657789371 heartbeat IPC: 0.14002 cumulative IPC: 0.0888494 (Simulation time: 0 hr 45 min 17 sec) 
select_counter is 858
Heartbeat CPU 0 instructions: 69000000 cycles: 671321337 heartbeat IPC: 0.0738991 cumulative IPC: 0.0885457 (Simulation time: 0 hr 45 min 47 sec) 
select_counter is 648
Heartbeat CPU 0 instructions: 70000000 cycles: 681462865 heartbeat IPC: 0.0986045 cumulative IPC: 0.0886965 (Simulation time: 0 hr 46 min 10 sec) 
select_counter is 492
Heartbeat CPU 0 instructions: 71000002 cycles: 688788526 heartbeat IPC: 0.136507 cumulative IPC: 0.0892087 (Simulation time: 0 hr 46 min 31 sec) 
select_counter is 453
Heartbeat CPU 0 instructions: 72000000 cycles: 697747580 heartbeat IPC: 0.111619 cumulative IPC: 0.0894986 (Simulation time: 0 hr 46 min 52 sec) 
select_counter is 480
Heartbeat CPU 0 instructions: 73000000 cycles: 712224641 heartbeat IPC: 0.0690748 cumulative IPC: 0.0890805 (Simulation time: 0 hr 47 min 18 sec) 
select_counter is 121
Heartbeat CPU 0 instructions: 74000000 cycles: 719656065 heartbeat IPC: 0.134564 cumulative IPC: 0.0895534 (Simulation time: 0 hr 47 min 35 sec) 
select_counter is 58
Heartbeat CPU 0 instructions: 75000001 cycles: 727290191 heartbeat IPC: 0.130991 cumulative IPC: 0.0899914 (Simulation time: 0 hr 47 min 50 sec) 
select_counter is 1019
Heartbeat CPU 0 instructions: 76000000 cycles: 740031200 heartbeat IPC: 0.0784866 cumulative IPC: 0.089792 (Simulation time: 0 hr 48 min 11 sec) 
select_counter is 856
Heartbeat CPU 0 instructions: 77000000 cycles: 751704847 heartbeat IPC: 0.085663 cumulative IPC: 0.0897274 (Simulation time: 0 hr 48 min 31 sec) 
select_counter is 655
Heartbeat CPU 0 instructions: 78000000 cycles: 760280341 heartbeat IPC: 0.116611 cumulative IPC: 0.0900327 (Simulation time: 0 hr 48 min 49 sec) 
select_counter is 619
Heartbeat CPU 0 instructions: 79000003 cycles: 768936089 heartbeat IPC: 0.115531 cumulative IPC: 0.0903216 (Simulation time: 0 hr 49 min 4 sec) 
select_counter is 558
Heartbeat CPU 0 instructions: 80000000 cycles: 784474814 heartbeat IPC: 0.0643551 cumulative IPC: 0.0898039 (Simulation time: 0 hr 49 min 25 sec) 
select_counter is 263
Heartbeat CPU 0 instructions: 81000001 cycles: 793130445 heartbeat IPC: 0.115532 cumulative IPC: 0.0900865 (Simulation time: 0 hr 49 min 38 sec) 
select_counter is 205
Heartbeat CPU 0 instructions: 82000001 cycles: 801841689 heartbeat IPC: 0.114794 cumulative IPC: 0.0903566 (Simulation time: 0 hr 49 min 50 sec) 
select_counter is 164
Heartbeat CPU 0 instructions: 83000001 cycles: 815187603 heartbeat IPC: 0.0749293 cumulative IPC: 0.0901025 (Simulation time: 0 hr 50 min 3 sec) 
select_counter is 956
Heartbeat CPU 0 instructions: 84000000 cycles: 827356142 heartbeat IPC: 0.0821791 cumulative IPC: 0.0899852 (Simulation time: 0 hr 50 min 13 sec) 
select_counter is 740
Heartbeat CPU 0 instructions: 85000000 cycles: 835205443 heartbeat IPC: 0.1274 cumulative IPC: 0.090339 (Simulation time: 0 hr 50 min 21 sec) 
select_counter is 719
Heartbeat CPU 0 instructions: 86000000 cycles: 844164267 heartbeat IPC: 0.111622 cumulative IPC: 0.0905662 (Simulation time: 0 hr 50 min 27 sec) 
select_counter is 663
Heartbeat CPU 0 instructions: 87000000 cycles: 859435795 heartbeat IPC: 0.0654813 cumulative IPC: 0.0901178 (Simulation time: 0 hr 50 min 37 sec) 
select_counter is 388
Heartbeat CPU 0 instructions: 88000000 cycles: 867883242 heartbeat IPC: 0.118379 cumulative IPC: 0.0903945 (Simulation time: 0 hr 50 min 42 sec) 
select_counter is 325
Heartbeat CPU 0 instructions: 89000000 cycles: 876527510 heartbeat IPC: 0.115684 cumulative IPC: 0.0906453 (Simulation time: 0 hr 50 min 47 sec) 
select_counter is 358
Heartbeat CPU 0 instructions: 90000002 cycles: 890666502 heartbeat IPC: 0.0707265 cumulative IPC: 0.0903274 (Simulation time: 0 hr 50 min 54 sec) 
select_counter is 146
Heartbeat CPU 0 instructions: 91000000 cycles: 900688414 heartbeat IPC: 0.0997812 cumulative IPC: 0.0904331 (Simulation time: 0 hr 50 min 59 sec) 
select_counter is 809
Heartbeat CPU 0 instructions: 92000000 cycles: 908870689 heartbeat IPC: 0.122215 cumulative IPC: 0.0907208 (Simulation time: 0 hr 51 min 3 sec) 
select_counter is 740
Heartbeat CPU 0 instructions: 93000003 cycles: 920937077 heartbeat IPC: 0.0828751 cumulative IPC: 0.0906175 (Simulation time: 0 hr 51 min 8 sec) 
select_counter is 546
Heartbeat CPU 0 instructions: 94000000 cycles: 933587036 heartbeat IPC: 0.0790514 cumulative IPC: 0.0904599 (Simulation time: 0 hr 51 min 14 sec) 
select_counter is 225
Heartbeat CPU 0 instructions: 95000000 cycles: 942085627 heartbeat IPC: 0.117667 cumulative IPC: 0.0907067 (Simulation time: 0 hr 51 min 18 sec) 
select_counter is 200
Heartbeat CPU 0 instructions: 96000000 cycles: 950968264 heartbeat IPC: 0.112579 cumulative IPC: 0.090912 (Simulation time: 0 hr 51 min 22 sec) 
select_counter is 194
Heartbeat CPU 0 instructions: 97000003 cycles: 966782505 heartbeat IPC: 0.0632343 cumulative IPC: 0.0904569 (Simulation time: 0 hr 51 min 29 sec) 
select_counter is 778
Heartbeat CPU 0 instructions: 98000002 cycles: 975665043 heartbeat IPC: 0.11258 cumulative IPC: 0.0906594 (Simulation time: 0 hr 51 min 33 sec) 
select_counter is 620
Heartbeat CPU 0 instructions: 99000000 cycles: 984530308 heartbeat IPC: 0.1128 cumulative IPC: 0.0908598 (Simulation time: 0 hr 51 min 37 sec) 
select_counter is 581
Heartbeat CPU 0 instructions: 100000000 cycles: 998706448 heartbeat IPC: 0.0705411 cumulative IPC: 0.0905699 (Simulation time: 0 hr 51 min 43 sec) 
select_counter is 350
Heartbeat CPU 0 instructions: 101000000 cycles: 1010217475 heartbeat IPC: 0.0868732 cumulative IPC: 0.0905276 (Simulation time: 0 hr 51 min 48 sec) 
select_counter is 1017
Heartbeat CPU 0 instructions: 102000000 cycles: 1019440761 heartbeat IPC: 0.108421 cumulative IPC: 0.0906903 (Simulation time: 0 hr 51 min 52 sec) 
select_counter is 921
Heartbeat CPU 0 instructions: 103000001 cycles: 1028260239 heartbeat IPC: 0.113386 cumulative IPC: 0.0908859 (Simulation time: 0 hr 51 min 57 sec) 
select_counter is 922
Heartbeat CPU 0 instructions: 104000000 cycles: 1044684504 heartbeat IPC: 0.0608855 cumulative IPC: 0.090412 (Simulation time: 0 hr 52 min 3 sec) 
select_counter is 481
Heartbeat CPU 0 instructions: 105000000 cycles: 1055400605 heartbeat IPC: 0.0933175 cumulative IPC: 0.0904416 (Simulation time: 0 hr 52 min 8 sec) 
select_counter is 178
Heartbeat CPU 0 instructions: 106000000 cycles: 1064884073 heartbeat IPC: 0.105447 cumulative IPC: 0.0905759 (Simulation time: 0 hr 52 min 12 sec) 
select_counter is 131
Heartbeat CPU 0 instructions: 107000000 cycles: 1076546078 heartbeat IPC: 0.0857485 cumulative IPC: 0.0905233 (Simulation time: 0 hr 52 min 17 sec) 
select_counter is 34
Heartbeat CPU 0 instructions: 108000000 cycles: 1091570493 heartbeat IPC: 0.0665583 cumulative IPC: 0.0901919 (Simulation time: 0 hr 52 min 23 sec) 
select_counter is 762
Heartbeat CPU 0 instructions: 109000001 cycles: 1101192149 heartbeat IPC: 0.103932 cumulative IPC: 0.0903125 (Simulation time: 0 hr 52 min 27 sec) 
select_counter is 561
Heartbeat CPU 0 instructions: 110000000 cycles: 1111403207 heartbeat IPC: 0.0979329 cumulative IPC: 0.0903829 (Simulation time: 0 hr 52 min 32 sec) 
select_counter is 481
Finished CPU 0 instructions: 100000002 cycles: 1106404210 cummulative IPC: 0.0903829 (Simulation time: 0 hr 52 min 32 sec) 

ChampSim completed all CPUs

Region of Interest Statistics

CPU 0 cummulative IPC: 0.0903829 instructions: 100000002 cycles: 1106404210
LLC TOTAL     ACCESS:   12167942  HIT:    5693436  MISS:    6474506
LLC LOAD      ACCESS:   10389063  HIT:    4531225  MISS:    5857838
LLC RFO       ACCESS:     150313  HIT:      86359  MISS:      63954
LLC PREFETCH  ACCESS:          0  HIT:          0  MISS:          0
LLC WRITEBACK ACCESS:    1628566  HIT:    1075852  MISS:     552714
Ship samples: 
10, 46, 82, 121, 146, 191, 203, 232, 278, 314, 351, 372, 384, 432, 454, 505, 531, 565, 588, 639, 655, 672, 718, 756, 774, 822, 839, 878, 911, 957, 976, 999, 1026, 1083, 1094, 1127, 1172, 1197, 1219, 1258, 1290, 1327, 1351, 1407, 1414, 1465, 1488, 1522, 1560, 1569, 1601, 1660, 1665, 1717, 1739, 1774, 1792, 1831, 1883, 1919, 1924, 1975, 2009, 2022, 
Lime duel samples: 
17, 42, 69, 100, 138, 190, 217, 233, 280, 299, 326, 379, 395, 446, 456, 489, 528, 552, 581, 623, 653, 696, 721, 747, 779, 809, 838, 870, 909, 936, 962, 1011, 1052, 1079, 1103, 1139, 1182, 1208, 1247, 1249, 1289, 1313, 1362, 1406, 1431, 1469, 1494, 1505, 1554, 1582, 1630, 1640, 1685, 1705, 1732, 1791, 1813, 1853, 1864, 1895, 1921, 1976, 2004, 2026, 
Lime samples: 
17, 100, 217, 299, 395, 489, 581, 696, 779, 870, 962, 1079, 1182, 1249, 1362, 1469, 1554, 1640, 1732, 1853, 1921, 
Insertion Distribution: 
	LOAD 159372 0 0 0 0 0 67171 3314625 
	RFO 2944 0 0 0 0 0 3252 26070 
	PREF 0 0 0 0 0 0 0 0 
	WRITEBACK 0 0 0 0 0 0 0 300736 
Total Prefetch Downgrades: 0
