
*** ChampSim Multicore Out-of-Order Simulator ***

Warmup Instructions: 10000000
Simulation Instructions: 100000000
Configuration: 1
Number of CPUs: 1
LLC sets: 2048
LLC ways: 16
Off-chip DRAM Channels: 1 Width: 64-bit Data Rate: 1600 MT/s

CPU 0 runs /datasets/cs240c-wi22-a00-public/data/Assignment2-gz/zeusmp_300B.trace.gz
Heartbeat CPU 0 instructions: 1000003 cycles: 508391 heartbeat IPC: 1.967 cumulative IPC: 1.967 (Simulation time: 0 hr 0 min 20 sec) 
select_counter is 518
Heartbeat CPU 0 instructions: 2000003 cycles: 1059161 heartbeat IPC: 1.81564 cumulative IPC: 1.88829 (Simulation time: 0 hr 0 min 46 sec) 
select_counter is 484
Heartbeat CPU 0 instructions: 3000002 cycles: 1602081 heartbeat IPC: 1.84189 cumulative IPC: 1.87257 (Simulation time: 0 hr 1 min 8 sec) 
select_counter is 503
Heartbeat CPU 0 instructions: 4000000 cycles: 2087846 heartbeat IPC: 2.0586 cumulative IPC: 1.91585 (Simulation time: 0 hr 1 min 33 sec) 
select_counter is 502
Heartbeat CPU 0 instructions: 5000001 cycles: 2571024 heartbeat IPC: 2.06963 cumulative IPC: 1.94475 (Simulation time: 0 hr 1 min 56 sec) 
select_counter is 503
Heartbeat CPU 0 instructions: 6000000 cycles: 3056831 heartbeat IPC: 2.05843 cumulative IPC: 1.96282 (Simulation time: 0 hr 2 min 17 sec) 
select_counter is 493
Heartbeat CPU 0 instructions: 7000001 cycles: 3583711 heartbeat IPC: 1.89797 cumulative IPC: 1.95328 (Simulation time: 0 hr 2 min 41 sec) 
select_counter is 497
Heartbeat CPU 0 instructions: 8000000 cycles: 4135929 heartbeat IPC: 1.81088 cumulative IPC: 1.93427 (Simulation time: 0 hr 3 min 4 sec) 
select_counter is 493
Heartbeat CPU 0 instructions: 9000000 cycles: 4662656 heartbeat IPC: 1.89852 cumulative IPC: 1.93023 (Simulation time: 0 hr 3 min 25 sec) 
select_counter is 495
Heartbeat CPU 0 instructions: 10000002 cycles: 5147805 heartbeat IPC: 2.06123 cumulative IPC: 1.94258 (Simulation time: 0 hr 3 min 48 sec) 
select_counter is 507

Warmup complete CPU 0 instructions: 10000002 cycles: 5147805 (Simulation time: 0 hr 3 min 48 sec) 

Heartbeat CPU 0 instructions: 11000003 cycles: 6022387 heartbeat IPC: 1.1434 cumulative IPC: 1.1434 (Simulation time: 0 hr 4 min 11 sec) 
select_counter is 539
Heartbeat CPU 0 instructions: 12000000 cycles: 6904104 heartbeat IPC: 1.13415 cumulative IPC: 1.13876 (Simulation time: 0 hr 4 min 35 sec) 
select_counter is 575
Heartbeat CPU 0 instructions: 13000000 cycles: 7898094 heartbeat IPC: 1.00605 cumulative IPC: 1.09079 (Simulation time: 0 hr 4 min 59 sec) 
select_counter is 605
Heartbeat CPU 0 instructions: 14000000 cycles: 8922423 heartbeat IPC: 0.976249 cumulative IPC: 1.05971 (Simulation time: 0 hr 5 min 25 sec) 
select_counter is 608
Heartbeat CPU 0 instructions: 15000002 cycles: 9841612 heartbeat IPC: 1.08792 cumulative IPC: 1.06523 (Simulation time: 0 hr 5 min 50 sec) 
select_counter is 618
Heartbeat CPU 0 instructions: 16000000 cycles: 10711270 heartbeat IPC: 1.14988 cumulative IPC: 1.07846 (Simulation time: 0 hr 6 min 16 sec) 
select_counter is 640
Heartbeat CPU 0 instructions: 17000002 cycles: 11584812 heartbeat IPC: 1.14477 cumulative IPC: 1.08746 (Simulation time: 0 hr 6 min 37 sec) 
select_counter is 688
Heartbeat CPU 0 instructions: 18000000 cycles: 12467184 heartbeat IPC: 1.13331 cumulative IPC: 1.09299 (Simulation time: 0 hr 7 min 4 sec) 
select_counter is 713
Heartbeat CPU 0 instructions: 19000003 cycles: 13490321 heartbeat IPC: 0.977389 cumulative IPC: 1.07881 (Simulation time: 0 hr 7 min 28 sec) 
select_counter is 734
Heartbeat CPU 0 instructions: 20000000 cycles: 14512444 heartbeat IPC: 0.978353 cumulative IPC: 1.06785 (Simulation time: 0 hr 7 min 50 sec) 
select_counter is 732
Heartbeat CPU 0 instructions: 21000001 cycles: 15387905 heartbeat IPC: 1.14226 cumulative IPC: 1.07421 (Simulation time: 0 hr 8 min 15 sec) 
select_counter is 738
Heartbeat CPU 0 instructions: 22000000 cycles: 16252756 heartbeat IPC: 1.15627 cumulative IPC: 1.0806 (Simulation time: 0 hr 8 min 36 sec) 
select_counter is 757
Heartbeat CPU 0 instructions: 23000001 cycles: 17120562 heartbeat IPC: 1.15233 cumulative IPC: 1.0858 (Simulation time: 0 hr 9 min 0 sec) 
select_counter is 802
Heartbeat CPU 0 instructions: 24000000 cycles: 18037551 heartbeat IPC: 1.09052 cumulative IPC: 1.08613 (Simulation time: 0 hr 9 min 20 sec) 
select_counter is 821
Heartbeat CPU 0 instructions: 25000000 cycles: 19058457 heartbeat IPC: 0.979522 cumulative IPC: 1.07831 (Simulation time: 0 hr 9 min 44 sec) 
select_counter is 837
Heartbeat CPU 0 instructions: 26000003 cycles: 20055039 heartbeat IPC: 1.00343 cumulative IPC: 1.0733 (Simulation time: 0 hr 10 min 7 sec) 
select_counter is 834
Heartbeat CPU 0 instructions: 27000002 cycles: 20916244 heartbeat IPC: 1.16116 cumulative IPC: 1.0781 (Simulation time: 0 hr 10 min 28 sec) 
select_counter is 840
Heartbeat CPU 0 instructions: 28000000 cycles: 21781651 heartbeat IPC: 1.15552 cumulative IPC: 1.08213 (Simulation time: 0 hr 10 min 50 sec) 
select_counter is 860
Heartbeat CPU 0 instructions: 29000003 cycles: 22644232 heartbeat IPC: 1.15931 cumulative IPC: 1.08594 (Simulation time: 0 hr 11 min 12 sec) 
select_counter is 876
Heartbeat CPU 0 instructions: 30000002 cycles: 23592071 heartbeat IPC: 1.05503 cumulative IPC: 1.08435 (Simulation time: 0 hr 11 min 32 sec) 
select_counter is 922
Heartbeat CPU 0 instructions: 31000001 cycles: 24616334 heartbeat IPC: 0.976311 cumulative IPC: 1.07866 (Simulation time: 0 hr 11 min 56 sec) 
select_counter is 917
Heartbeat CPU 0 instructions: 32000000 cycles: 25584892 heartbeat IPC: 1.03246 cumulative IPC: 1.07647 (Simulation time: 0 hr 12 min 18 sec) 
select_counter is 914
Heartbeat CPU 0 instructions: 33000000 cycles: 26446746 heartbeat IPC: 1.16029 cumulative IPC: 1.07987 (Simulation time: 0 hr 12 min 42 sec) 
select_counter is 938
Heartbeat CPU 0 instructions: 34000000 cycles: 27318667 heartbeat IPC: 1.14689 cumulative IPC: 1.0825 (Simulation time: 0 hr 13 min 4 sec) 
select_counter is 975
Heartbeat CPU 0 instructions: 35000000 cycles: 28182298 heartbeat IPC: 1.1579 cumulative IPC: 1.08533 (Simulation time: 0 hr 13 min 26 sec) 
select_counter is 1004
Heartbeat CPU 0 instructions: 36000000 cycles: 29163320 heartbeat IPC: 1.01935 cumulative IPC: 1.08263 (Simulation time: 0 hr 13 min 46 sec) 
select_counter is 1021
Heartbeat CPU 0 instructions: 37000003 cycles: 30186637 heartbeat IPC: 0.977217 cumulative IPC: 1.07833 (Simulation time: 0 hr 14 min 6 sec) 
select_counter is 1004
Heartbeat CPU 0 instructions: 38000001 cycles: 31123813 heartbeat IPC: 1.06703 cumulative IPC: 1.07792 (Simulation time: 0 hr 14 min 26 sec) 
select_counter is 979
Heartbeat CPU 0 instructions: 39000002 cycles: 31990521 heartbeat IPC: 1.15379 cumulative IPC: 1.08037 (Simulation time: 0 hr 14 min 49 sec) 
select_counter is 996
Heartbeat CPU 0 instructions: 40000000 cycles: 32865630 heartbeat IPC: 1.14271 cumulative IPC: 1.08234 (Simulation time: 0 hr 15 min 10 sec) 
select_counter is 1021
Heartbeat CPU 0 instructions: 41000001 cycles: 33739764 heartbeat IPC: 1.14399 cumulative IPC: 1.08422 (Simulation time: 0 hr 15 min 35 sec) 
select_counter is 1020
Heartbeat CPU 0 instructions: 42000002 cycles: 34763888 heartbeat IPC: 0.976445 cumulative IPC: 1.08049 (Simulation time: 0 hr 16 min 6 sec) 
select_counter is 1021
Heartbeat CPU 0 instructions: 43000003 cycles: 35784493 heartbeat IPC: 0.979812 cumulative IPC: 1.07714 (Simulation time: 0 hr 16 min 32 sec) 
select_counter is 1009
Heartbeat CPU 0 instructions: 44000000 cycles: 36684280 heartbeat IPC: 1.11137 cumulative IPC: 1.07812 (Simulation time: 0 hr 16 min 55 sec) 
select_counter is 1002
Heartbeat CPU 0 instructions: 45000002 cycles: 37552573 heartbeat IPC: 1.15169 cumulative IPC: 1.08009 (Simulation time: 0 hr 17 min 17 sec) 
select_counter is 1002
Heartbeat CPU 0 instructions: 46000002 cycles: 38423234 heartbeat IPC: 1.14855 cumulative IPC: 1.08188 (Simulation time: 0 hr 17 min 41 sec) 
select_counter is 1007
Heartbeat CPU 0 instructions: 47000001 cycles: 39329804 heartbeat IPC: 1.10306 cumulative IPC: 1.08244 (Simulation time: 0 hr 18 min 3 sec) 
select_counter is 1021
Heartbeat CPU 0 instructions: 48000000 cycles: 40349801 heartbeat IPC: 0.980394 cumulative IPC: 1.07948 (Simulation time: 0 hr 18 min 25 sec) 
select_counter is 1020
Heartbeat CPU 0 instructions: 49000003 cycles: 41362582 heartbeat IPC: 0.987383 cumulative IPC: 1.07691 (Simulation time: 0 hr 18 min 48 sec) 
select_counter is 1011
Heartbeat CPU 0 instructions: 50000001 cycles: 42221266 heartbeat IPC: 1.16457 cumulative IPC: 1.07894 (Simulation time: 0 hr 19 min 10 sec) 
select_counter is 1021
Heartbeat CPU 0 instructions: 51000002 cycles: 43086116 heartbeat IPC: 1.15627 cumulative IPC: 1.0807 (Simulation time: 0 hr 19 min 32 sec) 
select_counter is 1023
Heartbeat CPU 0 instructions: 52000000 cycles: 43963637 heartbeat IPC: 1.13957 cumulative IPC: 1.08203 (Simulation time: 0 hr 19 min 54 sec) 
select_counter is 1023
Heartbeat CPU 0 instructions: 53000000 cycles: 44905202 heartbeat IPC: 1.06206 cumulative IPC: 1.08156 (Simulation time: 0 hr 20 min 16 sec) 
select_counter is 1018
Heartbeat CPU 0 instructions: 54000002 cycles: 45927020 heartbeat IPC: 0.97865 cumulative IPC: 1.07898 (Simulation time: 0 hr 20 min 38 sec) 
select_counter is 1017
Heartbeat CPU 0 instructions: 55000001 cycles: 46904587 heartbeat IPC: 1.02295 cumulative IPC: 1.07767 (Simulation time: 0 hr 20 min 59 sec) 
select_counter is 1021
Heartbeat CPU 0 instructions: 56000000 cycles: 47771280 heartbeat IPC: 1.15381 cumulative IPC: 1.07922 (Simulation time: 0 hr 21 min 24 sec) 
select_counter is 1017
Heartbeat CPU 0 instructions: 57000000 cycles: 48645135 heartbeat IPC: 1.14435 cumulative IPC: 1.08053 (Simulation time: 0 hr 21 min 45 sec) 
select_counter is 1004
Heartbeat CPU 0 instructions: 58000000 cycles: 49522909 heartbeat IPC: 1.13925 cumulative IPC: 1.08169 (Simulation time: 0 hr 22 min 7 sec) 
select_counter is 1001
Heartbeat CPU 0 instructions: 59000003 cycles: 50491221 heartbeat IPC: 1.03273 cumulative IPC: 1.08064 (Simulation time: 0 hr 22 min 30 sec) 
select_counter is 979
Heartbeat CPU 0 instructions: 60000000 cycles: 51512187 heartbeat IPC: 0.979462 cumulative IPC: 1.07841 (Simulation time: 0 hr 22 min 52 sec) 
select_counter is 972
Heartbeat CPU 0 instructions: 61000000 cycles: 52455886 heartbeat IPC: 1.05966 cumulative IPC: 1.07804 (Simulation time: 0 hr 23 min 12 sec) 
select_counter is 947
Heartbeat CPU 0 instructions: 62000002 cycles: 53325110 heartbeat IPC: 1.15045 cumulative IPC: 1.07935 (Simulation time: 0 hr 23 min 33 sec) 
select_counter is 935
Heartbeat CPU 0 instructions: 63000003 cycles: 54197824 heartbeat IPC: 1.14585 cumulative IPC: 1.08053 (Simulation time: 0 hr 23 min 54 sec) 
select_counter is 926
Heartbeat CPU 0 instructions: 64000000 cycles: 55069560 heartbeat IPC: 1.14713 cumulative IPC: 1.08169 (Simulation time: 0 hr 24 min 18 sec) 
select_counter is 914
Heartbeat CPU 0 instructions: 65000003 cycles: 56074096 heartbeat IPC: 0.995487 cumulative IPC: 1.07999 (Simulation time: 0 hr 24 min 44 sec) 
select_counter is 926
Heartbeat CPU 0 instructions: 66000003 cycles: 57092863 heartbeat IPC: 0.981579 cumulative IPC: 1.07806 (Simulation time: 0 hr 25 min 8 sec) 
select_counter is 926
Heartbeat CPU 0 instructions: 67000002 cycles: 58006694 heartbeat IPC: 1.09429 cumulative IPC: 1.07834 (Simulation time: 0 hr 25 min 28 sec) 
select_counter is 932
Heartbeat CPU 0 instructions: 68000000 cycles: 58886861 heartbeat IPC: 1.13615 cumulative IPC: 1.07929 (Simulation time: 0 hr 25 min 50 sec) 
select_counter is 928
Heartbeat CPU 0 instructions: 69000000 cycles: 59772985 heartbeat IPC: 1.12851 cumulative IPC: 1.08009 (Simulation time: 0 hr 26 min 16 sec) 
select_counter is 914
Heartbeat CPU 0 instructions: 70000001 cycles: 60678260 heartbeat IPC: 1.10464 cumulative IPC: 1.08049 (Simulation time: 0 hr 26 min 38 sec) 
select_counter is 904
Heartbeat CPU 0 instructions: 71000001 cycles: 61693530 heartbeat IPC: 0.98496 cumulative IPC: 1.07877 (Simulation time: 0 hr 26 min 59 sec) 
select_counter is 893
Heartbeat CPU 0 instructions: 72000000 cycles: 62713265 heartbeat IPC: 0.980646 cumulative IPC: 1.07703 (Simulation time: 0 hr 27 min 24 sec) 
select_counter is 894
Heartbeat CPU 0 instructions: 73000003 cycles: 63587068 heartbeat IPC: 1.14443 cumulative IPC: 1.07804 (Simulation time: 0 hr 27 min 47 sec) 
select_counter is 908
Heartbeat CPU 0 instructions: 74000001 cycles: 64456564 heartbeat IPC: 1.15009 cumulative IPC: 1.0791 (Simulation time: 0 hr 28 min 9 sec) 
select_counter is 908
Heartbeat CPU 0 instructions: 75000003 cycles: 65330331 heartbeat IPC: 1.14447 cumulative IPC: 1.08005 (Simulation time: 0 hr 28 min 32 sec) 
select_counter is 903
Heartbeat CPU 0 instructions: 76000000 cycles: 66253691 heartbeat IPC: 1.083 cumulative IPC: 1.08009 (Simulation time: 0 hr 28 min 54 sec) 
select_counter is 877
Heartbeat CPU 0 instructions: 77000003 cycles: 67274244 heartbeat IPC: 0.979864 cumulative IPC: 1.07845 (Simulation time: 0 hr 29 min 17 sec) 
select_counter is 865
Heartbeat CPU 0 instructions: 78000003 cycles: 68261146 heartbeat IPC: 1.01327 cumulative IPC: 1.07743 (Simulation time: 0 hr 29 min 37 sec) 
select_counter is 878
Heartbeat CPU 0 instructions: 79000001 cycles: 69139207 heartbeat IPC: 1.13887 cumulative IPC: 1.07827 (Simulation time: 0 hr 30 min 3 sec) 
select_counter is 863
Heartbeat CPU 0 instructions: 80000000 cycles: 70023902 heartbeat IPC: 1.13033 cumulative IPC: 1.07898 (Simulation time: 0 hr 30 min 25 sec) 
select_counter is 830
Heartbeat CPU 0 instructions: 81000000 cycles: 70909291 heartbeat IPC: 1.12945 cumulative IPC: 1.07966 (Simulation time: 0 hr 30 min 45 sec) 
select_counter is 816
Heartbeat CPU 0 instructions: 82000002 cycles: 71877717 heartbeat IPC: 1.03261 cumulative IPC: 1.07898 (Simulation time: 0 hr 31 min 9 sec) 
select_counter is 823
Heartbeat CPU 0 instructions: 83000001 cycles: 72897505 heartbeat IPC: 0.980595 cumulative IPC: 1.0775 (Simulation time: 0 hr 31 min 32 sec) 
select_counter is 836
Heartbeat CPU 0 instructions: 84000000 cycles: 73850096 heartbeat IPC: 1.04977 cumulative IPC: 1.07711 (Simulation time: 0 hr 31 min 53 sec) 
select_counter is 841
Heartbeat CPU 0 instructions: 85000001 cycles: 74719650 heartbeat IPC: 1.15002 cumulative IPC: 1.07802 (Simulation time: 0 hr 32 min 14 sec) 
select_counter is 861
Heartbeat CPU 0 instructions: 86000002 cycles: 75594577 heartbeat IPC: 1.14295 cumulative IPC: 1.07883 (Simulation time: 0 hr 32 min 37 sec) 
select_counter is 858
Heartbeat CPU 0 instructions: 87000000 cycles: 76469158 heartbeat IPC: 1.1434 cumulative IPC: 1.07962 (Simulation time: 0 hr 32 min 59 sec) 
select_counter is 859
Heartbeat CPU 0 instructions: 88000000 cycles: 77464475 heartbeat IPC: 1.00471 cumulative IPC: 1.07859 (Simulation time: 0 hr 33 min 20 sec) 
select_counter is 835
Heartbeat CPU 0 instructions: 89000000 cycles: 78481369 heartbeat IPC: 0.983387 cumulative IPC: 1.07727 (Simulation time: 0 hr 33 min 41 sec) 
select_counter is 821
Heartbeat CPU 0 instructions: 90000002 cycles: 79407958 heartbeat IPC: 1.07923 cumulative IPC: 1.07729 (Simulation time: 0 hr 34 min 3 sec) 
select_counter is 824
Heartbeat CPU 0 instructions: 91000002 cycles: 80294025 heartbeat IPC: 1.12858 cumulative IPC: 1.0779 (Simulation time: 0 hr 34 min 25 sec) 
select_counter is 807
Heartbeat CPU 0 instructions: 92000000 cycles: 81184025 heartbeat IPC: 1.12359 cumulative IPC: 1.07843 (Simulation time: 0 hr 34 min 46 sec) 
select_counter is 796
Heartbeat CPU 0 instructions: 93000001 cycles: 82067344 heartbeat IPC: 1.13209 cumulative IPC: 1.07905 (Simulation time: 0 hr 35 min 9 sec) 
select_counter is 789
Heartbeat CPU 0 instructions: 94000000 cycles: 83095092 heartbeat IPC: 0.973 cumulative IPC: 1.07765 (Simulation time: 0 hr 35 min 33 sec) 
select_counter is 777
Heartbeat CPU 0 instructions: 95000003 cycles: 84111941 heartbeat IPC: 0.983433 cumulative IPC: 1.07644 (Simulation time: 0 hr 35 min 55 sec) 
select_counter is 770
Heartbeat CPU 0 instructions: 96000000 cycles: 84993964 heartbeat IPC: 1.13375 cumulative IPC: 1.07707 (Simulation time: 0 hr 36 min 14 sec) 
select_counter is 780
Heartbeat CPU 0 instructions: 97000001 cycles: 85863086 heartbeat IPC: 1.15059 cumulative IPC: 1.07786 (Simulation time: 0 hr 36 min 35 sec) 
select_counter is 775
Heartbeat CPU 0 instructions: 98000000 cycles: 86733143 heartbeat IPC: 1.14935 cumulative IPC: 1.07863 (Simulation time: 0 hr 36 min 56 sec) 
select_counter is 789
Heartbeat CPU 0 instructions: 99000001 cycles: 87639907 heartbeat IPC: 1.10282 cumulative IPC: 1.07889 (Simulation time: 0 hr 37 min 16 sec) 
select_counter is 795
Heartbeat CPU 0 instructions: 100000000 cycles: 88659174 heartbeat IPC: 0.981096 cumulative IPC: 1.0777 (Simulation time: 0 hr 37 min 39 sec) 
select_counter is 800
Heartbeat CPU 0 instructions: 101000001 cycles: 89664950 heartbeat IPC: 0.994258 cumulative IPC: 1.0767 (Simulation time: 0 hr 38 min 3 sec) 
select_counter is 789
Heartbeat CPU 0 instructions: 102000003 cycles: 90530412 heartbeat IPC: 1.15545 cumulative IPC: 1.0775 (Simulation time: 0 hr 38 min 29 sec) 
select_counter is 780
Heartbeat CPU 0 instructions: 103000003 cycles: 91397905 heartbeat IPC: 1.15275 cumulative IPC: 1.07826 (Simulation time: 0 hr 38 min 52 sec) 
select_counter is 769
Heartbeat CPU 0 instructions: 104000000 cycles: 92266540 heartbeat IPC: 1.15123 cumulative IPC: 1.07899 (Simulation time: 0 hr 39 min 11 sec) 
select_counter is 729
Heartbeat CPU 0 instructions: 105000001 cycles: 93214853 heartbeat IPC: 1.05451 cumulative IPC: 1.07872 (Simulation time: 0 hr 39 min 33 sec) 
select_counter is 719
Heartbeat CPU 0 instructions: 106000002 cycles: 94226894 heartbeat IPC: 0.988103 cumulative IPC: 1.07769 (Simulation time: 0 hr 39 min 56 sec) 
select_counter is 720
Heartbeat CPU 0 instructions: 107000003 cycles: 95198286 heartbeat IPC: 1.02945 cumulative IPC: 1.07717 (Simulation time: 0 hr 40 min 15 sec) 
select_counter is 718
Heartbeat CPU 0 instructions: 108000000 cycles: 96068375 heartbeat IPC: 1.1493 cumulative IPC: 1.07786 (Simulation time: 0 hr 40 min 34 sec) 
select_counter is 704
Heartbeat CPU 0 instructions: 109000001 cycles: 96940164 heartbeat IPC: 1.14707 cumulative IPC: 1.07852 (Simulation time: 0 hr 40 min 53 sec) 
select_counter is 707
Heartbeat CPU 0 instructions: 110000000 cycles: 97811732 heartbeat IPC: 1.14736 cumulative IPC: 1.07917 (Simulation time: 0 hr 41 min 15 sec) 
select_counter is 709
Finished CPU 0 instructions: 100000002 cycles: 92663928 cummulative IPC: 1.07917 (Simulation time: 0 hr 41 min 15 sec) 

ChampSim completed all CPUs

Region of Interest Statistics

CPU 0 cummulative IPC: 1.07917 instructions: 100000002 cycles: 92663928
LLC TOTAL     ACCESS:     613112  HIT:     294688  MISS:     318424
LLC LOAD      ACCESS:     304679  HIT:     110478  MISS:     194201
LLC RFO       ACCESS:     151947  HIT:      74974  MISS:      76973
LLC PREFETCH  ACCESS:          0  HIT:          0  MISS:          0
LLC WRITEBACK ACCESS:     156486  HIT:     109236  MISS:      47250
Ship samples: 
17, 59, 78, 105, 147, 177, 211, 252, 259, 303, 351, 355, 392, 433, 468, 505, 522, 559, 587, 637, 651, 692, 722, 744, 793, 806, 859, 877, 925, 957, 985, 996, 1029, 1079, 1114, 1128, 1162, 1211, 1230, 1268, 1304, 1313, 1369, 1407, 1410, 1464, 1492, 1516, 1563, 1579, 1618, 1658, 1679, 1703, 1737, 1785, 1806, 1838, 1881, 1909, 1942, 1969, 2001, 2043, 
Lime duel samples: 
0, 47, 74, 118, 133, 179, 214, 227, 266, 296, 336, 356, 405, 436, 473, 507, 517, 565, 600, 632, 670, 687, 734, 753, 790, 823, 856, 873, 900, 958, 977, 1014, 1035, 1084, 1117, 1141, 1161, 1190, 1243, 1265, 1285, 1324, 1345, 1381, 1431, 1456, 1479, 1508, 1553, 1578, 1616, 1652, 1689, 1717, 1729, 1773, 1813, 1850, 1875, 1893, 1930, 1965, 1994, 2045, 
Lime samples: 
0, 118, 214, 296, 405, 507, 600, 687, 790, 873, 977, 1084, 1161, 1265, 1345, 1456, 1553, 1652, 1729, 1850, 1930, 
Insertion Distribution: 
	LOAD 5641 0 0 0 0 0 9968 7893 
	RFO 8 0 0 0 0 0 6376 4482 
	PREF 0 0 0 0 0 0 0 0 
	WRITEBACK 0 0 0 0 0 0 0 2679 
Total Prefetch Downgrades: 0
