
*** ChampSim Multicore Out-of-Order Simulator ***

Warmup Instructions: 10000000
Simulation Instructions: 100000000
Configuration: 1
Number of CPUs: 1
LLC sets: 2048
LLC ways: 16
Off-chip DRAM Channels: 1 Width: 64-bit Data Rate: 1600 MT/s

CPU 0 runs /datasets/cs240c-wi22-a00-public/data/Assignment2-gz/calculix_3812B.trace.gz
Heartbeat CPU 0 instructions: 1000001 cycles: 475279 heartbeat IPC: 2.10403 cumulative IPC: 2.10403 (Simulation time: 0 hr 0 min 24 sec) 
select_counter is 515
Heartbeat CPU 0 instructions: 2000002 cycles: 949743 heartbeat IPC: 2.10764 cumulative IPC: 2.10583 (Simulation time: 0 hr 0 min 51 sec) 
select_counter is 515
Heartbeat CPU 0 instructions: 3000002 cycles: 1425613 heartbeat IPC: 2.10141 cumulative IPC: 2.10436 (Simulation time: 0 hr 1 min 18 sec) 
select_counter is 515
Heartbeat CPU 0 instructions: 4000000 cycles: 1895811 heartbeat IPC: 2.12676 cumulative IPC: 2.10992 (Simulation time: 0 hr 1 min 45 sec) 
select_counter is 515
Heartbeat CPU 0 instructions: 5000000 cycles: 2346967 heartbeat IPC: 2.21653 cumulative IPC: 2.13041 (Simulation time: 0 hr 2 min 12 sec) 
select_counter is 508
Heartbeat CPU 0 instructions: 6000003 cycles: 2742337 heartbeat IPC: 2.52928 cumulative IPC: 2.18792 (Simulation time: 0 hr 2 min 31 sec) 
select_counter is 509
Heartbeat CPU 0 instructions: 7000002 cycles: 3124774 heartbeat IPC: 2.61481 cumulative IPC: 2.24016 (Simulation time: 0 hr 2 min 48 sec) 
select_counter is 509
Heartbeat CPU 0 instructions: 8000000 cycles: 3507537 heartbeat IPC: 2.61258 cumulative IPC: 2.2808 (Simulation time: 0 hr 3 min 7 sec) 
select_counter is 509
Heartbeat CPU 0 instructions: 9000000 cycles: 3889328 heartbeat IPC: 2.61923 cumulative IPC: 2.31402 (Simulation time: 0 hr 3 min 26 sec) 
select_counter is 509
Heartbeat CPU 0 instructions: 10000003 cycles: 4271479 heartbeat IPC: 2.61677 cumulative IPC: 2.34111 (Simulation time: 0 hr 3 min 41 sec) 
select_counter is 509

Warmup complete CPU 0 instructions: 10000003 cycles: 4271479 (Simulation time: 0 hr 3 min 41 sec) 

Heartbeat CPU 0 instructions: 11000001 cycles: 4831795 heartbeat IPC: 1.7847 cumulative IPC: 1.7847 (Simulation time: 0 hr 4 min 2 sec) 
select_counter is 509
Heartbeat CPU 0 instructions: 12000000 cycles: 5383700 heartbeat IPC: 1.8119 cumulative IPC: 1.7982 (Simulation time: 0 hr 4 min 23 sec) 
select_counter is 509
Heartbeat CPU 0 instructions: 13000003 cycles: 5936646 heartbeat IPC: 1.8085 cumulative IPC: 1.80162 (Simulation time: 0 hr 4 min 43 sec) 
select_counter is 509
Heartbeat CPU 0 instructions: 14000000 cycles: 6980879 heartbeat IPC: 0.957638 cumulative IPC: 1.47634 (Simulation time: 0 hr 5 min 11 sec) 
select_counter is 509
Heartbeat CPU 0 instructions: 15000003 cycles: 7677352 heartbeat IPC: 1.43581 cumulative IPC: 1.46805 (Simulation time: 0 hr 5 min 32 sec) 
select_counter is 509
Heartbeat CPU 0 instructions: 16000000 cycles: 8279902 heartbeat IPC: 1.65961 cumulative IPC: 1.49685 (Simulation time: 0 hr 5 min 56 sec) 
select_counter is 509
Heartbeat CPU 0 instructions: 17000001 cycles: 8868659 heartbeat IPC: 1.6985 cumulative IPC: 1.52267 (Simulation time: 0 hr 6 min 18 sec) 
select_counter is 509
Heartbeat CPU 0 instructions: 18000001 cycles: 9430161 heartbeat IPC: 1.78094 cumulative IPC: 1.55078 (Simulation time: 0 hr 6 min 38 sec) 
select_counter is 509
Heartbeat CPU 0 instructions: 19000001 cycles: 9997392 heartbeat IPC: 1.76295 cumulative IPC: 1.5718 (Simulation time: 0 hr 6 min 57 sec) 
select_counter is 509
Heartbeat CPU 0 instructions: 20000000 cycles: 10843691 heartbeat IPC: 1.18161 cumulative IPC: 1.52156 (Simulation time: 0 hr 7 min 17 sec) 
select_counter is 508
Heartbeat CPU 0 instructions: 21000003 cycles: 11432789 heartbeat IPC: 1.69752 cumulative IPC: 1.53603 (Simulation time: 0 hr 7 min 41 sec) 
select_counter is 508
Heartbeat CPU 0 instructions: 22000000 cycles: 12028378 heartbeat IPC: 1.67901 cumulative IPC: 1.54701 (Simulation time: 0 hr 8 min 5 sec) 
select_counter is 508
Heartbeat CPU 0 instructions: 23000002 cycles: 12618525 heartbeat IPC: 1.6945 cumulative IPC: 1.55744 (Simulation time: 0 hr 8 min 25 sec) 
select_counter is 508
Heartbeat CPU 0 instructions: 24000000 cycles: 13216243 heartbeat IPC: 1.67303 cumulative IPC: 1.56516 (Simulation time: 0 hr 8 min 45 sec) 
select_counter is 508
Heartbeat CPU 0 instructions: 25000003 cycles: 13883683 heartbeat IPC: 1.49827 cumulative IPC: 1.56052 (Simulation time: 0 hr 9 min 4 sec) 
select_counter is 506
Heartbeat CPU 0 instructions: 26000001 cycles: 14516020 heartbeat IPC: 1.58143 cumulative IPC: 1.56181 (Simulation time: 0 hr 9 min 25 sec) 
select_counter is 507
Heartbeat CPU 0 instructions: 27000000 cycles: 15110032 heartbeat IPC: 1.68347 cumulative IPC: 1.56847 (Simulation time: 0 hr 9 min 46 sec) 
select_counter is 507
Heartbeat CPU 0 instructions: 28000000 cycles: 15900282 heartbeat IPC: 1.26542 cumulative IPC: 1.54788 (Simulation time: 0 hr 10 min 9 sec) 
select_counter is 507
Heartbeat CPU 0 instructions: 29000002 cycles: 16436856 heartbeat IPC: 1.86368 cumulative IPC: 1.56181 (Simulation time: 0 hr 10 min 30 sec) 
select_counter is 507
Heartbeat CPU 0 instructions: 30000001 cycles: 17068946 heartbeat IPC: 1.58205 cumulative IPC: 1.56281 (Simulation time: 0 hr 10 min 51 sec) 
select_counter is 505
Heartbeat CPU 0 instructions: 31000001 cycles: 17671272 heartbeat IPC: 1.66023 cumulative IPC: 1.56719 (Simulation time: 0 hr 11 min 11 sec) 
select_counter is 505
Heartbeat CPU 0 instructions: 32000000 cycles: 18511398 heartbeat IPC: 1.1903 cumulative IPC: 1.54495 (Simulation time: 0 hr 11 min 35 sec) 
select_counter is 507
Heartbeat CPU 0 instructions: 33000003 cycles: 19340310 heartbeat IPC: 1.2064 cumulative IPC: 1.52633 (Simulation time: 0 hr 12 min 3 sec) 
select_counter is 507
Heartbeat CPU 0 instructions: 34000000 cycles: 20164558 heartbeat IPC: 1.21322 cumulative IPC: 1.51009 (Simulation time: 0 hr 12 min 27 sec) 
select_counter is 507
Heartbeat CPU 0 instructions: 35000000 cycles: 20933767 heartbeat IPC: 1.30004 cumulative IPC: 1.50039 (Simulation time: 0 hr 12 min 51 sec) 
select_counter is 507
Heartbeat CPU 0 instructions: 36000000 cycles: 21652424 heartbeat IPC: 1.39148 cumulative IPC: 1.49589 (Simulation time: 0 hr 13 min 16 sec) 
select_counter is 507
Heartbeat CPU 0 instructions: 37000003 cycles: 22341729 heartbeat IPC: 1.45074 cumulative IPC: 1.49417 (Simulation time: 0 hr 13 min 40 sec) 
select_counter is 507
Heartbeat CPU 0 instructions: 38000003 cycles: 23033411 heartbeat IPC: 1.44575 cumulative IPC: 1.49238 (Simulation time: 0 hr 14 min 8 sec) 
select_counter is 507
Heartbeat CPU 0 instructions: 39000003 cycles: 24058630 heartbeat IPC: 0.975401 cumulative IPC: 1.4656 (Simulation time: 0 hr 14 min 35 sec) 
select_counter is 658
Heartbeat CPU 0 instructions: 40000000 cycles: 24981122 heartbeat IPC: 1.08402 cumulative IPC: 1.4486 (Simulation time: 0 hr 14 min 58 sec) 
select_counter is 671
Heartbeat CPU 0 instructions: 41000000 cycles: 26030958 heartbeat IPC: 0.95253 cumulative IPC: 1.42467 (Simulation time: 0 hr 15 min 22 sec) 
select_counter is 692
Heartbeat CPU 0 instructions: 42000001 cycles: 26691045 heartbeat IPC: 1.51495 cumulative IPC: 1.42732 (Simulation time: 0 hr 15 min 43 sec) 
select_counter is 709
Heartbeat CPU 0 instructions: 43000001 cycles: 27369876 heartbeat IPC: 1.47312 cumulative IPC: 1.42867 (Simulation time: 0 hr 16 min 7 sec) 
select_counter is 721
Heartbeat CPU 0 instructions: 44000000 cycles: 28147269 heartbeat IPC: 1.28635 cumulative IPC: 1.42404 (Simulation time: 0 hr 16 min 35 sec) 
select_counter is 721
Heartbeat CPU 0 instructions: 45000002 cycles: 28907090 heartbeat IPC: 1.3161 cumulative IPC: 1.42071 (Simulation time: 0 hr 17 min 1 sec) 
select_counter is 721
Heartbeat CPU 0 instructions: 46000002 cycles: 29688364 heartbeat IPC: 1.27996 cumulative IPC: 1.41638 (Simulation time: 0 hr 17 min 28 sec) 
select_counter is 721
Heartbeat CPU 0 instructions: 47000002 cycles: 30674386 heartbeat IPC: 1.01418 cumulative IPC: 1.40136 (Simulation time: 0 hr 17 min 52 sec) 
select_counter is 830
Heartbeat CPU 0 instructions: 48000000 cycles: 31196515 heartbeat IPC: 1.91523 cumulative IPC: 1.41133 (Simulation time: 0 hr 18 min 13 sec) 
select_counter is 845
Heartbeat CPU 0 instructions: 49000000 cycles: 31716780 heartbeat IPC: 1.9221 cumulative IPC: 1.42101 (Simulation time: 0 hr 18 min 31 sec) 
select_counter is 853
Heartbeat CPU 0 instructions: 50000000 cycles: 32270934 heartbeat IPC: 1.80455 cumulative IPC: 1.4286 (Simulation time: 0 hr 18 min 51 sec) 
select_counter is 881
Heartbeat CPU 0 instructions: 51000000 cycles: 32911543 heartbeat IPC: 1.56101 cumulative IPC: 1.43156 (Simulation time: 0 hr 19 min 15 sec) 
select_counter is 889
Heartbeat CPU 0 instructions: 52000000 cycles: 33636649 heartbeat IPC: 1.37911 cumulative IPC: 1.43027 (Simulation time: 0 hr 19 min 37 sec) 
select_counter is 936
Heartbeat CPU 0 instructions: 53000000 cycles: 34253868 heartbeat IPC: 1.62017 cumulative IPC: 1.43418 (Simulation time: 0 hr 19 min 56 sec) 
select_counter is 952
Heartbeat CPU 0 instructions: 54000001 cycles: 34826933 heartbeat IPC: 1.745 cumulative IPC: 1.44 (Simulation time: 0 hr 20 min 18 sec) 
select_counter is 963
Heartbeat CPU 0 instructions: 55000001 cycles: 35395596 heartbeat IPC: 1.75851 cumulative IPC: 1.44582 (Simulation time: 0 hr 20 min 39 sec) 
select_counter is 969
Heartbeat CPU 0 instructions: 56000000 cycles: 35963445 heartbeat IPC: 1.76103 cumulative IPC: 1.45147 (Simulation time: 0 hr 20 min 59 sec) 
select_counter is 975
Heartbeat CPU 0 instructions: 57000003 cycles: 36532021 heartbeat IPC: 1.75879 cumulative IPC: 1.45689 (Simulation time: 0 hr 21 min 20 sec) 
select_counter is 987
Heartbeat CPU 0 instructions: 58000002 cycles: 37130937 heartbeat IPC: 1.66968 cumulative IPC: 1.46077 (Simulation time: 0 hr 21 min 41 sec) 
select_counter is 986
Heartbeat CPU 0 instructions: 59000001 cycles: 38056120 heartbeat IPC: 1.08087 cumulative IPC: 1.45036 (Simulation time: 0 hr 22 min 5 sec) 
select_counter is 940
Heartbeat CPU 0 instructions: 60000000 cycles: 38654706 heartbeat IPC: 1.6706 cumulative IPC: 1.4542 (Simulation time: 0 hr 22 min 30 sec) 
select_counter is 958
Heartbeat CPU 0 instructions: 61000003 cycles: 39238440 heartbeat IPC: 1.71311 cumulative IPC: 1.45852 (Simulation time: 0 hr 22 min 50 sec) 
select_counter is 967
Heartbeat CPU 0 instructions: 62000000 cycles: 39803782 heartbeat IPC: 1.76884 cumulative IPC: 1.46346 (Simulation time: 0 hr 23 min 10 sec) 
select_counter is 974
Heartbeat CPU 0 instructions: 63000001 cycles: 40369775 heartbeat IPC: 1.76681 cumulative IPC: 1.46821 (Simulation time: 0 hr 23 min 30 sec) 
select_counter is 978
Heartbeat CPU 0 instructions: 64000000 cycles: 40931900 heartbeat IPC: 1.77896 cumulative IPC: 1.47298 (Simulation time: 0 hr 23 min 50 sec) 
select_counter is 979
Heartbeat CPU 0 instructions: 65000000 cycles: 41709180 heartbeat IPC: 1.28654 cumulative IPC: 1.46911 (Simulation time: 0 hr 24 min 14 sec) 
select_counter is 980
Heartbeat CPU 0 instructions: 66000002 cycles: 42575156 heartbeat IPC: 1.15477 cumulative IPC: 1.462 (Simulation time: 0 hr 24 min 35 sec) 
select_counter is 960
Heartbeat CPU 0 instructions: 67000002 cycles: 43156894 heartbeat IPC: 1.71899 cumulative IPC: 1.46585 (Simulation time: 0 hr 25 min 1 sec) 
select_counter is 956
Heartbeat CPU 0 instructions: 68000000 cycles: 43708579 heartbeat IPC: 1.81262 cumulative IPC: 1.4707 (Simulation time: 0 hr 25 min 23 sec) 
select_counter is 955
Heartbeat CPU 0 instructions: 69000003 cycles: 44506477 heartbeat IPC: 1.2533 cumulative IPC: 1.46639 (Simulation time: 0 hr 25 min 44 sec) 
select_counter is 948
Heartbeat CPU 0 instructions: 70000002 cycles: 45108757 heartbeat IPC: 1.66036 cumulative IPC: 1.46925 (Simulation time: 0 hr 26 min 7 sec) 
select_counter is 962
Heartbeat CPU 0 instructions: 71000002 cycles: 45692023 heartbeat IPC: 1.71448 cumulative IPC: 1.4727 (Simulation time: 0 hr 26 min 27 sec) 
select_counter is 962
Heartbeat CPU 0 instructions: 72000000 cycles: 46322138 heartbeat IPC: 1.58701 cumulative IPC: 1.47441 (Simulation time: 0 hr 26 min 47 sec) 
select_counter is 959
Heartbeat CPU 0 instructions: 73000001 cycles: 46960148 heartbeat IPC: 1.56738 cumulative IPC: 1.4758 (Simulation time: 0 hr 27 min 9 sec) 
select_counter is 962
Heartbeat CPU 0 instructions: 74000003 cycles: 47741422 heartbeat IPC: 1.27996 cumulative IPC: 1.47228 (Simulation time: 0 hr 27 min 30 sec) 
select_counter is 965
Heartbeat CPU 0 instructions: 75000000 cycles: 48379848 heartbeat IPC: 1.56635 cumulative IPC: 1.47364 (Simulation time: 0 hr 27 min 50 sec) 
select_counter is 978
Heartbeat CPU 0 instructions: 76000000 cycles: 49285716 heartbeat IPC: 1.10391 cumulative IPC: 1.4662 (Simulation time: 0 hr 28 min 17 sec) 
select_counter is 975
Heartbeat CPU 0 instructions: 77000000 cycles: 50139160 heartbeat IPC: 1.17172 cumulative IPC: 1.46072 (Simulation time: 0 hr 28 min 42 sec) 
select_counter is 975
Heartbeat CPU 0 instructions: 78000003 cycles: 50992008 heartbeat IPC: 1.17255 cumulative IPC: 1.45546 (Simulation time: 0 hr 29 min 7 sec) 
select_counter is 975
Heartbeat CPU 0 instructions: 79000001 cycles: 51829933 heartbeat IPC: 1.19342 cumulative IPC: 1.45085 (Simulation time: 0 hr 29 min 34 sec) 
select_counter is 975
Heartbeat CPU 0 instructions: 80000000 cycles: 52619853 heartbeat IPC: 1.26595 cumulative IPC: 1.44783 (Simulation time: 0 hr 30 min 0 sec) 
select_counter is 975
Heartbeat CPU 0 instructions: 81000001 cycles: 53375987 heartbeat IPC: 1.32252 cumulative IPC: 1.4459 (Simulation time: 0 hr 30 min 28 sec) 
select_counter is 975
Heartbeat CPU 0 instructions: 82000002 cycles: 54082211 heartbeat IPC: 1.41598 cumulative IPC: 1.44547 (Simulation time: 0 hr 30 min 54 sec) 
select_counter is 975
Heartbeat CPU 0 instructions: 83000002 cycles: 55116343 heartbeat IPC: 0.966995 cumulative IPC: 1.43574 (Simulation time: 0 hr 31 min 18 sec) 
select_counter is 398
Heartbeat CPU 0 instructions: 84000000 cycles: 56309534 heartbeat IPC: 0.838087 cumulative IPC: 1.42204 (Simulation time: 0 hr 31 min 39 sec) 
select_counter is 185
Heartbeat CPU 0 instructions: 85000000 cycles: 57279529 heartbeat IPC: 1.03093 cumulative IPC: 1.41488 (Simulation time: 0 hr 32 min 0 sec) 
select_counter is 88
Heartbeat CPU 0 instructions: 86000001 cycles: 58235365 heartbeat IPC: 1.04621 cumulative IPC: 1.40835 (Simulation time: 0 hr 32 min 21 sec) 
select_counter is 87
Heartbeat CPU 0 instructions: 87000002 cycles: 59177134 heartbeat IPC: 1.06183 cumulative IPC: 1.40241 (Simulation time: 0 hr 32 min 41 sec) 
select_counter is 87
Heartbeat CPU 0 instructions: 88000000 cycles: 60111285 heartbeat IPC: 1.07049 cumulative IPC: 1.39685 (Simulation time: 0 hr 33 min 3 sec) 
select_counter is 87
Heartbeat CPU 0 instructions: 89000001 cycles: 61047964 heartbeat IPC: 1.0676 cumulative IPC: 1.39142 (Simulation time: 0 hr 33 min 24 sec) 
select_counter is 87
Heartbeat CPU 0 instructions: 90000001 cycles: 61985319 heartbeat IPC: 1.06683 cumulative IPC: 1.38615 (Simulation time: 0 hr 33 min 44 sec) 
select_counter is 87
Heartbeat CPU 0 instructions: 91000002 cycles: 62929302 heartbeat IPC: 1.05934 cumulative IPC: 1.38089 (Simulation time: 0 hr 34 min 6 sec) 
select_counter is 86
Heartbeat CPU 0 instructions: 92000000 cycles: 63555190 heartbeat IPC: 1.59773 cumulative IPC: 1.38318 (Simulation time: 0 hr 34 min 31 sec) 
select_counter is 74
Heartbeat CPU 0 instructions: 93000003 cycles: 64093860 heartbeat IPC: 1.85643 cumulative IPC: 1.38744 (Simulation time: 0 hr 34 min 50 sec) 
select_counter is 74
Heartbeat CPU 0 instructions: 94000003 cycles: 64626539 heartbeat IPC: 1.8773 cumulative IPC: 1.39176 (Simulation time: 0 hr 35 min 8 sec) 
select_counter is 74
Heartbeat CPU 0 instructions: 95000002 cycles: 65327012 heartbeat IPC: 1.42761 cumulative IPC: 1.39218 (Simulation time: 0 hr 35 min 29 sec) 
select_counter is 74
Heartbeat CPU 0 instructions: 96000000 cycles: 66168808 heartbeat IPC: 1.18793 cumulative IPC: 1.3894 (Simulation time: 0 hr 35 min 49 sec) 
select_counter is 72
Heartbeat CPU 0 instructions: 97000000 cycles: 66802703 heartbeat IPC: 1.57755 cumulative IPC: 1.3913 (Simulation time: 0 hr 36 min 12 sec) 
select_counter is 110
Heartbeat CPU 0 instructions: 98000001 cycles: 67370545 heartbeat IPC: 1.76105 cumulative IPC: 1.39463 (Simulation time: 0 hr 36 min 34 sec) 
select_counter is 119
Heartbeat CPU 0 instructions: 99000000 cycles: 67938657 heartbeat IPC: 1.76021 cumulative IPC: 1.39789 (Simulation time: 0 hr 36 min 51 sec) 
select_counter is 120
Heartbeat CPU 0 instructions: 100000000 cycles: 68509605 heartbeat IPC: 1.75147 cumulative IPC: 1.40104 (Simulation time: 0 hr 37 min 9 sec) 
select_counter is 120
Heartbeat CPU 0 instructions: 101000003 cycles: 69074954 heartbeat IPC: 1.76882 cumulative IPC: 1.40425 (Simulation time: 0 hr 37 min 25 sec) 
select_counter is 119
Heartbeat CPU 0 instructions: 102000000 cycles: 69847683 heartbeat IPC: 1.29411 cumulative IPC: 1.40295 (Simulation time: 0 hr 37 min 44 sec) 
select_counter is 98
Heartbeat CPU 0 instructions: 103000000 cycles: 70481584 heartbeat IPC: 1.57753 cumulative IPC: 1.40462 (Simulation time: 0 hr 38 min 2 sec) 
select_counter is 94
Heartbeat CPU 0 instructions: 104000000 cycles: 71043743 heartbeat IPC: 1.77886 cumulative IPC: 1.40777 (Simulation time: 0 hr 38 min 20 sec) 
select_counter is 92
Heartbeat CPU 0 instructions: 105000000 cycles: 71606262 heartbeat IPC: 1.77772 cumulative IPC: 1.41086 (Simulation time: 0 hr 38 min 36 sec) 
select_counter is 92
Heartbeat CPU 0 instructions: 106000003 cycles: 72168506 heartbeat IPC: 1.77859 cumulative IPC: 1.41391 (Simulation time: 0 hr 38 min 52 sec) 
select_counter is 92
Heartbeat CPU 0 instructions: 107000000 cycles: 72728358 heartbeat IPC: 1.78618 cumulative IPC: 1.41695 (Simulation time: 0 hr 39 min 7 sec) 
select_counter is 92
Heartbeat CPU 0 instructions: 108000000 cycles: 73373431 heartbeat IPC: 1.55021 cumulative IPC: 1.41819 (Simulation time: 0 hr 39 min 24 sec) 
select_counter is 97
Heartbeat CPU 0 instructions: 109000002 cycles: 74252406 heartbeat IPC: 1.13769 cumulative IPC: 1.41467 (Simulation time: 0 hr 39 min 41 sec) 
select_counter is 84
Heartbeat CPU 0 instructions: 110000002 cycles: 74792965 heartbeat IPC: 1.84994 cumulative IPC: 1.41801 (Simulation time: 0 hr 39 min 58 sec) 
select_counter is 82
Finished CPU 0 instructions: 100000003 cycles: 70521487 cummulative IPC: 1.41801 (Simulation time: 0 hr 39 min 58 sec) 

ChampSim completed all CPUs

Region of Interest Statistics

CPU 0 cummulative IPC: 1.41801 instructions: 100000003 cycles: 70521487
LLC TOTAL     ACCESS:    1133161  HIT:     995458  MISS:     137703
LLC LOAD      ACCESS:     790337  HIT:     701398  MISS:      88939
LLC RFO       ACCESS:      47630  HIT:      13845  MISS:      33785
LLC PREFETCH  ACCESS:          0  HIT:          0  MISS:          0
LLC WRITEBACK ACCESS:     295194  HIT:     280215  MISS:      14979
Ship samples: 
4, 56, 74, 106, 145, 174, 222, 237, 271, 296, 321, 365, 415, 422, 476, 481, 521, 559, 586, 632, 648, 687, 718, 761, 782, 829, 852, 876, 924, 944, 963, 1021, 1042, 1075, 1095, 1134, 1164, 1210, 1219, 1270, 1286, 1313, 1374, 1402, 1437, 1442, 1488, 1505, 1537, 1571, 1611, 1657, 1677, 1708, 1738, 1767, 1823, 1852, 1871, 1899, 1928, 1979, 2012, 2037, 
Lime duel samples: 
10, 40, 95, 126, 139, 167, 200, 226, 278, 302, 345, 353, 412, 433, 477, 496, 517, 544, 583, 634, 657, 673, 714, 742, 796, 819, 847, 874, 915, 946, 984, 1009, 1036, 1068, 1116, 1131, 1167, 1213, 1242, 1267, 1297, 1331, 1370, 1389, 1439, 1458, 1487, 1518, 1564, 1597, 1613, 1651, 1673, 1716, 1728, 1790, 1822, 1825, 1868, 1910, 1932, 1966, 2008, 2044, 
Lime samples: 
10, 126, 200, 302, 412, 496, 583, 673, 796, 874, 984, 1068, 1167, 1267, 1370, 1458, 1564, 1651, 1728, 1825, 1932, 
Insertion Distribution: 
	LOAD 12348 0 0 0 0 0 17499 36717 
	RFO 1451 0 0 0 0 0 8992 2061 
	PREF 0 0 0 0 0 0 0 0 
	WRITEBACK 0 0 0 0 0 0 0 2830 
Total Prefetch Downgrades: 0
