
*** ChampSim Multicore Out-of-Order Simulator ***

Warmup Instructions: 10000000
Simulation Instructions: 100000000
Configuration: 1
Number of CPUs: 1
LLC sets: 2048
LLC ways: 16
Off-chip DRAM Channels: 1 Width: 64-bit Data Rate: 1600 MT/s

CPU 0 runs /datasets/cs240c-wi22-a00-public/data/Assignment2-gz/libquantum_1735B.trace.gz
Heartbeat CPU 0 instructions: 1000003 cycles: 333345 heartbeat IPC: 2.9999 cumulative IPC: 2.9999 (Simulation time: 0 hr 0 min 20 sec) 
select_counter is 511
Heartbeat CPU 0 instructions: 2000003 cycles: 666677 heartbeat IPC: 3.00001 cumulative IPC: 2.99996 (Simulation time: 0 hr 0 min 35 sec) 
select_counter is 511
Heartbeat CPU 0 instructions: 3000001 cycles: 989047 heartbeat IPC: 3.10202 cumulative IPC: 3.03322 (Simulation time: 0 hr 0 min 49 sec) 
select_counter is 639
Heartbeat CPU 0 instructions: 4000000 cycles: 1290772 heartbeat IPC: 3.31427 cumulative IPC: 3.09892 (Simulation time: 0 hr 1 min 1 sec) 
select_counter is 1022
Heartbeat CPU 0 instructions: 5000000 cycles: 1592498 heartbeat IPC: 3.31427 cumulative IPC: 3.13972 (Simulation time: 0 hr 1 min 15 sec) 
select_counter is 1023
Heartbeat CPU 0 instructions: 6000003 cycles: 1894221 heartbeat IPC: 3.31431 cumulative IPC: 3.16753 (Simulation time: 0 hr 1 min 27 sec) 
select_counter is 1023
Heartbeat CPU 0 instructions: 7000000 cycles: 2195944 heartbeat IPC: 3.31429 cumulative IPC: 3.1877 (Simulation time: 0 hr 1 min 39 sec) 
select_counter is 1022
Heartbeat CPU 0 instructions: 8000000 cycles: 2501901 heartbeat IPC: 3.26843 cumulative IPC: 3.19757 (Simulation time: 0 hr 1 min 55 sec) 
select_counter is 1023
Heartbeat CPU 0 instructions: 9000001 cycles: 2835236 heartbeat IPC: 2.99999 cumulative IPC: 3.17434 (Simulation time: 0 hr 2 min 11 sec) 
select_counter is 1022
Heartbeat CPU 0 instructions: 10000001 cycles: 3168569 heartbeat IPC: 3 cumulative IPC: 3.156 (Simulation time: 0 hr 2 min 25 sec) 
select_counter is 1023

Warmup complete CPU 0 instructions: 10000001 cycles: 3168569 (Simulation time: 0 hr 2 min 25 sec) 

Heartbeat CPU 0 instructions: 11000001 cycles: 5166671 heartbeat IPC: 0.500475 cumulative IPC: 0.500475 (Simulation time: 0 hr 2 min 50 sec) 
select_counter is 1023
Heartbeat CPU 0 instructions: 12000000 cycles: 7164493 heartbeat IPC: 0.500545 cumulative IPC: 0.50051 (Simulation time: 0 hr 3 min 16 sec) 
select_counter is 1022
Heartbeat CPU 0 instructions: 13000003 cycles: 9723555 heartbeat IPC: 0.390769 cumulative IPC: 0.457667 (Simulation time: 0 hr 3 min 40 sec) 
select_counter is 1003
Heartbeat CPU 0 instructions: 14000000 cycles: 13218562 heartbeat IPC: 0.286122 cumulative IPC: 0.39801 (Simulation time: 0 hr 4 min 0 sec) 
select_counter is 967
Heartbeat CPU 0 instructions: 15000000 cycles: 16698313 heartbeat IPC: 0.287377 cumulative IPC: 0.369556 (Simulation time: 0 hr 4 min 23 sec) 
select_counter is 963
Heartbeat CPU 0 instructions: 16000000 cycles: 20165850 heartbeat IPC: 0.288389 cumulative IPC: 0.352998 (Simulation time: 0 hr 4 min 46 sec) 
select_counter is 952
Heartbeat CPU 0 instructions: 17000002 cycles: 23654750 heartbeat IPC: 0.286624 cumulative IPC: 0.341694 (Simulation time: 0 hr 5 min 8 sec) 
select_counter is 956
Heartbeat CPU 0 instructions: 18000001 cycles: 26608615 heartbeat IPC: 0.338539 cumulative IPC: 0.341296 (Simulation time: 0 hr 5 min 30 sec) 
select_counter is 950
Heartbeat CPU 0 instructions: 19000000 cycles: 28526493 heartbeat IPC: 0.521409 cumulative IPC: 0.354919 (Simulation time: 0 hr 5 min 54 sec) 
select_counter is 950
Heartbeat CPU 0 instructions: 20000000 cycles: 30440375 heartbeat IPC: 0.522498 cumulative IPC: 0.366679 (Simulation time: 0 hr 6 min 18 sec) 
select_counter is 690
Heartbeat CPU 0 instructions: 21000001 cycles: 32494099 heartbeat IPC: 0.486921 cumulative IPC: 0.3751 (Simulation time: 0 hr 6 min 42 sec) 
select_counter is 364
Heartbeat CPU 0 instructions: 22000000 cycles: 34412072 heartbeat IPC: 0.521383 cumulative IPC: 0.38408 (Simulation time: 0 hr 7 min 6 sec) 
select_counter is 365
Heartbeat CPU 0 instructions: 23000001 cycles: 37408010 heartbeat IPC: 0.333786 cumulative IPC: 0.379679 (Simulation time: 0 hr 7 min 27 sec) 
select_counter is 347
Heartbeat CPU 0 instructions: 24000000 cycles: 41143531 heartbeat IPC: 0.2677 cumulative IPC: 0.368664 (Simulation time: 0 hr 7 min 49 sec) 
select_counter is 343
Heartbeat CPU 0 instructions: 25000000 cycles: 44892315 heartbeat IPC: 0.266753 cumulative IPC: 0.359507 (Simulation time: 0 hr 8 min 12 sec) 
select_counter is 355
Heartbeat CPU 0 instructions: 26000000 cycles: 48597376 heartbeat IPC: 0.269901 cumulative IPC: 0.352199 (Simulation time: 0 hr 8 min 37 sec) 
select_counter is 445
Heartbeat CPU 0 instructions: 27000001 cycles: 51267787 heartbeat IPC: 0.374475 cumulative IPC: 0.353436 (Simulation time: 0 hr 8 min 55 sec) 
select_counter is 1023
Heartbeat CPU 0 instructions: 28000000 cycles: 53307507 heartbeat IPC: 0.490263 cumulative IPC: 0.359002 (Simulation time: 0 hr 9 min 15 sec) 
select_counter is 1022
Heartbeat CPU 0 instructions: 29000000 cycles: 55308415 heartbeat IPC: 0.499773 cumulative IPC: 0.364405 (Simulation time: 0 hr 9 min 42 sec) 
select_counter is 1022
Heartbeat CPU 0 instructions: 30000001 cycles: 57309283 heartbeat IPC: 0.499784 cumulative IPC: 0.369408 (Simulation time: 0 hr 10 min 7 sec) 
select_counter is 1022
Heartbeat CPU 0 instructions: 31000000 cycles: 59310055 heartbeat IPC: 0.499807 cumulative IPC: 0.374055 (Simulation time: 0 hr 10 min 29 sec) 
select_counter is 1022
Heartbeat CPU 0 instructions: 32000000 cycles: 61310920 heartbeat IPC: 0.499784 cumulative IPC: 0.378382 (Simulation time: 0 hr 10 min 54 sec) 
select_counter is 1023
Heartbeat CPU 0 instructions: 33000002 cycles: 64261594 heartbeat IPC: 0.338906 cumulative IPC: 0.376475 (Simulation time: 0 hr 11 min 18 sec) 
select_counter is 1004
Heartbeat CPU 0 instructions: 34000000 cycles: 67408002 heartbeat IPC: 0.317822 cumulative IPC: 0.373602 (Simulation time: 0 hr 11 min 41 sec) 
select_counter is 985
Heartbeat CPU 0 instructions: 35000000 cycles: 70527473 heartbeat IPC: 0.320567 cumulative IPC: 0.371146 (Simulation time: 0 hr 12 min 4 sec) 
select_counter is 965
Heartbeat CPU 0 instructions: 36000000 cycles: 73656017 heartbeat IPC: 0.319638 cumulative IPC: 0.36886 (Simulation time: 0 hr 12 min 26 sec) 
select_counter is 955
Heartbeat CPU 0 instructions: 37000002 cycles: 76796509 heartbeat IPC: 0.318422 cumulative IPC: 0.366709 (Simulation time: 0 hr 12 min 49 sec) 
select_counter is 946
Heartbeat CPU 0 instructions: 38000003 cycles: 79225419 heartbeat IPC: 0.411708 cumulative IPC: 0.368146 (Simulation time: 0 hr 13 min 13 sec) 
select_counter is 947
Heartbeat CPU 0 instructions: 39000002 cycles: 81226191 heartbeat IPC: 0.499807 cumulative IPC: 0.37152 (Simulation time: 0 hr 13 min 41 sec) 
select_counter is 946
Heartbeat CPU 0 instructions: 40000000 cycles: 83134452 heartbeat IPC: 0.524036 cumulative IPC: 0.37516 (Simulation time: 0 hr 14 min 8 sec) 
select_counter is 424
Heartbeat CPU 0 instructions: 41000000 cycles: 85104054 heartbeat IPC: 0.507717 cumulative IPC: 0.378346 (Simulation time: 0 hr 14 min 31 sec) 
select_counter is 357
Heartbeat CPU 0 instructions: 42000001 cycles: 87104922 heartbeat IPC: 0.499784 cumulative IPC: 0.381241 (Simulation time: 0 hr 14 min 59 sec) 
select_counter is 356
Heartbeat CPU 0 instructions: 43000002 cycles: 90238831 heartbeat IPC: 0.319091 cumulative IPC: 0.379004 (Simulation time: 0 hr 15 min 27 sec) 
select_counter is 328
Heartbeat CPU 0 instructions: 44000000 cycles: 93566997 heartbeat IPC: 0.300465 cumulative IPC: 0.376113 (Simulation time: 0 hr 15 min 50 sec) 
select_counter is 311
Heartbeat CPU 0 instructions: 45000001 cycles: 96892542 heartbeat IPC: 0.300703 cumulative IPC: 0.373437 (Simulation time: 0 hr 16 min 13 sec) 
select_counter is 319
Heartbeat CPU 0 instructions: 46000002 cycles: 100112523 heartbeat IPC: 0.310561 cumulative IPC: 0.371349 (Simulation time: 0 hr 16 min 34 sec) 
select_counter is 505
Heartbeat CPU 0 instructions: 47000000 cycles: 102217180 heartbeat IPC: 0.475136 cumulative IPC: 0.373554 (Simulation time: 0 hr 16 min 54 sec) 
select_counter is 1023
Heartbeat CPU 0 instructions: 48000000 cycles: 104152837 heartbeat IPC: 0.51662 cumulative IPC: 0.376296 (Simulation time: 0 hr 17 min 20 sec) 
select_counter is 1023
Heartbeat CPU 0 instructions: 49000002 cycles: 106150273 heartbeat IPC: 0.500643 cumulative IPC: 0.378708 (Simulation time: 0 hr 17 min 46 sec) 
select_counter is 1022
Heartbeat CPU 0 instructions: 50000001 cycles: 108147668 heartbeat IPC: 0.500652 cumulative IPC: 0.381028 (Simulation time: 0 hr 18 min 10 sec) 
select_counter is 1022
Heartbeat CPU 0 instructions: 51000000 cycles: 110145067 heartbeat IPC: 0.500651 cumulative IPC: 0.383262 (Simulation time: 0 hr 18 min 39 sec) 
select_counter is 1022
Heartbeat CPU 0 instructions: 52000000 cycles: 112142581 heartbeat IPC: 0.500622 cumulative IPC: 0.385413 (Simulation time: 0 hr 19 min 5 sec) 
select_counter is 1022
Heartbeat CPU 0 instructions: 53000002 cycles: 114140129 heartbeat IPC: 0.500615 cumulative IPC: 0.387487 (Simulation time: 0 hr 19 min 30 sec) 
select_counter is 1022
Heartbeat CPU 0 instructions: 54000001 cycles: 116137194 heartbeat IPC: 0.500734 cumulative IPC: 0.389489 (Simulation time: 0 hr 19 min 57 sec) 
select_counter is 1022
Heartbeat CPU 0 instructions: 55000000 cycles: 118134494 heartbeat IPC: 0.500675 cumulative IPC: 0.39142 (Simulation time: 0 hr 20 min 21 sec) 
select_counter is 1022
Heartbeat CPU 0 instructions: 56000000 cycles: 120131997 heartbeat IPC: 0.500625 cumulative IPC: 0.393285 (Simulation time: 0 hr 20 min 47 sec) 
select_counter is 1022
Heartbeat CPU 0 instructions: 57000000 cycles: 122128780 heartbeat IPC: 0.500806 cumulative IPC: 0.39509 (Simulation time: 0 hr 21 min 15 sec) 
select_counter is 1023
Heartbeat CPU 0 instructions: 58000002 cycles: 124126176 heartbeat IPC: 0.500653 cumulative IPC: 0.396833 (Simulation time: 0 hr 21 min 42 sec) 
select_counter is 1023
Heartbeat CPU 0 instructions: 59000001 cycles: 126119089 heartbeat IPC: 0.501778 cumulative IPC: 0.398534 (Simulation time: 0 hr 22 min 6 sec) 
select_counter is 821
Heartbeat CPU 0 instructions: 60000000 cycles: 127998867 heartbeat IPC: 0.531977 cumulative IPC: 0.400544 (Simulation time: 0 hr 22 min 30 sec) 
select_counter is 431
Heartbeat CPU 0 instructions: 61000003 cycles: 129996301 heartbeat IPC: 0.500644 cumulative IPC: 0.40212 (Simulation time: 0 hr 22 min 53 sec) 
select_counter is 431
Heartbeat CPU 0 instructions: 62000002 cycles: 131993694 heartbeat IPC: 0.500652 cumulative IPC: 0.403648 (Simulation time: 0 hr 23 min 17 sec) 
select_counter is 431
Heartbeat CPU 0 instructions: 63000001 cycles: 133990996 heartbeat IPC: 0.500675 cumulative IPC: 0.405129 (Simulation time: 0 hr 23 min 40 sec) 
select_counter is 430
Heartbeat CPU 0 instructions: 64000000 cycles: 135988386 heartbeat IPC: 0.500653 cumulative IPC: 0.406566 (Simulation time: 0 hr 24 min 4 sec) 
select_counter is 430
Heartbeat CPU 0 instructions: 65000001 cycles: 137932388 heartbeat IPC: 0.514403 cumulative IPC: 0.408121 (Simulation time: 0 hr 24 min 28 sec) 
select_counter is 557
Heartbeat CPU 0 instructions: 66000000 cycles: 139231328 heartbeat IPC: 0.769858 cumulative IPC: 0.411575 (Simulation time: 0 hr 24 min 50 sec) 
select_counter is 1023
Heartbeat CPU 0 instructions: 67000001 cycles: 141029139 heartbeat IPC: 0.556233 cumulative IPC: 0.413461 (Simulation time: 0 hr 25 min 12 sec) 
select_counter is 1022
Heartbeat CPU 0 instructions: 68000000 cycles: 142937994 heartbeat IPC: 0.523874 cumulative IPC: 0.414969 (Simulation time: 0 hr 25 min 34 sec) 
select_counter is 1022
Heartbeat CPU 0 instructions: 69000002 cycles: 144846888 heartbeat IPC: 0.523865 cumulative IPC: 0.416436 (Simulation time: 0 hr 25 min 56 sec) 
select_counter is 1022
Heartbeat CPU 0 instructions: 70000001 cycles: 146755658 heartbeat IPC: 0.523897 cumulative IPC: 0.417865 (Simulation time: 0 hr 26 min 17 sec) 
select_counter is 1021
Heartbeat CPU 0 instructions: 71000003 cycles: 148795689 heartbeat IPC: 0.49019 cumulative IPC: 0.418878 (Simulation time: 0 hr 26 min 39 sec) 
select_counter is 1020
Heartbeat CPU 0 instructions: 72000000 cycles: 151916216 heartbeat IPC: 0.320458 cumulative IPC: 0.416813 (Simulation time: 0 hr 27 min 0 sec) 
select_counter is 992
Heartbeat CPU 0 instructions: 73000000 cycles: 155056438 heartbeat IPC: 0.318449 cumulative IPC: 0.41478 (Simulation time: 0 hr 27 min 25 sec) 
select_counter is 981
Heartbeat CPU 0 instructions: 74000000 cycles: 158167775 heartbeat IPC: 0.321405 cumulative IPC: 0.412905 (Simulation time: 0 hr 27 min 52 sec) 
select_counter is 964
Heartbeat CPU 0 instructions: 75000000 cycles: 161288686 heartbeat IPC: 0.320419 cumulative IPC: 0.41108 (Simulation time: 0 hr 28 min 15 sec) 
select_counter is 957
Heartbeat CPU 0 instructions: 76000000 cycles: 164427270 heartbeat IPC: 0.318615 cumulative IPC: 0.40928 (Simulation time: 0 hr 28 min 36 sec) 
select_counter is 945
Heartbeat CPU 0 instructions: 77000001 cycles: 166471376 heartbeat IPC: 0.489212 cumulative IPC: 0.410281 (Simulation time: 0 hr 29 min 4 sec) 
select_counter is 947
Heartbeat CPU 0 instructions: 78000000 cycles: 168380233 heartbeat IPC: 0.523873 cumulative IPC: 0.411593 (Simulation time: 0 hr 29 min 33 sec) 
select_counter is 945
Heartbeat CPU 0 instructions: 79000001 cycles: 170148996 heartbeat IPC: 0.565367 cumulative IPC: 0.413222 (Simulation time: 0 hr 29 min 56 sec) 
select_counter is 352
Heartbeat CPU 0 instructions: 80000000 cycles: 172057851 heartbeat IPC: 0.523874 cumulative IPC: 0.414473 (Simulation time: 0 hr 30 min 19 sec) 
select_counter is 351
Heartbeat CPU 0 instructions: 81000002 cycles: 174177827 heartbeat IPC: 0.471704 cumulative IPC: 0.415182 (Simulation time: 0 hr 30 min 42 sec) 
select_counter is 348
Heartbeat CPU 0 instructions: 82000003 cycles: 177463759 heartbeat IPC: 0.304328 cumulative IPC: 0.413092 (Simulation time: 0 hr 31 min 5 sec) 
select_counter is 318
Heartbeat CPU 0 instructions: 83000000 cycles: 180791491 heartbeat IPC: 0.300504 cumulative IPC: 0.410983 (Simulation time: 0 hr 31 min 29 sec) 
select_counter is 312
Heartbeat CPU 0 instructions: 84000000 cycles: 184112439 heartbeat IPC: 0.301119 cumulative IPC: 0.408967 (Simulation time: 0 hr 31 min 54 sec) 
select_counter is 318
Heartbeat CPU 0 instructions: 85000002 cycles: 187150389 heartbeat IPC: 0.32917 cumulative IPC: 0.407649 (Simulation time: 0 hr 32 min 15 sec) 
select_counter is 712
Heartbeat CPU 0 instructions: 86000002 cycles: 189021418 heartbeat IPC: 0.534465 cumulative IPC: 0.408926 (Simulation time: 0 hr 32 min 37 sec) 
select_counter is 1021
Heartbeat CPU 0 instructions: 87000002 cycles: 191453726 heartbeat IPC: 0.411132 cumulative IPC: 0.408954 (Simulation time: 0 hr 33 min 8 sec) 
select_counter is 1022
Heartbeat CPU 0 instructions: 88000000 cycles: 193472953 heartbeat IPC: 0.495238 cumulative IPC: 0.40987 (Simulation time: 0 hr 33 min 40 sec) 
select_counter is 1022
Heartbeat CPU 0 instructions: 89000000 cycles: 195447851 heartbeat IPC: 0.506355 cumulative IPC: 0.410861 (Simulation time: 0 hr 34 min 6 sec) 
select_counter is 1022
Heartbeat CPU 0 instructions: 90000000 cycles: 197912104 heartbeat IPC: 0.405802 cumulative IPC: 0.410797 (Simulation time: 0 hr 34 min 29 sec) 
select_counter is 1022
Heartbeat CPU 0 instructions: 91000002 cycles: 201662991 heartbeat IPC: 0.266604 cumulative IPC: 0.408072 (Simulation time: 0 hr 34 min 55 sec) 
select_counter is 1023
Heartbeat CPU 0 instructions: 92000000 cycles: 205952064 heartbeat IPC: 0.23315 cumulative IPC: 0.404372 (Simulation time: 0 hr 35 min 24 sec) 
select_counter is 1022
Heartbeat CPU 0 instructions: 93000001 cycles: 209900796 heartbeat IPC: 0.253246 cumulative IPC: 0.401486 (Simulation time: 0 hr 35 min 54 sec) 
select_counter is 1016
Heartbeat CPU 0 instructions: 94000001 cycles: 213435235 heartbeat IPC: 0.28293 cumulative IPC: 0.399493 (Simulation time: 0 hr 36 min 21 sec) 
select_counter is 1005
Heartbeat CPU 0 instructions: 95000000 cycles: 215321941 heartbeat IPC: 0.530024 cumulative IPC: 0.400654 (Simulation time: 0 hr 36 min 49 sec) 
select_counter is 1004
Heartbeat CPU 0 instructions: 96000000 cycles: 217238115 heartbeat IPC: 0.521873 cumulative IPC: 0.401739 (Simulation time: 0 hr 37 min 13 sec) 
select_counter is 409
Heartbeat CPU 0 instructions: 97000002 cycles: 219125846 heartbeat IPC: 0.529738 cumulative IPC: 0.402857 (Simulation time: 0 hr 37 min 39 sec) 
select_counter is 408
Heartbeat CPU 0 instructions: 98000001 cycles: 222009463 heartbeat IPC: 0.346786 cumulative IPC: 0.402119 (Simulation time: 0 hr 38 min 0 sec) 
select_counter is 390
Heartbeat CPU 0 instructions: 99000003 cycles: 225955792 heartbeat IPC: 0.253401 cumulative IPC: 0.399484 (Simulation time: 0 hr 38 min 25 sec) 
select_counter is 380
Heartbeat CPU 0 instructions: 100000000 cycles: 229894776 heartbeat IPC: 0.253872 cumulative IPC: 0.396955 (Simulation time: 0 hr 38 min 51 sec) 
select_counter is 368
Heartbeat CPU 0 instructions: 101000000 cycles: 233861692 heartbeat IPC: 0.252085 cumulative IPC: 0.394463 (Simulation time: 0 hr 39 min 17 sec) 
select_counter is 358
Heartbeat CPU 0 instructions: 102000000 cycles: 237153158 heartbeat IPC: 0.303816 cumulative IPC: 0.393188 (Simulation time: 0 hr 39 min 40 sec) 
select_counter is 285
Heartbeat CPU 0 instructions: 103000002 cycles: 239150113 heartbeat IPC: 0.500763 cumulative IPC: 0.394099 (Simulation time: 0 hr 40 min 5 sec) 
select_counter is 285
Heartbeat CPU 0 instructions: 104000000 cycles: 241147074 heartbeat IPC: 0.50076 cumulative IPC: 0.394994 (Simulation time: 0 hr 40 min 28 sec) 
select_counter is 286
Heartbeat CPU 0 instructions: 105000000 cycles: 243144070 heartbeat IPC: 0.500752 cumulative IPC: 0.395874 (Simulation time: 0 hr 40 min 49 sec) 
select_counter is 284
Heartbeat CPU 0 instructions: 106000003 cycles: 245140946 heartbeat IPC: 0.500784 cumulative IPC: 0.39674 (Simulation time: 0 hr 41 min 10 sec) 
select_counter is 285
Heartbeat CPU 0 instructions: 107000000 cycles: 248192812 heartbeat IPC: 0.327667 cumulative IPC: 0.395879 (Simulation time: 0 hr 41 min 29 sec) 
select_counter is 253
Heartbeat CPU 0 instructions: 108000000 cycles: 251798227 heartbeat IPC: 0.277361 cumulative IPC: 0.394161 (Simulation time: 0 hr 41 min 47 sec) 
select_counter is 259
Heartbeat CPU 0 instructions: 109000002 cycles: 254359109 heartbeat IPC: 0.390491 cumulative IPC: 0.394123 (Simulation time: 0 hr 42 min 3 sec) 
select_counter is 1023
Heartbeat CPU 0 instructions: 110000002 cycles: 257143790 heartbeat IPC: 0.359108 cumulative IPC: 0.393739 (Simulation time: 0 hr 42 min 22 sec) 
select_counter is 1012
Finished CPU 0 instructions: 100000001 cycles: 253975221 cummulative IPC: 0.393739 (Simulation time: 0 hr 42 min 22 sec) 

ChampSim completed all CPUs

Region of Interest Statistics

CPU 0 cummulative IPC: 0.393739 instructions: 100000001 cycles: 253975221
LLC TOTAL     ACCESS:    3801525  HIT:     305881  MISS:    3495644
LLC LOAD      ACCESS:    2789401  HIT:     138872  MISS:    2650529
LLC RFO       ACCESS:         20  HIT:         15  MISS:          5
LLC PREFETCH  ACCESS:          0  HIT:          0  MISS:          0
LLC WRITEBACK ACCESS:    1012104  HIT:     166994  MISS:     845110
Ship samples: 
3, 59, 84, 119, 152, 178, 193, 230, 270, 312, 332, 376, 414, 430, 456, 485, 521, 551, 604, 618, 643, 702, 705, 763, 796, 809, 845, 869, 920, 935, 961, 1010, 1042, 1084, 1098, 1132, 1154, 1211, 1230, 1248, 1292, 1329, 1354, 1407, 1418, 1442, 1491, 1526, 1550, 1588, 1626, 1638, 1674, 1727, 1753, 1762, 1802, 1855, 1867, 1910, 1926, 1953, 1996, 2047, 
Lime duel samples: 
0, 42, 64, 105, 138, 161, 208, 234, 261, 315, 346, 363, 406, 440, 450, 494, 530, 549, 594, 625, 669, 699, 717, 739, 797, 821, 839, 864, 901, 947, 960, 1004, 1034, 1081, 1102, 1127, 1166, 1194, 1219, 1271, 1290, 1322, 1370, 1399, 1410, 1447, 1484, 1524, 1541, 1587, 1624, 1632, 1692, 1698, 1752, 1760, 1797, 1844, 1876, 1919, 1941, 1976, 2009, 2040, 
Lime samples: 
0, 105, 208, 315, 406, 494, 594, 699, 797, 864, 960, 1081, 1166, 1271, 1370, 1447, 1541, 1632, 1752, 1844, 1941, 
Insertion Distribution: 
	LOAD 4416 0 0 0 0 0 18384 1055336 
	RFO 0 0 0 0 0 0 5 0 
	PREF 0 0 0 0 0 0 0 0 
	WRITEBACK 0 0 0 0 0 0 0 417038 
Total Prefetch Downgrades: 0
