Initialize SIGNATURE TABLE
ST_SET: 1
ST_WAY: 256
ST_TAG_BIT: 16
ST_TAG_MASK: ffff

Initialize PATTERN TABLE
PT_SET: 512
PT_WAY: 4
SIG_DELTA_BIT: 7
C_SIG_BIT: 4
C_DELTA_BIT: 4

Initialize PREFETCH FILTER
FILTER_SET: 1024

*** ChampSim Multicore Out-of-Order Simulator ***

Warmup Instructions: 50000000
Simulation Instructions: 50000000
Number of CPUs: 1
LLC sets: 2048
LLC ways: 16
Off-chip DRAM Size: 4096 MB Channels: 1 Width: 64-bit Data Rate: 3200 MT/s

CPU 0 runs /Users/gandhardeshpande/Desktop/CSE240C/HW1/ChampSim/ipc1_public/server_009.champsimtrace.xz
CPU 0 L1I next line prefetcher
Running FNL-MMA for L1I
CPU 0 L1D next line prefetcher
Heartbeat CPU 0 instructions: 10000003 cycles: 3195450 heartbeat IPC: 3.12945 cumulative IPC: 3.12945 (Simulation time: 0 hr 0 min 13 sec) 
Heartbeat CPU 0 instructions: 20000001 cycles: 6383667 heartbeat IPC: 3.13655 cumulative IPC: 3.133 (Simulation time: 0 hr 0 min 26 sec) 
Heartbeat CPU 0 instructions: 30000002 cycles: 9586700 heartbeat IPC: 3.12204 cumulative IPC: 3.12934 (Simulation time: 0 hr 0 min 40 sec) 
Heartbeat CPU 0 instructions: 40000003 cycles: 12786162 heartbeat IPC: 3.12553 cumulative IPC: 3.12838 (Simulation time: 0 hr 0 min 53 sec) 
Heartbeat CPU 0 instructions: 50000000 cycles: 16042558 heartbeat IPC: 3.07088 cumulative IPC: 3.11671 (Simulation time: 0 hr 1 min 7 sec) 

Warmup complete CPU 0 instructions: 50000004 cycles: 16042559 (Simulation time: 0 hr 1 min 7 sec) 

Heartbeat CPU 0 instructions: 60000002 cycles: 31678519 heartbeat IPC: 0.639551 cumulative IPC: 0.639551 (Simulation time: 0 hr 1 min 24 sec) 
Heartbeat CPU 0 instructions: 70000003 cycles: 52700832 heartbeat IPC: 0.475685 cumulative IPC: 0.545579 (Simulation time: 0 hr 1 min 45 sec) 
Heartbeat CPU 0 instructions: 80000000 cycles: 59829543 heartbeat IPC: 1.40278 cumulative IPC: 0.685135 (Simulation time: 0 hr 1 min 57 sec) 
Heartbeat CPU 0 instructions: 90000001 cycles: 67107975 heartbeat IPC: 1.37392 cumulative IPC: 0.783309 (Simulation time: 0 hr 2 min 9 sec) 
Heartbeat CPU 0 instructions: 100000003 cycles: 74297152 heartbeat IPC: 1.39098 cumulative IPC: 0.858301 (Simulation time: 0 hr 2 min 21 sec) 
Finished CPU 0 instructions: 50000003 cycles: 58254594 cumulative IPC: 0.858302 (Simulation time: 0 hr 2 min 21 sec) 

ChampSim completed all CPUs

Region of Interest Statistics

CPU 0 cumulative IPC: 0.858302 instructions: 50000003 cycles: 58254594
L1D TOTAL     ACCESS:   21616348  HIT:   17036806  MISS:    4579542
L1D LOAD      ACCESS:    8624895  HIT:    6343943  MISS:    2280952
L1D RFO       ACCESS:    4580751  HIT:    4476329  MISS:     104422
L1D PREFETCH  ACCESS:    8410702  HIT:    6216534  MISS:    2194168
L1D WRITEBACK ACCESS:          0  HIT:          0  MISS:          0
L1D PREFETCH  REQUESTED:    8657792  ISSUED:    8560707  USEFUL:     105663  USELESS:    2088504
L1D AVERAGE MISS LATENCY: 20.3935 cycles
L1I TOTAL     ACCESS:   13016814  HIT:   11506733  MISS:    1510081
L1I LOAD      ACCESS:   10749111  HIT:   10610440  MISS:     138671
L1I RFO       ACCESS:          0  HIT:          0  MISS:          0
L1I PREFETCH  ACCESS:    2267703  HIT:     896293  MISS:    1371410
L1I WRITEBACK ACCESS:          0  HIT:          0  MISS:          0
L1I PREFETCH  REQUESTED:    2449035  ISSUED:    2448940  USEFUL:     979261  USELESS:     392137
L1I AVERAGE MISS LATENCY: 29.1033 cycles
L2C TOTAL     ACCESS:    7748396  HIT:    6697538  MISS:    1050858
L2C LOAD      ACCESS:    2289576  HIT:    2078985  MISS:     210591
L2C RFO       ACCESS:     103487  HIT:      62915  MISS:      40572
L2C PREFETCH  ACCESS:    5098469  HIT:    4299795  MISS:     798674
L2C WRITEBACK ACCESS:     256864  HIT:     255843  MISS:       1021
L2C PREFETCH  REQUESTED:    7417673  ISSUED:    7415807  USEFUL:      20718  USELESS:     777109
L2C AVERAGE MISS LATENCY: 48.4356 cycles
LLC TOTAL     ACCESS:    2358271  HIT:    2220287  MISS:     137984
LLC LOAD      ACCESS:     210375  HIT:     191014  MISS:      19361
LLC RFO       ACCESS:      40571  HIT:      31359  MISS:       9212
LLC PREFETCH  ACCESS:    1969782  HIT:    1860635  MISS:     109147
LLC WRITEBACK ACCESS:     137543  HIT:     137279  MISS:        264
LLC PREFETCH  REQUESTED:          0  ISSUED:          0  USEFUL:       9899  USELESS:      96840
LLC AVERAGE MISS LATENCY: 172.908 cycles
Major fault: 0 Minor fault: 6355
I-Shadow cache 408 bytes
Touched + WorthPF tables 24576 bytes 
MMA filter 174 bytes 
FNL filter 272 bytes 
TOTAL PREFETCHER STORAGE SIZE: 98134 bytes
CPU 0 L1I next line prefetcher final stats
CPU 0 L1D next line prefetcher final stats

DRAM Statistics
 CHANNEL 0
 RQ ROW_BUFFER_HIT:      26856  ROW_BUFFER_MISS:     110849
 DBUS_CONGESTED:      60788
 WQ ROW_BUFFER_HIT:       9282  ROW_BUFFER_MISS:      37523  FULL:          0

 AVG_CONGESTED_CYCLE: 5

CPU 0 Branch Prediction Accuracy: 99.4713% MPKI: 1.11484 Average ROB Occupancy at Mispredict: 117.862

Branch types
NOT_BRANCH: 39456607 78.9132%
BRANCH_DIRECT_JUMP: 445350 0.8907%
BRANCH_INDIRECT: 131149 0.262298%
BRANCH_CONDITIONAL: 8130192 16.2604%
BRANCH_DIRECT_CALL: 732485 1.46497%
BRANCH_INDIRECT_CALL: 172369 0.344738%
BRANCH_RETURN: 931558 1.86312%
BRANCH_OTHER: 0 0%

