Initialize SIGNATURE TABLE
ST_SET: 1
ST_WAY: 256
ST_TAG_BIT: 16
ST_TAG_MASK: ffff

Initialize PATTERN TABLE
PT_SET: 512
PT_WAY: 4
SIG_DELTA_BIT: 7
C_SIG_BIT: 4
C_DELTA_BIT: 4

Initialize PREFETCH FILTER
FILTER_SET: 1024

*** ChampSim Multicore Out-of-Order Simulator ***

Warmup Instructions: 50000000
Simulation Instructions: 50000000
Number of CPUs: 1
LLC sets: 2048
LLC ways: 16
Off-chip DRAM Size: 4096 MB Channels: 1 Width: 64-bit Data Rate: 3200 MT/s

CPU 0 runs /Users/gandhardeshpande/Desktop/CSE240C/HW1/ChampSim/ipc1_public/client_004.champsimtrace.xz
CPU 0 L1I next line prefetcher
Running FNL-MMA for L1I
CPU 0 L1D next line prefetcher
Heartbeat CPU 0 instructions: 10000000 cycles: 3592265 heartbeat IPC: 2.78376 cumulative IPC: 2.78376 (Simulation time: 0 hr 0 min 14 sec) 
Heartbeat CPU 0 instructions: 20000003 cycles: 7056780 heartbeat IPC: 2.88641 cumulative IPC: 2.83415 (Simulation time: 0 hr 0 min 27 sec) 
Heartbeat CPU 0 instructions: 30000000 cycles: 10647504 heartbeat IPC: 2.78495 cumulative IPC: 2.81756 (Simulation time: 0 hr 0 min 41 sec) 
Heartbeat CPU 0 instructions: 40000003 cycles: 14328352 heartbeat IPC: 2.71677 cumulative IPC: 2.79167 (Simulation time: 0 hr 0 min 55 sec) 
Heartbeat CPU 0 instructions: 50000001 cycles: 17846365 heartbeat IPC: 2.84251 cumulative IPC: 2.80169 (Simulation time: 0 hr 1 min 9 sec) 

Warmup complete CPU 0 instructions: 50000001 cycles: 17846365 (Simulation time: 0 hr 1 min 9 sec) 

Heartbeat CPU 0 instructions: 60000002 cycles: 25640746 heartbeat IPC: 1.28298 cumulative IPC: 1.28298 (Simulation time: 0 hr 1 min 19 sec) 
Heartbeat CPU 0 instructions: 70000001 cycles: 33507770 heartbeat IPC: 1.27113 cumulative IPC: 1.27702 (Simulation time: 0 hr 1 min 31 sec) 
Heartbeat CPU 0 instructions: 80000002 cycles: 42231378 heartbeat IPC: 1.14631 cumulative IPC: 1.23026 (Simulation time: 0 hr 1 min 42 sec) 
Heartbeat CPU 0 instructions: 90000000 cycles: 50330534 heartbeat IPC: 1.2347 cumulative IPC: 1.23137 (Simulation time: 0 hr 1 min 53 sec) 
Heartbeat CPU 0 instructions: 100000001 cycles: 58216786 heartbeat IPC: 1.26803 cumulative IPC: 1.23853 (Simulation time: 0 hr 2 min 4 sec) 
Finished CPU 0 instructions: 50000000 cycles: 40370421 cumulative IPC: 1.23853 (Simulation time: 0 hr 2 min 4 sec) 

ChampSim completed all CPUs

Region of Interest Statistics

CPU 0 cumulative IPC: 1.23853 instructions: 50000000 cycles: 40370421
L1D TOTAL     ACCESS:   21970228  HIT:   21081224  MISS:     889004
L1D LOAD      ACCESS:    8725934  HIT:    8330074  MISS:     395860
L1D RFO       ACCESS:    4811645  HIT:    4690280  MISS:     121365
L1D PREFETCH  ACCESS:    8432649  HIT:    8060870  MISS:     371779
L1D WRITEBACK ACCESS:          0  HIT:          0  MISS:          0
L1D PREFETCH  REQUESTED:    8765034  ISSUED:    8605335  USEFUL:     133271  USELESS:     238516
L1D AVERAGE MISS LATENCY: 29.9202 cycles
L1I TOTAL     ACCESS:   10770484  HIT:    9934143  MISS:     836341
L1I LOAD      ACCESS:    9390124  HIT:    9220365  MISS:     169759
L1I RFO       ACCESS:          0  HIT:          0  MISS:          0
L1I PREFETCH  ACCESS:    1380360  HIT:     713778  MISS:     666582
L1I WRITEBACK ACCESS:          0  HIT:          0  MISS:          0
L1I PREFETCH  REQUESTED:    1459192  ISSUED:    1459191  USEFUL:     432659  USELESS:     233931
L1I AVERAGE MISS LATENCY: 27.6215 cycles
L2C TOTAL     ACCESS:    2560019  HIT:    2253315  MISS:     306704
L2C LOAD      ACCESS:     525145  HIT:     451754  MISS:      73391
L2C RFO       ACCESS:     117398  HIT:      45810  MISS:      71588
L2C PREFETCH  ACCESS:    1695451  HIT:    1534567  MISS:     160884
L2C WRITEBACK ACCESS:     222025  HIT:     221184  MISS:        841
L2C PREFETCH  REQUESTED:    1841593  ISSUED:    1841138  USEFUL:      25830  USELESS:     133985
L2C AVERAGE MISS LATENCY: 86.9102 cycles
LLC TOTAL     ACCESS:     723436  HIT:     582543  MISS:     140893
LLC LOAD      ACCESS:      73373  HIT:      53092  MISS:      20281
LLC RFO       ACCESS:      71587  HIT:      40311  MISS:      31276
LLC PREFETCH  ACCESS:     477174  HIT:     388195  MISS:      88979
LLC WRITEBACK ACCESS:     101302  HIT:     100945  MISS:        357
LLC PREFETCH  REQUESTED:          0  ISSUED:          0  USEFUL:      18922  USELESS:      70088
LLC AVERAGE MISS LATENCY: 181.542 cycles
Major fault: 0 Minor fault: 3981
I-Shadow cache 408 bytes
Touched + WorthPF tables 12288 bytes 
MMA filter 174 bytes 
FNL filter 272 bytes 
TOTAL PREFETCHER STORAGE SIZE: 49494 bytes
CPU 0 L1I next line prefetcher final stats
CPU 0 L1D next line prefetcher final stats

DRAM Statistics
 CHANNEL 0
 RQ ROW_BUFFER_HIT:      36020  ROW_BUFFER_MISS:     104499
 DBUS_CONGESTED:      75673
 WQ ROW_BUFFER_HIT:       8260  ROW_BUFFER_MISS:      37594  FULL:          0

 AVG_CONGESTED_CYCLE: 6

CPU 0 Branch Prediction Accuracy: 94.1242% MPKI: 11.6089 Average ROB Occupancy at Mispredict: 55.2427

Branch types
NOT_BRANCH: 40121092 80.2422%
BRANCH_DIRECT_JUMP: 644555 1.28911%
BRANCH_INDIRECT: 201946 0.403892%
BRANCH_CONDITIONAL: 7003557 14.0071%
BRANCH_DIRECT_CALL: 564821 1.12964%
BRANCH_INDIRECT_CALL: 445012 0.890024%
BRANCH_RETURN: 1018716 2.03743%
BRANCH_OTHER: 0 0%

