Initialize SIGNATURE TABLE
ST_SET: 1
ST_WAY: 256
ST_TAG_BIT: 16
ST_TAG_MASK: ffff

Initialize PATTERN TABLE
PT_SET: 512
PT_WAY: 4
SIG_DELTA_BIT: 7
C_SIG_BIT: 4
C_DELTA_BIT: 4

Initialize PREFETCH FILTER
FILTER_SET: 1024

*** ChampSim Multicore Out-of-Order Simulator ***

Warmup Instructions: 50000000
Simulation Instructions: 50000000
Number of CPUs: 1
LLC sets: 2048
LLC ways: 16
Off-chip DRAM Size: 4096 MB Channels: 1 Width: 64-bit Data Rate: 3200 MT/s

CPU 0 runs /Users/gandhardeshpande/Desktop/CSE240C/HW1/ChampSim/ipc1_public/server_038.champsimtrace.xz
CPU 0 L1I next line prefetcher
Running FNL-MMA for L1I
CPU 0 L1D next line prefetcher
Heartbeat CPU 0 instructions: 10000001 cycles: 3320802 heartbeat IPC: 3.01132 cumulative IPC: 3.01132 (Simulation time: 0 hr 0 min 15 sec) 
Heartbeat CPU 0 instructions: 20000003 cycles: 6644618 heartbeat IPC: 3.00859 cumulative IPC: 3.00996 (Simulation time: 0 hr 0 min 30 sec) 
Heartbeat CPU 0 instructions: 30000003 cycles: 9964598 heartbeat IPC: 3.01207 cumulative IPC: 3.01066 (Simulation time: 0 hr 0 min 45 sec) 
Heartbeat CPU 0 instructions: 40000001 cycles: 13288859 heartbeat IPC: 3.00819 cumulative IPC: 3.01004 (Simulation time: 0 hr 1 min 0 sec) 
Heartbeat CPU 0 instructions: 50000001 cycles: 16611222 heartbeat IPC: 3.00991 cumulative IPC: 3.01001 (Simulation time: 0 hr 1 min 15 sec) 

Warmup complete CPU 0 instructions: 50000001 cycles: 16611222 (Simulation time: 0 hr 1 min 15 sec) 

Heartbeat CPU 0 instructions: 60000002 cycles: 23042996 heartbeat IPC: 1.55478 cumulative IPC: 1.55478 (Simulation time: 0 hr 1 min 30 sec) 
Heartbeat CPU 0 instructions: 70000001 cycles: 29432486 heartbeat IPC: 1.56507 cumulative IPC: 1.55991 (Simulation time: 0 hr 1 min 46 sec) 
Heartbeat CPU 0 instructions: 80000000 cycles: 35824657 heartbeat IPC: 1.56441 cumulative IPC: 1.56141 (Simulation time: 0 hr 2 min 2 sec) 
Heartbeat CPU 0 instructions: 90000001 cycles: 42235516 heartbeat IPC: 1.55985 cumulative IPC: 1.56102 (Simulation time: 0 hr 2 min 18 sec) 
*** Reached end of trace for Core: 0 Repeating trace: /Users/gandhardeshpande/Desktop/CSE240C/HW1/ChampSim/ipc1_public/server_038.champsimtrace.xz
Heartbeat CPU 0 instructions: 100000002 cycles: 48651335 heartbeat IPC: 1.55865 cumulative IPC: 1.56054 (Simulation time: 0 hr 2 min 34 sec) 
Finished CPU 0 instructions: 50000001 cycles: 32040113 cumulative IPC: 1.56054 (Simulation time: 0 hr 2 min 34 sec) 

ChampSim completed all CPUs

Region of Interest Statistics

CPU 0 cumulative IPC: 1.56054 instructions: 50000001 cycles: 32040113
L1D TOTAL     ACCESS:   18691644  HIT:   17709321  MISS:     982323
L1D LOAD      ACCESS:    6359401  HIT:    5866201  MISS:     493200
L1D RFO       ACCESS:    6211086  HIT:    6146820  MISS:      64266
L1D PREFETCH  ACCESS:    6121157  HIT:    5696300  MISS:     424857
L1D WRITEBACK ACCESS:          0  HIT:          0  MISS:          0
L1D PREFETCH  REQUESTED:    6395867  ISSUED:    6243060  USEFUL:     118145  USELESS:     306715
L1D AVERAGE MISS LATENCY: 29.2902 cycles
L1I TOTAL     ACCESS:   15972710  HIT:   11356797  MISS:    4615913
L1I LOAD      ACCESS:    9434829  HIT:    9420646  MISS:      14183
L1I RFO       ACCESS:          0  HIT:          0  MISS:          0
L1I PREFETCH  ACCESS:    6537881  HIT:    1936151  MISS:    4601730
L1I WRITEBACK ACCESS:          0  HIT:          0  MISS:          0
L1I PREFETCH  REQUESTED:    6754685  ISSUED:    6754685  USEFUL:    4074295  USELESS:     527434
L1I AVERAGE MISS LATENCY: 14.9698 cycles
L2C TOTAL     ACCESS:    7900347  HIT:    7582854  MISS:     317493
L2C LOAD      ACCESS:     499119  HIT:     357483  MISS:     141636
L2C RFO       ACCESS:      63983  HIT:      36555  MISS:      27428
L2C PREFETCH  ACCESS:    7045551  HIT:    6898385  MISS:     147166
L2C WRITEBACK ACCESS:     291694  HIT:     290431  MISS:       1263
L2C PREFETCH  REQUESTED:    7828148  ISSUED:    7809781  USEFUL:       7091  USELESS:     139993
L2C AVERAGE MISS LATENCY: 45.876 cycles
LLC TOTAL     ACCESS:    2193178  HIT:    2129813  MISS:      63365
LLC LOAD      ACCESS:     141617  HIT:     128979  MISS:      12638
LLC RFO       ACCESS:      27426  HIT:      22376  MISS:       5050
LLC PREFETCH  ACCESS:    1880575  HIT:    1835540  MISS:      45035
LLC WRITEBACK ACCESS:     143560  HIT:     142918  MISS:        642
LLC PREFETCH  REQUESTED:          0  ISSUED:          0  USEFUL:       3851  USELESS:      39619
LLC AVERAGE MISS LATENCY: 171.534 cycles
Major fault: 0 Minor fault: 5526
I-Shadow cache 408 bytes
Touched + WorthPF tables 12288 bytes 
MMA filter 174 bytes 
FNL filter 272 bytes 
TOTAL PREFETCHER STORAGE SIZE: 49494 bytes
CPU 0 L1I next line prefetcher final stats
CPU 0 L1D next line prefetcher final stats

DRAM Statistics
 CHANNEL 0
 RQ ROW_BUFFER_HIT:      11312  ROW_BUFFER_MISS:      51409
 DBUS_CONGESTED:      30337
 WQ ROW_BUFFER_HIT:       1315  ROW_BUFFER_MISS:      12207  FULL:          0

 AVG_CONGESTED_CYCLE: 5

CPU 0 Branch Prediction Accuracy: 99.9279% MPKI: 0.12968 Average ROB Occupancy at Mispredict: 261.083

Branch types
NOT_BRANCH: 41006324 82.0126%
BRANCH_DIRECT_JUMP: 541914 1.08383%
BRANCH_INDIRECT: 59690 0.11938%
BRANCH_CONDITIONAL: 5915846 11.8317%
BRANCH_DIRECT_CALL: 1003588 2.00718%
BRANCH_INDIRECT_CALL: 234499 0.468998%
BRANCH_RETURN: 1238071 2.47614%
BRANCH_OTHER: 0 0%

