Initialize SIGNATURE TABLE
ST_SET: 1
ST_WAY: 256
ST_TAG_BIT: 16
ST_TAG_MASK: ffff

Initialize PATTERN TABLE
PT_SET: 512
PT_WAY: 4
SIG_DELTA_BIT: 7
C_SIG_BIT: 4
C_DELTA_BIT: 4

Initialize PREFETCH FILTER
FILTER_SET: 1024

*** ChampSim Multicore Out-of-Order Simulator ***

Warmup Instructions: 50000000
Simulation Instructions: 50000000
Number of CPUs: 1
LLC sets: 2048
LLC ways: 16
Off-chip DRAM Size: 4096 MB Channels: 1 Width: 64-bit Data Rate: 3200 MT/s

CPU 0 runs /Users/gandhardeshpande/Desktop/CSE240C/HW1/ChampSim/ipc1_public/server_034.champsimtrace.xz
CPU 0 L1D next line prefetcher
Heartbeat CPU 0 instructions: 10000000 cycles: 3329729 heartbeat IPC: 3.00325 cumulative IPC: 3.00325 (Simulation time: 0 hr 0 min 29 sec) 
Heartbeat CPU 0 instructions: 20000002 cycles: 6652950 heartbeat IPC: 3.00913 cumulative IPC: 3.00619 (Simulation time: 0 hr 0 min 57 sec) 
Heartbeat CPU 0 instructions: 30000003 cycles: 9984010 heartbeat IPC: 3.00205 cumulative IPC: 3.00481 (Simulation time: 0 hr 1 min 26 sec) 
Heartbeat CPU 0 instructions: 40000001 cycles: 13313049 heartbeat IPC: 3.00387 cumulative IPC: 3.00457 (Simulation time: 0 hr 1 min 55 sec) 
Heartbeat CPU 0 instructions: 50000000 cycles: 16641173 heartbeat IPC: 3.0047 cumulative IPC: 3.0046 (Simulation time: 0 hr 2 min 24 sec) 

Warmup complete CPU 0 instructions: 50000002 cycles: 16641174 (Simulation time: 0 hr 2 min 24 sec) 

Heartbeat CPU 0 instructions: 60000002 cycles: 22578288 heartbeat IPC: 1.68432 cumulative IPC: 1.68432 (Simulation time: 0 hr 2 min 53 sec) 
Heartbeat CPU 0 instructions: 70000003 cycles: 28937247 heartbeat IPC: 1.57258 cumulative IPC: 1.62654 (Simulation time: 0 hr 3 min 24 sec) 
Heartbeat CPU 0 instructions: 80000002 cycles: 34946697 heartbeat IPC: 1.66405 cumulative IPC: 1.63885 (Simulation time: 0 hr 3 min 54 sec) 
Heartbeat CPU 0 instructions: 90000002 cycles: 40958480 heartbeat IPC: 1.6634 cumulative IPC: 1.64492 (Simulation time: 0 hr 4 min 25 sec) 
Heartbeat CPU 0 instructions: 100000002 cycles: 46950334 heartbeat IPC: 1.66893 cumulative IPC: 1.64967 (Simulation time: 0 hr 4 min 55 sec) 
Finished CPU 0 instructions: 50000000 cycles: 30309160 cumulative IPC: 1.64967 (Simulation time: 0 hr 4 min 55 sec) 

ChampSim completed all CPUs

Region of Interest Statistics

CPU 0 cumulative IPC: 1.64967 instructions: 50000000 cycles: 30309160
L1D TOTAL     ACCESS:   18288558  HIT:   16864414  MISS:    1424144
L1D LOAD      ACCESS:    6152701  HIT:    5496604  MISS:     656097
L1D RFO       ACCESS:    6163203  HIT:    6020450  MISS:     142753
L1D PREFETCH  ACCESS:    5972654  HIT:    5347360  MISS:     625294
L1D WRITEBACK ACCESS:          0  HIT:          0  MISS:          0
L1D PREFETCH  REQUESTED:    6186917  ISSUED:    6098052  USEFUL:     140830  USELESS:     484432
L1D AVERAGE MISS LATENCY: 17.4888 cycles
L1I TOTAL     ACCESS:   15040346  HIT:   10517703  MISS:    4522643
L1I LOAD      ACCESS:    9610340  HIT:    9343723  MISS:     266617
L1I RFO       ACCESS:          0  HIT:          0  MISS:          0
L1I PREFETCH  ACCESS:    5430006  HIT:    1173980  MISS:    4256026
L1I WRITEBACK ACCESS:          0  HIT:          0  MISS:          0
L1I PREFETCH  REQUESTED:    6141246  ISSUED:    6141246  USEFUL:    3148552  USELESS:    1107476
L1I AVERAGE MISS LATENCY: 14.304 cycles
L2C TOTAL     ACCESS:    7890163  HIT:    7805974  MISS:      84189
L2C LOAD      ACCESS:     772116  HIT:     739330  MISS:      32786
L2C RFO       ACCESS:     140923  HIT:     133311  MISS:       7612
L2C PREFETCH  ACCESS:    6626400  HIT:    6583373  MISS:      43027
L2C WRITEBACK ACCESS:     350724  HIT:     349960  MISS:        764
L2C PREFETCH  REQUESTED:    4570764  ISSUED:    4567523  USEFUL:       2498  USELESS:      39652
L2C AVERAGE MISS LATENCY: 45.6224 cycles
LLC TOTAL     ACCESS:    1317769  HIT:    1302405  MISS:      15364
LLC LOAD      ACCESS:      32712  HIT:      29480  MISS:       3232
LLC RFO       ACCESS:       7611  HIT:       7230  MISS:        381
LLC PREFETCH  ACCESS:    1242358  HIT:    1230696  MISS:      11662
LLC WRITEBACK ACCESS:      35088  HIT:      34999  MISS:         89
LLC PREFETCH  REQUESTED:          0  ISSUED:          0  USEFUL:       2872  USELESS:       6323
LLC AVERAGE MISS LATENCY: 159.303 cycles
Major fault: 0 Minor fault: 1170
CPU 0 L1D next line prefetcher final stats

DRAM Statistics
 CHANNEL 0
 RQ ROW_BUFFER_HIT:       3748  ROW_BUFFER_MISS:      11523
 DBUS_CONGESTED:       6216
 WQ ROW_BUFFER_HIT:       1212  ROW_BUFFER_MISS:       3362  FULL:          0

 AVG_CONGESTED_CYCLE: 5

CPU 0 Branch Prediction Accuracy: 99.926% MPKI: 0.14472 Average ROB Occupancy at Mispredict: 250.329

Branch types
NOT_BRANCH: 40221079 80.4422%
BRANCH_DIRECT_JUMP: 771320 1.54264%
BRANCH_INDIRECT: 108663 0.217326%
BRANCH_CONDITIONAL: 6375050 12.7501%
BRANCH_DIRECT_CALL: 1049640 2.09928%
BRANCH_INDIRECT_CALL: 212281 0.424562%
BRANCH_RETURN: 1261928 2.52386%
BRANCH_OTHER: 0 0%

