Initialize SIGNATURE TABLE
ST_SET: 1
ST_WAY: 256
ST_TAG_BIT: 16
ST_TAG_MASK: ffff

Initialize PATTERN TABLE
PT_SET: 512
PT_WAY: 4
SIG_DELTA_BIT: 7
C_SIG_BIT: 4
C_DELTA_BIT: 4

Initialize PREFETCH FILTER
FILTER_SET: 1024

*** ChampSim Multicore Out-of-Order Simulator ***

Warmup Instructions: 50000000
Simulation Instructions: 50000000
Number of CPUs: 1
LLC sets: 2048
LLC ways: 16
Off-chip DRAM Size: 4096 MB Channels: 1 Width: 64-bit Data Rate: 3200 MT/s

CPU 0 runs /Users/gandhardeshpande/Desktop/CSE240C/HW1/ChampSim/ipc1_public/server_024.champsimtrace.xz
CPU 0 L1D next line prefetcher
Heartbeat CPU 0 instructions: 10000000 cycles: 3501860 heartbeat IPC: 2.85563 cumulative IPC: 2.85563 (Simulation time: 0 hr 0 min 28 sec) 
Heartbeat CPU 0 instructions: 20000002 cycles: 6997014 heartbeat IPC: 2.8611 cumulative IPC: 2.85836 (Simulation time: 0 hr 0 min 55 sec) 
Heartbeat CPU 0 instructions: 30000000 cycles: 10502123 heartbeat IPC: 2.85298 cumulative IPC: 2.85657 (Simulation time: 0 hr 1 min 22 sec) 
Heartbeat CPU 0 instructions: 40000000 cycles: 14004549 heartbeat IPC: 2.85516 cumulative IPC: 2.85621 (Simulation time: 0 hr 1 min 49 sec) 
Heartbeat CPU 0 instructions: 50000001 cycles: 17496080 heartbeat IPC: 2.86407 cumulative IPC: 2.85778 (Simulation time: 0 hr 2 min 16 sec) 

Warmup complete CPU 0 instructions: 50000001 cycles: 17496080 (Simulation time: 0 hr 2 min 16 sec) 

Heartbeat CPU 0 instructions: 60000003 cycles: 24320472 heartbeat IPC: 1.46533 cumulative IPC: 1.46533 (Simulation time: 0 hr 2 min 44 sec) 
Heartbeat CPU 0 instructions: 70000000 cycles: 31173552 heartbeat IPC: 1.4592 cumulative IPC: 1.46226 (Simulation time: 0 hr 3 min 12 sec) 
*** Reached end of trace for Core: 0 Repeating trace: /Users/gandhardeshpande/Desktop/CSE240C/HW1/ChampSim/ipc1_public/server_024.champsimtrace.xz
Heartbeat CPU 0 instructions: 80000003 cycles: 37996720 heartbeat IPC: 1.4656 cumulative IPC: 1.46337 (Simulation time: 0 hr 3 min 40 sec) 
Heartbeat CPU 0 instructions: 90000003 cycles: 44879606 heartbeat IPC: 1.45288 cumulative IPC: 1.46073 (Simulation time: 0 hr 4 min 9 sec) 
Heartbeat CPU 0 instructions: 100000002 cycles: 51722862 heartbeat IPC: 1.46129 cumulative IPC: 1.46084 (Simulation time: 0 hr 4 min 37 sec) 
Finished CPU 0 instructions: 50000001 cycles: 34226782 cumulative IPC: 1.46084 (Simulation time: 0 hr 4 min 37 sec) 

ChampSim completed all CPUs

Region of Interest Statistics

CPU 0 cumulative IPC: 1.46084 instructions: 50000001 cycles: 34226782
L1D TOTAL     ACCESS:   19729707  HIT:   18212141  MISS:    1517566
L1D LOAD      ACCESS:    6954003  HIT:    6273291  MISS:     680712
L1D RFO       ACCESS:    6149837  HIT:    5875896  MISS:     273941
L1D PREFETCH  ACCESS:    6625867  HIT:    6062954  MISS:     562913
L1D WRITEBACK ACCESS:          0  HIT:          0  MISS:          0
L1D PREFETCH  REQUESTED:    7008555  ISSUED:    6888626  USEFUL:     135497  USELESS:     427421
L1D AVERAGE MISS LATENCY: 25.4379 cycles
L1I TOTAL     ACCESS:   13597241  HIT:    9946283  MISS:    3650958
L1I LOAD      ACCESS:    9281273  HIT:    9060213  MISS:     221060
L1I RFO       ACCESS:          0  HIT:          0  MISS:          0
L1I PREFETCH  ACCESS:    4315968  HIT:     886070  MISS:    3429898
L1I WRITEBACK ACCESS:          0  HIT:          0  MISS:          0
L1I PREFETCH  REQUESTED:    4854737  ISSUED:    4854737  USEFUL:    2397418  USELESS:    1032461
L1I AVERAGE MISS LATENCY: 16.9968 cycles
L2C TOTAL     ACCESS:    6995489  HIT:    6287061  MISS:     708428
L2C LOAD      ACCESS:     713336  HIT:     577072  MISS:     136264
L2C RFO       ACCESS:     272193  HIT:     182608  MISS:      89585
L2C PREFETCH  ACCESS:    5489788  HIT:    5014940  MISS:     474848
L2C WRITEBACK ACCESS:     520172  HIT:     512441  MISS:       7731
L2C PREFETCH  REQUESTED:    3845928  ISSUED:    3843079  USEFUL:      14879  USELESS:     459543
L2C AVERAGE MISS LATENCY: 42.3984 cycles
LLC TOTAL     ACCESS:    1922085  HIT:    1870398  MISS:      51687
LLC LOAD      ACCESS:     136072  HIT:     130564  MISS:       5508
LLC RFO       ACCESS:      89573  HIT:      67335  MISS:      22238
LLC PREFETCH  ACCESS:    1548294  HIT:    1524632  MISS:      23662
LLC WRITEBACK ACCESS:     148146  HIT:     147867  MISS:        279
LLC PREFETCH  REQUESTED:          0  ISSUED:          0  USEFUL:       1793  USELESS:      21253
LLC AVERAGE MISS LATENCY: 197.881 cycles
Major fault: 0 Minor fault: 2362
CPU 0 L1D next line prefetcher final stats

DRAM Statistics
 CHANNEL 0
 RQ ROW_BUFFER_HIT:      17343  ROW_BUFFER_MISS:      34052
 DBUS_CONGESTED:      36460
 WQ ROW_BUFFER_HIT:       2660  ROW_BUFFER_MISS:      23105  FULL:          0

 AVG_CONGESTED_CYCLE: 6

CPU 0 Branch Prediction Accuracy: 99.7477% MPKI: 0.46156 Average ROB Occupancy at Mispredict: 167.586

Branch types
NOT_BRANCH: 40853676 81.7074%
BRANCH_DIRECT_JUMP: 566819 1.13364%
BRANCH_INDIRECT: 197171 0.394342%
BRANCH_CONDITIONAL: 6308421 12.6168%
BRANCH_DIRECT_CALL: 876400 1.7528%
BRANCH_INDIRECT_CALL: 160491 0.320982%
BRANCH_RETURN: 1036885 2.07377%
BRANCH_OTHER: 0 0%

