Initialize SIGNATURE TABLE
ST_SET: 1
ST_WAY: 256
ST_TAG_BIT: 16
ST_TAG_MASK: ffff

Initialize PATTERN TABLE
PT_SET: 512
PT_WAY: 4
SIG_DELTA_BIT: 7
C_SIG_BIT: 4
C_DELTA_BIT: 4

Initialize PREFETCH FILTER
FILTER_SET: 1024

*** ChampSim Multicore Out-of-Order Simulator ***

Warmup Instructions: 50000000
Simulation Instructions: 50000000
Number of CPUs: 1
LLC sets: 2048
LLC ways: 16
Off-chip DRAM Size: 4096 MB Channels: 1 Width: 64-bit Data Rate: 3200 MT/s

CPU 0 runs /Users/gandhardeshpande/Desktop/CSE240C/HW1/ChampSim/ipc1_public/spec_x264_001.champsimtrace.xz
CPU 0 L1D next line prefetcher
Heartbeat CPU 0 instructions: 10000002 cycles: 3060483 heartbeat IPC: 3.26746 cumulative IPC: 3.26746 (Simulation time: 0 hr 0 min 12 sec) 
Heartbeat CPU 0 instructions: 20000002 cycles: 6111249 heartbeat IPC: 3.27787 cumulative IPC: 3.27265 (Simulation time: 0 hr 0 min 24 sec) 
Heartbeat CPU 0 instructions: 30000002 cycles: 9147506 heartbeat IPC: 3.29353 cumulative IPC: 3.27958 (Simulation time: 0 hr 0 min 35 sec) 
Heartbeat CPU 0 instructions: 40000000 cycles: 12192858 heartbeat IPC: 3.28369 cumulative IPC: 3.28061 (Simulation time: 0 hr 0 min 47 sec) 
Heartbeat CPU 0 instructions: 50000000 cycles: 15236741 heartbeat IPC: 3.28528 cumulative IPC: 3.28154 (Simulation time: 0 hr 0 min 59 sec) 

Warmup complete CPU 0 instructions: 50000004 cycles: 15236742 (Simulation time: 0 hr 0 min 59 sec) 

Heartbeat CPU 0 instructions: 60000002 cycles: 21167506 heartbeat IPC: 1.68612 cumulative IPC: 1.68612 (Simulation time: 0 hr 1 min 7 sec) 
Heartbeat CPU 0 instructions: 70000000 cycles: 27075311 heartbeat IPC: 1.69268 cumulative IPC: 1.68939 (Simulation time: 0 hr 1 min 14 sec) 
Heartbeat CPU 0 instructions: 80000003 cycles: 33134300 heartbeat IPC: 1.65044 cumulative IPC: 1.67621 (Simulation time: 0 hr 1 min 22 sec) 
Heartbeat CPU 0 instructions: 90000002 cycles: 39172418 heartbeat IPC: 1.65614 cumulative IPC: 1.67115 (Simulation time: 0 hr 1 min 30 sec) 
Heartbeat CPU 0 instructions: 100000002 cycles: 45069922 heartbeat IPC: 1.69563 cumulative IPC: 1.67599 (Simulation time: 0 hr 1 min 38 sec) 
Finished CPU 0 instructions: 50000002 cycles: 29833181 cumulative IPC: 1.67599 (Simulation time: 0 hr 1 min 38 sec) 

ChampSim completed all CPUs

Region of Interest Statistics

CPU 0 cumulative IPC: 1.67599 instructions: 50000002 cycles: 29833181
L1D TOTAL     ACCESS:   12959787  HIT:   12798745  MISS:     161042
L1D LOAD      ACCESS:    5093634  HIT:    5038445  MISS:      55189
L1D RFO       ACCESS:    2882831  HIT:    2848587  MISS:      34244
L1D PREFETCH  ACCESS:    4983322  HIT:    4911713  MISS:      71609
L1D WRITEBACK ACCESS:          0  HIT:          0  MISS:          0
L1D PREFETCH  REQUESTED:    5110503  ISSUED:    5043045  USEFUL:      25749  USELESS:      45669
L1D AVERAGE MISS LATENCY: 40.934 cycles
L1I TOTAL     ACCESS:    8494692  HIT:    8128007  MISS:     366685
L1I LOAD      ACCESS:    8032773  HIT:    8021566  MISS:      11207
L1I RFO       ACCESS:          0  HIT:          0  MISS:          0
L1I PREFETCH  ACCESS:     461919  HIT:     106441  MISS:     355478
L1I WRITEBACK ACCESS:          0  HIT:          0  MISS:          0
L1I PREFETCH  REQUESTED:     509040  ISSUED:     509040  USEFUL:     287257  USELESS:      68260
L1I AVERAGE MISS LATENCY: 14.4126 cycles
L2C TOTAL     ACCESS:     757864  HIT:     718768  MISS:      39096
L2C LOAD      ACCESS:      59402  HIT:      54000  MISS:       5402
L2C RFO       ACCESS:      34004  HIT:      21956  MISS:      12048
L2C PREFETCH  ACCESS:     621384  HIT:     599814  MISS:      21570
L2C WRITEBACK ACCESS:      43074  HIT:      42998  MISS:         76
L2C PREFETCH  REQUESTED:     448452  ISSUED:     448113  USEFUL:       8916  USELESS:      12925
L2C AVERAGE MISS LATENCY: 107.569 cycles
LLC TOTAL     ACCESS:     124598  HIT:      95306  MISS:      29292
LLC LOAD      ACCESS:       5402  HIT:       3211  MISS:       2191
LLC RFO       ACCESS:      12048  HIT:        415  MISS:      11633
LLC PREFETCH  ACCESS:      93608  HIT:      78234  MISS:      15374
LLC WRITEBACK ACCESS:      13540  HIT:      13446  MISS:         94
LLC PREFETCH  REQUESTED:          0  ISSUED:          0  USEFUL:       1658  USELESS:      14086
LLC AVERAGE MISS LATENCY: 162.016 cycles
Major fault: 0 Minor fault: 1284
CPU 0 L1D next line prefetcher final stats

DRAM Statistics
 CHANNEL 0
 RQ ROW_BUFFER_HIT:       9894  ROW_BUFFER_MISS:      19304
 DBUS_CONGESTED:      12230
 WQ ROW_BUFFER_HIT:       3007  ROW_BUFFER_MISS:       9770  FULL:          0

 AVG_CONGESTED_CYCLE: 6

CPU 0 Branch Prediction Accuracy: 97.1633% MPKI: 1.73704 Average ROB Occupancy at Mispredict: 42.8175

Branch types
NOT_BRANCH: 46937921 93.8758%
BRANCH_DIRECT_JUMP: 170816 0.341632%
BRANCH_INDIRECT: 0 0%
BRANCH_CONDITIONAL: 2532774 5.06555%
BRANCH_DIRECT_CALL: 114227 0.228454%
BRANCH_INDIRECT_CALL: 64863 0.129726%
BRANCH_RETURN: 179089 0.358178%
BRANCH_OTHER: 0 0%

