Initialize SIGNATURE TABLE
ST_SET: 1
ST_WAY: 256
ST_TAG_BIT: 16
ST_TAG_MASK: ffff

Initialize PATTERN TABLE
PT_SET: 512
PT_WAY: 4
SIG_DELTA_BIT: 7
C_SIG_BIT: 4
C_DELTA_BIT: 4

Initialize PREFETCH FILTER
FILTER_SET: 1024

*** ChampSim Multicore Out-of-Order Simulator ***

Warmup Instructions: 50000000
Simulation Instructions: 50000000
Number of CPUs: 1
LLC sets: 2048
LLC ways: 16
Off-chip DRAM Size: 4096 MB Channels: 1 Width: 64-bit Data Rate: 3200 MT/s

CPU 0 runs /Users/gandhardeshpande/Desktop/CSE240C/HW1/ChampSim/ipc1_public/client_005.champsimtrace.xz
CPU 0 L1I next line prefetcher
Running FNL-MMA for L1I
CPU 0 L1D next line prefetcher
Heartbeat CPU 0 instructions: 10000001 cycles: 3291906 heartbeat IPC: 3.03775 cumulative IPC: 3.03775 (Simulation time: 0 hr 0 min 13 sec) 
Heartbeat CPU 0 instructions: 20000002 cycles: 6698891 heartbeat IPC: 2.93515 cumulative IPC: 2.98557 (Simulation time: 0 hr 0 min 27 sec) 
Heartbeat CPU 0 instructions: 30000001 cycles: 10392193 heartbeat IPC: 2.7076 cumulative IPC: 2.88678 (Simulation time: 0 hr 0 min 42 sec) 
Heartbeat CPU 0 instructions: 40000000 cycles: 14070035 heartbeat IPC: 2.71899 cumulative IPC: 2.84292 (Simulation time: 0 hr 0 min 57 sec) 
Heartbeat CPU 0 instructions: 50000001 cycles: 17343690 heartbeat IPC: 3.05469 cumulative IPC: 2.88289 (Simulation time: 0 hr 1 min 11 sec) 

Warmup complete CPU 0 instructions: 50000001 cycles: 17343690 (Simulation time: 0 hr 1 min 11 sec) 

Heartbeat CPU 0 instructions: 60000002 cycles: 24935491 heartbeat IPC: 1.31721 cumulative IPC: 1.31721 (Simulation time: 0 hr 1 min 22 sec) 
Heartbeat CPU 0 instructions: 70000003 cycles: 32226162 heartbeat IPC: 1.37162 cumulative IPC: 1.34386 (Simulation time: 0 hr 1 min 35 sec) 
Heartbeat CPU 0 instructions: 80000001 cycles: 39102109 heartbeat IPC: 1.45434 cumulative IPC: 1.37878 (Simulation time: 0 hr 1 min 48 sec) 
Heartbeat CPU 0 instructions: 90000002 cycles: 48584392 heartbeat IPC: 1.0546 cumulative IPC: 1.28038 (Simulation time: 0 hr 2 min 2 sec) 
Heartbeat CPU 0 instructions: 100000002 cycles: 56092084 heartbeat IPC: 1.33197 cumulative IPC: 1.29038 (Simulation time: 0 hr 2 min 13 sec) 
Finished CPU 0 instructions: 50000001 cycles: 38748394 cumulative IPC: 1.29038 (Simulation time: 0 hr 2 min 13 sec) 

ChampSim completed all CPUs

Region of Interest Statistics

CPU 0 cumulative IPC: 1.29038 instructions: 50000001 cycles: 38748394
L1D TOTAL     ACCESS:   19660526  HIT:   19124671  MISS:     535855
L1D LOAD      ACCESS:    6657557  HIT:    6486041  MISS:     171516
L1D RFO       ACCESS:    6797064  HIT:    6612674  MISS:     184390
L1D PREFETCH  ACCESS:    6205905  HIT:    6025956  MISS:     179949
L1D WRITEBACK ACCESS:          0  HIT:          0  MISS:          0
L1D PREFETCH  REQUESTED:    6680902  ISSUED:    6310264  USEFUL:      59703  USELESS:     120133
L1D AVERAGE MISS LATENCY: 92.5579 cycles
L1I TOTAL     ACCESS:   12209269  HIT:   11066755  MISS:    1142514
L1I LOAD      ACCESS:    9314253  HIT:    9129640  MISS:     184613
L1I RFO       ACCESS:          0  HIT:          0  MISS:          0
L1I PREFETCH  ACCESS:    2895016  HIT:    1937115  MISS:     957901
L1I WRITEBACK ACCESS:          0  HIT:          0  MISS:          0
L1I PREFETCH  REQUESTED:    3006907  ISSUED:    3006883  USEFUL:     616939  USELESS:     340889
L1I AVERAGE MISS LATENCY: 20.3352 cycles
L2C TOTAL     ACCESS:    2449508  HIT:    2061387  MISS:     388121
L2C LOAD      ACCESS:     318672  HIT:     232484  MISS:      86188
L2C RFO       ACCESS:     180774  HIT:      31262  MISS:     149512
L2C PREFETCH  ACCESS:    1697014  HIT:    1545626  MISS:     151388
L2C WRITEBACK ACCESS:     253048  HIT:     252015  MISS:       1033
L2C PREFETCH  REQUESTED:    1868770  ISSUED:    1867897  USEFUL:      16092  USELESS:     133499
L2C AVERAGE MISS LATENCY: 128.208 cycles
LLC TOTAL     ACCESS:     988370  HIT:     686272  MISS:     302098
LLC LOAD      ACCESS:      86159  HIT:      44525  MISS:      41634
LLC RFO       ACCESS:     149507  HIT:      19876  MISS:     129631
LLC PREFETCH  ACCESS:     552999  HIT:     423023  MISS:     129976
LLC WRITEBACK ACCESS:     199705  HIT:     198848  MISS:        857
LLC PREFETCH  REQUESTED:          0  ISSUED:          0  USEFUL:      27977  USELESS:      97340
LLC AVERAGE MISS LATENCY: 170.568 cycles
Major fault: 0 Minor fault: 6084
I-Shadow cache 408 bytes
Touched + WorthPF tables 49152 bytes 
MMA filter 174 bytes 
FNL filter 272 bytes 
TOTAL PREFETCHER STORAGE SIZE: 195414 bytes
CPU 0 L1I next line prefetcher final stats
CPU 0 L1D next line prefetcher final stats

DRAM Statistics
 CHANNEL 0
 RQ ROW_BUFFER_HIT:      97831  ROW_BUFFER_MISS:     203401
 DBUS_CONGESTED:     245607
 WQ ROW_BUFFER_HIT:      51305  ROW_BUFFER_MISS:     131907  FULL:          0

 AVG_CONGESTED_CYCLE: 6

CPU 0 Branch Prediction Accuracy: 97.8666% MPKI: 3.9013 Average ROB Occupancy at Mispredict: 87.5514

Branch types
NOT_BRANCH: 40856330 81.7127%
BRANCH_DIRECT_JUMP: 484667 0.969334%
BRANCH_INDIRECT: 85086 0.170172%
BRANCH_CONDITIONAL: 6230887 12.4618%
BRANCH_DIRECT_CALL: 1028917 2.05783%
BRANCH_INDIRECT_CALL: 141825 0.28365%
BRANCH_RETURN: 1171986 2.34397%
BRANCH_OTHER: 0 0%

