Initialize SIGNATURE TABLE
ST_SET: 1
ST_WAY: 256
ST_TAG_BIT: 16
ST_TAG_MASK: ffff

Initialize PATTERN TABLE
PT_SET: 512
PT_WAY: 4
SIG_DELTA_BIT: 7
C_SIG_BIT: 4
C_DELTA_BIT: 4

Initialize PREFETCH FILTER
FILTER_SET: 1024

*** ChampSim Multicore Out-of-Order Simulator ***

Warmup Instructions: 50000000
Simulation Instructions: 50000000
Number of CPUs: 1
LLC sets: 2048
LLC ways: 16
Off-chip DRAM Size: 4096 MB Channels: 1 Width: 64-bit Data Rate: 3200 MT/s

CPU 0 runs /Users/gandhardeshpande/Desktop/CSE240C/HW1/ChampSim/ipc1_public/server_010.champsimtrace.xz
CPU 0 L1I next line prefetcher
Running FNL-MMA for L1I
CPU 0 L1D next line prefetcher
Heartbeat CPU 0 instructions: 10000000 cycles: 3193575 heartbeat IPC: 3.13129 cumulative IPC: 3.13129 (Simulation time: 0 hr 0 min 14 sec) 
Heartbeat CPU 0 instructions: 20000002 cycles: 6383115 heartbeat IPC: 3.13525 cumulative IPC: 3.13327 (Simulation time: 0 hr 0 min 27 sec) 
Heartbeat CPU 0 instructions: 30000001 cycles: 9576122 heartbeat IPC: 3.13184 cumulative IPC: 3.13279 (Simulation time: 0 hr 0 min 41 sec) 
Heartbeat CPU 0 instructions: 40000000 cycles: 12765699 heartbeat IPC: 3.13521 cumulative IPC: 3.1334 (Simulation time: 0 hr 0 min 54 sec) 
Heartbeat CPU 0 instructions: 50000003 cycles: 15960780 heartbeat IPC: 3.12981 cumulative IPC: 3.13268 (Simulation time: 0 hr 1 min 8 sec) 

Warmup complete CPU 0 instructions: 50000003 cycles: 15960780 (Simulation time: 0 hr 1 min 8 sec) 

Heartbeat CPU 0 instructions: 60000001 cycles: 23117729 heartbeat IPC: 1.39724 cumulative IPC: 1.39724 (Simulation time: 0 hr 1 min 20 sec) 
Heartbeat CPU 0 instructions: 70000000 cycles: 30328191 heartbeat IPC: 1.38687 cumulative IPC: 1.39204 (Simulation time: 0 hr 1 min 32 sec) 
Heartbeat CPU 0 instructions: 80000003 cycles: 37607822 heartbeat IPC: 1.3737 cumulative IPC: 1.38587 (Simulation time: 0 hr 1 min 44 sec) 
Heartbeat CPU 0 instructions: 90000002 cycles: 44647534 heartbeat IPC: 1.42051 cumulative IPC: 1.39437 (Simulation time: 0 hr 1 min 56 sec) 
Heartbeat CPU 0 instructions: 100000003 cycles: 65242837 heartbeat IPC: 0.485548 cumulative IPC: 1.01457 (Simulation time: 0 hr 2 min 17 sec) 
Finished CPU 0 instructions: 50000000 cycles: 49282057 cumulative IPC: 1.01457 (Simulation time: 0 hr 2 min 17 sec) 

ChampSim completed all CPUs

Region of Interest Statistics

CPU 0 cumulative IPC: 1.01457 instructions: 50000000 cycles: 49282057
L1D TOTAL     ACCESS:   19876943  HIT:   16651835  MISS:    3225108
L1D LOAD      ACCESS:    7695038  HIT:    6101156  MISS:    1593882
L1D RFO       ACCESS:    4710642  HIT:    4616304  MISS:      94338
L1D PREFETCH  ACCESS:    7471263  HIT:    5934375  MISS:    1536888
L1D WRITEBACK ACCESS:          0  HIT:          0  MISS:          0
L1D PREFETCH  REQUESTED:    7728389  ISSUED:    7631608  USEFUL:     116402  USELESS:    1420457
L1D AVERAGE MISS LATENCY: 22.7818 cycles
L1I TOTAL     ACCESS:   12586071  HIT:   10904677  MISS:    1681394
L1I LOAD      ACCESS:    9947531  HIT:    9830423  MISS:     117108
L1I RFO       ACCESS:          0  HIT:          0  MISS:          0
L1I PREFETCH  ACCESS:    2638540  HIT:    1074254  MISS:    1564286
L1I WRITEBACK ACCESS:          0  HIT:          0  MISS:          0
L1I PREFETCH  REQUESTED:    2796985  ISSUED:    2796614  USEFUL:    1122919  USELESS:     441396
L1I AVERAGE MISS LATENCY: 29.4937 cycles
L2C TOTAL     ACCESS:    6189291  HIT:    5042529  MISS:    1146762
L2C LOAD      ACCESS:    1598644  HIT:    1374275  MISS:     224369
L2C RFO       ACCESS:      93297  HIT:      48423  MISS:      44874
L2C PREFETCH  ACCESS:    4231996  HIT:    3355899  MISS:     876097
L2C WRITEBACK ACCESS:     265354  HIT:     263932  MISS:       1422
L2C PREFETCH  REQUESTED:    5848633  ISSUED:    5846984  USEFUL:      22490  USELESS:     854864
L2C AVERAGE MISS LATENCY: 46.7793 cycles
LLC TOTAL     ACCESS:    2342760  HIT:    2219269  MISS:     123491
LLC LOAD      ACCESS:     224290  HIT:     207731  MISS:      16559
LLC RFO       ACCESS:      44871  HIT:      35370  MISS:       9501
LLC PREFETCH  ACCESS:    1924085  HIT:    1826834  MISS:      97251
LLC WRITEBACK ACCESS:     149514  HIT:     149334  MISS:        180
LLC PREFETCH  REQUESTED:          0  ISSUED:          0  USEFUL:       8732  USELESS:      89070
LLC AVERAGE MISS LATENCY: 175.665 cycles
Major fault: 0 Minor fault: 5595
I-Shadow cache 408 bytes
Touched + WorthPF tables 49152 bytes 
MMA filter 174 bytes 
FNL filter 272 bytes 
TOTAL PREFETCHER STORAGE SIZE: 195414 bytes
CPU 0 L1I next line prefetcher final stats
CPU 0 L1D next line prefetcher final stats

DRAM Statistics
 CHANNEL 0
 RQ ROW_BUFFER_HIT:      18675  ROW_BUFFER_MISS:     104626
 DBUS_CONGESTED:      56643
 WQ ROW_BUFFER_HIT:       9809  ROW_BUFFER_MISS:      44027  FULL:          0

 AVG_CONGESTED_CYCLE: 5

CPU 0 Branch Prediction Accuracy: 99.5528% MPKI: 0.89798 Average ROB Occupancy at Mispredict: 129.549

Branch types
NOT_BRANCH: 39958788 79.9176%
BRANCH_DIRECT_JUMP: 449946 0.899892%
BRANCH_INDIRECT: 140210 0.28042%
BRANCH_CONDITIONAL: 7679677 15.3594%
BRANCH_DIRECT_CALL: 701578 1.40316%
BRANCH_INDIRECT_CALL: 168971 0.337942%
BRANCH_RETURN: 900560 1.80112%
BRANCH_OTHER: 0 0%

