Initialize SIGNATURE TABLE
ST_SET: 1
ST_WAY: 256
ST_TAG_BIT: 16
ST_TAG_MASK: ffff

Initialize PATTERN TABLE
PT_SET: 512
PT_WAY: 4
SIG_DELTA_BIT: 7
C_SIG_BIT: 4
C_DELTA_BIT: 4

Initialize PREFETCH FILTER
FILTER_SET: 1024

*** ChampSim Multicore Out-of-Order Simulator ***

Warmup Instructions: 50000000
Simulation Instructions: 50000000
Number of CPUs: 1
LLC sets: 2048
LLC ways: 16
Off-chip DRAM Size: 4096 MB Channels: 1 Width: 64-bit Data Rate: 3200 MT/s

CPU 0 runs /Users/gandhardeshpande/Desktop/CSE240C/HW1/ChampSim/ipc1_public/server_037.champsimtrace.xz
CPU 0 L1I next line prefetcher
Running FNL-MMA for L1I
CPU 0 L1D next line prefetcher
Heartbeat CPU 0 instructions: 10000001 cycles: 3319210 heartbeat IPC: 3.01277 cumulative IPC: 3.01277 (Simulation time: 0 hr 0 min 15 sec) 
Heartbeat CPU 0 instructions: 20000002 cycles: 6635968 heartbeat IPC: 3.01499 cumulative IPC: 3.01388 (Simulation time: 0 hr 0 min 29 sec) 
Heartbeat CPU 0 instructions: 30000003 cycles: 10000465 heartbeat IPC: 2.97221 cumulative IPC: 2.99986 (Simulation time: 0 hr 0 min 44 sec) 
Heartbeat CPU 0 instructions: 40000000 cycles: 13318970 heartbeat IPC: 3.0134 cumulative IPC: 3.00324 (Simulation time: 0 hr 0 min 59 sec) 
Heartbeat CPU 0 instructions: 50000003 cycles: 16636924 heartbeat IPC: 3.01391 cumulative IPC: 3.00536 (Simulation time: 0 hr 1 min 14 sec) 

Warmup complete CPU 0 instructions: 50000003 cycles: 16636924 (Simulation time: 0 hr 1 min 14 sec) 

Heartbeat CPU 0 instructions: 60000001 cycles: 23031496 heartbeat IPC: 1.56383 cumulative IPC: 1.56383 (Simulation time: 0 hr 1 min 30 sec) 
Heartbeat CPU 0 instructions: 70000000 cycles: 29522118 heartbeat IPC: 1.54068 cumulative IPC: 1.55217 (Simulation time: 0 hr 1 min 46 sec) 
Heartbeat CPU 0 instructions: 80000000 cycles: 35907323 heartbeat IPC: 1.56612 cumulative IPC: 1.55679 (Simulation time: 0 hr 2 min 2 sec) 
Heartbeat CPU 0 instructions: 90000002 cycles: 42315019 heartbeat IPC: 1.56062 cumulative IPC: 1.55775 (Simulation time: 0 hr 2 min 18 sec) 
*** Reached end of trace for Core: 0 Repeating trace: /Users/gandhardeshpande/Desktop/CSE240C/HW1/ChampSim/ipc1_public/server_037.champsimtrace.xz
Heartbeat CPU 0 instructions: 100000000 cycles: 48710817 heartbeat IPC: 1.56353 cumulative IPC: 1.5589 (Simulation time: 0 hr 2 min 34 sec) 
Finished CPU 0 instructions: 50000001 cycles: 32073894 cumulative IPC: 1.5589 (Simulation time: 0 hr 2 min 34 sec) 

ChampSim completed all CPUs

Region of Interest Statistics

CPU 0 cumulative IPC: 1.5589 instructions: 50000001 cycles: 32073894
L1D TOTAL     ACCESS:   18683415  HIT:   17705497  MISS:     977918
L1D LOAD      ACCESS:    6357921  HIT:    5866405  MISS:     491516
L1D RFO       ACCESS:    6205457  HIT:    6141446  MISS:      64011
L1D PREFETCH  ACCESS:    6120037  HIT:    5697646  MISS:     422391
L1D WRITEBACK ACCESS:          0  HIT:          0  MISS:          0
L1D PREFETCH  REQUESTED:    6395185  ISSUED:    6242148  USEFUL:     117278  USELESS:     305118
L1D AVERAGE MISS LATENCY: 29.2809 cycles
L1I TOTAL     ACCESS:   15880284  HIT:   11250136  MISS:    4630148
L1I LOAD      ACCESS:    9430076  HIT:    9418857  MISS:      11219
L1I RFO       ACCESS:          0  HIT:          0  MISS:          0
L1I PREFETCH  ACCESS:    6450208  HIT:    1831279  MISS:    4618929
L1I WRITEBACK ACCESS:          0  HIT:          0  MISS:          0
L1I PREFETCH  REQUESTED:    6622318  ISSUED:    6622310  USEFUL:    4083680  USELESS:     535271
L1I AVERAGE MISS LATENCY: 15.0112 cycles
L2C TOTAL     ACCESS:    8024609  HIT:    7703540  MISS:     321069
L2C LOAD      ACCESS:     492061  HIT:     348115  MISS:     143946
L2C RFO       ACCESS:      63737  HIT:      36327  MISS:      27410
L2C PREFETCH  ACCESS:    7179293  HIT:    7030659  MISS:     148634
L2C WRITEBACK ACCESS:     289518  HIT:     288439  MISS:       1079
L2C PREFETCH  REQUESTED:    8039302  ISSUED:    8015518  USEFUL:       6818  USELESS:     141637
L2C AVERAGE MISS LATENCY: 45.02 cycles
LLC TOTAL     ACCESS:    2117227  HIT:    2055964  MISS:      61263
LLC LOAD      ACCESS:     143925  HIT:     131188  MISS:      12737
LLC RFO       ACCESS:      27407  HIT:      22977  MISS:       4430
LLC PREFETCH  ACCESS:    1802158  HIT:    1758668  MISS:      43490
LLC WRITEBACK ACCESS:     143737  HIT:     143131  MISS:        606
LLC PREFETCH  REQUESTED:          0  ISSUED:          0  USEFUL:       4836  USELESS:      37285
LLC AVERAGE MISS LATENCY: 167.263 cycles
Major fault: 0 Minor fault: 5652
I-Shadow cache 408 bytes
Touched + WorthPF tables 49152 bytes 
MMA filter 174 bytes 
FNL filter 272 bytes 
TOTAL PREFETCHER STORAGE SIZE: 195414 bytes
CPU 0 L1I next line prefetcher final stats
CPU 0 L1D next line prefetcher final stats

DRAM Statistics
 CHANNEL 0
 RQ ROW_BUFFER_HIT:       9015  ROW_BUFFER_MISS:      51642
 DBUS_CONGESTED:      30629
 WQ ROW_BUFFER_HIT:       1386  ROW_BUFFER_MISS:      11401  FULL:          0

 AVG_CONGESTED_CYCLE: 5

CPU 0 Branch Prediction Accuracy: 99.913% MPKI: 0.15656 Average ROB Occupancy at Mispredict: 227.762

Branch types
NOT_BRANCH: 41001725 82.0034%
BRANCH_DIRECT_JUMP: 541941 1.08388%
BRANCH_INDIRECT: 59716 0.119432%
BRANCH_CONDITIONAL: 5916854 11.8337%
BRANCH_DIRECT_CALL: 1005465 2.01093%
BRANCH_INDIRECT_CALL: 234433 0.468866%
BRANCH_RETURN: 1239877 2.47975%
BRANCH_OTHER: 0 0%

