Initialize SIGNATURE TABLE
ST_SET: 1
ST_WAY: 256
ST_TAG_BIT: 16
ST_TAG_MASK: ffff

Initialize PATTERN TABLE
PT_SET: 512
PT_WAY: 4
SIG_DELTA_BIT: 7
C_SIG_BIT: 4
C_DELTA_BIT: 4

Initialize PREFETCH FILTER
FILTER_SET: 1024

*** ChampSim Multicore Out-of-Order Simulator ***

Warmup Instructions: 50000000
Simulation Instructions: 50000000
Number of CPUs: 1
LLC sets: 2048
LLC ways: 16
Off-chip DRAM Size: 4096 MB Channels: 1 Width: 64-bit Data Rate: 3200 MT/s

CPU 0 runs /Users/gandhardeshpande/Desktop/CSE240C/HW1/ChampSim/ipc1_public/server_038.champsimtrace.xz
CPU 0 L1I next line prefetcher
Running FNL-MMA for L1I
CPU 0 L1D next line prefetcher
Heartbeat CPU 0 instructions: 10000001 cycles: 3320705 heartbeat IPC: 3.01141 cumulative IPC: 3.01141 (Simulation time: 0 hr 0 min 15 sec) 
Heartbeat CPU 0 instructions: 20000003 cycles: 6644446 heartbeat IPC: 3.00866 cumulative IPC: 3.01003 (Simulation time: 0 hr 0 min 30 sec) 
Heartbeat CPU 0 instructions: 30000003 cycles: 9964382 heartbeat IPC: 3.01211 cumulative IPC: 3.01072 (Simulation time: 0 hr 0 min 45 sec) 
Heartbeat CPU 0 instructions: 40000001 cycles: 13288619 heartbeat IPC: 3.00821 cumulative IPC: 3.01009 (Simulation time: 0 hr 1 min 0 sec) 
Heartbeat CPU 0 instructions: 50000001 cycles: 16610798 heartbeat IPC: 3.01007 cumulative IPC: 3.01009 (Simulation time: 0 hr 1 min 14 sec) 

Warmup complete CPU 0 instructions: 50000001 cycles: 16610798 (Simulation time: 0 hr 1 min 14 sec) 

Heartbeat CPU 0 instructions: 60000002 cycles: 23030778 heartbeat IPC: 1.55764 cumulative IPC: 1.55764 (Simulation time: 0 hr 1 min 30 sec) 
Heartbeat CPU 0 instructions: 70000001 cycles: 29415060 heartbeat IPC: 1.56635 cumulative IPC: 1.56198 (Simulation time: 0 hr 1 min 46 sec) 
Heartbeat CPU 0 instructions: 80000000 cycles: 35809587 heartbeat IPC: 1.56384 cumulative IPC: 1.5626 (Simulation time: 0 hr 2 min 2 sec) 
Heartbeat CPU 0 instructions: 90000001 cycles: 42212706 heartbeat IPC: 1.56174 cumulative IPC: 1.56238 (Simulation time: 0 hr 2 min 18 sec) 
*** Reached end of trace for Core: 0 Repeating trace: /Users/gandhardeshpande/Desktop/CSE240C/HW1/ChampSim/ipc1_public/server_038.champsimtrace.xz
Heartbeat CPU 0 instructions: 100000002 cycles: 48626785 heartbeat IPC: 1.55907 cumulative IPC: 1.56172 (Simulation time: 0 hr 2 min 33 sec) 
Finished CPU 0 instructions: 50000001 cycles: 32015987 cumulative IPC: 1.56172 (Simulation time: 0 hr 2 min 33 sec) 

ChampSim completed all CPUs

Region of Interest Statistics

CPU 0 cumulative IPC: 1.56172 instructions: 50000001 cycles: 32015987
L1D TOTAL     ACCESS:   18689665  HIT:   17707343  MISS:     982322
L1D LOAD      ACCESS:    6358464  HIT:    5865222  MISS:     493242
L1D RFO       ACCESS:    6211226  HIT:    6146984  MISS:      64242
L1D PREFETCH  ACCESS:    6119975  HIT:    5695137  MISS:     424838
L1D WRITEBACK ACCESS:          0  HIT:          0  MISS:          0
L1D PREFETCH  REQUESTED:    6395130  ISSUED:    6242374  USEFUL:     118113  USELESS:     306728
L1D AVERAGE MISS LATENCY: 29.1396 cycles
L1I TOTAL     ACCESS:   15882835  HIT:   11333318  MISS:    4549517
L1I LOAD      ACCESS:    9415256  HIT:    9401881  MISS:      13375
L1I RFO       ACCESS:          0  HIT:          0  MISS:          0
L1I PREFETCH  ACCESS:    6467579  HIT:    1931437  MISS:    4536142
L1I WRITEBACK ACCESS:          0  HIT:          0  MISS:          0
L1I PREFETCH  REQUESTED:    6675544  ISSUED:    6675544  USEFUL:    4078470  USELESS:     457676
L1I AVERAGE MISS LATENCY: 14.9657 cycles
L2C TOTAL     ACCESS:    7895819  HIT:    7578016  MISS:     317803
L2C LOAD      ACCESS:     498408  HIT:     356002  MISS:     142406
L2C RFO       ACCESS:      63972  HIT:      36653  MISS:      27319
L2C PREFETCH  ACCESS:    7041747  HIT:    6894908  MISS:     146839
L2C WRITEBACK ACCESS:     291692  HIT:     290453  MISS:       1239
L2C PREFETCH  REQUESTED:    7848883  ISSUED:    7832557  USEFUL:       6856  USELESS:     139911
L2C AVERAGE MISS LATENCY: 45.0417 cycles
LLC TOTAL     ACCESS:    1955387  HIT:    1901507  MISS:      53880
LLC LOAD      ACCESS:     142383  HIT:     130057  MISS:      12326
LLC RFO       ACCESS:      27316  HIT:      22434  MISS:       4882
LLC PREFETCH  ACCESS:    1640940  HIT:    1604756  MISS:      36184
LLC WRITEBACK ACCESS:     144748  HIT:     144260  MISS:        488
LLC PREFETCH  REQUESTED:          0  ISSUED:          0  USEFUL:       3647  USELESS:      31725
LLC AVERAGE MISS LATENCY: 166.933 cycles
Major fault: 0 Minor fault: 5526
I-Shadow cache 408 bytes
Touched + WorthPF tables 49152 bytes 
MMA filter 174 bytes 
FNL filter 272 bytes 
TOTAL PREFETCHER STORAGE SIZE: 195414 bytes
CPU 0 L1I next line prefetcher final stats
CPU 0 L1D next line prefetcher final stats

DRAM Statistics
 CHANNEL 0
 RQ ROW_BUFFER_HIT:       8325  ROW_BUFFER_MISS:      45067
 DBUS_CONGESTED:      25137
 WQ ROW_BUFFER_HIT:       1216  ROW_BUFFER_MISS:      11250  FULL:          0

 AVG_CONGESTED_CYCLE: 5

CPU 0 Branch Prediction Accuracy: 99.9279% MPKI: 0.12968 Average ROB Occupancy at Mispredict: 261.012

Branch types
NOT_BRANCH: 41006327 82.0127%
BRANCH_DIRECT_JUMP: 541914 1.08383%
BRANCH_INDIRECT: 59690 0.11938%
BRANCH_CONDITIONAL: 5915848 11.8317%
BRANCH_DIRECT_CALL: 1003588 2.00718%
BRANCH_INDIRECT_CALL: 234499 0.468998%
BRANCH_RETURN: 1238071 2.47614%
BRANCH_OTHER: 0 0%

