Initialize SIGNATURE TABLE
ST_SET: 1
ST_WAY: 256
ST_TAG_BIT: 16
ST_TAG_MASK: ffff

Initialize PATTERN TABLE
PT_SET: 512
PT_WAY: 4
SIG_DELTA_BIT: 7
C_SIG_BIT: 4
C_DELTA_BIT: 4

Initialize PREFETCH FILTER
FILTER_SET: 1024

*** ChampSim Multicore Out-of-Order Simulator ***

Warmup Instructions: 50000000
Simulation Instructions: 50000000
Number of CPUs: 1
LLC sets: 2048
LLC ways: 16
Off-chip DRAM Size: 4096 MB Channels: 1 Width: 64-bit Data Rate: 3200 MT/s

CPU 0 runs /Users/gandhardeshpande/Desktop/CSE240C/HW1/ChampSim/ipc1_public/spec_gcc_001.champsimtrace.xz
CPU 0 L1I next line prefetcher
Running FNL-MMA for L1I
CPU 0 L1D next line prefetcher
Heartbeat CPU 0 instructions: 10000003 cycles: 3218938 heartbeat IPC: 3.10662 cumulative IPC: 3.10662 (Simulation time: 0 hr 0 min 13 sec) 
Heartbeat CPU 0 instructions: 20000002 cycles: 6463241 heartbeat IPC: 3.08233 cumulative IPC: 3.09442 (Simulation time: 0 hr 0 min 26 sec) 
Heartbeat CPU 0 instructions: 30000000 cycles: 9664569 heartbeat IPC: 3.1237 cumulative IPC: 3.10412 (Simulation time: 0 hr 0 min 39 sec) 
Heartbeat CPU 0 instructions: 40000001 cycles: 12905399 heartbeat IPC: 3.08563 cumulative IPC: 3.09948 (Simulation time: 0 hr 0 min 52 sec) 
Heartbeat CPU 0 instructions: 50000001 cycles: 16145552 heartbeat IPC: 3.08627 cumulative IPC: 3.09683 (Simulation time: 0 hr 1 min 5 sec) 

Warmup complete CPU 0 instructions: 50000001 cycles: 16145552 (Simulation time: 0 hr 1 min 5 sec) 

Heartbeat CPU 0 instructions: 60000000 cycles: 23821518 heartbeat IPC: 1.30277 cumulative IPC: 1.30277 (Simulation time: 0 hr 1 min 16 sec) 
Heartbeat CPU 0 instructions: 70000002 cycles: 31643748 heartbeat IPC: 1.27841 cumulative IPC: 1.29047 (Simulation time: 0 hr 1 min 28 sec) 
Heartbeat CPU 0 instructions: 80000000 cycles: 39160184 heartbeat IPC: 1.33042 cumulative IPC: 1.30352 (Simulation time: 0 hr 1 min 40 sec) 
Heartbeat CPU 0 instructions: 90000001 cycles: 46980030 heartbeat IPC: 1.2788 cumulative IPC: 1.29725 (Simulation time: 0 hr 1 min 51 sec) 
Heartbeat CPU 0 instructions: 100000000 cycles: 55065792 heartbeat IPC: 1.23674 cumulative IPC: 1.28468 (Simulation time: 0 hr 2 min 3 sec) 
Finished CPU 0 instructions: 50000000 cycles: 38920244 cumulative IPC: 1.28468 (Simulation time: 0 hr 2 min 3 sec) 

ChampSim completed all CPUs

Region of Interest Statistics

CPU 0 cumulative IPC: 1.28468 instructions: 50000000 cycles: 38920244
L1D TOTAL     ACCESS:   19325457  HIT:   18220304  MISS:    1105153
L1D LOAD      ACCESS:    7233373  HIT:    6753869  MISS:     479504
L1D RFO       ACCESS:    5117475  HIT:    5037920  MISS:      79555
L1D PREFETCH  ACCESS:    6974609  HIT:    6428515  MISS:     546094
L1D WRITEBACK ACCESS:          0  HIT:          0  MISS:          0
L1D PREFETCH  REQUESTED:    7277059  ISSUED:    7179304  USEFUL:     275842  USELESS:     270265
L1D AVERAGE MISS LATENCY: 25.7185 cycles
L1I TOTAL     ACCESS:   11075519  HIT:   10553311  MISS:     522208
L1I LOAD      ACCESS:    9280678  HIT:    9204562  MISS:      76116
L1I RFO       ACCESS:          0  HIT:          0  MISS:          0
L1I PREFETCH  ACCESS:    1794841  HIT:    1348749  MISS:     446092
L1I WRITEBACK ACCESS:          0  HIT:          0  MISS:          0
L1I PREFETCH  REQUESTED:    1852438  ISSUED:    1852435  USEFUL:     281458  USELESS:     164648
L1I AVERAGE MISS LATENCY: 21.911 cycles
L2C TOTAL     ACCESS:    2730923  HIT:    2472762  MISS:     258161
L2C LOAD      ACCESS:     516678  HIT:     435497  MISS:      81181
L2C RFO       ACCESS:      74992  HIT:      37184  MISS:      37808
L2C PREFETCH  ACCESS:    1885496  HIT:    1746798  MISS:     138698
L2C WRITEBACK ACCESS:     253757  HIT:     253283  MISS:        474
L2C PREFETCH  REQUESTED:    1963340  ISSUED:    1963151  USEFUL:      33312  USELESS:     105193
L2C AVERAGE MISS LATENCY: 66.01 cycles
LLC TOTAL     ACCESS:     679170  HIT:     604409  MISS:      74761
LLC LOAD      ACCESS:      80977  HIT:      72530  MISS:       8447
LLC RFO       ACCESS:      37806  HIT:      17311  MISS:      20495
LLC PREFETCH  ACCESS:     468401  HIT:     423615  MISS:      44786
LLC WRITEBACK ACCESS:      91986  HIT:      90953  MISS:       1033
LLC PREFETCH  REQUESTED:          0  ISSUED:          0  USEFUL:      10612  USELESS:      37687
LLC AVERAGE MISS LATENCY: 192.984 cycles
Major fault: 0 Minor fault: 6866
I-Shadow cache 408 bytes
Touched + WorthPF tables 49152 bytes 
MMA filter 174 bytes 
FNL filter 272 bytes 
TOTAL PREFETCHER STORAGE SIZE: 195414 bytes
CPU 0 L1I next line prefetcher final stats
CPU 0 L1D next line prefetcher final stats

DRAM Statistics
 CHANNEL 0
 RQ ROW_BUFFER_HIT:      20103  ROW_BUFFER_MISS:      53622
 DBUS_CONGESTED:      43788
 WQ ROW_BUFFER_HIT:       3848  ROW_BUFFER_MISS:      24264  FULL:          0

 AVG_CONGESTED_CYCLE: 6

CPU 0 Branch Prediction Accuracy: 95.8872% MPKI: 9.67286 Average ROB Occupancy at Mispredict: 67.1555

Branch types
NOT_BRANCH: 38240105 76.4802%
BRANCH_DIRECT_JUMP: 653296 1.30659%
BRANCH_INDIRECT: 37098 0.074196%
BRANCH_CONDITIONAL: 8897820 17.7956%
BRANCH_DIRECT_CALL: 992620 1.98524%
BRANCH_INDIRECT_CALL: 93046 0.186092%
BRANCH_RETURN: 1085674 2.17135%
BRANCH_OTHER: 0 0%

