Initialize SIGNATURE TABLE
ST_SET: 1
ST_WAY: 256
ST_TAG_BIT: 16
ST_TAG_MASK: ffff

Initialize PATTERN TABLE
PT_SET: 512
PT_WAY: 4
SIG_DELTA_BIT: 7
C_SIG_BIT: 4
C_DELTA_BIT: 4

Initialize PREFETCH FILTER
FILTER_SET: 1024

*** ChampSim Multicore Out-of-Order Simulator ***

Warmup Instructions: 50000000
Simulation Instructions: 50000000
Number of CPUs: 1
LLC sets: 2048
LLC ways: 16
Off-chip DRAM Size: 4096 MB Channels: 1 Width: 64-bit Data Rate: 3200 MT/s

CPU 0 runs /Users/gandhardeshpande/Desktop/CSE240C/HW1/ChampSim/ipc1_public/server_039.champsimtrace.xz
L1I Barca has been initializedCPU 0 L1D next line prefetcher
Heartbeat CPU 0 instructions: 10000003 cycles: 3451785 heartbeat IPC: 2.89705 cumulative IPC: 2.89705 (Simulation time: 0 hr 0 min 21 sec) 
Heartbeat CPU 0 instructions: 20000002 cycles: 6896726 heartbeat IPC: 2.90281 cumulative IPC: 2.89993 (Simulation time: 0 hr 0 min 43 sec) 
Heartbeat CPU 0 instructions: 30000001 cycles: 10343574 heartbeat IPC: 2.9012 cumulative IPC: 2.90035 (Simulation time: 0 hr 1 min 4 sec) 
Heartbeat CPU 0 instructions: 40000002 cycles: 13785758 heartbeat IPC: 2.90513 cumulative IPC: 2.90155 (Simulation time: 0 hr 1 min 26 sec) 
Heartbeat CPU 0 instructions: 50000001 cycles: 17227299 heartbeat IPC: 2.90567 cumulative IPC: 2.90237 (Simulation time: 0 hr 1 min 47 sec) 

Warmup complete CPU 0 instructions: 50000001 cycles: 17227299 (Simulation time: 0 hr 1 min 47 sec) 

Heartbeat CPU 0 instructions: 60000000 cycles: 23065943 heartbeat IPC: 1.71273 cumulative IPC: 1.71273 (Simulation time: 0 hr 2 min 8 sec) 
Heartbeat CPU 0 instructions: 70000000 cycles: 28903829 heartbeat IPC: 1.71295 cumulative IPC: 1.71284 (Simulation time: 0 hr 2 min 28 sec) 
Heartbeat CPU 0 instructions: 80000000 cycles: 34749604 heartbeat IPC: 1.71064 cumulative IPC: 1.7121 (Simulation time: 0 hr 2 min 49 sec) 
Heartbeat CPU 0 instructions: 90000001 cycles: 40581143 heartbeat IPC: 1.71481 cumulative IPC: 1.71278 (Simulation time: 0 hr 3 min 10 sec) 
Heartbeat CPU 0 instructions: 100000002 cycles: 46421248 heartbeat IPC: 1.7123 cumulative IPC: 1.71268 (Simulation time: 0 hr 3 min 31 sec) 
Finished CPU 0 instructions: 50000001 cycles: 29193949 cumulative IPC: 1.71268 (Simulation time: 0 hr 3 min 31 sec) 

ChampSim completed all CPUs

Region of Interest Statistics

CPU 0 cumulative IPC: 1.71268 instructions: 50000001 cycles: 29193949
L1D TOTAL     ACCESS:   19959347  HIT:   19464565  MISS:     494782
L1D LOAD      ACCESS:    6526697  HIT:    6304985  MISS:     221712
L1D RFO       ACCESS:    7090210  HIT:    7023318  MISS:      66892
L1D PREFETCH  ACCESS:    6342440  HIT:    6136262  MISS:     206178
L1D WRITEBACK ACCESS:          0  HIT:          0  MISS:          0
L1D PREFETCH  REQUESTED:    6542642  ISSUED:    6413141  USEFUL:      50032  USELESS:     156150
L1D AVERAGE MISS LATENCY: 15.0642 cycles
L1I TOTAL     ACCESS:   15216635  HIT:   10164617  MISS:    5052018
L1I LOAD      ACCESS:    9267273  HIT:    8879598  MISS:     387675
L1I RFO       ACCESS:          0  HIT:          0  MISS:          0
L1I PREFETCH  ACCESS:    5949362  HIT:    1285019  MISS:    4664343
L1I WRITEBACK ACCESS:          0  HIT:          0  MISS:          0
L1I PREFETCH  REQUESTED:    6874382  ISSUED:    6874382  USEFUL:    3833761  USELESS:     830596
L1I AVERAGE MISS LATENCY: 13.7558 cycles
L2C TOTAL     ACCESS:    7411367  HIT:    7411146  MISS:        221
L2C LOAD      ACCESS:     318358  HIT:     318356  MISS:          2
L2C RFO       ACCESS:      66754  HIT:      66754  MISS:          0
L2C PREFETCH  ACCESS:    6846219  HIT:    6846000  MISS:        219
L2C WRITEBACK ACCESS:     180036  HIT:     180036  MISS:          0
L2C PREFETCH  REQUESTED:    3917089  ISSUED:    3916753  USEFUL:          2  USELESS:          0
L2C AVERAGE MISS LATENCY: 37.1538 cycles
LLC TOTAL     ACCESS:     757879  HIT:     757022  MISS:        857
LLC LOAD      ACCESS:          2  HIT:          1  MISS:          1
LLC RFO       ACCESS:          0  HIT:          0  MISS:          0
LLC PREFETCH  ACCESS:     757877  HIT:     757021  MISS:        856
LLC WRITEBACK ACCESS:          0  HIT:          0  MISS:          0
LLC PREFETCH  REQUESTED:          0  ISSUED:          0  USEFUL:          1  USELESS:          0
LLC AVERAGE MISS LATENCY: 174.956 cycles
Major fault: 0 Minor fault: 356
CPU 0 L1D next line prefetcher final stats

DRAM Statistics
 CHANNEL 0
 RQ ROW_BUFFER_HIT:        102  ROW_BUFFER_MISS:        755
 DBUS_CONGESTED:         61
 WQ ROW_BUFFER_HIT:          0  ROW_BUFFER_MISS:          0  FULL:          0

 AVG_CONGESTED_CYCLE: 5

CPU 0 Branch Prediction Accuracy: 99.9091% MPKI: 0.1547 Average ROB Occupancy at Mispredict: 252.21

Branch types
NOT_BRANCH: 41495005 82.99%
BRANCH_DIRECT_JUMP: 491308 0.982616%
BRANCH_INDIRECT: 0 0%
BRANCH_CONDITIONAL: 5595260 11.1905%
BRANCH_DIRECT_CALL: 1028408 2.05682%
BRANCH_INDIRECT_CALL: 180756 0.361512%
BRANCH_RETURN: 1209170 2.41834%
BRANCH_OTHER: 0 0%

