Initialize SIGNATURE TABLE
ST_SET: 1
ST_WAY: 256
ST_TAG_BIT: 16
ST_TAG_MASK: ffff

Initialize PATTERN TABLE
PT_SET: 512
PT_WAY: 4
SIG_DELTA_BIT: 7
C_SIG_BIT: 4
C_DELTA_BIT: 4

Initialize PREFETCH FILTER
FILTER_SET: 1024

*** ChampSim Multicore Out-of-Order Simulator ***

Warmup Instructions: 50000000
Simulation Instructions: 50000000
Number of CPUs: 1
LLC sets: 2048
LLC ways: 16
Off-chip DRAM Size: 4096 MB Channels: 1 Width: 64-bit Data Rate: 3200 MT/s

CPU 0 runs /Users/gandhardeshpande/Desktop/CSE240C/HW1/ChampSim/ipc1_public/server_026.champsimtrace.xz
L1I Barca has been initializedCPU 0 L1D next line prefetcher
Heartbeat CPU 0 instructions: 10000000 cycles: 3525390 heartbeat IPC: 2.83657 cumulative IPC: 2.83657 (Simulation time: 0 hr 0 min 21 sec) 
Heartbeat CPU 0 instructions: 20000002 cycles: 7056254 heartbeat IPC: 2.83217 cumulative IPC: 2.83437 (Simulation time: 0 hr 0 min 42 sec) 
Heartbeat CPU 0 instructions: 30000000 cycles: 10577651 heartbeat IPC: 2.83978 cumulative IPC: 2.83617 (Simulation time: 0 hr 1 min 3 sec) 
Heartbeat CPU 0 instructions: 40000003 cycles: 14106945 heartbeat IPC: 2.83343 cumulative IPC: 2.83548 (Simulation time: 0 hr 1 min 24 sec) 
Heartbeat CPU 0 instructions: 50000000 cycles: 17629158 heartbeat IPC: 2.83912 cumulative IPC: 2.83621 (Simulation time: 0 hr 1 min 45 sec) 

Warmup complete CPU 0 instructions: 50000004 cycles: 17629159 (Simulation time: 0 hr 1 min 45 sec) 

*** Reached end of trace for Core: 0 Repeating trace: /Users/gandhardeshpande/Desktop/CSE240C/HW1/ChampSim/ipc1_public/server_026.champsimtrace.xz
Heartbeat CPU 0 instructions: 60000000 cycles: 24558185 heartbeat IPC: 1.4432 cumulative IPC: 1.4432 (Simulation time: 0 hr 2 min 7 sec) 
Heartbeat CPU 0 instructions: 70000003 cycles: 31373568 heartbeat IPC: 1.46727 cumulative IPC: 1.45514 (Simulation time: 0 hr 2 min 28 sec) 
Heartbeat CPU 0 instructions: 80000002 cycles: 38288818 heartbeat IPC: 1.44608 cumulative IPC: 1.45211 (Simulation time: 0 hr 2 min 50 sec) 
Heartbeat CPU 0 instructions: 90000002 cycles: 45098817 heartbeat IPC: 1.46843 cumulative IPC: 1.45615 (Simulation time: 0 hr 3 min 12 sec) 
Heartbeat CPU 0 instructions: 100000000 cycles: 51987882 heartbeat IPC: 1.45158 cumulative IPC: 1.45523 (Simulation time: 0 hr 3 min 35 sec) 
Finished CPU 0 instructions: 50000000 cycles: 34358724 cumulative IPC: 1.45523 (Simulation time: 0 hr 3 min 35 sec) 

ChampSim completed all CPUs

Region of Interest Statistics

CPU 0 cumulative IPC: 1.45523 instructions: 50000000 cycles: 34358724
L1D TOTAL     ACCESS:   19864348  HIT:   18219358  MISS:    1644990
L1D LOAD      ACCESS:    6973616  HIT:    6245077  MISS:     728539
L1D RFO       ACCESS:    6248742  HIT:    5962367  MISS:     286375
L1D PREFETCH  ACCESS:    6641990  HIT:    6011914  MISS:     630076
L1D WRITEBACK ACCESS:          0  HIT:          0  MISS:          0
L1D PREFETCH  REQUESTED:    7019848  ISSUED:    6879452  USEFUL:     152430  USELESS:     477657
L1D AVERAGE MISS LATENCY: 23.3273 cycles
L1I TOTAL     ACCESS:   13538835  HIT:    9867742  MISS:    3671093
L1I LOAD      ACCESS:    9387181  HIT:    9068525  MISS:     318656
L1I RFO       ACCESS:          0  HIT:          0  MISS:          0
L1I PREFETCH  ACCESS:    4151654  HIT:     799217  MISS:    3352437
L1I WRITEBACK ACCESS:          0  HIT:          0  MISS:          0
L1I PREFETCH  REQUESTED:    4766934  ISSUED:    4766934  USEFUL:    2517719  USELESS:     834742
L1I AVERAGE MISS LATENCY: 16.556 cycles
L2C TOTAL     ACCESS:    7194294  HIT:    6471652  MISS:     722642
L2C LOAD      ACCESS:     793438  HIT:     651769  MISS:     141669
L2C RFO       ACCESS:     284802  HIT:     199904  MISS:      84898
L2C PREFETCH  ACCESS:    5554876  HIT:    5061693  MISS:     493183
L2C WRITEBACK ACCESS:     561178  HIT:     558286  MISS:       2892
L2C PREFETCH  REQUESTED:    3955888  ISSUED:    3952120  USEFUL:      14481  USELESS:     478281
L2C AVERAGE MISS LATENCY: 38.2106 cycles
LLC TOTAL     ACCESS:    1990017  HIT:    1955623  MISS:      34394
LLC LOAD      ACCESS:     141477  HIT:     138074  MISS:       3403
LLC RFO       ACCESS:      84805  HIT:      70267  MISS:      14538
LLC PREFETCH  ACCESS:    1618814  HIT:    1602590  MISS:      16224
LLC WRITEBACK ACCESS:     144921  HIT:     144692  MISS:        229
LLC PREFETCH  REQUESTED:          0  ISSUED:          0  USEFUL:        907  USELESS:      15020
LLC AVERAGE MISS LATENCY: 189.599 cycles
Major fault: 0 Minor fault: 2165
CPU 0 L1D next line prefetcher final stats

DRAM Statistics
 CHANNEL 0
 RQ ROW_BUFFER_HIT:      12037  ROW_BUFFER_MISS:      22121
 DBUS_CONGESTED:      22537
 WQ ROW_BUFFER_HIT:       1514  ROW_BUFFER_MISS:      14438  FULL:          0

 AVG_CONGESTED_CYCLE: 6

CPU 0 Branch Prediction Accuracy: 99.822% MPKI: 0.32584 Average ROB Occupancy at Mispredict: 190.275

Branch types
NOT_BRANCH: 40848573 81.6971%
BRANCH_DIRECT_JUMP: 522045 1.04409%
BRANCH_INDIRECT: 204034 0.408068%
BRANCH_CONDITIONAL: 6212963 12.4259%
BRANCH_DIRECT_CALL: 932392 1.86478%
BRANCH_INDIRECT_CALL: 173764 0.347528%
BRANCH_RETURN: 1106152 2.2123%
BRANCH_OTHER: 0 0%

