Initialize SIGNATURE TABLE
ST_SET: 1
ST_WAY: 256
ST_TAG_BIT: 16
ST_TAG_MASK: ffff

Initialize PATTERN TABLE
PT_SET: 512
PT_WAY: 4
SIG_DELTA_BIT: 7
C_SIG_BIT: 4
C_DELTA_BIT: 4

Initialize PREFETCH FILTER
FILTER_SET: 1024

*** ChampSim Multicore Out-of-Order Simulator ***

Warmup Instructions: 50000000
Simulation Instructions: 50000000
Number of CPUs: 1
LLC sets: 2048
LLC ways: 16
Off-chip DRAM Size: 4096 MB Channels: 1 Width: 64-bit Data Rate: 3200 MT/s

CPU 0 runs /Users/gandhardeshpande/Desktop/CSE240C/HW1/ChampSim/ipc1_public/client_007.champsimtrace.xz
CPU 0 L1D next line prefetcher
Heartbeat CPU 0 instructions: 10000001 cycles: 3643599 heartbeat IPC: 2.74454 cumulative IPC: 2.74454 (Simulation time: 0 hr 0 min 14 sec) 
Heartbeat CPU 0 instructions: 20000003 cycles: 7037382 heartbeat IPC: 2.94656 cumulative IPC: 2.84197 (Simulation time: 0 hr 0 min 26 sec) 
Heartbeat CPU 0 instructions: 30000000 cycles: 10911470 heartbeat IPC: 2.58125 cumulative IPC: 2.7494 (Simulation time: 0 hr 0 min 41 sec) 
Heartbeat CPU 0 instructions: 40000003 cycles: 15071514 heartbeat IPC: 2.40382 cumulative IPC: 2.65401 (Simulation time: 0 hr 0 min 56 sec) 
Heartbeat CPU 0 instructions: 50000002 cycles: 18477896 heartbeat IPC: 2.93567 cumulative IPC: 2.70594 (Simulation time: 0 hr 1 min 9 sec) 

Warmup complete CPU 0 instructions: 50000002 cycles: 18477896 (Simulation time: 0 hr 1 min 9 sec) 

Heartbeat CPU 0 instructions: 60000003 cycles: 27182770 heartbeat IPC: 1.14878 cumulative IPC: 1.14878 (Simulation time: 0 hr 1 min 21 sec) 
Heartbeat CPU 0 instructions: 70000003 cycles: 36198498 heartbeat IPC: 1.10917 cumulative IPC: 1.12863 (Simulation time: 0 hr 1 min 35 sec) 
Heartbeat CPU 0 instructions: 80000002 cycles: 42318655 heartbeat IPC: 1.63394 cumulative IPC: 1.25835 (Simulation time: 0 hr 1 min 44 sec) 
Heartbeat CPU 0 instructions: 90000002 cycles: 52108327 heartbeat IPC: 1.02148 cumulative IPC: 1.1894 (Simulation time: 0 hr 1 min 55 sec) 
Heartbeat CPU 0 instructions: 100000002 cycles: 61051221 heartbeat IPC: 1.11821 cumulative IPC: 1.17444 (Simulation time: 0 hr 2 min 7 sec) 
Finished CPU 0 instructions: 50000000 cycles: 42573325 cumulative IPC: 1.17444 (Simulation time: 0 hr 2 min 7 sec) 

ChampSim completed all CPUs

Region of Interest Statistics

CPU 0 cumulative IPC: 1.17444 instructions: 50000000 cycles: 42573325
L1D TOTAL     ACCESS:   21862529  HIT:   20691802  MISS:    1170727
L1D LOAD      ACCESS:    8685901  HIT:    8161027  MISS:     524874
L1D RFO       ACCESS:    4887908  HIT:    4796683  MISS:      91225
L1D PREFETCH  ACCESS:    8288720  HIT:    7734092  MISS:     554628
L1D WRITEBACK ACCESS:          0  HIT:          0  MISS:          0
L1D PREFETCH  REQUESTED:    8737710  ISSUED:    8496308  USEFUL:     173236  USELESS:     381408
L1D AVERAGE MISS LATENCY: 34.001 cycles
L1I TOTAL     ACCESS:    8998120  HIT:    8194837  MISS:     803283
L1I LOAD      ACCESS:    8998120  HIT:    8194837  MISS:     803283
L1I RFO       ACCESS:          0  HIT:          0  MISS:          0
L1I PREFETCH  ACCESS:          0  HIT:          0  MISS:          0
L1I WRITEBACK ACCESS:          0  HIT:          0  MISS:          0
L1I PREFETCH  REQUESTED:          0  ISSUED:          0  USEFUL:          0  USELESS:          0
L1I AVERAGE MISS LATENCY: 15.5472 cycles
L2C TOTAL     ACCESS:    3402851  HIT:    3195434  MISS:     207417
L2C LOAD      ACCESS:    1299906  HIT:    1220227  MISS:      79679
L2C RFO       ACCESS:      89431  HIT:      48192  MISS:      41239
L2C PREFETCH  ACCESS:    1685404  HIT:    1598985  MISS:      86419
L2C WRITEBACK ACCESS:     328110  HIT:     328030  MISS:         80
L2C PREFETCH  REQUESTED:    2337550  ISSUED:    2337215  USEFUL:       8322  USELESS:      76377
L2C AVERAGE MISS LATENCY: 119.236 cycles
LLC TOTAL     ACCESS:     930106  HIT:     764180  MISS:     165926
LLC LOAD      ACCESS:      79567  HIT:      42054  MISS:      37513
LLC RFO       ACCESS:      41239  HIT:       6772  MISS:      34467
LLC PREFETCH  ACCESS:     735305  HIT:     641650  MISS:      93655
LLC WRITEBACK ACCESS:      73995  HIT:      73704  MISS:        291
LLC PREFETCH  REQUESTED:          0  ISSUED:          0  USEFUL:      20056  USELESS:      71924
LLC AVERAGE MISS LATENCY: 175.664 cycles
Major fault: 0 Minor fault: 4405
CPU 0 L1D next line prefetcher final stats

DRAM Statistics
 CHANNEL 0
 RQ ROW_BUFFER_HIT:      35115  ROW_BUFFER_MISS:     130509
 DBUS_CONGESTED:      93358
 WQ ROW_BUFFER_HIT:      13652  ROW_BUFFER_MISS:      44702  FULL:          0

 AVG_CONGESTED_CYCLE: 5

CPU 0 Branch Prediction Accuracy: 98.8607% MPKI: 1.8623 Average ROB Occupancy at Mispredict: 105.222

Branch types
NOT_BRANCH: 41826773 83.6535%
BRANCH_DIRECT_JUMP: 735330 1.47066%
BRANCH_INDIRECT: 269194 0.538388%
BRANCH_CONDITIONAL: 5957947 11.9159%
BRANCH_DIRECT_CALL: 368758 0.737516%
BRANCH_INDIRECT_CALL: 226975 0.45395%
BRANCH_RETURN: 614696 1.22939%
BRANCH_OTHER: 0 0%

