Initialize SIGNATURE TABLE
ST_SET: 1
ST_WAY: 256
ST_TAG_BIT: 16
ST_TAG_MASK: ffff

Initialize PATTERN TABLE
PT_SET: 512
PT_WAY: 4
SIG_DELTA_BIT: 7
C_SIG_BIT: 4
C_DELTA_BIT: 4

Initialize PREFETCH FILTER
FILTER_SET: 1024

*** ChampSim Multicore Out-of-Order Simulator ***

Warmup Instructions: 50000000
Simulation Instructions: 50000000
Number of CPUs: 1
LLC sets: 2048
LLC ways: 16
Off-chip DRAM Size: 4096 MB Channels: 1 Width: 64-bit Data Rate: 3200 MT/s

CPU 0 runs /Users/gandhardeshpande/Desktop/CSE240C/HW1/ChampSim/ipc1_public/server_034.champsimtrace.xz
CPU 0 L1D next line prefetcher
Heartbeat CPU 0 instructions: 10000000 cycles: 3337581 heartbeat IPC: 2.99618 cumulative IPC: 2.99618 (Simulation time: 0 hr 0 min 14 sec) 
Heartbeat CPU 0 instructions: 20000002 cycles: 6667075 heartbeat IPC: 3.00346 cumulative IPC: 2.99982 (Simulation time: 0 hr 0 min 29 sec) 
Heartbeat CPU 0 instructions: 30000003 cycles: 10004521 heartbeat IPC: 2.9963 cumulative IPC: 2.99864 (Simulation time: 0 hr 0 min 43 sec) 
Heartbeat CPU 0 instructions: 40000001 cycles: 13339970 heartbeat IPC: 2.9981 cumulative IPC: 2.99851 (Simulation time: 0 hr 0 min 57 sec) 
Heartbeat CPU 0 instructions: 50000000 cycles: 16675622 heartbeat IPC: 2.99791 cumulative IPC: 2.99839 (Simulation time: 0 hr 1 min 11 sec) 

Warmup complete CPU 0 instructions: 50000002 cycles: 16675623 (Simulation time: 0 hr 1 min 11 sec) 

Heartbeat CPU 0 instructions: 60000002 cycles: 26330265 heartbeat IPC: 1.03577 cumulative IPC: 1.03577 (Simulation time: 0 hr 1 min 20 sec) 
Heartbeat CPU 0 instructions: 70000003 cycles: 36173013 heartbeat IPC: 1.01598 cumulative IPC: 1.02578 (Simulation time: 0 hr 1 min 30 sec) 
Heartbeat CPU 0 instructions: 80000002 cycles: 45826830 heartbeat IPC: 1.03586 cumulative IPC: 1.02912 (Simulation time: 0 hr 1 min 39 sec) 
Heartbeat CPU 0 instructions: 90000002 cycles: 55480226 heartbeat IPC: 1.0359 cumulative IPC: 1.03081 (Simulation time: 0 hr 1 min 48 sec) 
Heartbeat CPU 0 instructions: 100000002 cycles: 65169721 heartbeat IPC: 1.03205 cumulative IPC: 1.03105 (Simulation time: 0 hr 1 min 58 sec) 
Finished CPU 0 instructions: 50000000 cycles: 48494098 cumulative IPC: 1.03105 (Simulation time: 0 hr 1 min 58 sec) 

ChampSim completed all CPUs

Region of Interest Statistics

CPU 0 cumulative IPC: 1.03105 instructions: 50000000 cycles: 48494098
L1D TOTAL     ACCESS:   21115851  HIT:   19690546  MISS:    1425305
L1D LOAD      ACCESS:    7511552  HIT:    6865428  MISS:     646124
L1D RFO       ACCESS:    6235223  HIT:    6089600  MISS:     145623
L1D PREFETCH  ACCESS:    7369076  HIT:    6735518  MISS:     633558
L1D WRITEBACK ACCESS:          0  HIT:          0  MISS:          0
L1D PREFETCH  REQUESTED:    7556609  ISSUED:    7494035  USEFUL:     147781  USELESS:     485745
L1D AVERAGE MISS LATENCY: 17.1243 cycles
L1I TOTAL     ACCESS:    9602103  HIT:    6305826  MISS:    3296277
L1I LOAD      ACCESS:    9602103  HIT:    6305826  MISS:    3296277
L1I RFO       ACCESS:          0  HIT:          0  MISS:          0
L1I PREFETCH  ACCESS:          0  HIT:          0  MISS:          0
L1I WRITEBACK ACCESS:          0  HIT:          0  MISS:          0
L1I PREFETCH  REQUESTED:          0  ISSUED:          0  USEFUL:          0  USELESS:          0
L1I AVERAGE MISS LATENCY: 14.2343 cycles
L2C TOTAL     ACCESS:    8243946  HIT:    8155669  MISS:      88277
L2C LOAD      ACCESS:    3935968  HIT:    3891217  MISS:      44751
L2C RFO       ACCESS:     145254  HIT:     136966  MISS:       8288
L2C PREFETCH  ACCESS:    3811586  HIT:    3777080  MISS:      34506
L2C WRITEBACK ACCESS:     351138  HIT:     350406  MISS:        732
L2C PREFETCH  REQUESTED:    5627928  ISSUED:    5627400  USEFUL:       2616  USELESS:      31890
L2C AVERAGE MISS LATENCY: 39.8734 cycles
LLC TOTAL     ACCESS:    1687653  HIT:    1675408  MISS:      12245
LLC LOAD      ACCESS:      44613  HIT:      41369  MISS:       3244
LLC RFO       ACCESS:       8288  HIT:       8062  MISS:        226
LLC PREFETCH  ACCESS:    1599769  HIT:    1591051  MISS:       8718
LLC WRITEBACK ACCESS:      34983  HIT:      34926  MISS:         57
LLC PREFETCH  REQUESTED:          0  ISSUED:          0  USEFUL:       3250  USELESS:       4087
LLC AVERAGE MISS LATENCY: 143.98 cycles
Major fault: 0 Minor fault: 1170
CPU 0 L1D next line prefetcher final stats

DRAM Statistics
 CHANNEL 0
 RQ ROW_BUFFER_HIT:       3662  ROW_BUFFER_MISS:       8525
 DBUS_CONGESTED:       5294
 WQ ROW_BUFFER_HIT:        941  ROW_BUFFER_MISS:       2535  FULL:          0

 AVG_CONGESTED_CYCLE: 5

CPU 0 Branch Prediction Accuracy: 99.926% MPKI: 0.14472 Average ROB Occupancy at Mispredict: 130.837

Branch types
NOT_BRANCH: 40220836 80.4417%
BRANCH_DIRECT_JUMP: 771318 1.54264%
BRANCH_INDIRECT: 108662 0.217324%
BRANCH_CONDITIONAL: 6375018 12.75%
BRANCH_DIRECT_CALL: 1049630 2.09926%
BRANCH_INDIRECT_CALL: 212280 0.42456%
BRANCH_RETURN: 1261922 2.52384%
BRANCH_OTHER: 0 0%

