Initialize SIGNATURE TABLE
ST_SET: 1
ST_WAY: 256
ST_TAG_BIT: 16
ST_TAG_MASK: ffff

Initialize PATTERN TABLE
PT_SET: 512
PT_WAY: 4
SIG_DELTA_BIT: 7
C_SIG_BIT: 4
C_DELTA_BIT: 4

Initialize PREFETCH FILTER
FILTER_SET: 1024

*** ChampSim Multicore Out-of-Order Simulator ***

Warmup Instructions: 50000000
Simulation Instructions: 50000000
Number of CPUs: 1
LLC sets: 2048
LLC ways: 16
Off-chip DRAM Size: 4096 MB Channels: 1 Width: 64-bit Data Rate: 3200 MT/s

CPU 0 runs /Users/gandhardeshpande/Desktop/CSE240C/HW1/ChampSim/ipc1_public/server_012.champsimtrace.xz
CPU 0 L1I next line prefetcher
Running FNL-MMA for L1I
CPU 0 L1D next line prefetcher
Heartbeat CPU 0 instructions: 10000002 cycles: 3192881 heartbeat IPC: 3.13197 cumulative IPC: 3.13197 (Simulation time: 0 hr 0 min 13 sec) 
Heartbeat CPU 0 instructions: 20000002 cycles: 6388524 heartbeat IPC: 3.12926 cumulative IPC: 3.13061 (Simulation time: 0 hr 0 min 27 sec) 
Heartbeat CPU 0 instructions: 30000001 cycles: 9585658 heartbeat IPC: 3.1278 cumulative IPC: 3.12968 (Simulation time: 0 hr 0 min 40 sec) 
Heartbeat CPU 0 instructions: 40000000 cycles: 12788249 heartbeat IPC: 3.12247 cumulative IPC: 3.12787 (Simulation time: 0 hr 0 min 54 sec) 
Heartbeat CPU 0 instructions: 50000003 cycles: 15983460 heartbeat IPC: 3.12968 cumulative IPC: 3.12823 (Simulation time: 0 hr 1 min 7 sec) 

Warmup complete CPU 0 instructions: 50000003 cycles: 15983460 (Simulation time: 0 hr 1 min 7 sec) 

Heartbeat CPU 0 instructions: 60000002 cycles: 23106916 heartbeat IPC: 1.40381 cumulative IPC: 1.40381 (Simulation time: 0 hr 1 min 19 sec) 
Heartbeat CPU 0 instructions: 70000000 cycles: 30229879 heartbeat IPC: 1.40391 cumulative IPC: 1.40386 (Simulation time: 0 hr 1 min 31 sec) 
Heartbeat CPU 0 instructions: 80000003 cycles: 37345776 heartbeat IPC: 1.4053 cumulative IPC: 1.40434 (Simulation time: 0 hr 1 min 43 sec) 
Heartbeat CPU 0 instructions: 90000003 cycles: 44697222 heartbeat IPC: 1.36028 cumulative IPC: 1.39306 (Simulation time: 0 hr 1 min 56 sec) 
Heartbeat CPU 0 instructions: 100000002 cycles: 51944309 heartbeat IPC: 1.37986 cumulative IPC: 1.3904 (Simulation time: 0 hr 2 min 8 sec) 
Finished CPU 0 instructions: 50000001 cycles: 35960850 cumulative IPC: 1.3904 (Simulation time: 0 hr 2 min 8 sec) 

ChampSim completed all CPUs

Region of Interest Statistics

CPU 0 cumulative IPC: 1.3904 instructions: 50000001 cycles: 35960850
L1D TOTAL     ACCESS:   17296297  HIT:   16253446  MISS:    1042851
L1D LOAD      ACCESS:    6289725  HIT:    5800637  MISS:     489088
L1D RFO       ACCESS:    4960727  HIT:    4878990  MISS:      81737
L1D PREFETCH  ACCESS:    6045845  HIT:    5573819  MISS:     472026
L1D WRITEBACK ACCESS:          0  HIT:          0  MISS:          0
L1D PREFETCH  REQUESTED:    6324117  ISSUED:    6224787  USEFUL:     131487  USELESS:     340560
L1D AVERAGE MISS LATENCY: 40.9342 cycles
L1I TOTAL     ACCESS:   11803778  HIT:    9807364  MISS:    1996414
L1I LOAD      ACCESS:    8727652  HIT:    8619763  MISS:     107889
L1I RFO       ACCESS:          0  HIT:          0  MISS:          0
L1I PREFETCH  ACCESS:    3076126  HIT:    1187601  MISS:    1888525
L1I WRITEBACK ACCESS:          0  HIT:          0  MISS:          0
L1I PREFETCH  REQUESTED:    3226974  ISSUED:    3225950  USEFUL:    1323650  USELESS:     564904
L1I AVERAGE MISS LATENCY: 29.7718 cycles
L2C TOTAL     ACCESS:    3783552  HIT:    2469552  MISS:    1314000
L2C LOAD      ACCESS:     493831  HIT:     239987  MISS:     253844
L2C RFO       ACCESS:      80625  HIT:      31797  MISS:      48828
L2C PREFETCH  ACCESS:    2933589  HIT:    1923308  MISS:    1010281
L2C WRITEBACK ACCESS:     275507  HIT:     274460  MISS:       1047
L2C PREFETCH  REQUESTED:    3118312  ISSUED:    3115935  USEFUL:      25602  USELESS:     984757
L2C AVERAGE MISS LATENCY: 46.5689 cycles
LLC TOTAL     ACCESS:    2338512  HIT:    2194197  MISS:     144315
LLC LOAD      ACCESS:     253730  HIT:     234284  MISS:      19446
LLC RFO       ACCESS:      48820  HIT:      38687  MISS:      10133
LLC PREFETCH  ACCESS:    1870222  HIT:    1755785  MISS:     114437
LLC WRITEBACK ACCESS:     165740  HIT:     165441  MISS:        299
LLC PREFETCH  REQUESTED:          0  ISSUED:          0  USEFUL:       9693  USELESS:     104705
LLC AVERAGE MISS LATENCY: 174.106 cycles
Major fault: 0 Minor fault: 5599
I-Shadow cache 408 bytes
Touched + WorthPF tables 24576 bytes 
MMA filter 174 bytes 
FNL filter 272 bytes 
TOTAL PREFETCHER STORAGE SIZE: 98134 bytes
CPU 0 L1I next line prefetcher final stats
CPU 0 L1D next line prefetcher final stats

DRAM Statistics
 CHANNEL 0
 RQ ROW_BUFFER_HIT:      21784  ROW_BUFFER_MISS:     122207
 DBUS_CONGESTED:      63145
 WQ ROW_BUFFER_HIT:      11385  ROW_BUFFER_MISS:      48611  FULL:          0

 AVG_CONGESTED_CYCLE: 5

CPU 0 Branch Prediction Accuracy: 99.4607% MPKI: 1.00288 Average ROB Occupancy at Mispredict: 125.21

Branch types
NOT_BRANCH: 40701152 81.4023%
BRANCH_DIRECT_JUMP: 469810 0.93962%
BRANCH_INDIRECT: 153732 0.307464%
BRANCH_CONDITIONAL: 6944088 13.8882%
BRANCH_DIRECT_CALL: 679880 1.35976%
BRANCH_INDIRECT_CALL: 168745 0.33749%
BRANCH_RETURN: 882493 1.76499%
BRANCH_OTHER: 0 0%

