Initialize SIGNATURE TABLE
ST_SET: 1
ST_WAY: 256
ST_TAG_BIT: 16
ST_TAG_MASK: ffff

Initialize PATTERN TABLE
PT_SET: 512
PT_WAY: 4
SIG_DELTA_BIT: 7
C_SIG_BIT: 4
C_DELTA_BIT: 4

Initialize PREFETCH FILTER
FILTER_SET: 1024

*** ChampSim Multicore Out-of-Order Simulator ***

Warmup Instructions: 50000000
Simulation Instructions: 50000000
Number of CPUs: 1
LLC sets: 2048
LLC ways: 16
Off-chip DRAM Size: 4096 MB Channels: 1 Width: 64-bit Data Rate: 3200 MT/s

CPU 0 runs /Users/gandhardeshpande/Desktop/CSE240C/HW1/ChampSim/ipc1_public/server_009.champsimtrace.xz
CPU 0 L1I next line prefetcher
Running FNL-MMA for L1I
CPU 0 L1D next line prefetcher
Heartbeat CPU 0 instructions: 10000003 cycles: 3196310 heartbeat IPC: 3.12861 cumulative IPC: 3.12861 (Simulation time: 0 hr 0 min 14 sec) 
Heartbeat CPU 0 instructions: 20000001 cycles: 6385256 heartbeat IPC: 3.13583 cumulative IPC: 3.13222 (Simulation time: 0 hr 0 min 27 sec) 
Heartbeat CPU 0 instructions: 30000002 cycles: 9589137 heartbeat IPC: 3.12121 cumulative IPC: 3.12854 (Simulation time: 0 hr 0 min 41 sec) 
Heartbeat CPU 0 instructions: 40000003 cycles: 12789384 heartbeat IPC: 3.12476 cumulative IPC: 3.12759 (Simulation time: 0 hr 0 min 54 sec) 
Heartbeat CPU 0 instructions: 50000000 cycles: 16046180 heartbeat IPC: 3.0705 cumulative IPC: 3.11601 (Simulation time: 0 hr 1 min 8 sec) 

Warmup complete CPU 0 instructions: 50000004 cycles: 16046181 (Simulation time: 0 hr 1 min 8 sec) 

Heartbeat CPU 0 instructions: 60000002 cycles: 31655846 heartbeat IPC: 0.640629 cumulative IPC: 0.640629 (Simulation time: 0 hr 1 min 25 sec) 
Heartbeat CPU 0 instructions: 70000003 cycles: 52659631 heartbeat IPC: 0.476105 cumulative IPC: 0.546247 (Simulation time: 0 hr 1 min 46 sec) 
Heartbeat CPU 0 instructions: 80000000 cycles: 59746077 heartbeat IPC: 1.41114 cumulative IPC: 0.6865 (Simulation time: 0 hr 1 min 58 sec) 
Heartbeat CPU 0 instructions: 90000001 cycles: 66986476 heartbeat IPC: 1.38114 cumulative IPC: 0.785233 (Simulation time: 0 hr 2 min 11 sec) 
Heartbeat CPU 0 instructions: 100000003 cycles: 74120612 heartbeat IPC: 1.40171 cumulative IPC: 0.860964 (Simulation time: 0 hr 2 min 23 sec) 
Finished CPU 0 instructions: 50000003 cycles: 58074432 cumulative IPC: 0.860964 (Simulation time: 0 hr 2 min 23 sec) 

ChampSim completed all CPUs

Region of Interest Statistics

CPU 0 cumulative IPC: 0.860964 instructions: 50000003 cycles: 58074432
L1D TOTAL     ACCESS:   21601056  HIT:   17021518  MISS:    4579538
L1D LOAD      ACCESS:    8617979  HIT:    6336839  MISS:    2281140
L1D RFO       ACCESS:    4579341  HIT:    4474958  MISS:     104383
L1D PREFETCH  ACCESS:    8403736  HIT:    6209721  MISS:    2194015
L1D WRITEBACK ACCESS:          0  HIT:          0  MISS:          0
L1D PREFETCH  REQUESTED:    8650601  ISSUED:    8553578  USEFUL:     105543  USELESS:    2088471
L1D AVERAGE MISS LATENCY: 20.4211 cycles
L1I TOTAL     ACCESS:   13126367  HIT:   11566104  MISS:    1560263
L1I LOAD      ACCESS:   10761259  HIT:   10669222  MISS:      92037
L1I RFO       ACCESS:          0  HIT:          0  MISS:          0
L1I PREFETCH  ACCESS:    2365108  HIT:     896882  MISS:    1468226
L1I WRITEBACK ACCESS:          0  HIT:          0  MISS:          0
L1I PREFETCH  REQUESTED:    2477659  ISSUED:    2476914  USEFUL:    1028116  USELESS:     440104
L1I AVERAGE MISS LATENCY: 30.6606 cycles
L2C TOTAL     ACCESS:    7817862  HIT:    6754353  MISS:    1063509
L2C LOAD      ACCESS:    2290058  HIT:    2079121  MISS:     210937
L2C RFO       ACCESS:     103471  HIT:      62997  MISS:      40474
L2C PREFETCH  ACCESS:    5167460  HIT:    4356685  MISS:     810775
L2C WRITEBACK ACCESS:     256873  HIT:     255550  MISS:       1323
L2C PREFETCH  REQUESTED:    7690409  ISSUED:    7688487  USEFUL:      21481  USELESS:     788308
L2C AVERAGE MISS LATENCY: 48.1126 cycles
LLC TOTAL     ACCESS:    2351495  HIT:    2218275  MISS:     133220
LLC LOAD      ACCESS:     210737  HIT:     191352  MISS:      19385
LLC RFO       ACCESS:      40462  HIT:      31223  MISS:       9239
LLC PREFETCH  ACCESS:    1962225  HIT:    1857845  MISS:     104380
LLC WRITEBACK ACCESS:     138071  HIT:     137855  MISS:        216
LLC PREFETCH  REQUESTED:          0  ISSUED:          0  USEFUL:       9748  USELESS:      92009
LLC AVERAGE MISS LATENCY: 173.814 cycles
Major fault: 0 Minor fault: 6355
I-Shadow cache 408 bytes
Touched + WorthPF tables 24576 bytes 
MMA filter 174 bytes 
FNL filter 272 bytes 
TOTAL PREFETCHER STORAGE SIZE: 98134 bytes
CPU 0 L1I next line prefetcher final stats
CPU 0 L1D next line prefetcher final stats

DRAM Statistics
 CHANNEL 0
 RQ ROW_BUFFER_HIT:      25256  ROW_BUFFER_MISS:     107736
 DBUS_CONGESTED:      59139
 WQ ROW_BUFFER_HIT:       9137  ROW_BUFFER_MISS:      37675  FULL:          0

 AVG_CONGESTED_CYCLE: 5

CPU 0 Branch Prediction Accuracy: 99.4713% MPKI: 1.11484 Average ROB Occupancy at Mispredict: 120.051

Branch types
NOT_BRANCH: 39456613 78.9132%
BRANCH_DIRECT_JUMP: 445350 0.8907%
BRANCH_INDIRECT: 131149 0.262298%
BRANCH_CONDITIONAL: 8130195 16.2604%
BRANCH_DIRECT_CALL: 732485 1.46497%
BRANCH_INDIRECT_CALL: 172369 0.344738%
BRANCH_RETURN: 931558 1.86312%
BRANCH_OTHER: 0 0%

