Initialize SIGNATURE TABLE
ST_SET: 1
ST_WAY: 256
ST_TAG_BIT: 16
ST_TAG_MASK: ffff

Initialize PATTERN TABLE
PT_SET: 512
PT_WAY: 4
SIG_DELTA_BIT: 7
C_SIG_BIT: 4
C_DELTA_BIT: 4

Initialize PREFETCH FILTER
FILTER_SET: 1024

*** ChampSim Multicore Out-of-Order Simulator ***

Warmup Instructions: 50000000
Simulation Instructions: 50000000
Number of CPUs: 1
LLC sets: 2048
LLC ways: 16
Off-chip DRAM Size: 4096 MB Channels: 1 Width: 64-bit Data Rate: 3200 MT/s

CPU 0 runs /Users/gandhardeshpande/Desktop/CSE240C/HW1/ChampSim/ipc1_public/server_023.champsimtrace.xz
CPU 0 L1I next line prefetcher
Running FNL-MMA for L1I
CPU 0 L1D next line prefetcher
Heartbeat CPU 0 instructions: 10000000 cycles: 3499712 heartbeat IPC: 2.85738 cumulative IPC: 2.85738 (Simulation time: 0 hr 0 min 15 sec) 
Heartbeat CPU 0 instructions: 20000000 cycles: 6998189 heartbeat IPC: 2.85839 cumulative IPC: 2.85788 (Simulation time: 0 hr 0 min 29 sec) 
Heartbeat CPU 0 instructions: 30000001 cycles: 10489896 heartbeat IPC: 2.86393 cumulative IPC: 2.85989 (Simulation time: 0 hr 0 min 44 sec) 
Heartbeat CPU 0 instructions: 40000003 cycles: 13987428 heartbeat IPC: 2.85916 cumulative IPC: 2.85971 (Simulation time: 0 hr 0 min 58 sec) 
Heartbeat CPU 0 instructions: 50000001 cycles: 17486463 heartbeat IPC: 2.85793 cumulative IPC: 2.85935 (Simulation time: 0 hr 1 min 13 sec) 

Warmup complete CPU 0 instructions: 50000001 cycles: 17486463 (Simulation time: 0 hr 1 min 13 sec) 

Heartbeat CPU 0 instructions: 60000002 cycles: 24229058 heartbeat IPC: 1.48311 cumulative IPC: 1.48311 (Simulation time: 0 hr 1 min 28 sec) 
Heartbeat CPU 0 instructions: 70000002 cycles: 31180167 heartbeat IPC: 1.43862 cumulative IPC: 1.46053 (Simulation time: 0 hr 1 min 42 sec) 
Heartbeat CPU 0 instructions: 80000000 cycles: 38039350 heartbeat IPC: 1.4579 cumulative IPC: 1.45965 (Simulation time: 0 hr 1 min 57 sec) 
Heartbeat CPU 0 instructions: 90000000 cycles: 44928299 heartbeat IPC: 1.4516 cumulative IPC: 1.45763 (Simulation time: 0 hr 2 min 10 sec) 
Heartbeat CPU 0 instructions: 100000001 cycles: 51760762 heartbeat IPC: 1.4636 cumulative IPC: 1.45882 (Simulation time: 0 hr 2 min 25 sec) 
Finished CPU 0 instructions: 50000000 cycles: 34274299 cumulative IPC: 1.45882 (Simulation time: 0 hr 2 min 25 sec) 

ChampSim completed all CPUs

Region of Interest Statistics

CPU 0 cumulative IPC: 1.45882 instructions: 50000000 cycles: 34274299
L1D TOTAL     ACCESS:   19342767  HIT:   17876021  MISS:    1466746
L1D LOAD      ACCESS:    6840324  HIT:    6179302  MISS:     661022
L1D RFO       ACCESS:    5983702  HIT:    5722159  MISS:     261543
L1D PREFETCH  ACCESS:    6518741  HIT:    5974560  MISS:     544181
L1D WRITEBACK ACCESS:          0  HIT:          0  MISS:          0
L1D PREFETCH  REQUESTED:    6890405  ISSUED:    6769026  USEFUL:     129855  USELESS:     414333
L1D AVERAGE MISS LATENCY: 24.9213 cycles
L1I TOTAL     ACCESS:   13859352  HIT:   10633033  MISS:    3226319
L1I LOAD      ACCESS:    9448539  HIT:    9404317  MISS:      44222
L1I RFO       ACCESS:          0  HIT:          0  MISS:          0
L1I PREFETCH  ACCESS:    4410813  HIT:    1228716  MISS:    3182097
L1I WRITEBACK ACCESS:          0  HIT:          0  MISS:          0
L1I PREFETCH  REQUESTED:    4532626  ISSUED:    4530913  USEFUL:    2437028  USELESS:     745112
L1I AVERAGE MISS LATENCY: 19.1689 cycles
L2C TOTAL     ACCESS:    6292411  HIT:    5543605  MISS:     748806
L2C LOAD      ACCESS:     630003  HIT:     494324  MISS:     135679
L2C RFO       ACCESS:     259369  HIT:     173680  MISS:      85689
L2C PREFETCH  ACCESS:    4903793  HIT:    4379254  MISS:     524539
L2C WRITEBACK ACCESS:     499246  HIT:     496347  MISS:       2899
L2C PREFETCH  REQUESTED:    6007311  ISSUED:    5996450  USEFUL:      14826  USELESS:     509837
L2C AVERAGE MISS LATENCY: 41.7538 cycles
LLC TOTAL     ACCESS:    2384395  HIT:    2332779  MISS:      51616
LLC LOAD      ACCESS:     135428  HIT:     129082  MISS:       6346
LLC RFO       ACCESS:      85672  HIT:      67886  MISS:      17786
LLC PREFETCH  ACCESS:    2016182  HIT:    1988959  MISS:      27223
LLC WRITEBACK ACCESS:     147113  HIT:     146852  MISS:        261
LLC PREFETCH  REQUESTED:          0  ISSUED:          0  USEFUL:       2659  USELESS:      24277
LLC AVERAGE MISS LATENCY: 181.035 cycles
Major fault: 0 Minor fault: 2767
I-Shadow cache 408 bytes
Touched + WorthPF tables 24576 bytes 
MMA filter 174 bytes 
FNL filter 272 bytes 
TOTAL PREFETCHER STORAGE SIZE: 98134 bytes
CPU 0 L1I next line prefetcher final stats
CPU 0 L1D next line prefetcher final stats

DRAM Statistics
 CHANNEL 0
 RQ ROW_BUFFER_HIT:      15369  ROW_BUFFER_MISS:      35967
 DBUS_CONGESTED:      33157
 WQ ROW_BUFFER_HIT:       2447  ROW_BUFFER_MISS:      19123  FULL:          0

 AVG_CONGESTED_CYCLE: 6

CPU 0 Branch Prediction Accuracy: 99.6798% MPKI: 0.58608 Average ROB Occupancy at Mispredict: 148.409

Branch types
NOT_BRANCH: 40848336 81.6967%
BRANCH_DIRECT_JUMP: 548372 1.09674%
BRANCH_INDIRECT: 189802 0.379604%
BRANCH_CONDITIONAL: 6372772 12.7455%
BRANCH_DIRECT_CALL: 862207 1.72441%
BRANCH_INDIRECT_CALL: 158149 0.316298%
BRANCH_RETURN: 1020345 2.04069%
BRANCH_OTHER: 0 0%

