Initialize SIGNATURE TABLE
ST_SET: 1
ST_WAY: 256
ST_TAG_BIT: 16
ST_TAG_MASK: ffff

Initialize PATTERN TABLE
PT_SET: 512
PT_WAY: 4
SIG_DELTA_BIT: 7
C_SIG_BIT: 4
C_DELTA_BIT: 4

Initialize PREFETCH FILTER
FILTER_SET: 1024

*** ChampSim Multicore Out-of-Order Simulator ***

Warmup Instructions: 50000000
Simulation Instructions: 50000000
Number of CPUs: 1
LLC sets: 2048
LLC ways: 16
Off-chip DRAM Size: 4096 MB Channels: 1 Width: 64-bit Data Rate: 3200 MT/s

CPU 0 runs /Users/gandhardeshpande/Desktop/CSE240C/HW1/ChampSim/ipc1_public/server_022.champsimtrace.xz
CPU 0 L1I next line prefetcher
Running FNL-MMA for L1I
CPU 0 L1D next line prefetcher
Heartbeat CPU 0 instructions: 10000002 cycles: 3623221 heartbeat IPC: 2.75998 cumulative IPC: 2.75998 (Simulation time: 0 hr 0 min 15 sec) 
Heartbeat CPU 0 instructions: 20000001 cycles: 7252615 heartbeat IPC: 2.75528 cumulative IPC: 2.75763 (Simulation time: 0 hr 0 min 30 sec) 
Heartbeat CPU 0 instructions: 30000003 cycles: 10875743 heartbeat IPC: 2.76005 cumulative IPC: 2.75843 (Simulation time: 0 hr 0 min 45 sec) 
Heartbeat CPU 0 instructions: 40000003 cycles: 14506286 heartbeat IPC: 2.75441 cumulative IPC: 2.75743 (Simulation time: 0 hr 1 min 0 sec) 
Heartbeat CPU 0 instructions: 50000002 cycles: 18127109 heartbeat IPC: 2.7618 cumulative IPC: 2.7583 (Simulation time: 0 hr 1 min 15 sec) 

Warmup complete CPU 0 instructions: 50000002 cycles: 18127109 (Simulation time: 0 hr 1 min 15 sec) 

Heartbeat CPU 0 instructions: 60000000 cycles: 34835916 heartbeat IPC: 0.598487 cumulative IPC: 0.598487 (Simulation time: 0 hr 1 min 35 sec) 
Heartbeat CPU 0 instructions: 70000001 cycles: 51626269 heartbeat IPC: 0.59558 cumulative IPC: 0.59703 (Simulation time: 0 hr 1 min 55 sec) 
Heartbeat CPU 0 instructions: 80000001 cycles: 68236385 heartbeat IPC: 0.602043 cumulative IPC: 0.598692 (Simulation time: 0 hr 2 min 15 sec) 
Heartbeat CPU 0 instructions: 90000003 cycles: 85144099 heartbeat IPC: 0.591446 cumulative IPC: 0.596864 (Simulation time: 0 hr 2 min 36 sec) 
Heartbeat CPU 0 instructions: 100000003 cycles: 101871509 heartbeat IPC: 0.597821 cumulative IPC: 0.597055 (Simulation time: 0 hr 2 min 56 sec) 
Finished CPU 0 instructions: 50000001 cycles: 83744400 cumulative IPC: 0.597055 (Simulation time: 0 hr 2 min 56 sec) 

ChampSim completed all CPUs

Region of Interest Statistics

CPU 0 cumulative IPC: 0.597055 instructions: 50000001 cycles: 83744400
L1D TOTAL     ACCESS:   18696328  HIT:   16485546  MISS:    2210782
L1D LOAD      ACCESS:    7056363  HIT:    6353248  MISS:     703115
L1D RFO       ACCESS:    5877459  HIT:    4897903  MISS:     979556
L1D PREFETCH  ACCESS:    5762506  HIT:    5234395  MISS:     528111
L1D WRITEBACK ACCESS:          0  HIT:          0  MISS:          0
L1D PREFETCH  REQUESTED:    7098415  ISSUED:    6890692  USEFUL:     206869  USELESS:     321247
L1D AVERAGE MISS LATENCY: 179.931 cycles
L1I TOTAL     ACCESS:   14722348  HIT:   11786249  MISS:    2936099
L1I LOAD      ACCESS:   10130783  HIT:   10062059  MISS:      68724
L1I RFO       ACCESS:          0  HIT:          0  MISS:          0
L1I PREFETCH  ACCESS:    4591565  HIT:    1724190  MISS:    2867375
L1I WRITEBACK ACCESS:          0  HIT:          0  MISS:          0
L1I PREFETCH  REQUESTED:    4784796  ISSUED:    4784796  USEFUL:    2512785  USELESS:     354566
L1I AVERAGE MISS LATENCY: 16.6712 cycles
L2C TOTAL     ACCESS:    7454638  HIT:    5593164  MISS:    1861474
L2C LOAD      ACCESS:     488548  HIT:     244505  MISS:     244043
L2C RFO       ACCESS:     979103  HIT:      20912  MISS:     958191
L2C PREFETCH  ACCESS:    4801732  HIT:    4144257  MISS:     657475
L2C WRITEBACK ACCESS:    1185255  HIT:    1183490  MISS:       1765
L2C PREFETCH  REQUESTED:    4652400  ISSUED:    4644711  USEFUL:      20819  USELESS:     636738
L2C AVERAGE MISS LATENCY: 218.422 cycles
LLC TOTAL     ACCESS:    4228984  HIT:    2816136  MISS:    1412848
LLC LOAD      ACCESS:     243995  HIT:     168903  MISS:      75092
LLC RFO       ACCESS:     958178  HIT:     138837  MISS:     819341
LLC PREFETCH  ACCESS:    1909981  HIT:    1393454  MISS:     516527
LLC WRITEBACK ACCESS:    1116830  HIT:    1114942  MISS:       1888
LLC PREFETCH  REQUESTED:          0  ISSUED:          0  USEFUL:      28739  USELESS:     488218
LLC AVERAGE MISS LATENCY: 292.084 cycles
Major fault: 0 Minor fault: 23507
I-Shadow cache 408 bytes
Touched + WorthPF tables 24576 bytes 
MMA filter 174 bytes 
FNL filter 272 bytes 
TOTAL PREFETCHER STORAGE SIZE: 98134 bytes
CPU 0 L1I next line prefetcher final stats
CPU 0 L1D next line prefetcher final stats

DRAM Statistics
 CHANNEL 0
 RQ ROW_BUFFER_HIT:     408433  ROW_BUFFER_MISS:    1002244
 DBUS_CONGESTED:    1458375
 WQ ROW_BUFFER_HIT:     258089  ROW_BUFFER_MISS:     646732  FULL:          0

 AVG_CONGESTED_CYCLE: 6

CPU 0 Branch Prediction Accuracy: 99.8317% MPKI: 0.27564 Average ROB Occupancy at Mispredict: 220.146

Branch types
NOT_BRANCH: 41811174 83.6223%
BRANCH_DIRECT_JUMP: 445742 0.891484%
BRANCH_INDIRECT: 48876 0.097752%
BRANCH_CONDITIONAL: 5859410 11.7188%
BRANCH_DIRECT_CALL: 758268 1.51654%
BRANCH_INDIRECT_CALL: 159103 0.318206%
BRANCH_RETURN: 917373 1.83475%
BRANCH_OTHER: 0 0%

