Initialize SIGNATURE TABLE
ST_SET: 1
ST_WAY: 256
ST_TAG_BIT: 16
ST_TAG_MASK: ffff

Initialize PATTERN TABLE
PT_SET: 512
PT_WAY: 4
SIG_DELTA_BIT: 7
C_SIG_BIT: 4
C_DELTA_BIT: 4

Initialize PREFETCH FILTER
FILTER_SET: 1024

*** ChampSim Multicore Out-of-Order Simulator ***

Warmup Instructions: 50000000
Simulation Instructions: 50000000
Number of CPUs: 1
LLC sets: 2048
LLC ways: 16
Off-chip DRAM Size: 4096 MB Channels: 1 Width: 64-bit Data Rate: 3200 MT/s

CPU 0 runs /Users/gandhardeshpande/Desktop/CSE240C/HW1/ChampSim/ipc1_public/spec_gcc_002.champsimtrace.xz
CPU 0 L1I next line prefetcher
Running FNL-MMA for L1I
CPU 0 L1D next line prefetcher
Heartbeat CPU 0 instructions: 10000002 cycles: 3562146 heartbeat IPC: 2.8073 cumulative IPC: 2.8073 (Simulation time: 0 hr 0 min 11 sec) 
Heartbeat CPU 0 instructions: 20000000 cycles: 7129629 heartbeat IPC: 2.8031 cumulative IPC: 2.8052 (Simulation time: 0 hr 0 min 22 sec) 
Heartbeat CPU 0 instructions: 30000000 cycles: 10792672 heartbeat IPC: 2.72997 cumulative IPC: 2.77966 (Simulation time: 0 hr 0 min 34 sec) 
Heartbeat CPU 0 instructions: 40000000 cycles: 14338464 heartbeat IPC: 2.82024 cumulative IPC: 2.7897 (Simulation time: 0 hr 0 min 45 sec) 
Heartbeat CPU 0 instructions: 50000002 cycles: 17822155 heartbeat IPC: 2.87052 cumulative IPC: 2.8055 (Simulation time: 0 hr 0 min 55 sec) 

Warmup complete CPU 0 instructions: 50000002 cycles: 17822155 (Simulation time: 0 hr 0 min 55 sec) 

Heartbeat CPU 0 instructions: 60000001 cycles: 49547532 heartbeat IPC: 0.315205 cumulative IPC: 0.315205 (Simulation time: 0 hr 1 min 19 sec) 
Heartbeat CPU 0 instructions: 70000001 cycles: 80329642 heartbeat IPC: 0.324864 cumulative IPC: 0.319962 (Simulation time: 0 hr 1 min 42 sec) 
Heartbeat CPU 0 instructions: 80000002 cycles: 126234121 heartbeat IPC: 0.217844 cumulative IPC: 0.276722 (Simulation time: 0 hr 2 min 11 sec) 
Heartbeat CPU 0 instructions: 90000001 cycles: 167569685 heartbeat IPC: 0.241922 cumulative IPC: 0.267116 (Simulation time: 0 hr 2 min 39 sec) 
Heartbeat CPU 0 instructions: 100000000 cycles: 190783203 heartbeat IPC: 0.430783 cumulative IPC: 0.289082 (Simulation time: 0 hr 2 min 59 sec) 
Finished CPU 0 instructions: 50000002 cycles: 172961056 cumulative IPC: 0.289082 (Simulation time: 0 hr 2 min 59 sec) 

ChampSim completed all CPUs

Region of Interest Statistics

CPU 0 cumulative IPC: 0.289082 instructions: 50000002 cycles: 172961056
L1D TOTAL     ACCESS:   18317752  HIT:   13084084  MISS:    5233668
L1D LOAD      ACCESS:    6352371  HIT:    5340539  MISS:    1011832
L1D RFO       ACCESS:    7070444  HIT:    3469809  MISS:    3600635
L1D PREFETCH  ACCESS:    4894937  HIT:    4273736  MISS:     621201
L1D WRITEBACK ACCESS:          0  HIT:          0  MISS:          0
L1D PREFETCH  REQUESTED:    6372573  ISSUED:    6301854  USEFUL:     461365  USELESS:     160052
L1D AVERAGE MISS LATENCY: 318.428 cycles
L1I TOTAL     ACCESS:   13809719  HIT:   12790192  MISS:    1019527
L1I LOAD      ACCESS:   12005435  HIT:   11901978  MISS:     103457
L1I RFO       ACCESS:          0  HIT:          0  MISS:          0
L1I PREFETCH  ACCESS:    1804284  HIT:     888214  MISS:     916070
L1I WRITEBACK ACCESS:          0  HIT:          0  MISS:          0
L1I PREFETCH  REQUESTED:    1926785  ISSUED:    1926572  USEFUL:     588418  USELESS:     327633
L1I AVERAGE MISS LATENCY: 47.5063 cycles
L2C TOTAL     ACCESS:   10389683  HIT:    5028985  MISS:    5360698
L2C LOAD      ACCESS:     305352  HIT:     126498  MISS:     178854
L2C RFO       ACCESS:    3599133  HIT:      10973  MISS:    3588160
L2C PREFETCH  ACCESS:    2759713  HIT:    1166127  MISS:    1593586
L2C WRITEBACK ACCESS:    3725485  HIT:    3725387  MISS:         98
L2C PREFETCH  REQUESTED:    3593443  ISSUED:    3593258  USEFUL:      33664  USELESS:    1560077
L2C AVERAGE MISS LATENCY: 318.381 cycles
LLC TOTAL     ACCESS:   10250543  HIT:    7074582  MISS:    3175961
LLC LOAD      ACCESS:     178739  HIT:     134528  MISS:      44211
LLC RFO       ACCESS:    3588161  HIT:     939232  MISS:    2648929
LLC PREFETCH  ACCESS:    2810180  HIT:    2327359  MISS:     482821
LLC WRITEBACK ACCESS:    3673463  HIT:    3673463  MISS:          0
LLC PREFETCH  REQUESTED:          0  ISSUED:          0  USEFUL:     182894  USELESS:     300623
LLC AVERAGE MISS LATENCY: 504.01 cycles
Major fault: 0 Minor fault: 4152
I-Shadow cache 408 bytes
Touched + WorthPF tables 24576 bytes 
MMA filter 174 bytes 
FNL filter 272 bytes 
TOTAL PREFETCHER STORAGE SIZE: 98134 bytes
CPU 0 L1I next line prefetcher final stats
CPU 0 L1D next line prefetcher final stats

DRAM Statistics
 CHANNEL 0
 RQ ROW_BUFFER_HIT:     860549  ROW_BUFFER_MISS:    2313577
 DBUS_CONGESTED:    4952969
 WQ ROW_BUFFER_HIT:     807378  ROW_BUFFER_MISS:    2041505  FULL:          0

 AVG_CONGESTED_CYCLE: 6

CPU 0 Branch Prediction Accuracy: 99.5987% MPKI: 0.82446 Average ROB Occupancy at Mispredict: 128.728

Branch types
NOT_BRANCH: 39726800 79.4536%
BRANCH_DIRECT_JUMP: 391438 0.782876%
BRANCH_INDIRECT: 62076 0.124152%
BRANCH_CONDITIONAL: 8421539 16.8431%
BRANCH_DIRECT_CALL: 672961 1.34592%
BRANCH_INDIRECT_CALL: 26115 0.05223%
BRANCH_RETURN: 699082 1.39816%
BRANCH_OTHER: 0 0%

