Initialize SIGNATURE TABLE
ST_SET: 1
ST_WAY: 256
ST_TAG_BIT: 16
ST_TAG_MASK: ffff

Initialize PATTERN TABLE
PT_SET: 512
PT_WAY: 4
SIG_DELTA_BIT: 7
C_SIG_BIT: 4
C_DELTA_BIT: 4

Initialize PREFETCH FILTER
FILTER_SET: 1024

*** ChampSim Multicore Out-of-Order Simulator ***

Warmup Instructions: 50000000
Simulation Instructions: 50000000
Number of CPUs: 1
LLC sets: 2048
LLC ways: 16
Off-chip DRAM Size: 4096 MB Channels: 1 Width: 64-bit Data Rate: 3200 MT/s

CPU 0 runs /Users/gandhardeshpande/Desktop/CSE240C/HW1/ChampSim/ipc1_public/spec_gcc_001.champsimtrace.xz
CPU 0 L1I next line prefetcher
Running FNL-MMA for L1I
CPU 0 L1D next line prefetcher
Heartbeat CPU 0 instructions: 10000003 cycles: 3218552 heartbeat IPC: 3.10699 cumulative IPC: 3.10699 (Simulation time: 0 hr 0 min 13 sec) 
Heartbeat CPU 0 instructions: 20000002 cycles: 6462557 heartbeat IPC: 3.08261 cumulative IPC: 3.09475 (Simulation time: 0 hr 0 min 26 sec) 
Heartbeat CPU 0 instructions: 30000000 cycles: 9663766 heartbeat IPC: 3.12382 cumulative IPC: 3.10438 (Simulation time: 0 hr 0 min 39 sec) 
Heartbeat CPU 0 instructions: 40000001 cycles: 12904369 heartbeat IPC: 3.08585 cumulative IPC: 3.09973 (Simulation time: 0 hr 0 min 52 sec) 
Heartbeat CPU 0 instructions: 50000001 cycles: 16144502 heartbeat IPC: 3.08629 cumulative IPC: 3.09703 (Simulation time: 0 hr 1 min 6 sec) 

Warmup complete CPU 0 instructions: 50000001 cycles: 16144502 (Simulation time: 0 hr 1 min 6 sec) 

Heartbeat CPU 0 instructions: 60000000 cycles: 23839633 heartbeat IPC: 1.29952 cumulative IPC: 1.29952 (Simulation time: 0 hr 1 min 17 sec) 
Heartbeat CPU 0 instructions: 70000002 cycles: 31668097 heartbeat IPC: 1.27739 cumulative IPC: 1.28836 (Simulation time: 0 hr 1 min 29 sec) 
Heartbeat CPU 0 instructions: 80000000 cycles: 39188374 heartbeat IPC: 1.32974 cumulative IPC: 1.30186 (Simulation time: 0 hr 1 min 41 sec) 
Heartbeat CPU 0 instructions: 90000001 cycles: 47015051 heartbeat IPC: 1.27768 cumulative IPC: 1.29573 (Simulation time: 0 hr 1 min 53 sec) 
Heartbeat CPU 0 instructions: 100000000 cycles: 55121559 heartbeat IPC: 1.23358 cumulative IPC: 1.28281 (Simulation time: 0 hr 2 min 5 sec) 
Finished CPU 0 instructions: 50000000 cycles: 38977061 cumulative IPC: 1.28281 (Simulation time: 0 hr 2 min 5 sec) 

ChampSim completed all CPUs

Region of Interest Statistics

CPU 0 cumulative IPC: 1.28281 instructions: 50000000 cycles: 38977061
L1D TOTAL     ACCESS:   19328293  HIT:   18223144  MISS:    1105149
L1D LOAD      ACCESS:    7234891  HIT:    6755431  MISS:     479460
L1D RFO       ACCESS:    5117170  HIT:    5037652  MISS:      79518
L1D PREFETCH  ACCESS:    6976232  HIT:    6430061  MISS:     546171
L1D WRITEBACK ACCESS:          0  HIT:          0  MISS:          0
L1D PREFETCH  REQUESTED:    7278495  ISSUED:    7180737  USEFUL:     275928  USELESS:     270256
L1D AVERAGE MISS LATENCY: 25.6003 cycles
L1I TOTAL     ACCESS:   10833022  HIT:   10363927  MISS:     469095
L1I LOAD      ACCESS:    9279528  HIT:    9197956  MISS:      81572
L1I RFO       ACCESS:          0  HIT:          0  MISS:          0
L1I PREFETCH  ACCESS:    1553494  HIT:    1165971  MISS:     387523
L1I WRITEBACK ACCESS:          0  HIT:          0  MISS:          0
L1I PREFETCH  REQUESTED:    1602862  ISSUED:    1602862  USEFUL:     256373  USELESS:     131171
L1I AVERAGE MISS LATENCY: 21.9405 cycles
L2C TOTAL     ACCESS:    2664942  HIT:    2410765  MISS:     254177
L2C LOAD      ACCESS:     517602  HIT:     436836  MISS:      80766
L2C RFO       ACCESS:      74982  HIT:      36774  MISS:      38208
L2C PREFETCH  ACCESS:    1818601  HIT:    1683859  MISS:     134742
L2C WRITEBACK ACCESS:     253757  HIT:     253296  MISS:        461
L2C PREFETCH  REQUESTED:    1834094  ISSUED:    1833973  USEFUL:      32559  USELESS:     102191
L2C AVERAGE MISS LATENCY: 65.7742 cycles
LLC TOTAL     ACCESS:     649387  HIT:     575166  MISS:      74221
LLC LOAD      ACCESS:      80577  HIT:      71873  MISS:       8704
LLC RFO       ACCESS:      38205  HIT:      17626  MISS:      20579
LLC PREFETCH  ACCESS:     438983  HIT:     394966  MISS:      44017
LLC WRITEBACK ACCESS:      91622  HIT:      90701  MISS:        921
LLC PREFETCH  REQUESTED:          0  ISSUED:          0  USEFUL:      10304  USELESS:      37005
LLC AVERAGE MISS LATENCY: 189.24 cycles
Major fault: 0 Minor fault: 6868
I-Shadow cache 408 bytes
Touched + WorthPF tables 24576 bytes 
MMA filter 174 bytes 
FNL filter 272 bytes 
TOTAL PREFETCHER STORAGE SIZE: 98134 bytes
CPU 0 L1I next line prefetcher final stats
CPU 0 L1D next line prefetcher final stats

DRAM Statistics
 CHANNEL 0
 RQ ROW_BUFFER_HIT:      20100  ROW_BUFFER_MISS:      53190
 DBUS_CONGESTED:      42704
 WQ ROW_BUFFER_HIT:       3914  ROW_BUFFER_MISS:      24109  FULL:          0

 AVG_CONGESTED_CYCLE: 6

CPU 0 Branch Prediction Accuracy: 95.8872% MPKI: 9.67286 Average ROB Occupancy at Mispredict: 66.9825

Branch types
NOT_BRANCH: 38240102 76.4802%
BRANCH_DIRECT_JUMP: 653296 1.30659%
BRANCH_INDIRECT: 37098 0.074196%
BRANCH_CONDITIONAL: 8897819 17.7956%
BRANCH_DIRECT_CALL: 992620 1.98524%
BRANCH_INDIRECT_CALL: 93046 0.186092%
BRANCH_RETURN: 1085674 2.17135%
BRANCH_OTHER: 0 0%

