Initialize SIGNATURE TABLE
ST_SET: 1
ST_WAY: 256
ST_TAG_BIT: 16
ST_TAG_MASK: ffff

Initialize PATTERN TABLE
PT_SET: 512
PT_WAY: 4
SIG_DELTA_BIT: 7
C_SIG_BIT: 4
C_DELTA_BIT: 4

Initialize PREFETCH FILTER
FILTER_SET: 1024

*** ChampSim Multicore Out-of-Order Simulator ***

Warmup Instructions: 50000000
Simulation Instructions: 50000000
Number of CPUs: 1
LLC sets: 2048
LLC ways: 16
Off-chip DRAM Size: 4096 MB Channels: 1 Width: 64-bit Data Rate: 3200 MT/s

CPU 0 runs /Users/gandhardeshpande/Desktop/CSE240C/HW1/ChampSim/ipc1_public/server_013.champsimtrace.xz
CPU 0 L1D next line prefetcher
Heartbeat CPU 0 instructions: 10000000 cycles: 3214500 heartbeat IPC: 3.1109 cumulative IPC: 3.1109 (Simulation time: 0 hr 0 min 17 sec) 
Heartbeat CPU 0 instructions: 20000001 cycles: 6417294 heartbeat IPC: 3.12227 cumulative IPC: 3.11658 (Simulation time: 0 hr 0 min 33 sec) 
Heartbeat CPU 0 instructions: 30000002 cycles: 9623971 heartbeat IPC: 3.11849 cumulative IPC: 3.11722 (Simulation time: 0 hr 0 min 50 sec) 
Heartbeat CPU 0 instructions: 40000002 cycles: 12826062 heartbeat IPC: 3.12296 cumulative IPC: 3.11865 (Simulation time: 0 hr 1 min 6 sec) 
Heartbeat CPU 0 instructions: 50000000 cycles: 16028205 heartbeat IPC: 3.12291 cumulative IPC: 3.1195 (Simulation time: 0 hr 1 min 23 sec) 

Warmup complete CPU 0 instructions: 50000004 cycles: 16028206 (Simulation time: 0 hr 1 min 23 sec) 

Heartbeat CPU 0 instructions: 60000000 cycles: 23517617 heartbeat IPC: 1.33522 cumulative IPC: 1.33522 (Simulation time: 0 hr 1 min 38 sec) 
Heartbeat CPU 0 instructions: 70000002 cycles: 31207904 heartbeat IPC: 1.30034 cumulative IPC: 1.31755 (Simulation time: 0 hr 1 min 53 sec) 
Heartbeat CPU 0 instructions: 80000003 cycles: 38369173 heartbeat IPC: 1.3964 cumulative IPC: 1.34282 (Simulation time: 0 hr 2 min 8 sec) 
Heartbeat CPU 0 instructions: 90000003 cycles: 45685483 heartbeat IPC: 1.36681 cumulative IPC: 1.34874 (Simulation time: 0 hr 2 min 23 sec) 
Heartbeat CPU 0 instructions: 100000003 cycles: 53023919 heartbeat IPC: 1.36269 cumulative IPC: 1.35151 (Simulation time: 0 hr 2 min 39 sec) 
Finished CPU 0 instructions: 50000003 cycles: 36995714 cumulative IPC: 1.35151 (Simulation time: 0 hr 2 min 39 sec) 

ChampSim completed all CPUs

Region of Interest Statistics

CPU 0 cumulative IPC: 1.35151 instructions: 50000003 cycles: 36995714
L1D TOTAL     ACCESS:   17348777  HIT:   16282325  MISS:    1066452
L1D LOAD      ACCESS:    6328889  HIT:    5828087  MISS:     500802
L1D RFO       ACCESS:    4930695  HIT:    4850466  MISS:      80229
L1D PREFETCH  ACCESS:    6089193  HIT:    5603772  MISS:     485421
L1D WRITEBACK ACCESS:          0  HIT:          0  MISS:          0
L1D PREFETCH  REQUESTED:    6363852  ISSUED:    6269590  USEFUL:     133763  USELESS:     351666
L1D AVERAGE MISS LATENCY: 41.3861 cycles
L1I TOTAL     ACCESS:   10533183  HIT:    8707023  MISS:    1826160
L1I LOAD      ACCESS:    8652892  HIT:    8412247  MISS:     240645
L1I RFO       ACCESS:          0  HIT:          0  MISS:          0
L1I PREFETCH  ACCESS:    1880291  HIT:     294776  MISS:    1585515
L1I WRITEBACK ACCESS:          0  HIT:          0  MISS:          0
L1I PREFETCH  REQUESTED:    2235228  ISSUED:    2235228  USEFUL:    1203604  USELESS:     381912
L1I AVERAGE MISS LATENCY: 28.3579 cycles
L2C TOTAL     ACCESS:    3734946  HIT:    2436581  MISS:    1298365
L2C LOAD      ACCESS:     546521  HIT:     262943  MISS:     283578
L2C RFO       ACCESS:      78839  HIT:      32232  MISS:      46607
L2C PREFETCH  ACCESS:    2833798  HIT:    1866796  MISS:     967002
L2C WRITEBACK ACCESS:     275788  HIT:     274610  MISS:       1178
L2C PREFETCH  REQUESTED:    2632206  ISSUED:    2629949  USEFUL:      26715  USELESS:     940263
L2C AVERAGE MISS LATENCY: 45.4205 cycles
LLC TOTAL     ACCESS:    2348923  HIT:    2194443  MISS:     154480
LLC LOAD      ACCESS:     283463  HIT:     261249  MISS:      22214
LLC RFO       ACCESS:      46602  HIT:      36959  MISS:       9643
LLC PREFETCH  ACCESS:    1849414  HIT:    1727044  MISS:     122370
LLC WRITEBACK ACCESS:     169444  HIT:     169191  MISS:        253
LLC PREFETCH  REQUESTED:          0  ISSUED:          0  USEFUL:      10300  USELESS:     110647
LLC AVERAGE MISS LATENCY: 173.329 cycles
Major fault: 0 Minor fault: 6200
CPU 0 L1D next line prefetcher final stats

DRAM Statistics
 CHANNEL 0
 RQ ROW_BUFFER_HIT:      25705  ROW_BUFFER_MISS:     128514
 DBUS_CONGESTED:      67116
 WQ ROW_BUFFER_HIT:      11688  ROW_BUFFER_MISS:      50646  FULL:          0

 AVG_CONGESTED_CYCLE: 5

CPU 0 Branch Prediction Accuracy: 99.4114% MPKI: 1.0933 Average ROB Occupancy at Mispredict: 117.648

Branch types
NOT_BRANCH: 40713270 81.4265%
BRANCH_DIRECT_JUMP: 463701 0.927402%
BRANCH_INDIRECT: 146544 0.293088%
BRANCH_CONDITIONAL: 6981955 13.9639%
BRANCH_DIRECT_CALL: 665005 1.33001%
BRANCH_INDIRECT_CALL: 165152 0.330304%
BRANCH_RETURN: 864314 1.72863%
BRANCH_OTHER: 0 0%

