Initialize SIGNATURE TABLE
ST_SET: 1
ST_WAY: 256
ST_TAG_BIT: 16
ST_TAG_MASK: ffff

Initialize PATTERN TABLE
PT_SET: 512
PT_WAY: 4
SIG_DELTA_BIT: 7
C_SIG_BIT: 4
C_DELTA_BIT: 4

Initialize PREFETCH FILTER
FILTER_SET: 1024

*** ChampSim Multicore Out-of-Order Simulator ***

Warmup Instructions: 50000000
Simulation Instructions: 50000000
Number of CPUs: 1
LLC sets: 2048
LLC ways: 16
Off-chip DRAM Size: 4096 MB Channels: 1 Width: 64-bit Data Rate: 3200 MT/s

CPU 0 runs /Users/gandhardeshpande/Desktop/CSE240C/HW1/ChampSim/ipc1_public/server_032.champsimtrace.xz
CPU 0 L1D next line prefetcher
Heartbeat CPU 0 instructions: 10000002 cycles: 3529115 heartbeat IPC: 2.83357 cumulative IPC: 2.83357 (Simulation time: 0 hr 0 min 19 sec) 
Heartbeat CPU 0 instructions: 20000003 cycles: 7059917 heartbeat IPC: 2.83222 cumulative IPC: 2.83289 (Simulation time: 0 hr 0 min 38 sec) 
Heartbeat CPU 0 instructions: 30000000 cycles: 10589894 heartbeat IPC: 2.83288 cumulative IPC: 2.83289 (Simulation time: 0 hr 0 min 57 sec) 
Heartbeat CPU 0 instructions: 40000003 cycles: 14121002 heartbeat IPC: 2.83197 cumulative IPC: 2.83266 (Simulation time: 0 hr 1 min 17 sec) 
Heartbeat CPU 0 instructions: 50000000 cycles: 17650388 heartbeat IPC: 2.83335 cumulative IPC: 2.8328 (Simulation time: 0 hr 1 min 36 sec) 

Warmup complete CPU 0 instructions: 50000004 cycles: 17650389 (Simulation time: 0 hr 1 min 36 sec) 

Heartbeat CPU 0 instructions: 60000002 cycles: 24493788 heartbeat IPC: 1.46126 cumulative IPC: 1.46126 (Simulation time: 0 hr 1 min 55 sec) 
Heartbeat CPU 0 instructions: 70000000 cycles: 31336176 heartbeat IPC: 1.46148 cumulative IPC: 1.46137 (Simulation time: 0 hr 2 min 15 sec) 
*** Reached end of trace for Core: 0 Repeating trace: /Users/gandhardeshpande/Desktop/CSE240C/HW1/ChampSim/ipc1_public/server_032.champsimtrace.xz
Heartbeat CPU 0 instructions: 80000003 cycles: 38179234 heartbeat IPC: 1.46134 cumulative IPC: 1.46136 (Simulation time: 0 hr 2 min 35 sec) 
Heartbeat CPU 0 instructions: 90000002 cycles: 44995236 heartbeat IPC: 1.46714 cumulative IPC: 1.4628 (Simulation time: 0 hr 2 min 54 sec) 
Heartbeat CPU 0 instructions: 100000001 cycles: 51817222 heartbeat IPC: 1.46585 cumulative IPC: 1.46341 (Simulation time: 0 hr 3 min 14 sec) 
Finished CPU 0 instructions: 50000002 cycles: 34166835 cumulative IPC: 1.46341 (Simulation time: 0 hr 3 min 14 sec) 

ChampSim completed all CPUs

Region of Interest Statistics

CPU 0 cumulative IPC: 1.46341 instructions: 50000002 cycles: 34166835
L1D TOTAL     ACCESS:   19858994  HIT:   18030790  MISS:    1828204
L1D LOAD      ACCESS:    6795298  HIT:    6000425  MISS:     794873
L1D RFO       ACCESS:    6546481  HIT:    6251806  MISS:     294675
L1D PREFETCH  ACCESS:    6517215  HIT:    5778559  MISS:     738656
L1D WRITEBACK ACCESS:          0  HIT:          0  MISS:          0
L1D PREFETCH  REQUESTED:    6845853  ISSUED:    6710676  USEFUL:     169006  USELESS:     569650
L1D AVERAGE MISS LATENCY: 19.4249 cycles
L1I TOTAL     ACCESS:   13681978  HIT:    9805090  MISS:    3876888
L1I LOAD      ACCESS:    9554469  HIT:    9085418  MISS:     469051
L1I RFO       ACCESS:          0  HIT:          0  MISS:          0
L1I PREFETCH  ACCESS:    4127509  HIT:     719672  MISS:    3407837
L1I WRITEBACK ACCESS:          0  HIT:          0  MISS:          0
L1I PREFETCH  REQUESTED:    4903383  ISSUED:    4903383  USEFUL:    2769092  USELESS:     638729
L1I AVERAGE MISS LATENCY: 15.4764 cycles
L2C TOTAL     ACCESS:    7751217  HIT:    7126779  MISS:     624438
L2C LOAD      ACCESS:     901392  HIT:     784953  MISS:     116439
L2C RFO       ACCESS:     292637  HIT:     244252  MISS:      48385
L2C PREFETCH  ACCESS:    5921006  HIT:    5465836  MISS:     455170
L2C WRITEBACK ACCESS:     636182  HIT:     631738  MISS:       4444
L2C PREFETCH  REQUESTED:    4280582  ISSUED:    4273796  USEFUL:       8784  USELESS:     446323
L2C AVERAGE MISS LATENCY: 31.9797 cycles
LLC TOTAL     ACCESS:    2000925  HIT:    1994141  MISS:       6784
LLC LOAD      ACCESS:     116437  HIT:     115951  MISS:        486
LLC RFO       ACCESS:      48381  HIT:      48381  MISS:          0
LLC PREFETCH  ACCESS:    1737191  HIT:    1730911  MISS:       6280
LLC WRITEBACK ACCESS:      98916  HIT:      98898  MISS:         18
LLC PREFETCH  REQUESTED:          0  ISSUED:          0  USEFUL:        379  USELESS:       2187
LLC AVERAGE MISS LATENCY: 150.162 cycles
Major fault: 0 Minor fault: 1178
CPU 0 L1D next line prefetcher final stats

DRAM Statistics
 CHANNEL 0
 RQ ROW_BUFFER_HIT:       1568  ROW_BUFFER_MISS:       5198
 DBUS_CONGESTED:        633
 WQ ROW_BUFFER_HIT:          1  ROW_BUFFER_MISS:         11  FULL:          0

 AVG_CONGESTED_CYCLE: 4

CPU 0 Branch Prediction Accuracy: 99.8762% MPKI: 0.2296 Average ROB Occupancy at Mispredict: 184.434

Branch types
NOT_BRANCH: 40726152 81.4523%
BRANCH_DIRECT_JUMP: 508374 1.01675%
BRANCH_INDIRECT: 180051 0.360102%
BRANCH_CONDITIONAL: 5999662 11.9993%
BRANCH_DIRECT_CALL: 1086739 2.17348%
BRANCH_INDIRECT_CALL: 206109 0.412218%
BRANCH_RETURN: 1292837 2.58567%
BRANCH_OTHER: 0 0%

