Initialize SIGNATURE TABLE
ST_SET: 1
ST_WAY: 256
ST_TAG_BIT: 16
ST_TAG_MASK: ffff

Initialize PATTERN TABLE
PT_SET: 512
PT_WAY: 4
SIG_DELTA_BIT: 7
C_SIG_BIT: 4
C_DELTA_BIT: 4

Initialize PREFETCH FILTER
FILTER_SET: 1024

*** ChampSim Multicore Out-of-Order Simulator ***

Warmup Instructions: 50000000
Simulation Instructions: 50000000
Number of CPUs: 1
LLC sets: 2048
LLC ways: 16
Off-chip DRAM Size: 4096 MB Channels: 1 Width: 64-bit Data Rate: 3200 MT/s

CPU 0 runs /Users/gandhardeshpande/Desktop/CSE240C/HW1/ChampSim/ipc1_public/server_033.champsimtrace.xz
L1I Barca has been initializedCPU 0 L1D next line prefetcher
Heartbeat CPU 0 instructions: 10000001 cycles: 3342767 heartbeat IPC: 2.99153 cumulative IPC: 2.99153 (Simulation time: 0 hr 0 min 18 sec) 
Heartbeat CPU 0 instructions: 20000002 cycles: 6683673 heartbeat IPC: 2.9932 cumulative IPC: 2.99237 (Simulation time: 0 hr 0 min 36 sec) 
Heartbeat CPU 0 instructions: 30000001 cycles: 10014404 heartbeat IPC: 3.00234 cumulative IPC: 2.99569 (Simulation time: 0 hr 0 min 55 sec) 
Heartbeat CPU 0 instructions: 40000000 cycles: 13353661 heartbeat IPC: 2.99468 cumulative IPC: 2.99543 (Simulation time: 0 hr 1 min 13 sec) 
Heartbeat CPU 0 instructions: 50000000 cycles: 16692015 heartbeat IPC: 2.99549 cumulative IPC: 2.99544 (Simulation time: 0 hr 1 min 31 sec) 

Warmup complete CPU 0 instructions: 50000004 cycles: 16692016 (Simulation time: 0 hr 1 min 31 sec) 

Heartbeat CPU 0 instructions: 60000000 cycles: 24111919 heartbeat IPC: 1.34773 cumulative IPC: 1.34773 (Simulation time: 0 hr 1 min 47 sec) 
Heartbeat CPU 0 instructions: 70000000 cycles: 31476701 heartbeat IPC: 1.35781 cumulative IPC: 1.35275 (Simulation time: 0 hr 2 min 3 sec) 
Heartbeat CPU 0 instructions: 80000000 cycles: 39679775 heartbeat IPC: 1.21906 cumulative IPC: 1.30504 (Simulation time: 0 hr 2 min 20 sec) 
Heartbeat CPU 0 instructions: 90000003 cycles: 47133103 heartbeat IPC: 1.34168 cumulative IPC: 1.31401 (Simulation time: 0 hr 2 min 37 sec) 
Heartbeat CPU 0 instructions: 100000000 cycles: 54544163 heartbeat IPC: 1.34933 cumulative IPC: 1.32093 (Simulation time: 0 hr 2 min 53 sec) 
Finished CPU 0 instructions: 50000000 cycles: 37852159 cumulative IPC: 1.32093 (Simulation time: 0 hr 2 min 53 sec) 

ChampSim completed all CPUs

Region of Interest Statistics

CPU 0 cumulative IPC: 1.32093 instructions: 50000000 cycles: 37852159
L1D TOTAL     ACCESS:   19265033  HIT:   17782388  MISS:    1482645
L1D LOAD      ACCESS:    6636989  HIT:    5955102  MISS:     681887
L1D RFO       ACCESS:    6192419  HIT:    6041767  MISS:     150652
L1D PREFETCH  ACCESS:    6435625  HIT:    5785519  MISS:     650106
L1D WRITEBACK ACCESS:          0  HIT:          0  MISS:          0
L1D PREFETCH  REQUESTED:    6683306  ISSUED:    6576427  USEFUL:     141529  USELESS:     508582
L1D AVERAGE MISS LATENCY: 23.3887 cycles
L1I TOTAL     ACCESS:   12591236  HIT:    8746043  MISS:    3845193
L1I LOAD      ACCESS:    9506199  HIT:    8069120  MISS:    1437079
L1I RFO       ACCESS:          0  HIT:          0  MISS:          0
L1I PREFETCH  ACCESS:    3085037  HIT:     676923  MISS:    2408114
L1I WRITEBACK ACCESS:          0  HIT:          0  MISS:          0
L1I PREFETCH  REQUESTED:    3885512  ISSUED:    3885512  USEFUL:    1908483  USELESS:     499589
L1I AVERAGE MISS LATENCY: 14.0469 cycles
L2C TOTAL     ACCESS:    7430424  HIT:    7156780  MISS:     273644
L2C LOAD      ACCESS:    1900390  HIT:    1768783  MISS:     131607
L2C RFO       ACCESS:     149275  HIT:     129757  MISS:      19518
L2C PREFETCH  ACCESS:    5014044  HIT:    4892338  MISS:     121706
L2C WRITEBACK ACCESS:     366715  HIT:     365902  MISS:        813
L2C PREFETCH  REQUESTED:    4291441  ISSUED:    4286205  USEFUL:       9103  USELESS:     112360
L2C AVERAGE MISS LATENCY: 50.026 cycles
LLC TOTAL     ACCESS:    1543292  HIT:    1490460  MISS:      52832
LLC LOAD      ACCESS:     131580  HIT:     116872  MISS:      14708
LLC RFO       ACCESS:      19518  HIT:      16203  MISS:       3315
LLC PREFETCH  ACCESS:    1291229  HIT:    1256730  MISS:      34499
LLC WRITEBACK ACCESS:     100965  HIT:     100655  MISS:        310
LLC PREFETCH  REQUESTED:          0  ISSUED:          0  USEFUL:       5362  USELESS:      28626
LLC AVERAGE MISS LATENCY: 168.026 cycles
Major fault: 0 Minor fault: 2482
CPU 0 L1D next line prefetcher final stats

DRAM Statistics
 CHANNEL 0
 RQ ROW_BUFFER_HIT:       7746  ROW_BUFFER_MISS:      44776
 DBUS_CONGESTED:      19994
 WQ ROW_BUFFER_HIT:       3512  ROW_BUFFER_MISS:      15491  FULL:          0

 AVG_CONGESTED_CYCLE: 5

CPU 0 Branch Prediction Accuracy: 99.9029% MPKI: 0.19006 Average ROB Occupancy at Mispredict: 158.764

Branch types
NOT_BRANCH: 40217072 80.4341%
BRANCH_DIRECT_JUMP: 774599 1.5492%
BRANCH_INDIRECT: 108806 0.217612%
BRANCH_CONDITIONAL: 6379325 12.7586%
BRANCH_DIRECT_CALL: 1048808 2.09762%
BRANCH_INDIRECT_CALL: 211109 0.422218%
BRANCH_RETURN: 1259924 2.51985%
BRANCH_OTHER: 0 0%

