Initialize SIGNATURE TABLE
ST_SET: 1
ST_WAY: 256
ST_TAG_BIT: 16
ST_TAG_MASK: ffff

Initialize PATTERN TABLE
PT_SET: 512
PT_WAY: 4
SIG_DELTA_BIT: 7
C_SIG_BIT: 4
C_DELTA_BIT: 4

Initialize PREFETCH FILTER
FILTER_SET: 1024

*** ChampSim Multicore Out-of-Order Simulator ***

Warmup Instructions: 50000000
Simulation Instructions: 50000000
Number of CPUs: 1
LLC sets: 2048
LLC ways: 16
Off-chip DRAM Size: 4096 MB Channels: 1 Width: 64-bit Data Rate: 3200 MT/s

CPU 0 runs /Users/gandhardeshpande/Desktop/CSE240C/HW1/ChampSim/ipc1_public/spec_gobmk_001.champsimtrace.xz
L1I Barca has been initializedCPU 0 L1D next line prefetcher
Heartbeat CPU 0 instructions: 10000003 cycles: 3507207 heartbeat IPC: 2.85127 cumulative IPC: 2.85127 (Simulation time: 0 hr 0 min 17 sec) 
Heartbeat CPU 0 instructions: 20000002 cycles: 6987431 heartbeat IPC: 2.87338 cumulative IPC: 2.86228 (Simulation time: 0 hr 0 min 34 sec) 
Heartbeat CPU 0 instructions: 30000002 cycles: 10506254 heartbeat IPC: 2.84186 cumulative IPC: 2.85544 (Simulation time: 0 hr 0 min 50 sec) 
Heartbeat CPU 0 instructions: 40000001 cycles: 14025260 heartbeat IPC: 2.84171 cumulative IPC: 2.852 (Simulation time: 0 hr 1 min 7 sec) 
Heartbeat CPU 0 instructions: 50000001 cycles: 17565387 heartbeat IPC: 2.82476 cumulative IPC: 2.84651 (Simulation time: 0 hr 1 min 24 sec) 

Warmup complete CPU 0 instructions: 50000001 cycles: 17565387 (Simulation time: 0 hr 1 min 24 sec) 

Heartbeat CPU 0 instructions: 60000000 cycles: 26335651 heartbeat IPC: 1.14022 cumulative IPC: 1.14022 (Simulation time: 0 hr 1 min 38 sec) 
Heartbeat CPU 0 instructions: 70000002 cycles: 34738462 heartbeat IPC: 1.19008 cumulative IPC: 1.16461 (Simulation time: 0 hr 1 min 53 sec) 
Heartbeat CPU 0 instructions: 80000003 cycles: 43575437 heartbeat IPC: 1.13161 cumulative IPC: 1.1534 (Simulation time: 0 hr 2 min 6 sec) 
Heartbeat CPU 0 instructions: 90000001 cycles: 52091001 heartbeat IPC: 1.17432 cumulative IPC: 1.15856 (Simulation time: 0 hr 2 min 19 sec) 
Heartbeat CPU 0 instructions: 100000003 cycles: 60905866 heartbeat IPC: 1.13445 cumulative IPC: 1.15366 (Simulation time: 0 hr 2 min 33 sec) 
Finished CPU 0 instructions: 50000002 cycles: 43340479 cumulative IPC: 1.15366 (Simulation time: 0 hr 2 min 33 sec) 

ChampSim completed all CPUs

Region of Interest Statistics

CPU 0 cumulative IPC: 1.15366 instructions: 50000002 cycles: 43340479
L1D TOTAL     ACCESS:   17971317  HIT:   17591761  MISS:     379556
L1D LOAD      ACCESS:    7204476  HIT:    7068721  MISS:     135755
L1D RFO       ACCESS:    3702235  HIT:    3597683  MISS:     104552
L1D PREFETCH  ACCESS:    7064606  HIT:    6925357  MISS:     139249
L1D WRITEBACK ACCESS:          0  HIT:          0  MISS:          0
L1D PREFETCH  REQUESTED:    7209728  ISSUED:    7126932  USEFUL:      44526  USELESS:      94728
L1D AVERAGE MISS LATENCY: 32.665 cycles
L1I TOTAL     ACCESS:   10471042  HIT:    9333912  MISS:    1137130
L1I LOAD      ACCESS:    8939348  HIT:    8876318  MISS:      63030
L1I RFO       ACCESS:          0  HIT:          0  MISS:          0
L1I PREFETCH  ACCESS:    1531694  HIT:     457594  MISS:    1074100
L1I WRITEBACK ACCESS:          0  HIT:          0  MISS:          0
L1I PREFETCH  REQUESTED:    1636858  ISSUED:    1636858  USEFUL:     622786  USELESS:     451262
L1I AVERAGE MISS LATENCY: 14.9493 cycles
L2C TOTAL     ACCESS:    2069782  HIT:    1945182  MISS:     124600
L2C LOAD      ACCESS:     155091  HIT:     114998  MISS:      40093
L2C RFO       ACCESS:     104237  HIT:      70928  MISS:      33309
L2C PREFETCH  ACCESS:    1671150  HIT:    1619965  MISS:      51185
L2C WRITEBACK ACCESS:     139304  HIT:     139291  MISS:         13
L2C PREFETCH  REQUESTED:     735412  ISSUED:     735399  USEFUL:       3951  USELESS:      47421
L2C AVERAGE MISS LATENCY: 62.1412 cycles
LLC TOTAL     ACCESS:     259320  HIT:     228297  MISS:      31023
LLC LOAD      ACCESS:      40088  HIT:      31828  MISS:       8260
LLC RFO       ACCESS:      33309  HIT:      28815  MISS:       4494
LLC PREFETCH  ACCESS:     142009  HIT:     123988  MISS:      18021
LLC WRITEBACK ACCESS:      43914  HIT:      43666  MISS:        248
LLC PREFETCH  REQUESTED:          0  ISSUED:          0  USEFUL:       1343  USELESS:      15242
LLC AVERAGE MISS LATENCY: 180.521 cycles
Major fault: 0 Minor fault: 4156
CPU 0 L1D next line prefetcher final stats

DRAM Statistics
 CHANNEL 0
 RQ ROW_BUFFER_HIT:       3139  ROW_BUFFER_MISS:      27636
 DBUS_CONGESTED:      16509
 WQ ROW_BUFFER_HIT:       1018  ROW_BUFFER_MISS:      12983  FULL:          0

 AVG_CONGESTED_CYCLE: 4

CPU 0 Branch Prediction Accuracy: 94.7729% MPKI: 9.72684 Average ROB Occupancy at Mispredict: 54.283

Branch types
NOT_BRANCH: 40695383 81.3908%
BRANCH_DIRECT_JUMP: 422107 0.844214%
BRANCH_INDIRECT: 65 0.00013%
BRANCH_CONDITIONAL: 8105005 16.21%
BRANCH_DIRECT_CALL: 374913 0.749826%
BRANCH_INDIRECT_CALL: 13657 0.027314%
BRANCH_RETURN: 388556 0.777112%
BRANCH_OTHER: 0 0%

