
*** ChampSim Multicore Out-of-Order Simulator ***

Warmup Instructions: 10000000
Simulation Instructions: 100000000
Configuration: 2
Number of CPUs: 1
LLC sets: 2048
LLC ways: 16
Off-chip DRAM Channels: 1 Width: 64-bit Data Rate: 1600 MT/s

CPU 0 runs /datasets/cs240c-wi22-a00-public/data/Assignment2-gz/gcc_56B.trace.gz
CPU 0 L1D next line prefetcher
CPU 0 L2C IP-based stride prefetcher
Initialize SRRIP state
Heartbeat CPU 0 instructions: 1000003 cycles: 954151 heartbeat IPC: 1.04806 cumulative IPC: 1.04806 (Simulation time: 0 hr 0 min 41 sec) 
Heartbeat CPU 0 instructions: 2000001 cycles: 1898349 heartbeat IPC: 1.0591 cumulative IPC: 1.05355 (Simulation time: 0 hr 1 min 19 sec) 
Heartbeat CPU 0 instructions: 3000001 cycles: 2885593 heartbeat IPC: 1.01292 cumulative IPC: 1.03965 (Simulation time: 0 hr 1 min 55 sec) 
Heartbeat CPU 0 instructions: 4000000 cycles: 3848221 heartbeat IPC: 1.03882 cumulative IPC: 1.03944 (Simulation time: 0 hr 2 min 38 sec) 
Heartbeat CPU 0 instructions: 5000002 cycles: 4737701 heartbeat IPC: 1.12425 cumulative IPC: 1.05536 (Simulation time: 0 hr 3 min 15 sec) 
Heartbeat CPU 0 instructions: 6000000 cycles: 5685656 heartbeat IPC: 1.0549 cumulative IPC: 1.05529 (Simulation time: 0 hr 3 min 54 sec) 
Heartbeat CPU 0 instructions: 7000000 cycles: 6649892 heartbeat IPC: 1.03709 cumulative IPC: 1.05265 (Simulation time: 0 hr 4 min 35 sec) 
Heartbeat CPU 0 instructions: 8000000 cycles: 7611115 heartbeat IPC: 1.04034 cumulative IPC: 1.05109 (Simulation time: 0 hr 5 min 10 sec) 
Heartbeat CPU 0 instructions: 9000000 cycles: 8622587 heartbeat IPC: 0.988658 cumulative IPC: 1.04377 (Simulation time: 0 hr 5 min 48 sec) 
Heartbeat CPU 0 instructions: 10000002 cycles: 9583098 heartbeat IPC: 1.04111 cumulative IPC: 1.0435 (Simulation time: 0 hr 6 min 22 sec) 

Warmup complete CPU 0 instructions: 10000002 cycles: 9583098 (Simulation time: 0 hr 6 min 22 sec) 

Heartbeat CPU 0 instructions: 11000000 cycles: 10925644 heartbeat IPC: 0.744852 cumulative IPC: 0.744852 (Simulation time: 0 hr 7 min 3 sec) 
Heartbeat CPU 0 instructions: 12000000 cycles: 12345245 heartbeat IPC: 0.704423 cumulative IPC: 0.724074 (Simulation time: 0 hr 7 min 45 sec) 
Heartbeat CPU 0 instructions: 13000001 cycles: 13726403 heartbeat IPC: 0.724031 cumulative IPC: 0.724059 (Simulation time: 0 hr 8 min 24 sec) 
Heartbeat CPU 0 instructions: 14000000 cycles: 15053234 heartbeat IPC: 0.753675 cumulative IPC: 0.731243 (Simulation time: 0 hr 9 min 3 sec) 
Heartbeat CPU 0 instructions: 15000003 cycles: 16421751 heartbeat IPC: 0.73072 cumulative IPC: 0.731138 (Simulation time: 0 hr 9 min 40 sec) 
Heartbeat CPU 0 instructions: 16000000 cycles: 17740013 heartbeat IPC: 0.758572 cumulative IPC: 0.735572 (Simulation time: 0 hr 10 min 18 sec) 
Heartbeat CPU 0 instructions: 17000001 cycles: 19053423 heartbeat IPC: 0.761378 cumulative IPC: 0.739151 (Simulation time: 0 hr 10 min 56 sec) 
Heartbeat CPU 0 instructions: 18000000 cycles: 20434841 heartbeat IPC: 0.723893 cumulative IPC: 0.737209 (Simulation time: 0 hr 11 min 37 sec) 
Heartbeat CPU 0 instructions: 19000000 cycles: 21802344 heartbeat IPC: 0.73126 cumulative IPC: 0.736543 (Simulation time: 0 hr 12 min 15 sec) 
Heartbeat CPU 0 instructions: 20000000 cycles: 23158727 heartbeat IPC: 0.737255 cumulative IPC: 0.736614 (Simulation time: 0 hr 12 min 51 sec) 
Heartbeat CPU 0 instructions: 21000000 cycles: 24494378 heartbeat IPC: 0.748699 cumulative IPC: 0.737696 (Simulation time: 0 hr 13 min 32 sec) 
Heartbeat CPU 0 instructions: 22000000 cycles: 25812412 heartbeat IPC: 0.758706 cumulative IPC: 0.739403 (Simulation time: 0 hr 14 min 8 sec) 
Heartbeat CPU 0 instructions: 23000000 cycles: 27138862 heartbeat IPC: 0.753892 cumulative IPC: 0.740497 (Simulation time: 0 hr 14 min 52 sec) 
Heartbeat CPU 0 instructions: 24000000 cycles: 28488245 heartbeat IPC: 0.741079 cumulative IPC: 0.740539 (Simulation time: 0 hr 15 min 32 sec) 
Heartbeat CPU 0 instructions: 25000000 cycles: 29849139 heartbeat IPC: 0.734811 cumulative IPC: 0.740154 (Simulation time: 0 hr 16 min 7 sec) 
Heartbeat CPU 0 instructions: 26000002 cycles: 31248602 heartbeat IPC: 0.714561 cumulative IPC: 0.738501 (Simulation time: 0 hr 16 min 52 sec) 
Heartbeat CPU 0 instructions: 27000000 cycles: 32624478 heartbeat IPC: 0.726808 cumulative IPC: 0.737803 (Simulation time: 0 hr 17 min 27 sec) 
Heartbeat CPU 0 instructions: 28000000 cycles: 33952715 heartbeat IPC: 0.752878 cumulative IPC: 0.738625 (Simulation time: 0 hr 18 min 4 sec) 
Heartbeat CPU 0 instructions: 29000000 cycles: 35285285 heartbeat IPC: 0.75043 cumulative IPC: 0.739237 (Simulation time: 0 hr 18 min 47 sec) 
Heartbeat CPU 0 instructions: 30000000 cycles: 36621730 heartbeat IPC: 0.748254 cumulative IPC: 0.739682 (Simulation time: 0 hr 19 min 30 sec) 
Heartbeat CPU 0 instructions: 31000000 cycles: 37966709 heartbeat IPC: 0.743506 cumulative IPC: 0.739864 (Simulation time: 0 hr 20 min 22 sec) 
Heartbeat CPU 0 instructions: 32000000 cycles: 39334519 heartbeat IPC: 0.731096 cumulative IPC: 0.73946 (Simulation time: 0 hr 21 min 11 sec) 
Heartbeat CPU 0 instructions: 33000002 cycles: 40735389 heartbeat IPC: 0.713844 cumulative IPC: 0.738308 (Simulation time: 0 hr 22 min 21 sec) 
Heartbeat CPU 0 instructions: 34000002 cycles: 42092528 heartbeat IPC: 0.736844 cumulative IPC: 0.738247 (Simulation time: 0 hr 23 min 24 sec) 
Heartbeat CPU 0 instructions: 35000002 cycles: 43436515 heartbeat IPC: 0.744055 cumulative IPC: 0.738478 (Simulation time: 0 hr 24 min 25 sec) 
Heartbeat CPU 0 instructions: 36000000 cycles: 44758469 heartbeat IPC: 0.756454 cumulative IPC: 0.739154 (Simulation time: 0 hr 25 min 26 sec) 
Heartbeat CPU 0 instructions: 37000000 cycles: 46066408 heartbeat IPC: 0.764562 cumulative IPC: 0.740064 (Simulation time: 0 hr 26 min 29 sec) 
Heartbeat CPU 0 instructions: 38000002 cycles: 47396380 heartbeat IPC: 0.751897 cumulative IPC: 0.740481 (Simulation time: 0 hr 27 min 30 sec) 
Heartbeat CPU 0 instructions: 39000000 cycles: 48794754 heartbeat IPC: 0.715115 cumulative IPC: 0.739576 (Simulation time: 0 hr 28 min 32 sec) 
Heartbeat CPU 0 instructions: 40000000 cycles: 50154067 heartbeat IPC: 0.735666 cumulative IPC: 0.739445 (Simulation time: 0 hr 29 min 33 sec) 
Heartbeat CPU 0 instructions: 41000001 cycles: 51491549 heartbeat IPC: 0.747674 cumulative IPC: 0.739708 (Simulation time: 0 hr 30 min 37 sec) 
Heartbeat CPU 0 instructions: 42000003 cycles: 52817578 heartbeat IPC: 0.754133 cumulative IPC: 0.74015 (Simulation time: 0 hr 31 min 41 sec) 
Heartbeat CPU 0 instructions: 43000001 cycles: 54150186 heartbeat IPC: 0.750407 cumulative IPC: 0.740457 (Simulation time: 0 hr 32 min 44 sec) 
Heartbeat CPU 0 instructions: 44000000 cycles: 55475403 heartbeat IPC: 0.754593 cumulative IPC: 0.740865 (Simulation time: 0 hr 33 min 46 sec) 
Heartbeat CPU 0 instructions: 45000000 cycles: 56840248 heartbeat IPC: 0.732684 cumulative IPC: 0.740629 (Simulation time: 0 hr 34 min 51 sec) 
Heartbeat CPU 0 instructions: 46000000 cycles: 58230351 heartbeat IPC: 0.719371 cumulative IPC: 0.740021 (Simulation time: 0 hr 35 min 53 sec) 
Heartbeat CPU 0 instructions: 47000002 cycles: 59601821 heartbeat IPC: 0.729146 cumulative IPC: 0.739723 (Simulation time: 0 hr 36 min 56 sec) 
Heartbeat CPU 0 instructions: 48000000 cycles: 60946803 heartbeat IPC: 0.743503 cumulative IPC: 0.739822 (Simulation time: 0 hr 38 min 2 sec) 
Heartbeat CPU 0 instructions: 49000002 cycles: 62272041 heartbeat IPC: 0.754583 cumulative IPC: 0.740193 (Simulation time: 0 hr 39 min 14 sec) 
Heartbeat CPU 0 instructions: 50000000 cycles: 63591569 heartbeat IPC: 0.757845 cumulative IPC: 0.740625 (Simulation time: 0 hr 40 min 12 sec) 
Heartbeat CPU 0 instructions: 51000000 cycles: 64944106 heartbeat IPC: 0.739351 cumulative IPC: 0.740593 (Simulation time: 0 hr 41 min 13 sec) 
Heartbeat CPU 0 instructions: 52000000 cycles: 66334826 heartbeat IPC: 0.719052 cumulative IPC: 0.740066 (Simulation time: 0 hr 42 min 16 sec) 
Heartbeat CPU 0 instructions: 53000001 cycles: 67672001 heartbeat IPC: 0.747846 cumulative IPC: 0.740245 (Simulation time: 0 hr 43 min 17 sec) 
Heartbeat CPU 0 instructions: 54000000 cycles: 68985855 heartbeat IPC: 0.761119 cumulative IPC: 0.740706 (Simulation time: 0 hr 44 min 18 sec) 
Heartbeat CPU 0 instructions: 55000001 cycles: 70291014 heartbeat IPC: 0.766191 cumulative IPC: 0.741254 (Simulation time: 0 hr 45 min 14 sec) 
Heartbeat CPU 0 instructions: 56000000 cycles: 71614462 heartbeat IPC: 0.755601 cumulative IPC: 0.74156 (Simulation time: 0 hr 46 min 10 sec) 
Heartbeat CPU 0 instructions: 57000001 cycles: 72947319 heartbeat IPC: 0.750269 cumulative IPC: 0.741744 (Simulation time: 0 hr 47 min 13 sec) 
Heartbeat CPU 0 instructions: 58000000 cycles: 74320763 heartbeat IPC: 0.728096 cumulative IPC: 0.741454 (Simulation time: 0 hr 48 min 11 sec) 
Heartbeat CPU 0 instructions: 59000000 cycles: 75713493 heartbeat IPC: 0.718014 cumulative IPC: 0.74096 (Simulation time: 0 hr 49 min 9 sec) 
Heartbeat CPU 0 instructions: 60000000 cycles: 77088047 heartbeat IPC: 0.727509 cumulative IPC: 0.740686 (Simulation time: 0 hr 50 min 12 sec) 
Heartbeat CPU 0 instructions: 61000000 cycles: 78418206 heartbeat IPC: 0.75179 cumulative IPC: 0.740901 (Simulation time: 0 hr 51 min 10 sec) 
Heartbeat CPU 0 instructions: 62000002 cycles: 79778351 heartbeat IPC: 0.735217 cumulative IPC: 0.740791 (Simulation time: 0 hr 52 min 3 sec) 
Heartbeat CPU 0 instructions: 63000003 cycles: 81092377 heartbeat IPC: 0.761021 cumulative IPC: 0.741163 (Simulation time: 0 hr 53 min 7 sec) 
Heartbeat CPU 0 instructions: 64000000 cycles: 82410399 heartbeat IPC: 0.75871 cumulative IPC: 0.74148 (Simulation time: 0 hr 53 min 56 sec) 
Heartbeat CPU 0 instructions: 65000000 cycles: 83752461 heartbeat IPC: 0.745122 cumulative IPC: 0.741546 (Simulation time: 0 hr 54 min 49 sec) 
Heartbeat CPU 0 instructions: 66000002 cycles: 85142050 heartbeat IPC: 0.719639 cumulative IPC: 0.741143 (Simulation time: 0 hr 55 min 35 sec) 
Heartbeat CPU 0 instructions: 67000002 cycles: 86528826 heartbeat IPC: 0.721097 cumulative IPC: 0.740782 (Simulation time: 0 hr 56 min 20 sec) 
Heartbeat CPU 0 instructions: 68000000 cycles: 87879446 heartbeat IPC: 0.740399 cumulative IPC: 0.740775 (Simulation time: 0 hr 57 min 3 sec) 
Heartbeat CPU 0 instructions: 69000000 cycles: 89207087 heartbeat IPC: 0.753216 cumulative IPC: 0.740983 (Simulation time: 0 hr 57 min 48 sec) 
Heartbeat CPU 0 instructions: 70000000 cycles: 90532489 heartbeat IPC: 0.754488 cumulative IPC: 0.741204 (Simulation time: 0 hr 58 min 31 sec) 
Heartbeat CPU 0 instructions: 71000003 cycles: 91874167 heartbeat IPC: 0.745338 cumulative IPC: 0.741271 (Simulation time: 0 hr 59 min 8 sec) 
Heartbeat CPU 0 instructions: 72000000 cycles: 93211137 heartbeat IPC: 0.747958 cumulative IPC: 0.741378 (Simulation time: 0 hr 59 min 51 sec) 
Heartbeat CPU 0 instructions: 73000003 cycles: 94577033 heartbeat IPC: 0.732122 cumulative IPC: 0.741229 (Simulation time: 1 hr 0 min 28 sec) 
Heartbeat CPU 0 instructions: 74000001 cycles: 95974607 heartbeat IPC: 0.715524 cumulative IPC: 0.740814 (Simulation time: 1 hr 1 min 4 sec) 
Heartbeat CPU 0 instructions: 75000003 cycles: 97346652 heartbeat IPC: 0.728841 cumulative IPC: 0.740626 (Simulation time: 1 hr 1 min 36 sec) 
Heartbeat CPU 0 instructions: 76000000 cycles: 98688022 heartbeat IPC: 0.745504 cumulative IPC: 0.7407 (Simulation time: 1 hr 2 min 1 sec) 
Heartbeat CPU 0 instructions: 77000003 cycles: 100021309 heartbeat IPC: 0.750028 cumulative IPC: 0.740837 (Simulation time: 1 hr 2 min 21 sec) 
Heartbeat CPU 0 instructions: 78000001 cycles: 101351727 heartbeat IPC: 0.751642 cumulative IPC: 0.740994 (Simulation time: 1 hr 2 min 39 sec) 
Heartbeat CPU 0 instructions: 79000000 cycles: 102707530 heartbeat IPC: 0.73757 cumulative IPC: 0.740944 (Simulation time: 1 hr 2 min 55 sec) 
Heartbeat CPU 0 instructions: 80000000 cycles: 104053218 heartbeat IPC: 0.743114 cumulative IPC: 0.740975 (Simulation time: 1 hr 3 min 13 sec) 
Heartbeat CPU 0 instructions: 81000002 cycles: 105430418 heartbeat IPC: 0.726112 cumulative IPC: 0.740761 (Simulation time: 1 hr 3 min 31 sec) 
Heartbeat CPU 0 instructions: 82000000 cycles: 106800835 heartbeat IPC: 0.729703 cumulative IPC: 0.740606 (Simulation time: 1 hr 3 min 48 sec) 
Heartbeat CPU 0 instructions: 83000003 cycles: 108132012 heartbeat IPC: 0.751217 cumulative IPC: 0.740749 (Simulation time: 1 hr 4 min 4 sec) 
Heartbeat CPU 0 instructions: 84000000 cycles: 109473208 heartbeat IPC: 0.745601 cumulative IPC: 0.740814 (Simulation time: 1 hr 4 min 20 sec) 
Heartbeat CPU 0 instructions: 85000002 cycles: 110787567 heartbeat IPC: 0.760829 cumulative IPC: 0.741074 (Simulation time: 1 hr 4 min 35 sec) 
Heartbeat CPU 0 instructions: 86000003 cycles: 112089439 heartbeat IPC: 0.768125 cumulative IPC: 0.741418 (Simulation time: 1 hr 4 min 49 sec) 
Heartbeat CPU 0 instructions: 87000000 cycles: 113472012 heartbeat IPC: 0.723287 cumulative IPC: 0.741176 (Simulation time: 1 hr 5 min 3 sec) 
Heartbeat CPU 0 instructions: 88000000 cycles: 114821708 heartbeat IPC: 0.740908 cumulative IPC: 0.741173 (Simulation time: 1 hr 5 min 18 sec) 
Heartbeat CPU 0 instructions: 89000000 cycles: 116180951 heartbeat IPC: 0.735704 cumulative IPC: 0.741103 (Simulation time: 1 hr 5 min 33 sec) 
Heartbeat CPU 0 instructions: 90000000 cycles: 117498730 heartbeat IPC: 0.758853 cumulative IPC: 0.74132 (Simulation time: 1 hr 5 min 47 sec) 
Heartbeat CPU 0 instructions: 91000001 cycles: 118804622 heartbeat IPC: 0.765761 cumulative IPC: 0.741612 (Simulation time: 1 hr 6 min 1 sec) 
Heartbeat CPU 0 instructions: 92000000 cycles: 120121575 heartbeat IPC: 0.759328 cumulative IPC: 0.741823 (Simulation time: 1 hr 6 min 12 sec) 
Heartbeat CPU 0 instructions: 93000003 cycles: 121503093 heartbeat IPC: 0.723844 cumulative IPC: 0.741601 (Simulation time: 1 hr 6 min 23 sec) 
Heartbeat CPU 0 instructions: 94000000 cycles: 122845618 heartbeat IPC: 0.744863 cumulative IPC: 0.74164 (Simulation time: 1 hr 6 min 34 sec) 
Heartbeat CPU 0 instructions: 95000000 cycles: 124196316 heartbeat IPC: 0.740358 cumulative IPC: 0.741625 (Simulation time: 1 hr 6 min 42 sec) 
Heartbeat CPU 0 instructions: 96000000 cycles: 125528242 heartbeat IPC: 0.750792 cumulative IPC: 0.74173 (Simulation time: 1 hr 6 min 50 sec) 
Heartbeat CPU 0 instructions: 97000000 cycles: 126838905 heartbeat IPC: 0.762973 cumulative IPC: 0.741967 (Simulation time: 1 hr 6 min 59 sec) 
Heartbeat CPU 0 instructions: 98000003 cycles: 128146669 heartbeat IPC: 0.764666 cumulative IPC: 0.742218 (Simulation time: 1 hr 7 min 7 sec) 
Heartbeat CPU 0 instructions: 99000000 cycles: 129533468 heartbeat IPC: 0.721083 cumulative IPC: 0.741974 (Simulation time: 1 hr 7 min 14 sec) 
Heartbeat CPU 0 instructions: 100000000 cycles: 130875630 heartbeat IPC: 0.745067 cumulative IPC: 0.742008 (Simulation time: 1 hr 7 min 22 sec) 
Heartbeat CPU 0 instructions: 101000000 cycles: 132223213 heartbeat IPC: 0.742069 cumulative IPC: 0.742008 (Simulation time: 1 hr 7 min 29 sec) 
Heartbeat CPU 0 instructions: 102000001 cycles: 133537446 heartbeat IPC: 0.760901 cumulative IPC: 0.742209 (Simulation time: 1 hr 7 min 36 sec) 
Heartbeat CPU 0 instructions: 103000001 cycles: 134838953 heartbeat IPC: 0.76834 cumulative IPC: 0.74248 (Simulation time: 1 hr 7 min 44 sec) 
Heartbeat CPU 0 instructions: 104000000 cycles: 136141030 heartbeat IPC: 0.768003 cumulative IPC: 0.742743 (Simulation time: 1 hr 7 min 50 sec) 
Heartbeat CPU 0 instructions: 105000002 cycles: 137519164 heartbeat IPC: 0.72562 cumulative IPC: 0.742558 (Simulation time: 1 hr 7 min 56 sec) 
Heartbeat CPU 0 instructions: 106000000 cycles: 138924693 heartbeat IPC: 0.711474 cumulative IPC: 0.742221 (Simulation time: 1 hr 8 min 2 sec) 
Heartbeat CPU 0 instructions: 107000002 cycles: 140314003 heartbeat IPC: 0.719783 cumulative IPC: 0.741982 (Simulation time: 1 hr 8 min 8 sec) 
Heartbeat CPU 0 instructions: 108000000 cycles: 141668384 heartbeat IPC: 0.738343 cumulative IPC: 0.741945 (Simulation time: 1 hr 8 min 13 sec) 
Heartbeat CPU 0 instructions: 109000000 cycles: 143004168 heartbeat IPC: 0.748624 cumulative IPC: 0.742012 (Simulation time: 1 hr 8 min 18 sec) 
Heartbeat CPU 0 instructions: 110000000 cycles: 144333603 heartbeat IPC: 0.752199 cumulative IPC: 0.742112 (Simulation time: 1 hr 8 min 22 sec) 
Finished CPU 0 instructions: 100000003 cycles: 134750507 cummulative IPC: 0.742112 (Simulation time: 1 hr 8 min 22 sec) 

ChampSim completed all CPUs

Region of Interest Statistics

CPU 0 cummulative IPC: 0.742112 instructions: 100000003 cycles: 134750507
LLC TOTAL     ACCESS:   21346125  HIT:   21272395  MISS:      73730
LLC LOAD      ACCESS:     165898  HIT:     131115  MISS:      34783
LLC RFO       ACCESS:   10463422  HIT:   10457724  MISS:       5698
LLC PREFETCH  ACCESS:     183317  HIT:     150252  MISS:      33065
LLC WRITEBACK ACCESS:   10533488  HIT:   10533304  MISS:        184
Insertion Distribution: 
	LOAD 6079 0 0 0 0 0 15137 17228 
	RFO 0 0 0 0 0 0 10485 3460 
	PREF 0 3559 0 0 0 0 14327 18221 
	WRITEBACK 0 0 0 0 0 0 0 186 
Total Prefetch Downgrades: 5306
