
*** ChampSim Multicore Out-of-Order Simulator ***

Warmup Instructions: 10000000
Simulation Instructions: 100000000
Configuration: 2
Number of CPUs: 1
LLC sets: 2048
LLC ways: 16
Off-chip DRAM Channels: 1 Width: 64-bit Data Rate: 1600 MT/s

CPU 0 runs /datasets/cs240c-wi22-a00-public/data/Assignment2-gz/soplex_66B.trace.gz
CPU 0 L1D next line prefetcher
CPU 0 L2C IP-based stride prefetcher
Initialize SRRIP state
Heartbeat CPU 0 instructions: 1000003 cycles: 415046 heartbeat IPC: 2.40938 cumulative IPC: 2.40938 (Simulation time: 0 hr 0 min 31 sec) 
Heartbeat CPU 0 instructions: 2000003 cycles: 837428 heartbeat IPC: 2.36753 cumulative IPC: 2.38827 (Simulation time: 0 hr 0 min 59 sec) 
Heartbeat CPU 0 instructions: 3000003 cycles: 1242514 heartbeat IPC: 2.46861 cumulative IPC: 2.41446 (Simulation time: 0 hr 1 min 30 sec) 
Heartbeat CPU 0 instructions: 4000000 cycles: 1626625 heartbeat IPC: 2.60341 cumulative IPC: 2.45908 (Simulation time: 0 hr 1 min 55 sec) 
Heartbeat CPU 0 instructions: 5000000 cycles: 2040433 heartbeat IPC: 2.41658 cumulative IPC: 2.45046 (Simulation time: 0 hr 2 min 20 sec) 
Heartbeat CPU 0 instructions: 6000000 cycles: 2513436 heartbeat IPC: 2.11415 cumulative IPC: 2.38717 (Simulation time: 0 hr 2 min 46 sec) 
Heartbeat CPU 0 instructions: 7000002 cycles: 2885890 heartbeat IPC: 2.6849 cumulative IPC: 2.4256 (Simulation time: 0 hr 3 min 13 sec) 
Heartbeat CPU 0 instructions: 8000000 cycles: 3311522 heartbeat IPC: 2.34944 cumulative IPC: 2.41581 (Simulation time: 0 hr 3 min 42 sec) 
Heartbeat CPU 0 instructions: 9000001 cycles: 3750062 heartbeat IPC: 2.2803 cumulative IPC: 2.39996 (Simulation time: 0 hr 4 min 9 sec) 
Heartbeat CPU 0 instructions: 10000002 cycles: 4162090 heartbeat IPC: 2.42702 cumulative IPC: 2.40264 (Simulation time: 0 hr 4 min 36 sec) 

Warmup complete CPU 0 instructions: 10000002 cycles: 4162090 (Simulation time: 0 hr 4 min 36 sec) 

Heartbeat CPU 0 instructions: 11000001 cycles: 7163178 heartbeat IPC: 0.333212 cumulative IPC: 0.333212 (Simulation time: 0 hr 5 min 11 sec) 
Heartbeat CPU 0 instructions: 12000000 cycles: 8482710 heartbeat IPC: 0.757844 cumulative IPC: 0.462896 (Simulation time: 0 hr 5 min 36 sec) 
Heartbeat CPU 0 instructions: 13000001 cycles: 11036470 heartbeat IPC: 0.39158 cumulative IPC: 0.436403 (Simulation time: 0 hr 6 min 5 sec) 
Heartbeat CPU 0 instructions: 14000002 cycles: 13511599 heartbeat IPC: 0.40402 cumulative IPC: 0.42783 (Simulation time: 0 hr 6 min 38 sec) 
Heartbeat CPU 0 instructions: 15000002 cycles: 16045330 heartbeat IPC: 0.394675 cumulative IPC: 0.420761 (Simulation time: 0 hr 7 min 7 sec) 
Heartbeat CPU 0 instructions: 16000000 cycles: 18872813 heartbeat IPC: 0.353671 cumulative IPC: 0.407866 (Simulation time: 0 hr 7 min 41 sec) 
Heartbeat CPU 0 instructions: 17000001 cycles: 21001072 heartbeat IPC: 0.469868 cumulative IPC: 0.415702 (Simulation time: 0 hr 8 min 20 sec) 
Heartbeat CPU 0 instructions: 18000000 cycles: 22912308 heartbeat IPC: 0.523221 cumulative IPC: 0.426662 (Simulation time: 0 hr 8 min 58 sec) 
Heartbeat CPU 0 instructions: 19000002 cycles: 26222438 heartbeat IPC: 0.302104 cumulative IPC: 0.407972 (Simulation time: 0 hr 9 min 37 sec) 
Heartbeat CPU 0 instructions: 20000000 cycles: 27556814 heartbeat IPC: 0.749412 cumulative IPC: 0.427447 (Simulation time: 0 hr 10 min 1 sec) 
Heartbeat CPU 0 instructions: 21000000 cycles: 29743488 heartbeat IPC: 0.457316 cumulative IPC: 0.43 (Simulation time: 0 hr 10 min 31 sec) 
Heartbeat CPU 0 instructions: 22000000 cycles: 32433158 heartbeat IPC: 0.371793 cumulative IPC: 0.424462 (Simulation time: 0 hr 11 min 5 sec) 
Heartbeat CPU 0 instructions: 23000000 cycles: 34902247 heartbeat IPC: 0.405008 cumulative IPC: 0.4229 (Simulation time: 0 hr 11 min 34 sec) 
Heartbeat CPU 0 instructions: 24000000 cycles: 37463516 heartbeat IPC: 0.390431 cumulative IPC: 0.420402 (Simulation time: 0 hr 12 min 2 sec) 
Heartbeat CPU 0 instructions: 25000003 cycles: 39799393 heartbeat IPC: 0.428106 cumulative IPC: 0.420907 (Simulation time: 0 hr 12 min 42 sec) 
Heartbeat CPU 0 instructions: 26000001 cycles: 41948025 heartbeat IPC: 0.465411 cumulative IPC: 0.423438 (Simulation time: 0 hr 13 min 15 sec) 
Heartbeat CPU 0 instructions: 27000002 cycles: 45284532 heartbeat IPC: 0.299715 cumulative IPC: 0.4134 (Simulation time: 0 hr 13 min 54 sec) 
Heartbeat CPU 0 instructions: 28000000 cycles: 46621684 heartbeat IPC: 0.747857 cumulative IPC: 0.423932 (Simulation time: 0 hr 14 min 19 sec) 
Heartbeat CPU 0 instructions: 29000002 cycles: 48439169 heartbeat IPC: 0.550212 cumulative IPC: 0.429116 (Simulation time: 0 hr 14 min 48 sec) 
Heartbeat CPU 0 instructions: 30000000 cycles: 51334942 heartbeat IPC: 0.34533 cumulative IPC: 0.423973 (Simulation time: 0 hr 15 min 23 sec) 
Heartbeat CPU 0 instructions: 31000001 cycles: 53867432 heartbeat IPC: 0.394869 cumulative IPC: 0.42249 (Simulation time: 0 hr 15 min 52 sec) 
Heartbeat CPU 0 instructions: 32000000 cycles: 56359637 heartbeat IPC: 0.401251 cumulative IPC: 0.421476 (Simulation time: 0 hr 16 min 20 sec) 
Heartbeat CPU 0 instructions: 33000001 cycles: 59645248 heartbeat IPC: 0.304358 cumulative IPC: 0.41454 (Simulation time: 0 hr 17 min 1 sec) 
Heartbeat CPU 0 instructions: 34000003 cycles: 61592975 heartbeat IPC: 0.51342 cumulative IPC: 0.417894 (Simulation time: 0 hr 17 min 35 sec) 
Heartbeat CPU 0 instructions: 35000003 cycles: 64533452 heartbeat IPC: 0.340081 cumulative IPC: 0.414104 (Simulation time: 0 hr 18 min 11 sec) 
Heartbeat CPU 0 instructions: 36000000 cycles: 65867420 heartbeat IPC: 0.749641 cumulative IPC: 0.421357 (Simulation time: 0 hr 18 min 35 sec) 
Heartbeat CPU 0 instructions: 37000000 cycles: 68432878 heartbeat IPC: 0.389794 cumulative IPC: 0.420098 (Simulation time: 0 hr 19 min 6 sec) 
Heartbeat CPU 0 instructions: 38000001 cycles: 70882041 heartbeat IPC: 0.408303 cumulative IPC: 0.419665 (Simulation time: 0 hr 19 min 38 sec) 
Heartbeat CPU 0 instructions: 39000003 cycles: 73392336 heartbeat IPC: 0.39836 cumulative IPC: 0.418892 (Simulation time: 0 hr 20 min 9 sec) 
Heartbeat CPU 0 instructions: 40000000 cycles: 76161960 heartbeat IPC: 0.361059 cumulative IPC: 0.416667 (Simulation time: 0 hr 20 min 45 sec) 
Heartbeat CPU 0 instructions: 41000001 cycles: 78287656 heartbeat IPC: 0.470435 cumulative IPC: 0.418209 (Simulation time: 0 hr 21 min 22 sec) 
Heartbeat CPU 0 instructions: 42000003 cycles: 80220950 heartbeat IPC: 0.517253 cumulative IPC: 0.420727 (Simulation time: 0 hr 21 min 56 sec) 
Heartbeat CPU 0 instructions: 43000000 cycles: 83532267 heartbeat IPC: 0.301994 cumulative IPC: 0.415773 (Simulation time: 0 hr 22 min 33 sec) 
Heartbeat CPU 0 instructions: 44000000 cycles: 84867087 heartbeat IPC: 0.749165 cumulative IPC: 0.421287 (Simulation time: 0 hr 22 min 59 sec) 
Heartbeat CPU 0 instructions: 45000003 cycles: 87052994 heartbeat IPC: 0.457477 cumulative IPC: 0.422242 (Simulation time: 0 hr 23 min 28 sec) 
Heartbeat CPU 0 instructions: 46000003 cycles: 89757434 heartbeat IPC: 0.369762 cumulative IPC: 0.420584 (Simulation time: 0 hr 24 min 2 sec) 
Heartbeat CPU 0 instructions: 47000001 cycles: 92230212 heartbeat IPC: 0.404403 cumulative IPC: 0.420129 (Simulation time: 0 hr 24 min 31 sec) 
Heartbeat CPU 0 instructions: 48000000 cycles: 94790295 heartbeat IPC: 0.390612 cumulative IPC: 0.419295 (Simulation time: 0 hr 25 min 1 sec) 
Heartbeat CPU 0 instructions: 49000000 cycles: 98303646 heartbeat IPC: 0.284629 cumulative IPC: 0.41427 (Simulation time: 0 hr 25 min 47 sec) 
Heartbeat CPU 0 instructions: 50000003 cycles: 104185242 heartbeat IPC: 0.170022 cumulative IPC: 0.399907 (Simulation time: 0 hr 26 min 35 sec) 
Heartbeat CPU 0 instructions: 51000002 cycles: 106629265 heartbeat IPC: 0.409161 cumulative IPC: 0.400128 (Simulation time: 0 hr 27 min 21 sec) 
Heartbeat CPU 0 instructions: 52000000 cycles: 110725933 heartbeat IPC: 0.2441 cumulative IPC: 0.39413 (Simulation time: 0 hr 28 min 5 sec) 
Heartbeat CPU 0 instructions: 53000003 cycles: 113539805 heartbeat IPC: 0.355383 cumulative IPC: 0.393133 (Simulation time: 0 hr 28 min 48 sec) 
Heartbeat CPU 0 instructions: 54000000 cycles: 116120756 heartbeat IPC: 0.387453 cumulative IPC: 0.393002 (Simulation time: 0 hr 29 min 29 sec) 
Heartbeat CPU 0 instructions: 55000002 cycles: 119751311 heartbeat IPC: 0.275441 cumulative IPC: 0.38931 (Simulation time: 0 hr 30 min 3 sec) 
Heartbeat CPU 0 instructions: 56000000 cycles: 123170745 heartbeat IPC: 0.292445 cumulative IPC: 0.386526 (Simulation time: 0 hr 30 min 42 sec) 
Heartbeat CPU 0 instructions: 57000003 cycles: 125732171 heartbeat IPC: 0.390409 cumulative IPC: 0.386608 (Simulation time: 0 hr 31 min 19 sec) 
Heartbeat CPU 0 instructions: 58000000 cycles: 127921374 heartbeat IPC: 0.456786 cumulative IPC: 0.38785 (Simulation time: 0 hr 31 min 55 sec) 
Heartbeat CPU 0 instructions: 59000002 cycles: 129486299 heartbeat IPC: 0.63901 cumulative IPC: 0.390986 (Simulation time: 0 hr 32 min 29 sec) 
Heartbeat CPU 0 instructions: 60000000 cycles: 130670527 heartbeat IPC: 0.84443 cumulative IPC: 0.395231 (Simulation time: 0 hr 32 min 58 sec) 
Heartbeat CPU 0 instructions: 61000002 cycles: 133652454 heartbeat IPC: 0.335354 cumulative IPC: 0.393852 (Simulation time: 0 hr 33 min 37 sec) 
Heartbeat CPU 0 instructions: 62000002 cycles: 136290790 heartbeat IPC: 0.379027 cumulative IPC: 0.393556 (Simulation time: 0 hr 34 min 20 sec) 
Heartbeat CPU 0 instructions: 63000002 cycles: 138248115 heartbeat IPC: 0.510901 cumulative IPC: 0.395269 (Simulation time: 0 hr 34 min 58 sec) 
Heartbeat CPU 0 instructions: 64000000 cycles: 140725805 heartbeat IPC: 0.403601 cumulative IPC: 0.39542 (Simulation time: 0 hr 35 min 30 sec) 
Heartbeat CPU 0 instructions: 65000000 cycles: 144184373 heartbeat IPC: 0.289137 cumulative IPC: 0.392795 (Simulation time: 0 hr 36 min 11 sec) 
Heartbeat CPU 0 instructions: 66000001 cycles: 145457797 heartbeat IPC: 0.785285 cumulative IPC: 0.396332 (Simulation time: 0 hr 36 min 34 sec) 
Heartbeat CPU 0 instructions: 67000000 cycles: 146783626 heartbeat IPC: 0.754244 cumulative IPC: 0.399659 (Simulation time: 0 hr 36 min 57 sec) 
Heartbeat CPU 0 instructions: 68000000 cycles: 150031230 heartbeat IPC: 0.307919 cumulative IPC: 0.397617 (Simulation time: 0 hr 37 min 32 sec) 
Heartbeat CPU 0 instructions: 69000000 cycles: 152631023 heartbeat IPC: 0.384646 cumulative IPC: 0.39739 (Simulation time: 0 hr 38 min 3 sec) 
Heartbeat CPU 0 instructions: 70000003 cycles: 155064570 heartbeat IPC: 0.410924 cumulative IPC: 0.397608 (Simulation time: 0 hr 38 min 32 sec) 
Heartbeat CPU 0 instructions: 71000000 cycles: 157470921 heartbeat IPC: 0.415566 cumulative IPC: 0.39789 (Simulation time: 0 hr 39 min 12 sec) 
Heartbeat CPU 0 instructions: 72000000 cycles: 160070603 heartbeat IPC: 0.384662 cumulative IPC: 0.397669 (Simulation time: 0 hr 39 min 46 sec) 
Heartbeat CPU 0 instructions: 73000001 cycles: 162827262 heartbeat IPC: 0.362758 cumulative IPC: 0.397063 (Simulation time: 0 hr 40 min 25 sec) 
Heartbeat CPU 0 instructions: 74000000 cycles: 164804532 heartbeat IPC: 0.505747 cumulative IPC: 0.3984 (Simulation time: 0 hr 40 min 54 sec) 
Heartbeat CPU 0 instructions: 75000002 cycles: 166128499 heartbeat IPC: 0.755307 cumulative IPC: 0.401318 (Simulation time: 0 hr 41 min 17 sec) 
Heartbeat CPU 0 instructions: 76000000 cycles: 169250145 heartbeat IPC: 0.320343 cumulative IPC: 0.399787 (Simulation time: 0 hr 41 min 53 sec) 
Heartbeat CPU 0 instructions: 77000000 cycles: 171710125 heartbeat IPC: 0.406507 cumulative IPC: 0.399885 (Simulation time: 0 hr 42 min 23 sec) 
Heartbeat CPU 0 instructions: 78000003 cycles: 174155904 heartbeat IPC: 0.408869 cumulative IPC: 0.400015 (Simulation time: 0 hr 42 min 54 sec) 
Heartbeat CPU 0 instructions: 79000001 cycles: 177241695 heartbeat IPC: 0.324065 cumulative IPC: 0.39866 (Simulation time: 0 hr 43 min 32 sec) 
Heartbeat CPU 0 instructions: 80000000 cycles: 179832725 heartbeat IPC: 0.385947 cumulative IPC: 0.398473 (Simulation time: 0 hr 44 min 6 sec) 
Heartbeat CPU 0 instructions: 81000003 cycles: 182778377 heartbeat IPC: 0.339484 cumulative IPC: 0.3975 (Simulation time: 0 hr 44 min 46 sec) 
Heartbeat CPU 0 instructions: 82000000 cycles: 184511448 heartbeat IPC: 0.577009 cumulative IPC: 0.399225 (Simulation time: 0 hr 45 min 15 sec) 
Heartbeat CPU 0 instructions: 83000001 cycles: 185846392 heartbeat IPC: 0.749096 cumulative IPC: 0.401796 (Simulation time: 0 hr 45 min 40 sec) 
Heartbeat CPU 0 instructions: 84000000 cycles: 189014189 heartbeat IPC: 0.315676 cumulative IPC: 0.40032 (Simulation time: 0 hr 46 min 15 sec) 
Heartbeat CPU 0 instructions: 85000000 cycles: 191406485 heartbeat IPC: 0.418008 cumulative IPC: 0.400546 (Simulation time: 0 hr 46 min 45 sec) 
Heartbeat CPU 0 instructions: 86000000 cycles: 193873266 heartbeat IPC: 0.405387 cumulative IPC: 0.400609 (Simulation time: 0 hr 47 min 14 sec) 
Heartbeat CPU 0 instructions: 87000000 cycles: 196784399 heartbeat IPC: 0.343509 cumulative IPC: 0.399746 (Simulation time: 0 hr 47 min 55 sec) 
Heartbeat CPU 0 instructions: 88000000 cycles: 199004019 heartbeat IPC: 0.450528 cumulative IPC: 0.400324 (Simulation time: 0 hr 48 min 28 sec) 
Heartbeat CPU 0 instructions: 89000001 cycles: 202322370 heartbeat IPC: 0.301355 cumulative IPC: 0.398667 (Simulation time: 0 hr 49 min 7 sec) 
Heartbeat CPU 0 instructions: 90000002 cycles: 203667688 heartbeat IPC: 0.743319 cumulative IPC: 0.400991 (Simulation time: 0 hr 49 min 30 sec) 
Heartbeat CPU 0 instructions: 91000000 cycles: 205067887 heartbeat IPC: 0.714183 cumulative IPC: 0.403174 (Simulation time: 0 hr 49 min 54 sec) 
Heartbeat CPU 0 instructions: 92000000 cycles: 208196896 heartbeat IPC: 0.31959 cumulative IPC: 0.401892 (Simulation time: 0 hr 50 min 32 sec) 
Heartbeat CPU 0 instructions: 93000000 cycles: 210768957 heartbeat IPC: 0.388793 cumulative IPC: 0.401729 (Simulation time: 0 hr 51 min 2 sec) 
Heartbeat CPU 0 instructions: 94000001 cycles: 213198556 heartbeat IPC: 0.411591 cumulative IPC: 0.401844 (Simulation time: 0 hr 51 min 30 sec) 
Heartbeat CPU 0 instructions: 95000003 cycles: 216307213 heartbeat IPC: 0.321683 cumulative IPC: 0.400669 (Simulation time: 0 hr 52 min 12 sec) 
Heartbeat CPU 0 instructions: 96000000 cycles: 218195161 heartbeat IPC: 0.529674 cumulative IPC: 0.401807 (Simulation time: 0 hr 52 min 44 sec) 
Heartbeat CPU 0 instructions: 97000003 cycles: 221358263 heartbeat IPC: 0.316146 cumulative IPC: 0.40056 (Simulation time: 0 hr 53 min 20 sec) 
Heartbeat CPU 0 instructions: 98000003 cycles: 222692523 heartbeat IPC: 0.749479 cumulative IPC: 0.40269 (Simulation time: 0 hr 53 min 42 sec) 
Heartbeat CPU 0 instructions: 99000000 cycles: 225039367 heartbeat IPC: 0.426103 cumulative IPC: 0.402939 (Simulation time: 0 hr 54 min 11 sec) 
Heartbeat CPU 0 instructions: 100000000 cycles: 227646883 heartbeat IPC: 0.383507 cumulative IPC: 0.402712 (Simulation time: 0 hr 54 min 41 sec) 
Heartbeat CPU 0 instructions: 101000001 cycles: 230083550 heartbeat IPC: 0.410397 cumulative IPC: 0.402795 (Simulation time: 0 hr 55 min 7 sec) 
Heartbeat CPU 0 instructions: 102000000 cycles: 232666077 heartbeat IPC: 0.387217 cumulative IPC: 0.402619 (Simulation time: 0 hr 55 min 33 sec) 
Heartbeat CPU 0 instructions: 103000002 cycles: 235719236 heartbeat IPC: 0.32753 cumulative IPC: 0.401629 (Simulation time: 0 hr 56 min 5 sec) 
Heartbeat CPU 0 instructions: 104000000 cycles: 237910925 heartbeat IPC: 0.456268 cumulative IPC: 0.402141 (Simulation time: 0 hr 56 min 34 sec) 
Heartbeat CPU 0 instructions: 105000000 cycles: 240336292 heartbeat IPC: 0.412309 cumulative IPC: 0.402245 (Simulation time: 0 hr 56 min 56 sec) 
Heartbeat CPU 0 instructions: 106000001 cycles: 241665310 heartbeat IPC: 0.752436 cumulative IPC: 0.404205 (Simulation time: 0 hr 57 min 12 sec) 
Heartbeat CPU 0 instructions: 107000001 cycles: 244627106 heartbeat IPC: 0.337633 cumulative IPC: 0.403385 (Simulation time: 0 hr 57 min 38 sec) 
Heartbeat CPU 0 instructions: 108000000 cycles: 246890433 heartbeat IPC: 0.441827 cumulative IPC: 0.403744 (Simulation time: 0 hr 57 min 59 sec) 
Heartbeat CPU 0 instructions: 109000003 cycles: 249371794 heartbeat IPC: 0.403006 cumulative IPC: 0.403736 (Simulation time: 0 hr 58 min 20 sec) 
Heartbeat CPU 0 instructions: 110000001 cycles: 252347442 heartbeat IPC: 0.336061 cumulative IPC: 0.402925 (Simulation time: 0 hr 58 min 47 sec) 
Finished CPU 0 instructions: 100000003 cycles: 248185353 cummulative IPC: 0.402925 (Simulation time: 0 hr 58 min 47 sec) 

ChampSim completed all CPUs

Region of Interest Statistics

CPU 0 cummulative IPC: 0.402925 instructions: 100000003 cycles: 248185353
LLC TOTAL     ACCESS:    6594018  HIT:    3218645  MISS:    3375373
LLC LOAD      ACCESS:    1693364  HIT:     779035  MISS:     914329
LLC RFO       ACCESS:     658491  HIT:     247566  MISS:     410925
LLC PREFETCH  ACCESS:    2681538  HIT:    1079444  MISS:    1602094
LLC WRITEBACK ACCESS:    1560625  HIT:    1112600  MISS:     448025
Insertion Distribution: 
	LOAD 176496 0 0 0 0 0 123020 690434 
	RFO 144268 0 0 0 0 0 89445 234762 
	PREF 0 24385 0 0 0 0 194922 1575350 
	WRITEBACK 0 0 0 0 0 0 0 491032 
Total Prefetch Downgrades: 55313
