
*** ChampSim Multicore Out-of-Order Simulator ***

Warmup Instructions: 10000000
Simulation Instructions: 100000000
Configuration: 2
Number of CPUs: 1
LLC sets: 2048
LLC ways: 16
Off-chip DRAM Channels: 1 Width: 64-bit Data Rate: 1600 MT/s

CPU 0 runs /datasets/cs240c-wi22-a00-public/data/Assignment2-gz/zeusmp_600B.trace.gz
CPU 0 L1D next line prefetcher
CPU 0 L2C IP-based stride prefetcher
Initialize SRRIP state
Heartbeat CPU 0 instructions: 1000000 cycles: 407346 heartbeat IPC: 2.45492 cumulative IPC: 2.45492 (Simulation time: 0 hr 0 min 29 sec) 
Heartbeat CPU 0 instructions: 2000001 cycles: 814284 heartbeat IPC: 2.45738 cumulative IPC: 2.45615 (Simulation time: 0 hr 0 min 55 sec) 
Heartbeat CPU 0 instructions: 3000000 cycles: 1221753 heartbeat IPC: 2.45417 cumulative IPC: 2.45549 (Simulation time: 0 hr 1 min 23 sec) 
Heartbeat CPU 0 instructions: 4000000 cycles: 1629404 heartbeat IPC: 2.45308 cumulative IPC: 2.45489 (Simulation time: 0 hr 1 min 48 sec) 
Heartbeat CPU 0 instructions: 5000001 cycles: 2036967 heartbeat IPC: 2.45361 cumulative IPC: 2.45463 (Simulation time: 0 hr 2 min 16 sec) 
Heartbeat CPU 0 instructions: 6000000 cycles: 2444291 heartbeat IPC: 2.45505 cumulative IPC: 2.4547 (Simulation time: 0 hr 2 min 43 sec) 
Heartbeat CPU 0 instructions: 7000000 cycles: 2851775 heartbeat IPC: 2.45408 cumulative IPC: 2.45461 (Simulation time: 0 hr 3 min 9 sec) 
Heartbeat CPU 0 instructions: 8000000 cycles: 3259377 heartbeat IPC: 2.45337 cumulative IPC: 2.45446 (Simulation time: 0 hr 3 min 36 sec) 
Heartbeat CPU 0 instructions: 9000003 cycles: 3666450 heartbeat IPC: 2.45657 cumulative IPC: 2.45469 (Simulation time: 0 hr 4 min 2 sec) 
Heartbeat CPU 0 instructions: 10000001 cycles: 4073953 heartbeat IPC: 2.45396 cumulative IPC: 2.45462 (Simulation time: 0 hr 4 min 27 sec) 

Warmup complete CPU 0 instructions: 10000001 cycles: 4073953 (Simulation time: 0 hr 4 min 27 sec) 

Heartbeat CPU 0 instructions: 11000000 cycles: 4748303 heartbeat IPC: 1.48291 cumulative IPC: 1.48291 (Simulation time: 0 hr 4 min 57 sec) 
Heartbeat CPU 0 instructions: 12000000 cycles: 5421557 heartbeat IPC: 1.48532 cumulative IPC: 1.48411 (Simulation time: 0 hr 5 min 30 sec) 
Heartbeat CPU 0 instructions: 13000001 cycles: 6095324 heartbeat IPC: 1.48419 cumulative IPC: 1.48414 (Simulation time: 0 hr 6 min 1 sec) 
Heartbeat CPU 0 instructions: 14000001 cycles: 6769204 heartbeat IPC: 1.48394 cumulative IPC: 1.48409 (Simulation time: 0 hr 6 min 34 sec) 
Heartbeat CPU 0 instructions: 15000003 cycles: 7444739 heartbeat IPC: 1.48031 cumulative IPC: 1.48333 (Simulation time: 0 hr 7 min 9 sec) 
Heartbeat CPU 0 instructions: 16000000 cycles: 8167693 heartbeat IPC: 1.38321 cumulative IPC: 1.46565 (Simulation time: 0 hr 7 min 43 sec) 
Heartbeat CPU 0 instructions: 17000001 cycles: 8950466 heartbeat IPC: 1.27751 cumulative IPC: 1.43545 (Simulation time: 0 hr 8 min 18 sec) 
Heartbeat CPU 0 instructions: 18000003 cycles: 9727819 heartbeat IPC: 1.28642 cumulative IPC: 1.41496 (Simulation time: 0 hr 8 min 49 sec) 
Heartbeat CPU 0 instructions: 19000000 cycles: 10501320 heartbeat IPC: 1.29282 cumulative IPC: 1.40026 (Simulation time: 0 hr 9 min 22 sec) 
Heartbeat CPU 0 instructions: 20000000 cycles: 11272348 heartbeat IPC: 1.29697 cumulative IPC: 1.3892 (Simulation time: 0 hr 9 min 54 sec) 
Heartbeat CPU 0 instructions: 21000002 cycles: 12046495 heartbeat IPC: 1.29175 cumulative IPC: 1.37974 (Simulation time: 0 hr 10 min 26 sec) 
Heartbeat CPU 0 instructions: 22000000 cycles: 12814616 heartbeat IPC: 1.30188 cumulative IPC: 1.37289 (Simulation time: 0 hr 10 min 56 sec) 
Heartbeat CPU 0 instructions: 23000000 cycles: 13588239 heartbeat IPC: 1.29262 cumulative IPC: 1.36637 (Simulation time: 0 hr 11 min 27 sec) 
Heartbeat CPU 0 instructions: 24000000 cycles: 14361662 heartbeat IPC: 1.29295 cumulative IPC: 1.36085 (Simulation time: 0 hr 11 min 58 sec) 
Heartbeat CPU 0 instructions: 25000000 cycles: 15128883 heartbeat IPC: 1.30341 cumulative IPC: 1.35686 (Simulation time: 0 hr 12 min 31 sec) 
Heartbeat CPU 0 instructions: 26000000 cycles: 15898678 heartbeat IPC: 1.29905 cumulative IPC: 1.3531 (Simulation time: 0 hr 13 min 4 sec) 
Heartbeat CPU 0 instructions: 27000003 cycles: 16673170 heartbeat IPC: 1.29117 cumulative IPC: 1.34929 (Simulation time: 0 hr 13 min 33 sec) 
Heartbeat CPU 0 instructions: 28000000 cycles: 17457329 heartbeat IPC: 1.27525 cumulative IPC: 1.34495 (Simulation time: 0 hr 14 min 2 sec) 
Heartbeat CPU 0 instructions: 29000000 cycles: 18232392 heartbeat IPC: 1.29022 cumulative IPC: 1.34196 (Simulation time: 0 hr 14 min 34 sec) 
Heartbeat CPU 0 instructions: 30000003 cycles: 19013899 heartbeat IPC: 1.27958 cumulative IPC: 1.33869 (Simulation time: 0 hr 15 min 4 sec) 
Heartbeat CPU 0 instructions: 31000002 cycles: 19802881 heartbeat IPC: 1.26745 cumulative IPC: 1.33512 (Simulation time: 0 hr 15 min 33 sec) 
Heartbeat CPU 0 instructions: 32000000 cycles: 20580113 heartbeat IPC: 1.28661 cumulative IPC: 1.33284 (Simulation time: 0 hr 16 min 1 sec) 
Heartbeat CPU 0 instructions: 33000001 cycles: 21365339 heartbeat IPC: 1.27352 cumulative IPC: 1.33014 (Simulation time: 0 hr 16 min 31 sec) 
Heartbeat CPU 0 instructions: 34000000 cycles: 22143896 heartbeat IPC: 1.28443 cumulative IPC: 1.32817 (Simulation time: 0 hr 16 min 59 sec) 
Heartbeat CPU 0 instructions: 35000000 cycles: 22920762 heartbeat IPC: 1.28722 cumulative IPC: 1.32648 (Simulation time: 0 hr 17 min 27 sec) 
Heartbeat CPU 0 instructions: 36000000 cycles: 23695686 heartbeat IPC: 1.29045 cumulative IPC: 1.32506 (Simulation time: 0 hr 17 min 59 sec) 
Heartbeat CPU 0 instructions: 37000001 cycles: 24477312 heartbeat IPC: 1.27939 cumulative IPC: 1.32331 (Simulation time: 0 hr 18 min 29 sec) 
Heartbeat CPU 0 instructions: 38000001 cycles: 25265411 heartbeat IPC: 1.26888 cumulative IPC: 1.32129 (Simulation time: 0 hr 19 min 3 sec) 
Heartbeat CPU 0 instructions: 39000002 cycles: 26041575 heartbeat IPC: 1.28839 cumulative IPC: 1.32012 (Simulation time: 0 hr 19 min 33 sec) 
Heartbeat CPU 0 instructions: 40000000 cycles: 26822106 heartbeat IPC: 1.28118 cumulative IPC: 1.31879 (Simulation time: 0 hr 20 min 8 sec) 
Heartbeat CPU 0 instructions: 41000002 cycles: 27600086 heartbeat IPC: 1.28538 cumulative IPC: 1.31768 (Simulation time: 0 hr 20 min 39 sec) 
Heartbeat CPU 0 instructions: 42000000 cycles: 28377430 heartbeat IPC: 1.28643 cumulative IPC: 1.31668 (Simulation time: 0 hr 21 min 13 sec) 
Heartbeat CPU 0 instructions: 43000002 cycles: 29162706 heartbeat IPC: 1.27344 cumulative IPC: 1.31533 (Simulation time: 0 hr 21 min 46 sec) 
Heartbeat CPU 0 instructions: 44000000 cycles: 29941752 heartbeat IPC: 1.28362 cumulative IPC: 1.31438 (Simulation time: 0 hr 22 min 18 sec) 
Heartbeat CPU 0 instructions: 45000003 cycles: 30715958 heartbeat IPC: 1.29165 cumulative IPC: 1.31371 (Simulation time: 0 hr 22 min 50 sec) 
Heartbeat CPU 0 instructions: 46000000 cycles: 31490048 heartbeat IPC: 1.29184 cumulative IPC: 1.3131 (Simulation time: 0 hr 23 min 21 sec) 
Heartbeat CPU 0 instructions: 47000001 cycles: 32274146 heartbeat IPC: 1.27535 cumulative IPC: 1.31205 (Simulation time: 0 hr 23 min 49 sec) 
Heartbeat CPU 0 instructions: 48000000 cycles: 33053345 heartbeat IPC: 1.28337 cumulative IPC: 1.31128 (Simulation time: 0 hr 24 min 20 sec) 
Heartbeat CPU 0 instructions: 49000000 cycles: 33833655 heartbeat IPC: 1.28154 cumulative IPC: 1.3105 (Simulation time: 0 hr 24 min 48 sec) 
Heartbeat CPU 0 instructions: 50000000 cycles: 34610402 heartbeat IPC: 1.28742 cumulative IPC: 1.30991 (Simulation time: 0 hr 25 min 20 sec) 
Heartbeat CPU 0 instructions: 51000001 cycles: 35390987 heartbeat IPC: 1.28109 cumulative IPC: 1.30919 (Simulation time: 0 hr 25 min 47 sec) 
Heartbeat CPU 0 instructions: 52000000 cycles: 36158146 heartbeat IPC: 1.30351 cumulative IPC: 1.30906 (Simulation time: 0 hr 26 min 18 sec) 
Heartbeat CPU 0 instructions: 53000001 cycles: 36943403 heartbeat IPC: 1.27347 cumulative IPC: 1.30821 (Simulation time: 0 hr 26 min 47 sec) 
Heartbeat CPU 0 instructions: 54000000 cycles: 37725412 heartbeat IPC: 1.27876 cumulative IPC: 1.30752 (Simulation time: 0 hr 27 min 15 sec) 
Heartbeat CPU 0 instructions: 55000001 cycles: 38498293 heartbeat IPC: 1.29386 cumulative IPC: 1.30721 (Simulation time: 0 hr 27 min 44 sec) 
Heartbeat CPU 0 instructions: 56000000 cycles: 39272486 heartbeat IPC: 1.29167 cumulative IPC: 1.30687 (Simulation time: 0 hr 28 min 13 sec) 
Heartbeat CPU 0 instructions: 57000003 cycles: 40061756 heartbeat IPC: 1.267 cumulative IPC: 1.306 (Simulation time: 0 hr 28 min 42 sec) 
Heartbeat CPU 0 instructions: 58000001 cycles: 40832899 heartbeat IPC: 1.29677 cumulative IPC: 1.3058 (Simulation time: 0 hr 29 min 10 sec) 
Heartbeat CPU 0 instructions: 59000000 cycles: 41607796 heartbeat IPC: 1.29049 cumulative IPC: 1.30549 (Simulation time: 0 hr 29 min 38 sec) 
Heartbeat CPU 0 instructions: 60000000 cycles: 42382041 heartbeat IPC: 1.29158 cumulative IPC: 1.30521 (Simulation time: 0 hr 30 min 6 sec) 
Heartbeat CPU 0 instructions: 61000003 cycles: 43160486 heartbeat IPC: 1.28462 cumulative IPC: 1.3048 (Simulation time: 0 hr 30 min 39 sec) 
Heartbeat CPU 0 instructions: 62000001 cycles: 43941449 heartbeat IPC: 1.28047 cumulative IPC: 1.30432 (Simulation time: 0 hr 31 min 10 sec) 
Heartbeat CPU 0 instructions: 63000000 cycles: 44714963 heartbeat IPC: 1.2928 cumulative IPC: 1.3041 (Simulation time: 0 hr 31 min 41 sec) 
Heartbeat CPU 0 instructions: 64000000 cycles: 45491369 heartbeat IPC: 1.28799 cumulative IPC: 1.3038 (Simulation time: 0 hr 32 min 11 sec) 
Heartbeat CPU 0 instructions: 65000001 cycles: 46277216 heartbeat IPC: 1.27251 cumulative IPC: 1.30322 (Simulation time: 0 hr 32 min 41 sec) 
Heartbeat CPU 0 instructions: 66000000 cycles: 47064889 heartbeat IPC: 1.26956 cumulative IPC: 1.3026 (Simulation time: 0 hr 33 min 14 sec) 
Heartbeat CPU 0 instructions: 67000001 cycles: 47851282 heartbeat IPC: 1.27163 cumulative IPC: 1.30204 (Simulation time: 0 hr 33 min 43 sec) 
Heartbeat CPU 0 instructions: 68000000 cycles: 48629140 heartbeat IPC: 1.28558 cumulative IPC: 1.30176 (Simulation time: 0 hr 34 min 14 sec) 
Heartbeat CPU 0 instructions: 69000002 cycles: 49415974 heartbeat IPC: 1.27092 cumulative IPC: 1.30122 (Simulation time: 0 hr 34 min 45 sec) 
Heartbeat CPU 0 instructions: 70000000 cycles: 50192440 heartbeat IPC: 1.28788 cumulative IPC: 1.301 (Simulation time: 0 hr 35 min 17 sec) 
Heartbeat CPU 0 instructions: 71000001 cycles: 50978080 heartbeat IPC: 1.27285 cumulative IPC: 1.30053 (Simulation time: 0 hr 35 min 49 sec) 
Heartbeat CPU 0 instructions: 72000000 cycles: 51760828 heartbeat IPC: 1.27755 cumulative IPC: 1.30015 (Simulation time: 0 hr 36 min 22 sec) 
Heartbeat CPU 0 instructions: 73000003 cycles: 52534815 heartbeat IPC: 1.29202 cumulative IPC: 1.30002 (Simulation time: 0 hr 36 min 52 sec) 
Heartbeat CPU 0 instructions: 74000002 cycles: 53312373 heartbeat IPC: 1.28608 cumulative IPC: 1.2998 (Simulation time: 0 hr 37 min 23 sec) 
Heartbeat CPU 0 instructions: 75000003 cycles: 54093427 heartbeat IPC: 1.28032 cumulative IPC: 1.29949 (Simulation time: 0 hr 37 min 57 sec) 
Heartbeat CPU 0 instructions: 76000000 cycles: 54878201 heartbeat IPC: 1.27425 cumulative IPC: 1.2991 (Simulation time: 0 hr 38 min 29 sec) 
Heartbeat CPU 0 instructions: 77000000 cycles: 55654289 heartbeat IPC: 1.28851 cumulative IPC: 1.29894 (Simulation time: 0 hr 39 min 0 sec) 
Heartbeat CPU 0 instructions: 78000003 cycles: 56431566 heartbeat IPC: 1.28655 cumulative IPC: 1.29876 (Simulation time: 0 hr 39 min 36 sec) 
Heartbeat CPU 0 instructions: 79000000 cycles: 57213134 heartbeat IPC: 1.27948 cumulative IPC: 1.29848 (Simulation time: 0 hr 40 min 5 sec) 
Heartbeat CPU 0 instructions: 80000000 cycles: 57994658 heartbeat IPC: 1.27955 cumulative IPC: 1.2982 (Simulation time: 0 hr 40 min 35 sec) 
Heartbeat CPU 0 instructions: 81000002 cycles: 58767756 heartbeat IPC: 1.2935 cumulative IPC: 1.29814 (Simulation time: 0 hr 41 min 5 sec) 
Heartbeat CPU 0 instructions: 82000002 cycles: 59549927 heartbeat IPC: 1.27849 cumulative IPC: 1.29786 (Simulation time: 0 hr 41 min 35 sec) 
Heartbeat CPU 0 instructions: 83000001 cycles: 60324356 heartbeat IPC: 1.29127 cumulative IPC: 1.29777 (Simulation time: 0 hr 42 min 4 sec) 
Heartbeat CPU 0 instructions: 84000000 cycles: 61106213 heartbeat IPC: 1.279 cumulative IPC: 1.29751 (Simulation time: 0 hr 42 min 32 sec) 
Heartbeat CPU 0 instructions: 85000002 cycles: 61887833 heartbeat IPC: 1.2794 cumulative IPC: 1.29727 (Simulation time: 0 hr 43 min 2 sec) 
Heartbeat CPU 0 instructions: 86000002 cycles: 62662820 heartbeat IPC: 1.29034 cumulative IPC: 1.29717 (Simulation time: 0 hr 43 min 32 sec) 
Heartbeat CPU 0 instructions: 87000000 cycles: 63444480 heartbeat IPC: 1.27933 cumulative IPC: 1.29694 (Simulation time: 0 hr 44 min 3 sec) 
Heartbeat CPU 0 instructions: 88000000 cycles: 64227542 heartbeat IPC: 1.27704 cumulative IPC: 1.29668 (Simulation time: 0 hr 44 min 34 sec) 
Heartbeat CPU 0 instructions: 89000002 cycles: 65004230 heartbeat IPC: 1.28752 cumulative IPC: 1.29656 (Simulation time: 0 hr 45 min 5 sec) 
Heartbeat CPU 0 instructions: 90000002 cycles: 65776259 heartbeat IPC: 1.29529 cumulative IPC: 1.29655 (Simulation time: 0 hr 45 min 34 sec) 
Heartbeat CPU 0 instructions: 91000001 cycles: 66554840 heartbeat IPC: 1.28439 cumulative IPC: 1.2964 (Simulation time: 0 hr 46 min 4 sec) 
Heartbeat CPU 0 instructions: 92000000 cycles: 67340509 heartbeat IPC: 1.2728 cumulative IPC: 1.2961 (Simulation time: 0 hr 46 min 34 sec) 
Heartbeat CPU 0 instructions: 93000000 cycles: 68113008 heartbeat IPC: 1.2945 cumulative IPC: 1.29608 (Simulation time: 0 hr 47 min 5 sec) 
Heartbeat CPU 0 instructions: 94000002 cycles: 68890267 heartbeat IPC: 1.28657 cumulative IPC: 1.29597 (Simulation time: 0 hr 47 min 34 sec) 
Heartbeat CPU 0 instructions: 95000001 cycles: 69670763 heartbeat IPC: 1.28124 cumulative IPC: 1.29579 (Simulation time: 0 hr 48 min 7 sec) 
Heartbeat CPU 0 instructions: 96000000 cycles: 70448892 heartbeat IPC: 1.28513 cumulative IPC: 1.29567 (Simulation time: 0 hr 48 min 36 sec) 
Heartbeat CPU 0 instructions: 97000003 cycles: 71218578 heartbeat IPC: 1.29923 cumulative IPC: 1.29571 (Simulation time: 0 hr 49 min 5 sec) 
Heartbeat CPU 0 instructions: 98000002 cycles: 71994073 heartbeat IPC: 1.2895 cumulative IPC: 1.29564 (Simulation time: 0 hr 49 min 33 sec) 
Heartbeat CPU 0 instructions: 99000000 cycles: 72781005 heartbeat IPC: 1.27076 cumulative IPC: 1.29535 (Simulation time: 0 hr 50 min 3 sec) 
Heartbeat CPU 0 instructions: 100000000 cycles: 73559205 heartbeat IPC: 1.28502 cumulative IPC: 1.29524 (Simulation time: 0 hr 50 min 33 sec) 
Heartbeat CPU 0 instructions: 101000002 cycles: 74330664 heartbeat IPC: 1.29625 cumulative IPC: 1.29525 (Simulation time: 0 hr 51 min 2 sec) 
Heartbeat CPU 0 instructions: 102000002 cycles: 75116861 heartbeat IPC: 1.27195 cumulative IPC: 1.29499 (Simulation time: 0 hr 51 min 31 sec) 
Heartbeat CPU 0 instructions: 103000001 cycles: 75894983 heartbeat IPC: 1.28514 cumulative IPC: 1.29489 (Simulation time: 0 hr 51 min 59 sec) 
Heartbeat CPU 0 instructions: 104000000 cycles: 76677444 heartbeat IPC: 1.27802 cumulative IPC: 1.2947 (Simulation time: 0 hr 52 min 30 sec) 
Heartbeat CPU 0 instructions: 105000001 cycles: 77456785 heartbeat IPC: 1.28314 cumulative IPC: 1.29458 (Simulation time: 0 hr 53 min 3 sec) 
Heartbeat CPU 0 instructions: 106000000 cycles: 78235527 heartbeat IPC: 1.28412 cumulative IPC: 1.29447 (Simulation time: 0 hr 53 min 31 sec) 
Heartbeat CPU 0 instructions: 107000000 cycles: 79016016 heartbeat IPC: 1.28125 cumulative IPC: 1.29433 (Simulation time: 0 hr 53 min 58 sec) 
Heartbeat CPU 0 instructions: 108000000 cycles: 79793478 heartbeat IPC: 1.28624 cumulative IPC: 1.29425 (Simulation time: 0 hr 54 min 24 sec) 
Heartbeat CPU 0 instructions: 109000000 cycles: 80578159 heartbeat IPC: 1.2744 cumulative IPC: 1.29405 (Simulation time: 0 hr 54 min 50 sec) 
Heartbeat CPU 0 instructions: 110000002 cycles: 81361608 heartbeat IPC: 1.27641 cumulative IPC: 1.29387 (Simulation time: 0 hr 55 min 14 sec) 
Finished CPU 0 instructions: 100000001 cycles: 77287655 cummulative IPC: 1.29387 (Simulation time: 0 hr 55 min 14 sec) 

ChampSim completed all CPUs

Region of Interest Statistics

CPU 0 cummulative IPC: 1.29387 instructions: 100000001 cycles: 77287655
LLC TOTAL     ACCESS:     382566  HIT:      18343  MISS:     364223
LLC LOAD      ACCESS:      27934  HIT:        434  MISS:      27500
LLC RFO       ACCESS:       3434  HIT:          3  MISS:       3431
LLC PREFETCH  ACCESS:     287962  HIT:       4522  MISS:     283440
LLC WRITEBACK ACCESS:      63236  HIT:      13384  MISS:      49852
Insertion Distribution: 
	LOAD 0 0 0 0 0 0 8373 19860 
	RFO 0 0 0 0 0 0 5446 3980 
	PREF 0 0 0 0 0 0 42732 266693 
	WRITEBACK 0 0 0 0 0 0 0 50460 
Total Prefetch Downgrades: 245
