
*** ChampSim Multicore Out-of-Order Simulator ***

Warmup Instructions: 10000000
Simulation Instructions: 100000000
Configuration: 2
Number of CPUs: 1
LLC sets: 2048
LLC ways: 16
Off-chip DRAM Channels: 1 Width: 64-bit Data Rate: 1600 MT/s

CPU 0 runs /datasets/cs240c-wi22-a00-public/data/Assignment2-gz/cactusADM_1039B.trace.gz
CPU 0 L1D next line prefetcher
CPU 0 L2C IP-based stride prefetcher
Initialize SRRIP state
Heartbeat CPU 0 instructions: 1000000 cycles: 595518 heartbeat IPC: 1.67921 cumulative IPC: 1.67921 (Simulation time: 0 hr 0 min 40 sec) 
Heartbeat CPU 0 instructions: 2000002 cycles: 1190937 heartbeat IPC: 1.67949 cumulative IPC: 1.67935 (Simulation time: 0 hr 1 min 18 sec) 
Heartbeat CPU 0 instructions: 3000003 cycles: 1786622 heartbeat IPC: 1.67874 cumulative IPC: 1.67915 (Simulation time: 0 hr 1 min 55 sec) 
Heartbeat CPU 0 instructions: 4000000 cycles: 2382046 heartbeat IPC: 1.67947 cumulative IPC: 1.67923 (Simulation time: 0 hr 2 min 31 sec) 
Heartbeat CPU 0 instructions: 5000001 cycles: 2977457 heartbeat IPC: 1.67951 cumulative IPC: 1.67929 (Simulation time: 0 hr 3 min 7 sec) 
Heartbeat CPU 0 instructions: 6000002 cycles: 3572930 heartbeat IPC: 1.67934 cumulative IPC: 1.67929 (Simulation time: 0 hr 3 min 43 sec) 
Heartbeat CPU 0 instructions: 7000000 cycles: 4168306 heartbeat IPC: 1.67961 cumulative IPC: 1.67934 (Simulation time: 0 hr 4 min 20 sec) 
Heartbeat CPU 0 instructions: 8000000 cycles: 4763681 heartbeat IPC: 1.67961 cumulative IPC: 1.67937 (Simulation time: 0 hr 4 min 55 sec) 
Heartbeat CPU 0 instructions: 9000002 cycles: 5359336 heartbeat IPC: 1.67883 cumulative IPC: 1.67931 (Simulation time: 0 hr 5 min 31 sec) 
Heartbeat CPU 0 instructions: 10000003 cycles: 5974113 heartbeat IPC: 1.62661 cumulative IPC: 1.67389 (Simulation time: 0 hr 6 min 7 sec) 

Warmup complete CPU 0 instructions: 10000003 cycles: 5974113 (Simulation time: 0 hr 6 min 7 sec) 

Heartbeat CPU 0 instructions: 11000003 cycles: 12128139 heartbeat IPC: 0.162495 cumulative IPC: 0.162495 (Simulation time: 0 hr 6 min 52 sec) 
Heartbeat CPU 0 instructions: 12000000 cycles: 13871151 heartbeat IPC: 0.573718 cumulative IPC: 0.253259 (Simulation time: 0 hr 7 min 33 sec) 
Heartbeat CPU 0 instructions: 13000002 cycles: 15538685 heartbeat IPC: 0.599689 cumulative IPC: 0.313657 (Simulation time: 0 hr 8 min 13 sec) 
Heartbeat CPU 0 instructions: 14000001 cycles: 17246509 heartbeat IPC: 0.58554 cumulative IPC: 0.354849 (Simulation time: 0 hr 8 min 53 sec) 
Heartbeat CPU 0 instructions: 15000002 cycles: 18989814 heartbeat IPC: 0.573624 cumulative IPC: 0.384151 (Simulation time: 0 hr 9 min 33 sec) 
Heartbeat CPU 0 instructions: 16000000 cycles: 20736593 heartbeat IPC: 0.572481 cumulative IPC: 0.406436 (Simulation time: 0 hr 10 min 13 sec) 
Heartbeat CPU 0 instructions: 17000003 cycles: 22460437 heartbeat IPC: 0.580101 cumulative IPC: 0.424594 (Simulation time: 0 hr 10 min 51 sec) 
Heartbeat CPU 0 instructions: 18000002 cycles: 24115414 heartbeat IPC: 0.604237 cumulative IPC: 0.440983 (Simulation time: 0 hr 11 min 30 sec) 
Heartbeat CPU 0 instructions: 19000003 cycles: 25852751 heartbeat IPC: 0.575594 cumulative IPC: 0.452747 (Simulation time: 0 hr 12 min 8 sec) 
Heartbeat CPU 0 instructions: 20000000 cycles: 27596483 heartbeat IPC: 0.573481 cumulative IPC: 0.462484 (Simulation time: 0 hr 12 min 45 sec) 
Heartbeat CPU 0 instructions: 21000002 cycles: 29340249 heartbeat IPC: 0.573473 cumulative IPC: 0.470767 (Simulation time: 0 hr 13 min 23 sec) 
Heartbeat CPU 0 instructions: 22000003 cycles: 31030902 heartbeat IPC: 0.591488 cumulative IPC: 0.478912 (Simulation time: 0 hr 14 min 3 sec) 
Heartbeat CPU 0 instructions: 23000001 cycles: 32715911 heartbeat IPC: 0.593467 cumulative IPC: 0.48613 (Simulation time: 0 hr 14 min 43 sec) 
Heartbeat CPU 0 instructions: 24000000 cycles: 39377009 heartbeat IPC: 0.150125 cumulative IPC: 0.419125 (Simulation time: 0 hr 15 min 31 sec) 
Heartbeat CPU 0 instructions: 25000002 cycles: 41114347 heartbeat IPC: 0.575594 cumulative IPC: 0.426861 (Simulation time: 0 hr 16 min 10 sec) 
Heartbeat CPU 0 instructions: 26000002 cycles: 42839291 heartbeat IPC: 0.579729 cumulative IPC: 0.434014 (Simulation time: 0 hr 16 min 49 sec) 
Heartbeat CPU 0 instructions: 27000002 cycles: 44504249 heartbeat IPC: 0.600616 cumulative IPC: 0.441213 (Simulation time: 0 hr 17 min 28 sec) 
Heartbeat CPU 0 instructions: 28000000 cycles: 46234580 heartbeat IPC: 0.577923 cumulative IPC: 0.447089 (Simulation time: 0 hr 18 min 7 sec) 
Heartbeat CPU 0 instructions: 29000000 cycles: 47975566 heartbeat IPC: 0.574387 cumulative IPC: 0.452365 (Simulation time: 0 hr 18 min 46 sec) 
Heartbeat CPU 0 instructions: 30000003 cycles: 49714141 heartbeat IPC: 0.575185 cumulative IPC: 0.457247 (Simulation time: 0 hr 19 min 30 sec) 
Heartbeat CPU 0 instructions: 31000001 cycles: 51409836 heartbeat IPC: 0.589728 cumulative IPC: 0.462191 (Simulation time: 0 hr 20 min 11 sec) 
Heartbeat CPU 0 instructions: 32000000 cycles: 53084797 heartbeat IPC: 0.597028 cumulative IPC: 0.466985 (Simulation time: 0 hr 20 min 51 sec) 
Heartbeat CPU 0 instructions: 33000001 cycles: 54822374 heartbeat IPC: 0.575515 cumulative IPC: 0.470846 (Simulation time: 0 hr 21 min 35 sec) 
Heartbeat CPU 0 instructions: 34000000 cycles: 56561786 heartbeat IPC: 0.574906 cumulative IPC: 0.474424 (Simulation time: 0 hr 22 min 20 sec) 
Heartbeat CPU 0 instructions: 35000001 cycles: 58296942 heartbeat IPC: 0.576318 cumulative IPC: 0.477803 (Simulation time: 0 hr 23 min 0 sec) 
Heartbeat CPU 0 instructions: 36000000 cycles: 59960090 heartbeat IPC: 0.601269 cumulative IPC: 0.481606 (Simulation time: 0 hr 23 min 44 sec) 
Heartbeat CPU 0 instructions: 37000002 cycles: 66552361 heartbeat IPC: 0.151693 cumulative IPC: 0.445705 (Simulation time: 0 hr 24 min 28 sec) 
Heartbeat CPU 0 instructions: 38000001 cycles: 68290841 heartbeat IPC: 0.575215 cumulative IPC: 0.449318 (Simulation time: 0 hr 25 min 10 sec) 
Heartbeat CPU 0 instructions: 39000002 cycles: 70030949 heartbeat IPC: 0.574678 cumulative IPC: 0.452723 (Simulation time: 0 hr 25 min 50 sec) 
Heartbeat CPU 0 instructions: 40000000 cycles: 71727868 heartbeat IPC: 0.589302 cumulative IPC: 0.456248 (Simulation time: 0 hr 26 min 29 sec) 
Heartbeat CPU 0 instructions: 41000003 cycles: 73397316 heartbeat IPC: 0.599002 cumulative IPC: 0.459782 (Simulation time: 0 hr 27 min 7 sec) 
Heartbeat CPU 0 instructions: 42000000 cycles: 75133557 heartbeat IPC: 0.575955 cumulative IPC: 0.462699 (Simulation time: 0 hr 27 min 47 sec) 
Heartbeat CPU 0 instructions: 43000000 cycles: 76873583 heartbeat IPC: 0.574704 cumulative IPC: 0.465448 (Simulation time: 0 hr 28 min 26 sec) 
Heartbeat CPU 0 instructions: 44000000 cycles: 78611157 heartbeat IPC: 0.575515 cumulative IPC: 0.468081 (Simulation time: 0 hr 29 min 9 sec) 
Heartbeat CPU 0 instructions: 45000000 cycles: 80278517 heartbeat IPC: 0.599751 cumulative IPC: 0.471035 (Simulation time: 0 hr 29 min 52 sec) 
Heartbeat CPU 0 instructions: 46000003 cycles: 81982394 heartbeat IPC: 0.586899 cumulative IPC: 0.473633 (Simulation time: 0 hr 30 min 32 sec) 
Heartbeat CPU 0 instructions: 47000001 cycles: 83721956 heartbeat IPC: 0.574856 cumulative IPC: 0.475897 (Simulation time: 0 hr 31 min 11 sec) 
Heartbeat CPU 0 instructions: 48000000 cycles: 85461889 heartbeat IPC: 0.574734 cumulative IPC: 0.478061 (Simulation time: 0 hr 31 min 51 sec) 
Heartbeat CPU 0 instructions: 49000001 cycles: 87185143 heartbeat IPC: 0.580298 cumulative IPC: 0.48023 (Simulation time: 0 hr 32 min 32 sec) 
Heartbeat CPU 0 instructions: 50000000 cycles: 93825171 heartbeat IPC: 0.150602 cumulative IPC: 0.455316 (Simulation time: 0 hr 33 min 18 sec) 
Heartbeat CPU 0 instructions: 51000003 cycles: 95588244 heartbeat IPC: 0.567193 cumulative IPC: 0.457517 (Simulation time: 0 hr 33 min 57 sec) 
Heartbeat CPU 0 instructions: 52000000 cycles: 97359680 heartbeat IPC: 0.564512 cumulative IPC: 0.459591 (Simulation time: 0 hr 34 min 36 sec) 
Heartbeat CPU 0 instructions: 53000003 cycles: 99129469 heartbeat IPC: 0.565041 cumulative IPC: 0.461594 (Simulation time: 0 hr 35 min 18 sec) 
Heartbeat CPU 0 instructions: 54000002 cycles: 100844657 heartbeat IPC: 0.583026 cumulative IPC: 0.46379 (Simulation time: 0 hr 35 min 57 sec) 
Heartbeat CPU 0 instructions: 55000001 cycles: 102570444 heartbeat IPC: 0.579445 cumulative IPC: 0.465856 (Simulation time: 0 hr 36 min 36 sec) 
Heartbeat CPU 0 instructions: 56000000 cycles: 104339177 heartbeat IPC: 0.565376 cumulative IPC: 0.467646 (Simulation time: 0 hr 37 min 17 sec) 
Heartbeat CPU 0 instructions: 57000000 cycles: 106113312 heartbeat IPC: 0.563655 cumulative IPC: 0.469347 (Simulation time: 0 hr 37 min 56 sec) 
Heartbeat CPU 0 instructions: 58000000 cycles: 107878546 heartbeat IPC: 0.566497 cumulative IPC: 0.47103 (Simulation time: 0 hr 38 min 35 sec) 
Heartbeat CPU 0 instructions: 59000002 cycles: 109564632 heartbeat IPC: 0.593091 cumulative IPC: 0.473016 (Simulation time: 0 hr 39 min 16 sec) 
Heartbeat CPU 0 instructions: 60000000 cycles: 111323438 heartbeat IPC: 0.568566 cumulative IPC: 0.474611 (Simulation time: 0 hr 39 min 55 sec) 
Heartbeat CPU 0 instructions: 61000001 cycles: 113097596 heartbeat IPC: 0.563648 cumulative IPC: 0.476086 (Simulation time: 0 hr 40 min 33 sec) 
Heartbeat CPU 0 instructions: 62000000 cycles: 114867877 heartbeat IPC: 0.564882 cumulative IPC: 0.47753 (Simulation time: 0 hr 41 min 13 sec) 
Heartbeat CPU 0 instructions: 63000001 cycles: 121082132 heartbeat IPC: 0.160921 cumulative IPC: 0.460437 (Simulation time: 0 hr 41 min 59 sec) 
Heartbeat CPU 0 instructions: 64000000 cycles: 123349133 heartbeat IPC: 0.441111 cumulative IPC: 0.460064 (Simulation time: 0 hr 42 min 42 sec) 
Heartbeat CPU 0 instructions: 65000002 cycles: 125118509 heartbeat IPC: 0.565172 cumulative IPC: 0.461625 (Simulation time: 0 hr 43 min 22 sec) 
Heartbeat CPU 0 instructions: 66000001 cycles: 126888989 heartbeat IPC: 0.564818 cumulative IPC: 0.463136 (Simulation time: 0 hr 44 min 1 sec) 
Heartbeat CPU 0 instructions: 67000003 cycles: 128653187 heartbeat IPC: 0.566831 cumulative IPC: 0.464627 (Simulation time: 0 hr 44 min 41 sec) 
Heartbeat CPU 0 instructions: 68000000 cycles: 130378725 heartbeat IPC: 0.579528 cumulative IPC: 0.466221 (Simulation time: 0 hr 45 min 22 sec) 
Heartbeat CPU 0 instructions: 69000003 cycles: 132155071 heartbeat IPC: 0.562955 cumulative IPC: 0.467582 (Simulation time: 0 hr 46 min 2 sec) 
Heartbeat CPU 0 instructions: 70000002 cycles: 133925569 heartbeat IPC: 0.564812 cumulative IPC: 0.468928 (Simulation time: 0 hr 46 min 47 sec) 
Heartbeat CPU 0 instructions: 71000000 cycles: 135696725 heartbeat IPC: 0.564602 cumulative IPC: 0.470234 (Simulation time: 0 hr 47 min 26 sec) 
Heartbeat CPU 0 instructions: 72000000 cycles: 137443168 heartbeat IPC: 0.572592 cumulative IPC: 0.471594 (Simulation time: 0 hr 48 min 16 sec) 
Heartbeat CPU 0 instructions: 73000001 cycles: 139143032 heartbeat IPC: 0.588283 cumulative IPC: 0.473083 (Simulation time: 0 hr 48 min 58 sec) 
Heartbeat CPU 0 instructions: 74000003 cycles: 140909483 heartbeat IPC: 0.566108 cumulative IPC: 0.474301 (Simulation time: 0 hr 49 min 34 sec) 
Heartbeat CPU 0 instructions: 75000002 cycles: 142681171 heartbeat IPC: 0.564433 cumulative IPC: 0.475469 (Simulation time: 0 hr 50 min 13 sec) 
Heartbeat CPU 0 instructions: 76000000 cycles: 147950020 heartbeat IPC: 0.189794 cumulative IPC: 0.464868 (Simulation time: 0 hr 50 min 56 sec) 
Heartbeat CPU 0 instructions: 77000001 cycles: 151117400 heartbeat IPC: 0.315719 cumulative IPC: 0.461613 (Simulation time: 0 hr 51 min 37 sec) 
Heartbeat CPU 0 instructions: 78000000 cycles: 152865685 heartbeat IPC: 0.571989 cumulative IPC: 0.462926 (Simulation time: 0 hr 52 min 18 sec) 
Heartbeat CPU 0 instructions: 79000002 cycles: 154634043 heartbeat IPC: 0.565497 cumulative IPC: 0.464147 (Simulation time: 0 hr 53 min 0 sec) 
Heartbeat CPU 0 instructions: 80000000 cycles: 156403735 heartbeat IPC: 0.565069 cumulative IPC: 0.465334 (Simulation time: 0 hr 53 min 36 sec) 
Heartbeat CPU 0 instructions: 81000002 cycles: 158150649 heartbeat IPC: 0.572439 cumulative IPC: 0.466563 (Simulation time: 0 hr 54 min 11 sec) 
Heartbeat CPU 0 instructions: 82000002 cycles: 159845013 heartbeat IPC: 0.590192 cumulative IPC: 0.467925 (Simulation time: 0 hr 54 min 45 sec) 
Heartbeat CPU 0 instructions: 83000003 cycles: 161612056 heartbeat IPC: 0.565918 cumulative IPC: 0.469037 (Simulation time: 0 hr 55 min 20 sec) 
Heartbeat CPU 0 instructions: 84000000 cycles: 163381979 heartbeat IPC: 0.564995 cumulative IPC: 0.470116 (Simulation time: 0 hr 55 min 54 sec) 
Heartbeat CPU 0 instructions: 85000002 cycles: 165153380 heartbeat IPC: 0.564526 cumulative IPC: 0.471167 (Simulation time: 0 hr 56 min 27 sec) 
Heartbeat CPU 0 instructions: 86000003 cycles: 166868686 heartbeat IPC: 0.582987 cumulative IPC: 0.472359 (Simulation time: 0 hr 57 min 0 sec) 
Heartbeat CPU 0 instructions: 87000000 cycles: 168611337 heartbeat IPC: 0.573837 cumulative IPC: 0.473446 (Simulation time: 0 hr 57 min 31 sec) 
Heartbeat CPU 0 instructions: 88000000 cycles: 170380703 heartbeat IPC: 0.565174 cumulative IPC: 0.474434 (Simulation time: 0 hr 58 min 0 sec) 
Heartbeat CPU 0 instructions: 89000001 cycles: 174716339 heartbeat IPC: 0.230647 cumulative IPC: 0.46817 (Simulation time: 0 hr 58 min 33 sec) 
Heartbeat CPU 0 instructions: 90000002 cycles: 178840478 heartbeat IPC: 0.242475 cumulative IPC: 0.462785 (Simulation time: 0 hr 59 min 7 sec) 
Heartbeat CPU 0 instructions: 91000000 cycles: 180533283 heartbeat IPC: 0.590734 cumulative IPC: 0.464026 (Simulation time: 0 hr 59 min 36 sec) 
Heartbeat CPU 0 instructions: 92000000 cycles: 182295369 heartbeat IPC: 0.567509 cumulative IPC: 0.46506 (Simulation time: 1 hr 0 min 6 sec) 
Heartbeat CPU 0 instructions: 93000001 cycles: 184064889 heartbeat IPC: 0.565126 cumulative IPC: 0.466054 (Simulation time: 1 hr 0 min 36 sec) 
Heartbeat CPU 0 instructions: 94000003 cycles: 185837343 heartbeat IPC: 0.564191 cumulative IPC: 0.467022 (Simulation time: 1 hr 1 min 4 sec) 
Heartbeat CPU 0 instructions: 95000001 cycles: 187557218 heartbeat IPC: 0.581436 cumulative IPC: 0.468105 (Simulation time: 1 hr 1 min 32 sec) 
Heartbeat CPU 0 instructions: 96000000 cycles: 189277459 heartbeat IPC: 0.581313 cumulative IPC: 0.469168 (Simulation time: 1 hr 1 min 57 sec) 
Heartbeat CPU 0 instructions: 97000002 cycles: 191046020 heartbeat IPC: 0.565433 cumulative IPC: 0.470088 (Simulation time: 1 hr 2 min 23 sec) 
Heartbeat CPU 0 instructions: 98000000 cycles: 192819214 heartbeat IPC: 0.563953 cumulative IPC: 0.470978 (Simulation time: 1 hr 2 min 46 sec) 
Heartbeat CPU 0 instructions: 99000002 cycles: 194586081 heartbeat IPC: 0.565975 cumulative IPC: 0.471868 (Simulation time: 1 hr 3 min 10 sec) 
Heartbeat CPU 0 instructions: 100000000 cycles: 196276201 heartbeat IPC: 0.591673 cumulative IPC: 0.472932 (Simulation time: 1 hr 3 min 31 sec) 
Heartbeat CPU 0 instructions: 101000002 cycles: 198030241 heartbeat IPC: 0.570114 cumulative IPC: 0.47382 (Simulation time: 1 hr 3 min 52 sec) 
Heartbeat CPU 0 instructions: 102000000 cycles: 201376335 heartbeat IPC: 0.298855 cumulative IPC: 0.470824 (Simulation time: 1 hr 4 min 14 sec) 
Heartbeat CPU 0 instructions: 103000002 cycles: 206502685 heartbeat IPC: 0.195071 cumulative IPC: 0.463774 (Simulation time: 1 hr 4 min 36 sec) 
Heartbeat CPU 0 instructions: 104000000 cycles: 208228275 heartbeat IPC: 0.579511 cumulative IPC: 0.464762 (Simulation time: 1 hr 4 min 55 sec) 
Heartbeat CPU 0 instructions: 105000002 cycles: 209942847 heartbeat IPC: 0.583237 cumulative IPC: 0.465758 (Simulation time: 1 hr 5 min 14 sec) 
Heartbeat CPU 0 instructions: 106000001 cycles: 211715318 heartbeat IPC: 0.564184 cumulative IPC: 0.466606 (Simulation time: 1 hr 5 min 32 sec) 
Heartbeat CPU 0 instructions: 107000003 cycles: 213486390 heartbeat IPC: 0.564631 cumulative IPC: 0.467442 (Simulation time: 1 hr 5 min 50 sec) 
Heartbeat CPU 0 instructions: 108000000 cycles: 215254131 heartbeat IPC: 0.565692 cumulative IPC: 0.468272 (Simulation time: 1 hr 6 min 6 sec) 
Heartbeat CPU 0 instructions: 109000003 cycles: 216950854 heartbeat IPC: 0.589373 cumulative IPC: 0.469246 (Simulation time: 1 hr 6 min 21 sec) 
Heartbeat CPU 0 instructions: 110000002 cycles: 218699982 heartbeat IPC: 0.571713 cumulative IPC: 0.470089 (Simulation time: 1 hr 6 min 36 sec) 
Finished CPU 0 instructions: 100000003 cycles: 212725870 cummulative IPC: 0.470089 (Simulation time: 1 hr 6 min 36 sec) 

ChampSim completed all CPUs

Region of Interest Statistics

CPU 0 cummulative IPC: 0.470089 instructions: 100000003 cycles: 212725870
LLC TOTAL     ACCESS:    1168759  HIT:     340861  MISS:     827898
LLC LOAD      ACCESS:      25202  HIT:       3103  MISS:      22099
LLC RFO       ACCESS:     265309  HIT:      76980  MISS:     188329
LLC PREFETCH  ACCESS:     610905  HIT:     143755  MISS:     467150
LLC WRITEBACK ACCESS:     267343  HIT:     117023  MISS:     150320
Insertion Distribution: 
	LOAD 350 0 0 0 0 0 12151 10759 
	RFO 12684 0 0 0 0 0 20684 166233 
	PREF 0 45211 0 0 0 0 72307 398598 
	WRITEBACK 0 0 0 0 0 0 0 152333 
Total Prefetch Downgrades: 50637
