
*** ChampSim Multicore Out-of-Order Simulator ***

Warmup Instructions: 10000000
Simulation Instructions: 100000000
Configuration: 2
Number of CPUs: 1
LLC sets: 2048
LLC ways: 16
Off-chip DRAM Channels: 1 Width: 64-bit Data Rate: 1600 MT/s

CPU 0 runs /datasets/cs240c-wi22-a00-public/data/Assignment2-gz/soplex_205B.trace.gz
CPU 0 L1D next line prefetcher
CPU 0 L2C IP-based stride prefetcher
Initialize SRRIP state
Heartbeat CPU 0 instructions: 1000000 cycles: 395620 heartbeat IPC: 2.52768 cumulative IPC: 2.52768 (Simulation time: 0 hr 0 min 29 sec) 
Heartbeat CPU 0 instructions: 2000002 cycles: 925599 heartbeat IPC: 1.88687 cumulative IPC: 2.16077 (Simulation time: 0 hr 1 min 1 sec) 
Heartbeat CPU 0 instructions: 3000000 cycles: 1397353 heartbeat IPC: 2.11974 cumulative IPC: 2.14692 (Simulation time: 0 hr 1 min 43 sec) 
Heartbeat CPU 0 instructions: 4000000 cycles: 1758567 heartbeat IPC: 2.76844 cumulative IPC: 2.27458 (Simulation time: 0 hr 2 min 13 sec) 
Heartbeat CPU 0 instructions: 5000003 cycles: 2202060 heartbeat IPC: 2.25483 cumulative IPC: 2.2706 (Simulation time: 0 hr 2 min 45 sec) 
Heartbeat CPU 0 instructions: 6000003 cycles: 2622560 heartbeat IPC: 2.37812 cumulative IPC: 2.28784 (Simulation time: 0 hr 3 min 19 sec) 
Heartbeat CPU 0 instructions: 7000000 cycles: 3007003 heartbeat IPC: 2.60116 cumulative IPC: 2.3279 (Simulation time: 0 hr 3 min 48 sec) 
Heartbeat CPU 0 instructions: 8000000 cycles: 3400337 heartbeat IPC: 2.54237 cumulative IPC: 2.35271 (Simulation time: 0 hr 4 min 17 sec) 
Heartbeat CPU 0 instructions: 9000003 cycles: 3926479 heartbeat IPC: 1.90063 cumulative IPC: 2.29213 (Simulation time: 0 hr 4 min 52 sec) 
Heartbeat CPU 0 instructions: 10000000 cycles: 4411545 heartbeat IPC: 2.06157 cumulative IPC: 2.26678 (Simulation time: 0 hr 5 min 29 sec) 

Warmup complete CPU 0 instructions: 10000004 cycles: 4411547 (Simulation time: 0 hr 5 min 29 sec) 

Heartbeat CPU 0 instructions: 11000001 cycles: 6946969 heartbeat IPC: 0.394412 cumulative IPC: 0.39441 (Simulation time: 0 hr 6 min 5 sec) 
Heartbeat CPU 0 instructions: 12000000 cycles: 9122751 heartbeat IPC: 0.459604 cumulative IPC: 0.424519 (Simulation time: 0 hr 6 min 44 sec) 
Heartbeat CPU 0 instructions: 13000000 cycles: 12584417 heartbeat IPC: 0.288878 cumulative IPC: 0.367068 (Simulation time: 0 hr 7 min 28 sec) 
Heartbeat CPU 0 instructions: 14000003 cycles: 13875907 heartbeat IPC: 0.774302 cumulative IPC: 0.422638 (Simulation time: 0 hr 7 min 54 sec) 
Heartbeat CPU 0 instructions: 15000000 cycles: 15595061 heartbeat IPC: 0.58168 cumulative IPC: 0.447086 (Simulation time: 0 hr 8 min 23 sec) 
Heartbeat CPU 0 instructions: 16000000 cycles: 18747004 heartbeat IPC: 0.317265 cumulative IPC: 0.418542 (Simulation time: 0 hr 9 min 5 sec) 
Heartbeat CPU 0 instructions: 17000001 cycles: 22281480 heartbeat IPC: 0.282928 cumulative IPC: 0.391719 (Simulation time: 0 hr 9 min 58 sec) 
Heartbeat CPU 0 instructions: 18000000 cycles: 29071421 heartbeat IPC: 0.147277 cumulative IPC: 0.324414 (Simulation time: 0 hr 10 min 48 sec) 
Heartbeat CPU 0 instructions: 19000003 cycles: 33819344 heartbeat IPC: 0.210619 cumulative IPC: 0.306041 (Simulation time: 0 hr 11 min 40 sec) 
Heartbeat CPU 0 instructions: 20000000 cycles: 35943894 heartbeat IPC: 0.470686 cumulative IPC: 0.317135 (Simulation time: 0 hr 12 min 26 sec) 
Heartbeat CPU 0 instructions: 21000001 cycles: 40578780 heartbeat IPC: 0.215755 cumulative IPC: 0.304143 (Simulation time: 0 hr 13 min 18 sec) 
Heartbeat CPU 0 instructions: 22000001 cycles: 44808068 heartbeat IPC: 0.236446 cumulative IPC: 0.297055 (Simulation time: 0 hr 14 min 8 sec) 
Heartbeat CPU 0 instructions: 23000002 cycles: 48033053 heartbeat IPC: 0.310079 cumulative IPC: 0.298018 (Simulation time: 0 hr 14 min 51 sec) 
Heartbeat CPU 0 instructions: 24000000 cycles: 51983883 heartbeat IPC: 0.253111 cumulative IPC: 0.294289 (Simulation time: 0 hr 15 min 39 sec) 
Heartbeat CPU 0 instructions: 25000000 cycles: 55919764 heartbeat IPC: 0.254073 cumulative IPC: 0.291216 (Simulation time: 0 hr 16 min 21 sec) 
Heartbeat CPU 0 instructions: 26000002 cycles: 59454425 heartbeat IPC: 0.282913 cumulative IPC: 0.290682 (Simulation time: 0 hr 17 min 3 sec) 
Heartbeat CPU 0 instructions: 27000000 cycles: 61910405 heartbeat IPC: 0.407169 cumulative IPC: 0.295658 (Simulation time: 0 hr 17 min 42 sec) 
Heartbeat CPU 0 instructions: 28000000 cycles: 65383424 heartbeat IPC: 0.287934 cumulative IPC: 0.295218 (Simulation time: 0 hr 18 min 30 sec) 
Heartbeat CPU 0 instructions: 29000000 cycles: 67411199 heartbeat IPC: 0.493151 cumulative IPC: 0.301589 (Simulation time: 0 hr 19 min 10 sec) 
Heartbeat CPU 0 instructions: 30000003 cycles: 68384893 heartbeat IPC: 1.02702 cumulative IPC: 0.31263 (Simulation time: 0 hr 19 min 47 sec) 
Heartbeat CPU 0 instructions: 31000003 cycles: 69733108 heartbeat IPC: 0.741721 cumulative IPC: 0.321486 (Simulation time: 0 hr 20 min 20 sec) 
Heartbeat CPU 0 instructions: 32000000 cycles: 73199790 heartbeat IPC: 0.288459 cumulative IPC: 0.319822 (Simulation time: 0 hr 21 min 10 sec) 
Heartbeat CPU 0 instructions: 33000000 cycles: 76021210 heartbeat IPC: 0.354431 cumulative IPC: 0.321186 (Simulation time: 0 hr 21 min 58 sec) 
Heartbeat CPU 0 instructions: 34000002 cycles: 77646630 heartbeat IPC: 0.615227 cumulative IPC: 0.327712 (Simulation time: 0 hr 22 min 38 sec) 
Heartbeat CPU 0 instructions: 35000003 cycles: 80376841 heartbeat IPC: 0.366272 cumulative IPC: 0.329098 (Simulation time: 0 hr 23 min 17 sec) 
Heartbeat CPU 0 instructions: 36000000 cycles: 82908539 heartbeat IPC: 0.394991 cumulative IPC: 0.331223 (Simulation time: 0 hr 24 min 1 sec) 
Heartbeat CPU 0 instructions: 37000000 cycles: 86494868 heartbeat IPC: 0.278837 cumulative IPC: 0.328934 (Simulation time: 0 hr 24 min 47 sec) 
Heartbeat CPU 0 instructions: 38000002 cycles: 87792044 heartbeat IPC: 0.770907 cumulative IPC: 0.33581 (Simulation time: 0 hr 25 min 14 sec) 
Heartbeat CPU 0 instructions: 39000003 cycles: 89716848 heartbeat IPC: 0.519534 cumulative IPC: 0.339955 (Simulation time: 0 hr 25 min 45 sec) 
Heartbeat CPU 0 instructions: 40000000 cycles: 92953991 heartbeat IPC: 0.308913 cumulative IPC: 0.338821 (Simulation time: 0 hr 26 min 29 sec) 
Heartbeat CPU 0 instructions: 41000000 cycles: 96225381 heartbeat IPC: 0.30568 cumulative IPC: 0.33764 (Simulation time: 0 hr 27 min 12 sec) 
Heartbeat CPU 0 instructions: 42000001 cycles: 97984993 heartbeat IPC: 0.568308 cumulative IPC: 0.341977 (Simulation time: 0 hr 27 min 48 sec) 
Heartbeat CPU 0 instructions: 43000001 cycles: 101559023 heartbeat IPC: 0.279796 cumulative IPC: 0.33969 (Simulation time: 0 hr 28 min 35 sec) 
Heartbeat CPU 0 instructions: 44000000 cycles: 103841227 heartbeat IPC: 0.438172 cumulative IPC: 0.34195 (Simulation time: 0 hr 29 min 7 sec) 
Heartbeat CPU 0 instructions: 45000001 cycles: 105127451 heartbeat IPC: 0.77747 cumulative IPC: 0.347512 (Simulation time: 0 hr 29 min 33 sec) 
Heartbeat CPU 0 instructions: 46000002 cycles: 107985222 heartbeat IPC: 0.349923 cumulative IPC: 0.347579 (Simulation time: 0 hr 30 min 12 sec) 
Heartbeat CPU 0 instructions: 47000000 cycles: 111153550 heartbeat IPC: 0.315623 cumulative IPC: 0.34663 (Simulation time: 0 hr 30 min 57 sec) 
Heartbeat CPU 0 instructions: 48000000 cycles: 114082565 heartbeat IPC: 0.341412 cumulative IPC: 0.346491 (Simulation time: 0 hr 31 min 46 sec) 
Heartbeat CPU 0 instructions: 49000001 cycles: 115990535 heartbeat IPC: 0.524118 cumulative IPC: 0.349528 (Simulation time: 0 hr 32 min 20 sec) 
Heartbeat CPU 0 instructions: 50000000 cycles: 119393785 heartbeat IPC: 0.293836 cumulative IPC: 0.34788 (Simulation time: 0 hr 33 min 9 sec) 
Heartbeat CPU 0 instructions: 51000003 cycles: 121810998 heartbeat IPC: 0.413701 cumulative IPC: 0.349235 (Simulation time: 0 hr 33 min 44 sec) 
Heartbeat CPU 0 instructions: 52000000 cycles: 123098012 heartbeat IPC: 0.77699 cumulative IPC: 0.353874 (Simulation time: 0 hr 34 min 12 sec) 
Heartbeat CPU 0 instructions: 53000003 cycles: 125931115 heartbeat IPC: 0.352971 cumulative IPC: 0.353852 (Simulation time: 0 hr 34 min 47 sec) 
Heartbeat CPU 0 instructions: 54000001 cycles: 129095806 heartbeat IPC: 0.315986 cumulative IPC: 0.352891 (Simulation time: 0 hr 35 min 31 sec) 
Heartbeat CPU 0 instructions: 55000002 cycles: 132270966 heartbeat IPC: 0.314945 cumulative IPC: 0.351949 (Simulation time: 0 hr 36 min 17 sec) 
Heartbeat CPU 0 instructions: 56000000 cycles: 134066457 heartbeat IPC: 0.55695 cumulative IPC: 0.354788 (Simulation time: 0 hr 36 min 53 sec) 
Heartbeat CPU 0 instructions: 57000000 cycles: 137482688 heartbeat IPC: 0.29272 cumulative IPC: 0.353195 (Simulation time: 0 hr 37 min 37 sec) 
Heartbeat CPU 0 instructions: 58000000 cycles: 139724223 heartbeat IPC: 0.446123 cumulative IPC: 0.354734 (Simulation time: 0 hr 38 min 16 sec) 
Heartbeat CPU 0 instructions: 59000001 cycles: 141002333 heartbeat IPC: 0.782406 cumulative IPC: 0.358736 (Simulation time: 0 hr 38 min 44 sec) 
Heartbeat CPU 0 instructions: 60000000 cycles: 143850807 heartbeat IPC: 0.351065 cumulative IPC: 0.358579 (Simulation time: 0 hr 39 min 24 sec) 
Heartbeat CPU 0 instructions: 61000003 cycles: 147018474 heartbeat IPC: 0.315691 cumulative IPC: 0.357626 (Simulation time: 0 hr 40 min 6 sec) 
Heartbeat CPU 0 instructions: 62000002 cycles: 150240518 heartbeat IPC: 0.310362 cumulative IPC: 0.356582 (Simulation time: 0 hr 40 min 50 sec) 
Heartbeat CPU 0 instructions: 63000001 cycles: 151819095 heartbeat IPC: 0.633481 cumulative IPC: 0.359547 (Simulation time: 0 hr 41 min 26 sec) 
Heartbeat CPU 0 instructions: 64000000 cycles: 155486028 heartbeat IPC: 0.272707 cumulative IPC: 0.35744 (Simulation time: 0 hr 42 min 15 sec) 
Heartbeat CPU 0 instructions: 65000001 cycles: 157356703 heartbeat IPC: 0.534567 cumulative IPC: 0.359606 (Simulation time: 0 hr 42 min 44 sec) 
Heartbeat CPU 0 instructions: 66000000 cycles: 158640661 heartbeat IPC: 0.778841 cumulative IPC: 0.363096 (Simulation time: 0 hr 43 min 12 sec) 
Heartbeat CPU 0 instructions: 67000003 cycles: 161546920 heartbeat IPC: 0.344086 cumulative IPC: 0.362745 (Simulation time: 0 hr 43 min 53 sec) 
Heartbeat CPU 0 instructions: 68000000 cycles: 164730690 heartbeat IPC: 0.314092 cumulative IPC: 0.361778 (Simulation time: 0 hr 44 min 39 sec) 
Heartbeat CPU 0 instructions: 69000001 cycles: 167621787 heartbeat IPC: 0.34589 cumulative IPC: 0.361497 (Simulation time: 0 hr 45 min 27 sec) 
Heartbeat CPU 0 instructions: 70000000 cycles: 169441113 heartbeat IPC: 0.549654 cumulative IPC: 0.363571 (Simulation time: 0 hr 46 min 2 sec) 
Heartbeat CPU 0 instructions: 71000001 cycles: 172860897 heartbeat IPC: 0.292416 cumulative IPC: 0.362127 (Simulation time: 0 hr 46 min 49 sec) 
Heartbeat CPU 0 instructions: 72000000 cycles: 175083975 heartbeat IPC: 0.449826 cumulative IPC: 0.363269 (Simulation time: 0 hr 47 min 23 sec) 
Heartbeat CPU 0 instructions: 73000000 cycles: 176362959 heartbeat IPC: 0.781871 cumulative IPC: 0.366383 (Simulation time: 0 hr 47 min 51 sec) 
Heartbeat CPU 0 instructions: 74000001 cycles: 179201624 heartbeat IPC: 0.352279 cumulative IPC: 0.366153 (Simulation time: 0 hr 48 min 29 sec) 
Heartbeat CPU 0 instructions: 75000003 cycles: 182435391 heartbeat IPC: 0.309237 cumulative IPC: 0.36512 (Simulation time: 0 hr 49 min 15 sec) 
Heartbeat CPU 0 instructions: 76000000 cycles: 185644854 heartbeat IPC: 0.311578 cumulative IPC: 0.364171 (Simulation time: 0 hr 49 min 56 sec) 
Heartbeat CPU 0 instructions: 77000000 cycles: 187197737 heartbeat IPC: 0.643964 cumulative IPC: 0.366548 (Simulation time: 0 hr 50 min 31 sec) 
Heartbeat CPU 0 instructions: 78000000 cycles: 190957417 heartbeat IPC: 0.26598 cumulative IPC: 0.364522 (Simulation time: 0 hr 51 min 18 sec) 
Heartbeat CPU 0 instructions: 79000002 cycles: 192737717 heartbeat IPC: 0.561704 cumulative IPC: 0.366386 (Simulation time: 0 hr 51 min 46 sec) 
Heartbeat CPU 0 instructions: 80000000 cycles: 194020758 heartbeat IPC: 0.779397 cumulative IPC: 0.36918 (Simulation time: 0 hr 52 min 11 sec) 
Heartbeat CPU 0 instructions: 81000000 cycles: 196938419 heartbeat IPC: 0.34274 cumulative IPC: 0.36878 (Simulation time: 0 hr 52 min 50 sec) 
Heartbeat CPU 0 instructions: 82000000 cycles: 200091209 heartbeat IPC: 0.317179 cumulative IPC: 0.367948 (Simulation time: 0 hr 53 min 31 sec) 
Heartbeat CPU 0 instructions: 83000000 cycles: 203447385 heartbeat IPC: 0.297958 cumulative IPC: 0.366768 (Simulation time: 0 hr 54 min 9 sec) 
Heartbeat CPU 0 instructions: 84000000 cycles: 205102654 heartbeat IPC: 0.604131 cumulative IPC: 0.368726 (Simulation time: 0 hr 54 min 42 sec) 
Heartbeat CPU 0 instructions: 85000000 cycles: 209041338 heartbeat IPC: 0.253892 cumulative IPC: 0.366516 (Simulation time: 0 hr 55 min 24 sec) 
Heartbeat CPU 0 instructions: 86000002 cycles: 210454325 heartbeat IPC: 0.707722 cumulative IPC: 0.368855 (Simulation time: 0 hr 55 min 45 sec) 
Heartbeat CPU 0 instructions: 87000002 cycles: 211735251 heartbeat IPC: 0.780685 cumulative IPC: 0.3714 (Simulation time: 0 hr 56 min 6 sec) 
Heartbeat CPU 0 instructions: 88000000 cycles: 214645370 heartbeat IPC: 0.343628 cumulative IPC: 0.371015 (Simulation time: 0 hr 56 min 40 sec) 
Heartbeat CPU 0 instructions: 89000003 cycles: 218251176 heartbeat IPC: 0.277331 cumulative IPC: 0.369436 (Simulation time: 0 hr 57 min 17 sec) 
Heartbeat CPU 0 instructions: 90000001 cycles: 221329071 heartbeat IPC: 0.324897 cumulative IPC: 0.368804 (Simulation time: 0 hr 57 min 47 sec) 
Heartbeat CPU 0 instructions: 91000002 cycles: 223160121 heartbeat IPC: 0.546135 cumulative IPC: 0.370288 (Simulation time: 0 hr 58 min 15 sec) 
Heartbeat CPU 0 instructions: 92000000 cycles: 226906210 heartbeat IPC: 0.266945 cumulative IPC: 0.368548 (Simulation time: 0 hr 58 min 48 sec) 
Heartbeat CPU 0 instructions: 93000000 cycles: 228178893 heartbeat IPC: 0.785742 cumulative IPC: 0.370921 (Simulation time: 0 hr 59 min 6 sec) 
Heartbeat CPU 0 instructions: 94000000 cycles: 229572774 heartbeat IPC: 0.717421 cumulative IPC: 0.373066 (Simulation time: 0 hr 59 min 27 sec) 
Heartbeat CPU 0 instructions: 95000002 cycles: 232596309 heartbeat IPC: 0.330739 cumulative IPC: 0.372505 (Simulation time: 0 hr 59 min 56 sec) 
Heartbeat CPU 0 instructions: 96000000 cycles: 235486089 heartbeat IPC: 0.346046 cumulative IPC: 0.372174 (Simulation time: 1 hr 0 min 23 sec) 
Heartbeat CPU 0 instructions: 97000003 cycles: 238203176 heartbeat IPC: 0.368042 cumulative IPC: 0.372126 (Simulation time: 1 hr 0 min 45 sec) 
Heartbeat CPU 0 instructions: 98000003 cycles: 240527700 heartbeat IPC: 0.430196 cumulative IPC: 0.372698 (Simulation time: 1 hr 1 min 10 sec) 
Heartbeat CPU 0 instructions: 99000000 cycles: 243929478 heartbeat IPC: 0.293963 cumulative IPC: 0.37158 (Simulation time: 1 hr 1 min 36 sec) 
Heartbeat CPU 0 instructions: 100000000 cycles: 245217853 heartbeat IPC: 0.776172 cumulative IPC: 0.373744 (Simulation time: 1 hr 1 min 52 sec) 
Heartbeat CPU 0 instructions: 101000003 cycles: 247153007 heartbeat IPC: 0.516756 cumulative IPC: 0.374884 (Simulation time: 1 hr 2 min 9 sec) 
Heartbeat CPU 0 instructions: 102000002 cycles: 250281906 heartbeat IPC: 0.319601 cumulative IPC: 0.374181 (Simulation time: 1 hr 2 min 32 sec) 
Heartbeat CPU 0 instructions: 103000000 cycles: 252431413 heartbeat IPC: 0.465222 cumulative IPC: 0.37497 (Simulation time: 1 hr 2 min 56 sec) 
Heartbeat CPU 0 instructions: 104000000 cycles: 261369276 heartbeat IPC: 0.111884 cumulative IPC: 0.365819 (Simulation time: 1 hr 3 min 22 sec) 
Heartbeat CPU 0 instructions: 105000000 cycles: 263499969 heartbeat IPC: 0.469331 cumulative IPC: 0.36667 (Simulation time: 1 hr 3 min 45 sec) 
Heartbeat CPU 0 instructions: 106000002 cycles: 267161105 heartbeat IPC: 0.27314 cumulative IPC: 0.365367 (Simulation time: 1 hr 4 min 8 sec) 
Heartbeat CPU 0 instructions: 107000003 cycles: 271147659 heartbeat IPC: 0.250843 cumulative IPC: 0.363655 (Simulation time: 1 hr 4 min 28 sec) 
Heartbeat CPU 0 instructions: 108000000 cycles: 274519786 heartbeat IPC: 0.296548 cumulative IPC: 0.362817 (Simulation time: 1 hr 4 min 47 sec) 
Heartbeat CPU 0 instructions: 109000000 cycles: 277815501 heartbeat IPC: 0.303424 cumulative IPC: 0.362102 (Simulation time: 1 hr 5 min 5 sec) 
Heartbeat CPU 0 instructions: 110000003 cycles: 281366683 heartbeat IPC: 0.281597 cumulative IPC: 0.361069 (Simulation time: 1 hr 5 min 21 sec) 
Finished CPU 0 instructions: 100000003 cycles: 276955137 cummulative IPC: 0.361069 (Simulation time: 1 hr 5 min 21 sec) 

ChampSim completed all CPUs

Region of Interest Statistics

CPU 0 cummulative IPC: 0.361069 instructions: 100000003 cycles: 276955137
LLC TOTAL     ACCESS:    8732703  HIT:    4368109  MISS:    4364594
LLC LOAD      ACCESS:    2230782  HIT:    1001250  MISS:    1229532
LLC RFO       ACCESS:     871505  HIT:     348449  MISS:     523056
LLC PREFETCH  ACCESS:    3455510  HIT:    1434086  MISS:    2021424
LLC WRITEBACK ACCESS:    2174906  HIT:    1584324  MISS:     590582
Insertion Distribution: 
	LOAD 402688 0 0 0 0 0 111992 844454 
	RFO 92455 0 0 0 0 0 105517 367767 
	PREF 0 122218 0 0 0 0 325750 1888424 
	WRITEBACK 0 0 0 0 0 0 0 691869 
Total Prefetch Downgrades: 143397
