
*** ChampSim Multicore Out-of-Order Simulator ***

Warmup Instructions: 10000000
Simulation Instructions: 100000000
Configuration: 2
Number of CPUs: 1
LLC sets: 2048
LLC ways: 16
Off-chip DRAM Channels: 1 Width: 64-bit Data Rate: 1600 MT/s

CPU 0 runs /datasets/cs240c-wi22-a00-public/data/Assignment2-gz/GemsFDTD_712B.trace.gz
CPU 0 L1D next line prefetcher
CPU 0 L2C IP-based stride prefetcher
Initialize SRRIP state
Heartbeat CPU 0 instructions: 1000003 cycles: 634340 heartbeat IPC: 1.57645 cumulative IPC: 1.57645 (Simulation time: 0 hr 0 min 40 sec) 
Heartbeat CPU 0 instructions: 2000000 cycles: 1268251 heartbeat IPC: 1.5775 cumulative IPC: 1.57697 (Simulation time: 0 hr 1 min 19 sec) 
Heartbeat CPU 0 instructions: 3000000 cycles: 1902230 heartbeat IPC: 1.57734 cumulative IPC: 1.5771 (Simulation time: 0 hr 1 min 56 sec) 
Heartbeat CPU 0 instructions: 4000000 cycles: 2535944 heartbeat IPC: 1.578 cumulative IPC: 1.57732 (Simulation time: 0 hr 2 min 35 sec) 
Heartbeat CPU 0 instructions: 5000003 cycles: 3170097 heartbeat IPC: 1.57691 cumulative IPC: 1.57724 (Simulation time: 0 hr 3 min 11 sec) 
Heartbeat CPU 0 instructions: 6000002 cycles: 3803983 heartbeat IPC: 1.57757 cumulative IPC: 1.57729 (Simulation time: 0 hr 3 min 54 sec) 
Heartbeat CPU 0 instructions: 7000001 cycles: 4438120 heartbeat IPC: 1.57694 cumulative IPC: 1.57724 (Simulation time: 0 hr 4 min 37 sec) 
Heartbeat CPU 0 instructions: 8000000 cycles: 5071953 heartbeat IPC: 1.5777 cumulative IPC: 1.5773 (Simulation time: 0 hr 5 min 18 sec) 
Heartbeat CPU 0 instructions: 9000001 cycles: 5706065 heartbeat IPC: 1.57701 cumulative IPC: 1.57727 (Simulation time: 0 hr 5 min 55 sec) 
Heartbeat CPU 0 instructions: 10000002 cycles: 6339841 heartbeat IPC: 1.57785 cumulative IPC: 1.57733 (Simulation time: 0 hr 6 min 31 sec) 

Warmup complete CPU 0 instructions: 10000002 cycles: 6339841 (Simulation time: 0 hr 6 min 31 sec) 

Heartbeat CPU 0 instructions: 11000001 cycles: 7959125 heartbeat IPC: 0.617556 cumulative IPC: 0.617556 (Simulation time: 0 hr 7 min 16 sec) 
Heartbeat CPU 0 instructions: 12000000 cycles: 9589458 heartbeat IPC: 0.613371 cumulative IPC: 0.615457 (Simulation time: 0 hr 8 min 5 sec) 
Heartbeat CPU 0 instructions: 13000000 cycles: 11214169 heartbeat IPC: 0.615494 cumulative IPC: 0.615469 (Simulation time: 0 hr 8 min 50 sec) 
Heartbeat CPU 0 instructions: 14000001 cycles: 12820712 heartbeat IPC: 0.622455 cumulative IPC: 0.617201 (Simulation time: 0 hr 9 min 32 sec) 
Heartbeat CPU 0 instructions: 15000001 cycles: 14418075 heartbeat IPC: 0.626032 cumulative IPC: 0.618947 (Simulation time: 0 hr 10 min 19 sec) 
Heartbeat CPU 0 instructions: 16000000 cycles: 16049336 heartbeat IPC: 0.613022 cumulative IPC: 0.617952 (Simulation time: 0 hr 11 min 3 sec) 
Heartbeat CPU 0 instructions: 17000001 cycles: 17658316 heartbeat IPC: 0.621512 cumulative IPC: 0.618458 (Simulation time: 0 hr 11 min 48 sec) 
Heartbeat CPU 0 instructions: 18000002 cycles: 19294827 heartbeat IPC: 0.611057 cumulative IPC: 0.617523 (Simulation time: 0 hr 12 min 38 sec) 
Heartbeat CPU 0 instructions: 19000003 cycles: 20902520 heartbeat IPC: 0.62201 cumulative IPC: 0.618018 (Simulation time: 0 hr 13 min 20 sec) 
Heartbeat CPU 0 instructions: 20000000 cycles: 22503735 heartbeat IPC: 0.624524 cumulative IPC: 0.618663 (Simulation time: 0 hr 14 min 1 sec) 
Heartbeat CPU 0 instructions: 21000002 cycles: 24119205 heartbeat IPC: 0.619016 cumulative IPC: 0.618695 (Simulation time: 0 hr 14 min 43 sec) 
Heartbeat CPU 0 instructions: 22000001 cycles: 25744783 heartbeat IPC: 0.615165 cumulative IPC: 0.618399 (Simulation time: 0 hr 15 min 31 sec) 
Heartbeat CPU 0 instructions: 23000002 cycles: 27354072 heartbeat IPC: 0.621393 cumulative IPC: 0.618628 (Simulation time: 0 hr 16 min 12 sec) 
Heartbeat CPU 0 instructions: 24000000 cycles: 29000345 heartbeat IPC: 0.607431 cumulative IPC: 0.617815 (Simulation time: 0 hr 16 min 57 sec) 
Heartbeat CPU 0 instructions: 25000000 cycles: 30622419 heartbeat IPC: 0.616495 cumulative IPC: 0.617727 (Simulation time: 0 hr 17 min 39 sec) 
Heartbeat CPU 0 instructions: 26000002 cycles: 32233755 heartbeat IPC: 0.620604 cumulative IPC: 0.617906 (Simulation time: 0 hr 18 min 20 sec) 
Heartbeat CPU 0 instructions: 27000002 cycles: 33864976 heartbeat IPC: 0.613038 cumulative IPC: 0.617617 (Simulation time: 0 hr 19 min 7 sec) 
Heartbeat CPU 0 instructions: 28000000 cycles: 35469738 heartbeat IPC: 0.623144 cumulative IPC: 0.617922 (Simulation time: 0 hr 19 min 50 sec) 
Heartbeat CPU 0 instructions: 29000002 cycles: 37080064 heartbeat IPC: 0.620993 cumulative IPC: 0.618083 (Simulation time: 0 hr 20 min 38 sec) 
Heartbeat CPU 0 instructions: 30000000 cycles: 38684504 heartbeat IPC: 0.623269 cumulative IPC: 0.61834 (Simulation time: 0 hr 21 min 29 sec) 
Heartbeat CPU 0 instructions: 31000001 cycles: 40306162 heartbeat IPC: 0.616653 cumulative IPC: 0.618259 (Simulation time: 0 hr 22 min 17 sec) 
Heartbeat CPU 0 instructions: 32000000 cycles: 41931447 heartbeat IPC: 0.615276 cumulative IPC: 0.618123 (Simulation time: 0 hr 23 min 7 sec) 
Heartbeat CPU 0 instructions: 33000000 cycles: 43545769 heartbeat IPC: 0.619455 cumulative IPC: 0.618181 (Simulation time: 0 hr 23 min 54 sec) 
Heartbeat CPU 0 instructions: 34000003 cycles: 45131478 heartbeat IPC: 0.630635 cumulative IPC: 0.61869 (Simulation time: 0 hr 24 min 40 sec) 
Heartbeat CPU 0 instructions: 35000000 cycles: 46746600 heartbeat IPC: 0.619146 cumulative IPC: 0.618708 (Simulation time: 0 hr 25 min 27 sec) 
Heartbeat CPU 0 instructions: 36000000 cycles: 48365050 heartbeat IPC: 0.617875 cumulative IPC: 0.618676 (Simulation time: 0 hr 26 min 13 sec) 
Heartbeat CPU 0 instructions: 37000000 cycles: 49964810 heartbeat IPC: 0.625094 cumulative IPC: 0.618912 (Simulation time: 0 hr 26 min 59 sec) 
Heartbeat CPU 0 instructions: 38000003 cycles: 51564040 heartbeat IPC: 0.625303 cumulative IPC: 0.619138 (Simulation time: 0 hr 27 min 43 sec) 
Heartbeat CPU 0 instructions: 39000000 cycles: 53194429 heartbeat IPC: 0.613349 cumulative IPC: 0.618936 (Simulation time: 0 hr 28 min 29 sec) 
Heartbeat CPU 0 instructions: 40000000 cycles: 54775375 heartbeat IPC: 0.632533 cumulative IPC: 0.61938 (Simulation time: 0 hr 29 min 13 sec) 
Heartbeat CPU 0 instructions: 41000003 cycles: 56383318 heartbeat IPC: 0.621914 cumulative IPC: 0.619461 (Simulation time: 0 hr 29 min 58 sec) 
Heartbeat CPU 0 instructions: 42000000 cycles: 58006213 heartbeat IPC: 0.616181 cumulative IPC: 0.619358 (Simulation time: 0 hr 30 min 42 sec) 
Heartbeat CPU 0 instructions: 43000001 cycles: 59626978 heartbeat IPC: 0.616993 cumulative IPC: 0.619286 (Simulation time: 0 hr 31 min 26 sec) 
Heartbeat CPU 0 instructions: 44000000 cycles: 61230202 heartbeat IPC: 0.623743 cumulative IPC: 0.619417 (Simulation time: 0 hr 32 min 11 sec) 
Heartbeat CPU 0 instructions: 45000002 cycles: 62831271 heartbeat IPC: 0.624584 cumulative IPC: 0.619563 (Simulation time: 0 hr 32 min 57 sec) 
Heartbeat CPU 0 instructions: 46000002 cycles: 64415643 heartbeat IPC: 0.631165 cumulative IPC: 0.61988 (Simulation time: 0 hr 33 min 40 sec) 
Heartbeat CPU 0 instructions: 47000001 cycles: 66035537 heartbeat IPC: 0.617324 cumulative IPC: 0.61981 (Simulation time: 0 hr 34 min 23 sec) 
Heartbeat CPU 0 instructions: 48000000 cycles: 67648294 heartbeat IPC: 0.620056 cumulative IPC: 0.619817 (Simulation time: 0 hr 35 min 8 sec) 
Heartbeat CPU 0 instructions: 49000000 cycles: 69246758 heartbeat IPC: 0.625601 cumulative IPC: 0.619964 (Simulation time: 0 hr 35 min 55 sec) 
Heartbeat CPU 0 instructions: 50000001 cycles: 70867525 heartbeat IPC: 0.616992 cumulative IPC: 0.619889 (Simulation time: 0 hr 36 min 40 sec) 
Heartbeat CPU 0 instructions: 51000002 cycles: 72493179 heartbeat IPC: 0.615138 cumulative IPC: 0.619772 (Simulation time: 0 hr 37 min 25 sec) 
Heartbeat CPU 0 instructions: 52000000 cycles: 74101177 heartbeat IPC: 0.62189 cumulative IPC: 0.619822 (Simulation time: 0 hr 38 min 13 sec) 
Heartbeat CPU 0 instructions: 53000000 cycles: 75739360 heartbeat IPC: 0.610432 cumulative IPC: 0.619601 (Simulation time: 0 hr 39 min 0 sec) 
Heartbeat CPU 0 instructions: 54000000 cycles: 77333405 heartbeat IPC: 0.627335 cumulative IPC: 0.619774 (Simulation time: 0 hr 39 min 48 sec) 
Heartbeat CPU 0 instructions: 55000000 cycles: 78923621 heartbeat IPC: 0.628845 cumulative IPC: 0.619973 (Simulation time: 0 hr 40 min 32 sec) 
Heartbeat CPU 0 instructions: 56000000 cycles: 80540662 heartbeat IPC: 0.618414 cumulative IPC: 0.619939 (Simulation time: 0 hr 41 min 17 sec) 
Heartbeat CPU 0 instructions: 57000000 cycles: 82196180 heartbeat IPC: 0.604041 cumulative IPC: 0.619592 (Simulation time: 0 hr 42 min 2 sec) 
Heartbeat CPU 0 instructions: 58000001 cycles: 83813807 heartbeat IPC: 0.61819 cumulative IPC: 0.619563 (Simulation time: 0 hr 42 min 45 sec) 
Heartbeat CPU 0 instructions: 59000001 cycles: 85429786 heartbeat IPC: 0.61882 cumulative IPC: 0.619548 (Simulation time: 0 hr 43 min 29 sec) 
Heartbeat CPU 0 instructions: 60000000 cycles: 87060230 heartbeat IPC: 0.613329 cumulative IPC: 0.619422 (Simulation time: 0 hr 44 min 12 sec) 
Heartbeat CPU 0 instructions: 61000001 cycles: 88649486 heartbeat IPC: 0.629226 cumulative IPC: 0.619611 (Simulation time: 0 hr 45 min 0 sec) 
Heartbeat CPU 0 instructions: 62000000 cycles: 90242270 heartbeat IPC: 0.627831 cumulative IPC: 0.619767 (Simulation time: 0 hr 45 min 46 sec) 
Heartbeat CPU 0 instructions: 63000003 cycles: 91862836 heartbeat IPC: 0.61707 cumulative IPC: 0.619716 (Simulation time: 0 hr 46 min 33 sec) 
Heartbeat CPU 0 instructions: 64000000 cycles: 93487343 heartbeat IPC: 0.61557 cumulative IPC: 0.619639 (Simulation time: 0 hr 47 min 16 sec) 
Heartbeat CPU 0 instructions: 65000003 cycles: 95120666 heartbeat IPC: 0.612251 cumulative IPC: 0.619503 (Simulation time: 0 hr 48 min 2 sec) 
Heartbeat CPU 0 instructions: 66000000 cycles: 96714563 heartbeat IPC: 0.627391 cumulative IPC: 0.619642 (Simulation time: 0 hr 48 min 47 sec) 
Heartbeat CPU 0 instructions: 67000000 cycles: 98316253 heartbeat IPC: 0.624341 cumulative IPC: 0.619724 (Simulation time: 0 hr 49 min 35 sec) 
Heartbeat CPU 0 instructions: 68000000 cycles: 99918993 heartbeat IPC: 0.623932 cumulative IPC: 0.619796 (Simulation time: 0 hr 50 min 21 sec) 
Heartbeat CPU 0 instructions: 69000000 cycles: 101505171 heartbeat IPC: 0.630446 cumulative IPC: 0.619974 (Simulation time: 0 hr 51 min 1 sec) 
Heartbeat CPU 0 instructions: 70000002 cycles: 103141696 heartbeat IPC: 0.611052 cumulative IPC: 0.619823 (Simulation time: 0 hr 51 min 44 sec) 
Heartbeat CPU 0 instructions: 71000002 cycles: 104790802 heartbeat IPC: 0.606389 cumulative IPC: 0.619598 (Simulation time: 0 hr 52 min 28 sec) 
Heartbeat CPU 0 instructions: 72000000 cycles: 106519931 heartbeat IPC: 0.578325 cumulative IPC: 0.618885 (Simulation time: 0 hr 53 min 17 sec) 
Heartbeat CPU 0 instructions: 73000000 cycles: 108230282 heartbeat IPC: 0.584675 cumulative IPC: 0.618311 (Simulation time: 0 hr 53 min 59 sec) 
Heartbeat CPU 0 instructions: 74000001 cycles: 109965378 heartbeat IPC: 0.576338 cumulative IPC: 0.617608 (Simulation time: 0 hr 54 min 40 sec) 
Heartbeat CPU 0 instructions: 75000003 cycles: 111679409 heartbeat IPC: 0.583421 cumulative IPC: 0.617052 (Simulation time: 0 hr 55 min 23 sec) 
Heartbeat CPU 0 instructions: 76000000 cycles: 113375692 heartbeat IPC: 0.589522 cumulative IPC: 0.616616 (Simulation time: 0 hr 56 min 1 sec) 
Heartbeat CPU 0 instructions: 77000000 cycles: 115080869 heartbeat IPC: 0.586449 cumulative IPC: 0.616143 (Simulation time: 0 hr 56 min 40 sec) 
Heartbeat CPU 0 instructions: 78000001 cycles: 116773944 heartbeat IPC: 0.590642 cumulative IPC: 0.615752 (Simulation time: 0 hr 57 min 15 sec) 
Heartbeat CPU 0 instructions: 79000003 cycles: 118476986 heartbeat IPC: 0.587186 cumulative IPC: 0.615318 (Simulation time: 0 hr 57 min 49 sec) 
Heartbeat CPU 0 instructions: 80000000 cycles: 120186063 heartbeat IPC: 0.585109 cumulative IPC: 0.614864 (Simulation time: 0 hr 58 min 22 sec) 
Heartbeat CPU 0 instructions: 81000001 cycles: 121903327 heartbeat IPC: 0.582322 cumulative IPC: 0.614381 (Simulation time: 0 hr 58 min 56 sec) 
Heartbeat CPU 0 instructions: 82000000 cycles: 123609669 heartbeat IPC: 0.586048 cumulative IPC: 0.613969 (Simulation time: 0 hr 59 min 27 sec) 
Heartbeat CPU 0 instructions: 83000001 cycles: 125310515 heartbeat IPC: 0.587943 cumulative IPC: 0.613597 (Simulation time: 0 hr 59 min 58 sec) 
Heartbeat CPU 0 instructions: 84000000 cycles: 127025397 heartbeat IPC: 0.58313 cumulative IPC: 0.613164 (Simulation time: 1 hr 0 min 29 sec) 
Heartbeat CPU 0 instructions: 85000000 cycles: 128740290 heartbeat IPC: 0.583127 cumulative IPC: 0.612743 (Simulation time: 1 hr 0 min 59 sec) 
Heartbeat CPU 0 instructions: 86000000 cycles: 130446354 heartbeat IPC: 0.586145 cumulative IPC: 0.612377 (Simulation time: 1 hr 1 min 28 sec) 
Heartbeat CPU 0 instructions: 87000001 cycles: 132160367 heartbeat IPC: 0.583427 cumulative IPC: 0.611983 (Simulation time: 1 hr 1 min 54 sec) 
Heartbeat CPU 0 instructions: 88000000 cycles: 133858986 heartbeat IPC: 0.588713 cumulative IPC: 0.611673 (Simulation time: 1 hr 2 min 22 sec) 
Heartbeat CPU 0 instructions: 89000003 cycles: 135571993 heartbeat IPC: 0.583771 cumulative IPC: 0.611303 (Simulation time: 1 hr 2 min 49 sec) 
Heartbeat CPU 0 instructions: 90000000 cycles: 137284397 heartbeat IPC: 0.583973 cumulative IPC: 0.610946 (Simulation time: 1 hr 3 min 13 sec) 
Heartbeat CPU 0 instructions: 91000001 cycles: 138972175 heartbeat IPC: 0.592496 cumulative IPC: 0.610711 (Simulation time: 1 hr 3 min 38 sec) 
Heartbeat CPU 0 instructions: 92000000 cycles: 140672766 heartbeat IPC: 0.58803 cumulative IPC: 0.610424 (Simulation time: 1 hr 4 min 2 sec) 
Heartbeat CPU 0 instructions: 93000003 cycles: 142367048 heartbeat IPC: 0.590222 cumulative IPC: 0.610172 (Simulation time: 1 hr 4 min 23 sec) 
Heartbeat CPU 0 instructions: 94000002 cycles: 144063349 heartbeat IPC: 0.589517 cumulative IPC: 0.609918 (Simulation time: 1 hr 4 min 44 sec) 
Heartbeat CPU 0 instructions: 95000000 cycles: 145772071 heartbeat IPC: 0.585232 cumulative IPC: 0.609615 (Simulation time: 1 hr 5 min 6 sec) 
Heartbeat CPU 0 instructions: 96000000 cycles: 147477361 heartbeat IPC: 0.586411 cumulative IPC: 0.609335 (Simulation time: 1 hr 5 min 27 sec) 
Heartbeat CPU 0 instructions: 97000003 cycles: 149182510 heartbeat IPC: 0.586461 cumulative IPC: 0.609062 (Simulation time: 1 hr 5 min 48 sec) 
Heartbeat CPU 0 instructions: 98000000 cycles: 150895273 heartbeat IPC: 0.58385 cumulative IPC: 0.608763 (Simulation time: 1 hr 6 min 6 sec) 
Heartbeat CPU 0 instructions: 99000001 cycles: 152611988 heartbeat IPC: 0.582508 cumulative IPC: 0.608455 (Simulation time: 1 hr 6 min 24 sec) 
Heartbeat CPU 0 instructions: 100000000 cycles: 154333683 heartbeat IPC: 0.580822 cumulative IPC: 0.608133 (Simulation time: 1 hr 6 min 39 sec) 
Heartbeat CPU 0 instructions: 101000001 cycles: 156044528 heartbeat IPC: 0.584507 cumulative IPC: 0.607863 (Simulation time: 1 hr 6 min 50 sec) 
Heartbeat CPU 0 instructions: 102000002 cycles: 157760550 heartbeat IPC: 0.582744 cumulative IPC: 0.607579 (Simulation time: 1 hr 7 min 2 sec) 
Heartbeat CPU 0 instructions: 103000000 cycles: 159472445 heartbeat IPC: 0.584147 cumulative IPC: 0.607317 (Simulation time: 1 hr 7 min 13 sec) 
Heartbeat CPU 0 instructions: 104000000 cycles: 161190522 heartbeat IPC: 0.582046 cumulative IPC: 0.607036 (Simulation time: 1 hr 7 min 24 sec) 
Heartbeat CPU 0 instructions: 105000000 cycles: 162904842 heartbeat IPC: 0.583322 cumulative IPC: 0.606777 (Simulation time: 1 hr 7 min 34 sec) 
Heartbeat CPU 0 instructions: 106000002 cycles: 164610210 heartbeat IPC: 0.586385 cumulative IPC: 0.606557 (Simulation time: 1 hr 7 min 44 sec) 
Heartbeat CPU 0 instructions: 107000000 cycles: 166336674 heartbeat IPC: 0.579217 cumulative IPC: 0.606262 (Simulation time: 1 hr 7 min 52 sec) 
Heartbeat CPU 0 instructions: 108000000 cycles: 168050087 heartbeat IPC: 0.58363 cumulative IPC: 0.606022 (Simulation time: 1 hr 8 min 0 sec) 
Heartbeat CPU 0 instructions: 109000003 cycles: 169777061 heartbeat IPC: 0.579049 cumulative IPC: 0.605737 (Simulation time: 1 hr 8 min 8 sec) 
Heartbeat CPU 0 instructions: 110000001 cycles: 171492421 heartbeat IPC: 0.582967 cumulative IPC: 0.605501 (Simulation time: 1 hr 8 min 15 sec) 
Finished CPU 0 instructions: 100000003 cycles: 165152581 cummulative IPC: 0.605501 (Simulation time: 1 hr 8 min 15 sec) 

ChampSim completed all CPUs

Region of Interest Statistics

CPU 0 cummulative IPC: 0.605501 instructions: 100000003 cycles: 165152581
LLC TOTAL     ACCESS:    5145118  HIT:     242580  MISS:    4902538
LLC LOAD      ACCESS:     521499  HIT:     119304  MISS:     402195
LLC RFO       ACCESS:         18  HIT:          0  MISS:         18
LLC PREFETCH  ACCESS:    3246299  HIT:      46303  MISS:    3199996
LLC WRITEBACK ACCESS:    1377302  HIT:      76973  MISS:    1300329
Insertion Distribution: 
	LOAD 125123 0 0 0 0 0 14191 279250 
	RFO 0 0 0 0 0 0 18 0 
	PREF 0 12560 0 0 0 0 57701 3498544 
	WRITEBACK 0 0 0 0 0 0 0 1423118 
Total Prefetch Downgrades: 7920
