
*** ChampSim Multicore Out-of-Order Simulator ***

Warmup Instructions: 10000000
Simulation Instructions: 100000000
Configuration: 2
Number of CPUs: 1
LLC sets: 2048
LLC ways: 16
Off-chip DRAM Channels: 1 Width: 64-bit Data Rate: 1600 MT/s

CPU 0 runs /datasets/cs240c-wi22-a00-public/data/Assignment2-gz/leslie3d_1186B.trace.gz
CPU 0 L1D next line prefetcher
CPU 0 L2C IP-based stride prefetcher
Initialize SRRIP state
Heartbeat CPU 0 instructions: 1000002 cycles: 564509 heartbeat IPC: 1.77145 cumulative IPC: 1.77145 (Simulation time: 0 hr 0 min 37 sec) 
Heartbeat CPU 0 instructions: 2000000 cycles: 1215814 heartbeat IPC: 1.53538 cumulative IPC: 1.64499 (Simulation time: 0 hr 1 min 17 sec) 
Heartbeat CPU 0 instructions: 3000000 cycles: 1867530 heartbeat IPC: 1.53441 cumulative IPC: 1.6064 (Simulation time: 0 hr 1 min 52 sec) 
Heartbeat CPU 0 instructions: 4000000 cycles: 2473057 heartbeat IPC: 1.65145 cumulative IPC: 1.61743 (Simulation time: 0 hr 2 min 28 sec) 
Heartbeat CPU 0 instructions: 5000000 cycles: 3083369 heartbeat IPC: 1.63851 cumulative IPC: 1.6216 (Simulation time: 0 hr 3 min 5 sec) 
Heartbeat CPU 0 instructions: 6000000 cycles: 3735079 heartbeat IPC: 1.53442 cumulative IPC: 1.60639 (Simulation time: 0 hr 3 min 41 sec) 
Heartbeat CPU 0 instructions: 7000001 cycles: 4386324 heartbeat IPC: 1.53552 cumulative IPC: 1.59587 (Simulation time: 0 hr 4 min 23 sec) 
Heartbeat CPU 0 instructions: 8000000 cycles: 4950915 heartbeat IPC: 1.77119 cumulative IPC: 1.61586 (Simulation time: 0 hr 4 min 57 sec) 
Heartbeat CPU 0 instructions: 9000003 cycles: 5602208 heartbeat IPC: 1.53541 cumulative IPC: 1.60651 (Simulation time: 0 hr 5 min 36 sec) 
Heartbeat CPU 0 instructions: 10000001 cycles: 6253371 heartbeat IPC: 1.53571 cumulative IPC: 1.59914 (Simulation time: 0 hr 6 min 14 sec) 

Warmup complete CPU 0 instructions: 10000001 cycles: 6253371 (Simulation time: 0 hr 6 min 14 sec) 

Heartbeat CPU 0 instructions: 11000001 cycles: 7718814 heartbeat IPC: 0.682388 cumulative IPC: 0.682388 (Simulation time: 0 hr 6 min 52 sec) 
Heartbeat CPU 0 instructions: 12000000 cycles: 8961265 heartbeat IPC: 0.80486 cumulative IPC: 0.738581 (Simulation time: 0 hr 7 min 35 sec) 
Heartbeat CPU 0 instructions: 13000000 cycles: 10153105 heartbeat IPC: 0.839039 cumulative IPC: 0.769283 (Simulation time: 0 hr 8 min 16 sec) 
Heartbeat CPU 0 instructions: 14000000 cycles: 11380970 heartbeat IPC: 0.814422 cumulative IPC: 0.780092 (Simulation time: 0 hr 8 min 58 sec) 
Heartbeat CPU 0 instructions: 15000002 cycles: 12811556 heartbeat IPC: 0.699016 cumulative IPC: 0.762406 (Simulation time: 0 hr 9 min 38 sec) 
Heartbeat CPU 0 instructions: 16000000 cycles: 13997786 heartbeat IPC: 0.843005 cumulative IPC: 0.774752 (Simulation time: 0 hr 10 min 16 sec) 
Heartbeat CPU 0 instructions: 17000000 cycles: 15187991 heartbeat IPC: 0.840191 cumulative IPC: 0.783469 (Simulation time: 0 hr 10 min 53 sec) 
Heartbeat CPU 0 instructions: 18000001 cycles: 16637801 heartbeat IPC: 0.689746 cumulative IPC: 0.770384 (Simulation time: 0 hr 11 min 29 sec) 
Heartbeat CPU 0 instructions: 19000003 cycles: 17870479 heartbeat IPC: 0.811243 cumulative IPC: 0.77472 (Simulation time: 0 hr 12 min 15 sec) 
Heartbeat CPU 0 instructions: 20000000 cycles: 19083218 heartbeat IPC: 0.824577 cumulative IPC: 0.779432 (Simulation time: 0 hr 12 min 55 sec) 
Heartbeat CPU 0 instructions: 21000003 cycles: 20389003 heartbeat IPC: 0.765825 cumulative IPC: 0.778175 (Simulation time: 0 hr 13 min 32 sec) 
Heartbeat CPU 0 instructions: 22000003 cycles: 21722398 heartbeat IPC: 0.749965 cumulative IPC: 0.775744 (Simulation time: 0 hr 14 min 8 sec) 
Heartbeat CPU 0 instructions: 23000002 cycles: 22911000 heartbeat IPC: 0.841324 cumulative IPC: 0.780423 (Simulation time: 0 hr 14 min 45 sec) 
Heartbeat CPU 0 instructions: 24000000 cycles: 24103696 heartbeat IPC: 0.838435 cumulative IPC: 0.784299 (Simulation time: 0 hr 15 min 22 sec) 
Heartbeat CPU 0 instructions: 25000000 cycles: 25539927 heartbeat IPC: 0.696267 cumulative IPC: 0.777744 (Simulation time: 0 hr 15 min 54 sec) 
Heartbeat CPU 0 instructions: 26000000 cycles: 26741018 heartbeat IPC: 0.832576 cumulative IPC: 0.780958 (Simulation time: 0 hr 16 min 32 sec) 
Heartbeat CPU 0 instructions: 27000000 cycles: 27937615 heartbeat IPC: 0.835703 cumulative IPC: 0.783979 (Simulation time: 0 hr 17 min 9 sec) 
Heartbeat CPU 0 instructions: 28000000 cycles: 29339432 heartbeat IPC: 0.71336 cumulative IPC: 0.779691 (Simulation time: 0 hr 17 min 45 sec) 
Heartbeat CPU 0 instructions: 29000002 cycles: 30557660 heartbeat IPC: 0.820866 cumulative IPC: 0.781755 (Simulation time: 0 hr 18 min 24 sec) 
Heartbeat CPU 0 instructions: 30000002 cycles: 31753284 heartbeat IPC: 0.836383 cumulative IPC: 0.784316 (Simulation time: 0 hr 19 min 2 sec) 
Heartbeat CPU 0 instructions: 31000002 cycles: 32974909 heartbeat IPC: 0.818582 cumulative IPC: 0.785883 (Simulation time: 0 hr 19 min 41 sec) 
Heartbeat CPU 0 instructions: 32000000 cycles: 34371815 heartbeat IPC: 0.715866 cumulative IPC: 0.782405 (Simulation time: 0 hr 20 min 21 sec) 
Heartbeat CPU 0 instructions: 33000000 cycles: 35556747 heartbeat IPC: 0.84393 cumulative IPC: 0.784892 (Simulation time: 0 hr 21 min 2 sec) 
Heartbeat CPU 0 instructions: 34000000 cycles: 36750633 heartbeat IPC: 0.837601 cumulative IPC: 0.786956 (Simulation time: 0 hr 21 min 44 sec) 
Heartbeat CPU 0 instructions: 35000000 cycles: 38170524 heartbeat IPC: 0.704279 cumulative IPC: 0.783278 (Simulation time: 0 hr 22 min 21 sec) 
Heartbeat CPU 0 instructions: 36000000 cycles: 39390899 heartbeat IPC: 0.81942 cumulative IPC: 0.784609 (Simulation time: 0 hr 23 min 1 sec) 
Heartbeat CPU 0 instructions: 37000003 cycles: 40594497 heartbeat IPC: 0.830845 cumulative IPC: 0.786229 (Simulation time: 0 hr 23 min 40 sec) 
Heartbeat CPU 0 instructions: 38000003 cycles: 41925129 heartbeat IPC: 0.751523 cumulative IPC: 0.784935 (Simulation time: 0 hr 24 min 17 sec) 
Heartbeat CPU 0 instructions: 39000001 cycles: 43225705 heartbeat IPC: 0.768889 cumulative IPC: 0.78437 (Simulation time: 0 hr 24 min 55 sec) 
Heartbeat CPU 0 instructions: 40000000 cycles: 44427087 heartbeat IPC: 0.832374 cumulative IPC: 0.785881 (Simulation time: 0 hr 25 min 35 sec) 
Heartbeat CPU 0 instructions: 41000000 cycles: 45616102 heartbeat IPC: 0.841032 cumulative IPC: 0.787547 (Simulation time: 0 hr 26 min 12 sec) 
Heartbeat CPU 0 instructions: 42000000 cycles: 47042836 heartbeat IPC: 0.700902 cumulative IPC: 0.784516 (Simulation time: 0 hr 26 min 51 sec) 
Heartbeat CPU 0 instructions: 43000002 cycles: 48217799 heartbeat IPC: 0.851092 cumulative IPC: 0.78638 (Simulation time: 0 hr 27 min 29 sec) 
Heartbeat CPU 0 instructions: 44000000 cycles: 49415217 heartbeat IPC: 0.835129 cumulative IPC: 0.787733 (Simulation time: 0 hr 28 min 8 sec) 
Heartbeat CPU 0 instructions: 45000001 cycles: 50895110 heartbeat IPC: 0.675725 cumulative IPC: 0.78402 (Simulation time: 0 hr 28 min 45 sec) 
Heartbeat CPU 0 instructions: 46000001 cycles: 52607669 heartbeat IPC: 0.583921 cumulative IPC: 0.776627 (Simulation time: 0 hr 29 min 25 sec) 
Heartbeat CPU 0 instructions: 47000002 cycles: 54377032 heartbeat IPC: 0.565176 cumulative IPC: 0.768853 (Simulation time: 0 hr 30 min 3 sec) 
Heartbeat CPU 0 instructions: 48000000 cycles: 56253994 heartbeat IPC: 0.532775 cumulative IPC: 0.759991 (Simulation time: 0 hr 30 min 46 sec) 
Heartbeat CPU 0 instructions: 49000002 cycles: 58125353 heartbeat IPC: 0.534372 cumulative IPC: 0.751851 (Simulation time: 0 hr 31 min 28 sec) 
Heartbeat CPU 0 instructions: 50000002 cycles: 60060759 heartbeat IPC: 0.516687 cumulative IPC: 0.743392 (Simulation time: 0 hr 32 min 6 sec) 
Heartbeat CPU 0 instructions: 51000000 cycles: 62006823 heartbeat IPC: 0.513857 cumulative IPC: 0.73538 (Simulation time: 0 hr 32 min 49 sec) 
Heartbeat CPU 0 instructions: 52000000 cycles: 63929957 heartbeat IPC: 0.519985 cumulative IPC: 0.728198 (Simulation time: 0 hr 33 min 31 sec) 
Heartbeat CPU 0 instructions: 53000000 cycles: 65888136 heartbeat IPC: 0.510679 cumulative IPC: 0.721056 (Simulation time: 0 hr 34 min 14 sec) 
Heartbeat CPU 0 instructions: 54000003 cycles: 67758177 heartbeat IPC: 0.534749 cumulative IPC: 0.715391 (Simulation time: 0 hr 34 min 59 sec) 
Heartbeat CPU 0 instructions: 55000001 cycles: 69750250 heartbeat IPC: 0.501989 cumulative IPC: 0.708696 (Simulation time: 0 hr 35 min 42 sec) 
Heartbeat CPU 0 instructions: 56000000 cycles: 72091458 heartbeat IPC: 0.42713 cumulative IPC: 0.698684 (Simulation time: 0 hr 36 min 21 sec) 
Heartbeat CPU 0 instructions: 57000003 cycles: 74432556 heartbeat IPC: 0.427151 cumulative IPC: 0.68936 (Simulation time: 0 hr 37 min 3 sec) 
Heartbeat CPU 0 instructions: 58000001 cycles: 76776405 heartbeat IPC: 0.426648 cumulative IPC: 0.680629 (Simulation time: 0 hr 37 min 46 sec) 
Heartbeat CPU 0 instructions: 59000003 cycles: 79048074 heartbeat IPC: 0.440206 cumulative IPC: 0.673126 (Simulation time: 0 hr 38 min 38 sec) 
Heartbeat CPU 0 instructions: 60000000 cycles: 81394931 heartbeat IPC: 0.426101 cumulative IPC: 0.665411 (Simulation time: 0 hr 39 min 29 sec) 
Heartbeat CPU 0 instructions: 61000003 cycles: 83719687 heartbeat IPC: 0.430154 cumulative IPC: 0.658351 (Simulation time: 0 hr 40 min 16 sec) 
Heartbeat CPU 0 instructions: 62000001 cycles: 86040322 heartbeat IPC: 0.430916 cumulative IPC: 0.651736 (Simulation time: 0 hr 41 min 6 sec) 
Heartbeat CPU 0 instructions: 63000000 cycles: 88015213 heartbeat IPC: 0.506357 cumulative IPC: 0.648224 (Simulation time: 0 hr 41 min 50 sec) 
Heartbeat CPU 0 instructions: 64000000 cycles: 89240265 heartbeat IPC: 0.816292 cumulative IPC: 0.650705 (Simulation time: 0 hr 42 min 27 sec) 
Heartbeat CPU 0 instructions: 65000000 cycles: 90507363 heartbeat IPC: 0.789205 cumulative IPC: 0.652788 (Simulation time: 0 hr 43 min 9 sec) 
Heartbeat CPU 0 instructions: 66000002 cycles: 91771860 heartbeat IPC: 0.79083 cumulative IPC: 0.654829 (Simulation time: 0 hr 43 min 47 sec) 
Heartbeat CPU 0 instructions: 67000001 cycles: 93037890 heartbeat IPC: 0.78987 cumulative IPC: 0.656799 (Simulation time: 0 hr 44 min 24 sec) 
Heartbeat CPU 0 instructions: 68000000 cycles: 94365574 heartbeat IPC: 0.753191 cumulative IPC: 0.658252 (Simulation time: 0 hr 45 min 3 sec) 
Heartbeat CPU 0 instructions: 69000000 cycles: 95621129 heartbeat IPC: 0.796461 cumulative IPC: 0.660193 (Simulation time: 0 hr 45 min 42 sec) 
Heartbeat CPU 0 instructions: 70000000 cycles: 96915843 heartbeat IPC: 0.772371 cumulative IPC: 0.661795 (Simulation time: 0 hr 46 min 16 sec) 
Heartbeat CPU 0 instructions: 71000000 cycles: 98183730 heartbeat IPC: 0.788714 cumulative IPC: 0.663546 (Simulation time: 0 hr 46 min 58 sec) 
Heartbeat CPU 0 instructions: 72000000 cycles: 99469100 heartbeat IPC: 0.777986 cumulative IPC: 0.665124 (Simulation time: 0 hr 47 min 36 sec) 
Heartbeat CPU 0 instructions: 73000000 cycles: 100770739 heartbeat IPC: 0.768262 cumulative IPC: 0.666544 (Simulation time: 0 hr 48 min 20 sec) 
Heartbeat CPU 0 instructions: 74000000 cycles: 102036861 heartbeat IPC: 0.789813 cumulative IPC: 0.668174 (Simulation time: 0 hr 48 min 58 sec) 
Heartbeat CPU 0 instructions: 75000003 cycles: 103352059 heartbeat IPC: 0.760344 cumulative IPC: 0.669422 (Simulation time: 0 hr 49 min 35 sec) 
Heartbeat CPU 0 instructions: 76000000 cycles: 104617935 heartbeat IPC: 0.789964 cumulative IPC: 0.670973 (Simulation time: 0 hr 50 min 13 sec) 
Heartbeat CPU 0 instructions: 77000000 cycles: 105926617 heartbeat IPC: 0.764128 cumulative IPC: 0.672196 (Simulation time: 0 hr 50 min 52 sec) 
Heartbeat CPU 0 instructions: 78000001 cycles: 107209053 heartbeat IPC: 0.779767 cumulative IPC: 0.673563 (Simulation time: 0 hr 51 min 30 sec) 
Heartbeat CPU 0 instructions: 79000002 cycles: 108507076 heartbeat IPC: 0.770403 cumulative IPC: 0.674792 (Simulation time: 0 hr 52 min 7 sec) 
Heartbeat CPU 0 instructions: 80000000 cycles: 109804045 heartbeat IPC: 0.771027 cumulative IPC: 0.675997 (Simulation time: 0 hr 52 min 44 sec) 
Heartbeat CPU 0 instructions: 81000000 cycles: 111064652 heartbeat IPC: 0.793269 cumulative IPC: 0.677408 (Simulation time: 0 hr 53 min 24 sec) 
Heartbeat CPU 0 instructions: 82000003 cycles: 112372555 heartbeat IPC: 0.764585 cumulative IPC: 0.678482 (Simulation time: 0 hr 53 min 58 sec) 
Heartbeat CPU 0 instructions: 83000001 cycles: 113658933 heartbeat IPC: 0.777375 cumulative IPC: 0.679667 (Simulation time: 0 hr 54 min 32 sec) 
Heartbeat CPU 0 instructions: 84000000 cycles: 114951397 heartbeat IPC: 0.773715 cumulative IPC: 0.680785 (Simulation time: 0 hr 55 min 6 sec) 
Heartbeat CPU 0 instructions: 85000001 cycles: 116235746 heartbeat IPC: 0.778605 cumulative IPC: 0.681927 (Simulation time: 0 hr 55 min 38 sec) 
Heartbeat CPU 0 instructions: 86000003 cycles: 117528229 heartbeat IPC: 0.773706 cumulative IPC: 0.682993 (Simulation time: 0 hr 56 min 10 sec) 
Heartbeat CPU 0 instructions: 87000001 cycles: 118823820 heartbeat IPC: 0.771847 cumulative IPC: 0.684016 (Simulation time: 0 hr 56 min 40 sec) 
Heartbeat CPU 0 instructions: 88000000 cycles: 120121349 heartbeat IPC: 0.770695 cumulative IPC: 0.685004 (Simulation time: 0 hr 57 min 10 sec) 
Heartbeat CPU 0 instructions: 89000001 cycles: 121419485 heartbeat IPC: 0.770336 cumulative IPC: 0.685966 (Simulation time: 0 hr 57 min 37 sec) 
Heartbeat CPU 0 instructions: 90000002 cycles: 122713697 heartbeat IPC: 0.772672 cumulative IPC: 0.686929 (Simulation time: 0 hr 58 min 6 sec) 
Heartbeat CPU 0 instructions: 91000000 cycles: 124016612 heartbeat IPC: 0.767508 cumulative IPC: 0.687821 (Simulation time: 0 hr 58 min 35 sec) 
Heartbeat CPU 0 instructions: 92000000 cycles: 125295832 heartbeat IPC: 0.781726 cumulative IPC: 0.68883 (Simulation time: 0 hr 59 min 4 sec) 
Heartbeat CPU 0 instructions: 93000002 cycles: 126609231 heartbeat IPC: 0.761385 cumulative IPC: 0.689622 (Simulation time: 0 hr 59 min 33 sec) 
Heartbeat CPU 0 instructions: 94000000 cycles: 127871539 heartbeat IPC: 0.792198 cumulative IPC: 0.690686 (Simulation time: 1 hr 0 min 1 sec) 
Heartbeat CPU 0 instructions: 95000003 cycles: 129145325 heartbeat IPC: 0.785064 cumulative IPC: 0.691665 (Simulation time: 1 hr 0 min 28 sec) 
Heartbeat CPU 0 instructions: 96000000 cycles: 130454981 heartbeat IPC: 0.763557 cumulative IPC: 0.692423 (Simulation time: 1 hr 0 min 54 sec) 
Heartbeat CPU 0 instructions: 97000001 cycles: 131727641 heartbeat IPC: 0.785757 cumulative IPC: 0.693369 (Simulation time: 1 hr 1 min 20 sec) 
Heartbeat CPU 0 instructions: 98000002 cycles: 133045070 heartbeat IPC: 0.759055 cumulative IPC: 0.694052 (Simulation time: 1 hr 1 min 45 sec) 
Heartbeat CPU 0 instructions: 99000000 cycles: 134325127 heartbeat IPC: 0.781214 cumulative IPC: 0.694923 (Simulation time: 1 hr 2 min 10 sec) 
Heartbeat CPU 0 instructions: 100000000 cycles: 135655826 heartbeat IPC: 0.751485 cumulative IPC: 0.695505 (Simulation time: 1 hr 2 min 34 sec) 
Heartbeat CPU 0 instructions: 101000000 cycles: 136955473 heartbeat IPC: 0.76944 cumulative IPC: 0.69624 (Simulation time: 1 hr 2 min 57 sec) 
Heartbeat CPU 0 instructions: 102000001 cycles: 138242980 heartbeat IPC: 0.776696 cumulative IPC: 0.697025 (Simulation time: 1 hr 3 min 19 sec) 
Heartbeat CPU 0 instructions: 103000001 cycles: 139565402 heartbeat IPC: 0.756188 cumulative IPC: 0.697611 (Simulation time: 1 hr 3 min 40 sec) 
Heartbeat CPU 0 instructions: 104000000 cycles: 140834073 heartbeat IPC: 0.788226 cumulative IPC: 0.698466 (Simulation time: 1 hr 4 min 0 sec) 
Heartbeat CPU 0 instructions: 105000001 cycles: 142164172 heartbeat IPC: 0.751824 cumulative IPC: 0.698988 (Simulation time: 1 hr 4 min 19 sec) 
Heartbeat CPU 0 instructions: 106000002 cycles: 143441563 heartbeat IPC: 0.782846 cumulative IPC: 0.699769 (Simulation time: 1 hr 4 min 37 sec) 
Heartbeat CPU 0 instructions: 107000000 cycles: 144738576 heartbeat IPC: 0.771001 cumulative IPC: 0.700436 (Simulation time: 1 hr 4 min 55 sec) 
Heartbeat CPU 0 instructions: 108000000 cycles: 146021754 heartbeat IPC: 0.779315 cumulative IPC: 0.70116 (Simulation time: 1 hr 5 min 12 sec) 
Heartbeat CPU 0 instructions: 109000003 cycles: 147297202 heartbeat IPC: 0.784041 cumulative IPC: 0.701909 (Simulation time: 1 hr 5 min 30 sec) 
Heartbeat CPU 0 instructions: 110000001 cycles: 148612408 heartbeat IPC: 0.760336 cumulative IPC: 0.702449 (Simulation time: 1 hr 5 min 47 sec) 
Finished CPU 0 instructions: 100000000 cycles: 142359037 cummulative IPC: 0.702449 (Simulation time: 1 hr 5 min 47 sec) 

ChampSim completed all CPUs

Region of Interest Statistics

CPU 0 cummulative IPC: 0.702449 instructions: 100000000 cycles: 142359037
LLC TOTAL     ACCESS:    3757760  HIT:    1095703  MISS:    2662057
LLC LOAD      ACCESS:     403313  HIT:     110973  MISS:     292340
LLC RFO       ACCESS:     463748  HIT:     174056  MISS:     289692
LLC PREFETCH  ACCESS:    2141492  HIT:     493739  MISS:    1647753
LLC WRITEBACK ACCESS:     749207  HIT:     316935  MISS:     432272
Insertion Distribution: 
	LOAD 51174 0 0 0 0 0 35303 209429 
	RFO 914 0 0 0 0 0 15282 275621 
	PREF 0 56086 0 0 0 0 204607 1563370 
	WRITEBACK 0 0 0 0 0 0 0 455803 
Total Prefetch Downgrades: 56849
