
*** ChampSim Multicore Out-of-Order Simulator ***

Warmup Instructions: 10000000
Simulation Instructions: 100000000
Configuration: 2
Number of CPUs: 1
LLC sets: 2048
LLC ways: 16
Off-chip DRAM Channels: 1 Width: 64-bit Data Rate: 1600 MT/s

CPU 0 runs /datasets/cs240c-wi22-a00-public/data/Assignment2-gz/leslie3d_94B.trace.gz
CPU 0 L1D next line prefetcher
CPU 0 L2C IP-based stride prefetcher
Initialize SRRIP state
Heartbeat CPU 0 instructions: 1000003 cycles: 597056 heartbeat IPC: 1.67489 cumulative IPC: 1.67489 (Simulation time: 0 hr 0 min 36 sec) 
Heartbeat CPU 0 instructions: 2000002 cycles: 1215907 heartbeat IPC: 1.6159 cumulative IPC: 1.64486 (Simulation time: 0 hr 1 min 15 sec) 
Heartbeat CPU 0 instructions: 3000003 cycles: 1867671 heartbeat IPC: 1.5343 cumulative IPC: 1.60628 (Simulation time: 0 hr 1 min 57 sec) 
Heartbeat CPU 0 instructions: 4000000 cycles: 2518898 heartbeat IPC: 1.53556 cumulative IPC: 1.588 (Simulation time: 0 hr 2 min 34 sec) 
Heartbeat CPU 0 instructions: 5000002 cycles: 3083897 heartbeat IPC: 1.76992 cumulative IPC: 1.62133 (Simulation time: 0 hr 3 min 11 sec) 
Heartbeat CPU 0 instructions: 6000002 cycles: 3734526 heartbeat IPC: 1.53697 cumulative IPC: 1.60663 (Simulation time: 0 hr 3 min 49 sec) 
Heartbeat CPU 0 instructions: 7000000 cycles: 4385220 heartbeat IPC: 1.53682 cumulative IPC: 1.59627 (Simulation time: 0 hr 4 min 28 sec) 
Heartbeat CPU 0 instructions: 8000000 cycles: 4950207 heartbeat IPC: 1.76995 cumulative IPC: 1.61609 (Simulation time: 0 hr 5 min 7 sec) 
Heartbeat CPU 0 instructions: 9000000 cycles: 5601057 heartbeat IPC: 1.53645 cumulative IPC: 1.60684 (Simulation time: 0 hr 5 min 48 sec) 
Heartbeat CPU 0 instructions: 10000001 cycles: 6252268 heartbeat IPC: 1.5356 cumulative IPC: 1.59942 (Simulation time: 0 hr 6 min 25 sec) 

Warmup complete CPU 0 instructions: 10000001 cycles: 6252268 (Simulation time: 0 hr 6 min 25 sec) 

Heartbeat CPU 0 instructions: 11000000 cycles: 7479747 heartbeat IPC: 0.814677 cumulative IPC: 0.814677 (Simulation time: 0 hr 7 min 5 sec) 
Heartbeat CPU 0 instructions: 12000000 cycles: 9295277 heartbeat IPC: 0.550803 cumulative IPC: 0.657244 (Simulation time: 0 hr 7 min 44 sec) 
Heartbeat CPU 0 instructions: 13000000 cycles: 11037538 heartbeat IPC: 0.573967 cumulative IPC: 0.626924 (Simulation time: 0 hr 8 min 26 sec) 
Heartbeat CPU 0 instructions: 14000001 cycles: 12920201 heartbeat IPC: 0.531163 cumulative IPC: 0.599886 (Simulation time: 0 hr 9 min 9 sec) 
Heartbeat CPU 0 instructions: 15000001 cycles: 14768990 heartbeat IPC: 0.540895 cumulative IPC: 0.58708 (Simulation time: 0 hr 9 min 54 sec) 
Heartbeat CPU 0 instructions: 16000000 cycles: 16681538 heartbeat IPC: 0.522862 cumulative IPC: 0.575304 (Simulation time: 0 hr 10 min 36 sec) 
Heartbeat CPU 0 instructions: 17000000 cycles: 18566836 heartbeat IPC: 0.53042 cumulative IPC: 0.568432 (Simulation time: 0 hr 11 min 20 sec) 
Heartbeat CPU 0 instructions: 18000002 cycles: 20512957 heartbeat IPC: 0.513844 cumulative IPC: 0.560983 (Simulation time: 0 hr 12 min 4 sec) 
Heartbeat CPU 0 instructions: 19000001 cycles: 22472829 heartbeat IPC: 0.510237 cumulative IPC: 0.554851 (Simulation time: 0 hr 12 min 45 sec) 
Heartbeat CPU 0 instructions: 20000000 cycles: 24436846 heartbeat IPC: 0.50916 cumulative IPC: 0.549916 (Simulation time: 0 hr 13 min 30 sec) 
Heartbeat CPU 0 instructions: 21000002 cycles: 26256162 heartbeat IPC: 0.549658 cumulative IPC: 0.549893 (Simulation time: 0 hr 14 min 12 sec) 
Heartbeat CPU 0 instructions: 22000002 cycles: 28576158 heartbeat IPC: 0.431035 cumulative IPC: 0.537541 (Simulation time: 0 hr 14 min 58 sec) 
Heartbeat CPU 0 instructions: 23000000 cycles: 30924442 heartbeat IPC: 0.425842 cumulative IPC: 0.526909 (Simulation time: 0 hr 15 min 38 sec) 
Heartbeat CPU 0 instructions: 24000000 cycles: 33273064 heartbeat IPC: 0.425782 cumulative IPC: 0.518119 (Simulation time: 0 hr 16 min 19 sec) 
Heartbeat CPU 0 instructions: 25000000 cycles: 35595584 heartbeat IPC: 0.430567 cumulative IPC: 0.51119 (Simulation time: 0 hr 17 min 0 sec) 
Heartbeat CPU 0 instructions: 26000002 cycles: 37854126 heartbeat IPC: 0.442764 cumulative IPC: 0.506299 (Simulation time: 0 hr 17 min 49 sec) 
Heartbeat CPU 0 instructions: 27000001 cycles: 40202678 heartbeat IPC: 0.425794 cumulative IPC: 0.50073 (Simulation time: 0 hr 18 min 38 sec) 
Heartbeat CPU 0 instructions: 28000000 cycles: 42560207 heartbeat IPC: 0.424173 cumulative IPC: 0.495759 (Simulation time: 0 hr 19 min 28 sec) 
Heartbeat CPU 0 instructions: 29000000 cycles: 44880880 heartbeat IPC: 0.430909 cumulative IPC: 0.491863 (Simulation time: 0 hr 20 min 19 sec) 
Heartbeat CPU 0 instructions: 30000000 cycles: 46245376 heartbeat IPC: 0.732871 cumulative IPC: 0.500086 (Simulation time: 0 hr 21 min 1 sec) 
Heartbeat CPU 0 instructions: 31000002 cycles: 47504144 heartbeat IPC: 0.794429 cumulative IPC: 0.509068 (Simulation time: 0 hr 21 min 44 sec) 
Heartbeat CPU 0 instructions: 32000000 cycles: 48785971 heartbeat IPC: 0.780135 cumulative IPC: 0.517237 (Simulation time: 0 hr 22 min 30 sec) 
Heartbeat CPU 0 instructions: 33000001 cycles: 50051765 heartbeat IPC: 0.790019 cumulative IPC: 0.52512 (Simulation time: 0 hr 23 min 13 sec) 
Heartbeat CPU 0 instructions: 34000003 cycles: 51343510 heartbeat IPC: 0.774148 cumulative IPC: 0.532254 (Simulation time: 0 hr 23 min 53 sec) 
Heartbeat CPU 0 instructions: 35000001 cycles: 52600626 heartbeat IPC: 0.79547 cumulative IPC: 0.539393 (Simulation time: 0 hr 24 min 30 sec) 
Heartbeat CPU 0 instructions: 36000000 cycles: 53907697 heartbeat IPC: 0.765069 cumulative IPC: 0.545583 (Simulation time: 0 hr 25 min 9 sec) 
Heartbeat CPU 0 instructions: 37000003 cycles: 55169854 heartbeat IPC: 0.792297 cumulative IPC: 0.551949 (Simulation time: 0 hr 25 min 49 sec) 
Heartbeat CPU 0 instructions: 38000000 cycles: 56435779 heartbeat IPC: 0.789934 cumulative IPC: 0.557952 (Simulation time: 0 hr 26 min 30 sec) 
Heartbeat CPU 0 instructions: 39000000 cycles: 57719472 heartbeat IPC: 0.779002 cumulative IPC: 0.563466 (Simulation time: 0 hr 27 min 11 sec) 
Heartbeat CPU 0 instructions: 40000000 cycles: 58969790 heartbeat IPC: 0.799797 cumulative IPC: 0.569071 (Simulation time: 0 hr 27 min 52 sec) 
Heartbeat CPU 0 instructions: 41000002 cycles: 60277997 heartbeat IPC: 0.764407 cumulative IPC: 0.573801 (Simulation time: 0 hr 28 min 30 sec) 
Heartbeat CPU 0 instructions: 42000002 cycles: 61534790 heartbeat IPC: 0.795676 cumulative IPC: 0.578845 (Simulation time: 0 hr 29 min 11 sec) 
Heartbeat CPU 0 instructions: 43000002 cycles: 62837876 heartbeat IPC: 0.767409 cumulative IPC: 0.583187 (Simulation time: 0 hr 29 min 51 sec) 
Heartbeat CPU 0 instructions: 44000000 cycles: 64098888 heartbeat IPC: 0.793012 cumulative IPC: 0.587761 (Simulation time: 0 hr 30 min 32 sec) 
Heartbeat CPU 0 instructions: 45000003 cycles: 65379381 heartbeat IPC: 0.780952 cumulative IPC: 0.591945 (Simulation time: 0 hr 31 min 14 sec) 
Heartbeat CPU 0 instructions: 46000001 cycles: 66704082 heartbeat IPC: 0.754886 cumulative IPC: 0.595516 (Simulation time: 0 hr 31 min 58 sec) 
Heartbeat CPU 0 instructions: 47000000 cycles: 67968920 heartbeat IPC: 0.790614 cumulative IPC: 0.599514 (Simulation time: 0 hr 32 min 41 sec) 
Heartbeat CPU 0 instructions: 48000000 cycles: 69297550 heartbeat IPC: 0.752655 cumulative IPC: 0.602741 (Simulation time: 0 hr 33 min 18 sec) 
Heartbeat CPU 0 instructions: 49000001 cycles: 70563539 heartbeat IPC: 0.789897 cumulative IPC: 0.606426 (Simulation time: 0 hr 33 min 58 sec) 
Heartbeat CPU 0 instructions: 50000001 cycles: 71881242 heartbeat IPC: 0.758896 cumulative IPC: 0.609487 (Simulation time: 0 hr 34 min 38 sec) 
Heartbeat CPU 0 instructions: 51000003 cycles: 73171165 heartbeat IPC: 0.775242 cumulative IPC: 0.612682 (Simulation time: 0 hr 35 min 16 sec) 
Heartbeat CPU 0 instructions: 52000000 cycles: 74448081 heartbeat IPC: 0.783135 cumulative IPC: 0.615874 (Simulation time: 0 hr 36 min 0 sec) 
Heartbeat CPU 0 instructions: 53000002 cycles: 75778813 heartbeat IPC: 0.751468 cumulative IPC: 0.618469 (Simulation time: 0 hr 36 min 43 sec) 
Heartbeat CPU 0 instructions: 54000001 cycles: 77053652 heartbeat IPC: 0.784412 cumulative IPC: 0.621457 (Simulation time: 0 hr 37 min 23 sec) 
Heartbeat CPU 0 instructions: 55000000 cycles: 78377560 heartbeat IPC: 0.755339 cumulative IPC: 0.623914 (Simulation time: 0 hr 38 min 6 sec) 
Heartbeat CPU 0 instructions: 56000000 cycles: 79670418 heartbeat IPC: 0.77348 cumulative IPC: 0.626548 (Simulation time: 0 hr 38 min 51 sec) 
Heartbeat CPU 0 instructions: 57000000 cycles: 80978068 heartbeat IPC: 0.764731 cumulative IPC: 0.628966 (Simulation time: 0 hr 39 min 32 sec) 
Heartbeat CPU 0 instructions: 58000001 cycles: 82266701 heartbeat IPC: 0.776017 cumulative IPC: 0.631459 (Simulation time: 0 hr 40 min 12 sec) 
Heartbeat CPU 0 instructions: 59000000 cycles: 83528832 heartbeat IPC: 0.79231 cumulative IPC: 0.634086 (Simulation time: 0 hr 40 min 52 sec) 
Heartbeat CPU 0 instructions: 60000000 cycles: 84838581 heartbeat IPC: 0.763505 cumulative IPC: 0.636243 (Simulation time: 0 hr 41 min 31 sec) 
Heartbeat CPU 0 instructions: 61000001 cycles: 86122966 heartbeat IPC: 0.778584 cumulative IPC: 0.638532 (Simulation time: 0 hr 42 min 11 sec) 
Heartbeat CPU 0 instructions: 62000000 cycles: 87418247 heartbeat IPC: 0.772032 cumulative IPC: 0.640662 (Simulation time: 0 hr 42 min 50 sec) 
Heartbeat CPU 0 instructions: 63000001 cycles: 88698065 heartbeat IPC: 0.781362 cumulative IPC: 0.642847 (Simulation time: 0 hr 43 min 31 sec) 
Heartbeat CPU 0 instructions: 64000000 cycles: 89999209 heartbeat IPC: 0.768554 cumulative IPC: 0.6448 (Simulation time: 0 hr 44 min 14 sec) 
Heartbeat CPU 0 instructions: 65000000 cycles: 91287585 heartbeat IPC: 0.776171 cumulative IPC: 0.64679 (Simulation time: 0 hr 44 min 57 sec) 
Heartbeat CPU 0 instructions: 66000000 cycles: 92578469 heartbeat IPC: 0.774663 cumulative IPC: 0.648702 (Simulation time: 0 hr 45 min 40 sec) 
Heartbeat CPU 0 instructions: 67000003 cycles: 93867856 heartbeat IPC: 0.775565 cumulative IPC: 0.650569 (Simulation time: 0 hr 46 min 19 sec) 
Heartbeat CPU 0 instructions: 68000000 cycles: 95149488 heartbeat IPC: 0.780253 cumulative IPC: 0.652439 (Simulation time: 0 hr 46 min 58 sec) 
Heartbeat CPU 0 instructions: 69000000 cycles: 96443667 heartbeat IPC: 0.772691 cumulative IPC: 0.654164 (Simulation time: 0 hr 47 min 35 sec) 
Heartbeat CPU 0 instructions: 70000001 cycles: 97722121 heartbeat IPC: 0.782196 cumulative IPC: 0.655954 (Simulation time: 0 hr 48 min 12 sec) 
Heartbeat CPU 0 instructions: 71000002 cycles: 99029171 heartbeat IPC: 0.765082 cumulative IPC: 0.657491 (Simulation time: 0 hr 48 min 52 sec) 
Heartbeat CPU 0 instructions: 72000000 cycles: 100293758 heartbeat IPC: 0.79077 cumulative IPC: 0.659283 (Simulation time: 0 hr 49 min 33 sec) 
Heartbeat CPU 0 instructions: 73000000 cycles: 101582998 heartbeat IPC: 0.775651 cumulative IPC: 0.660857 (Simulation time: 0 hr 50 min 11 sec) 
Heartbeat CPU 0 instructions: 74000000 cycles: 102861139 heartbeat IPC: 0.782386 cumulative IPC: 0.662465 (Simulation time: 0 hr 50 min 49 sec) 
Heartbeat CPU 0 instructions: 75000002 cycles: 104129899 heartbeat IPC: 0.788173 cumulative IPC: 0.664095 (Simulation time: 0 hr 51 min 30 sec) 
Heartbeat CPU 0 instructions: 76000000 cycles: 105438651 heartbeat IPC: 0.764085 cumulative IPC: 0.665414 (Simulation time: 0 hr 52 min 11 sec) 
Heartbeat CPU 0 instructions: 77000000 cycles: 106723409 heartbeat IPC: 0.778357 cumulative IPC: 0.666858 (Simulation time: 0 hr 52 min 53 sec) 
Heartbeat CPU 0 instructions: 78000003 cycles: 108058944 heartbeat IPC: 0.748766 cumulative IPC: 0.667933 (Simulation time: 0 hr 53 min 28 sec) 
Heartbeat CPU 0 instructions: 79000000 cycles: 109524118 heartbeat IPC: 0.682511 cumulative IPC: 0.668139 (Simulation time: 0 hr 54 min 4 sec) 
Heartbeat CPU 0 instructions: 80000000 cycles: 111179117 heartbeat IPC: 0.60423 cumulative IPC: 0.667131 (Simulation time: 0 hr 54 min 38 sec) 
Heartbeat CPU 0 instructions: 81000002 cycles: 112797630 heartbeat IPC: 0.617852 cumulative IPC: 0.666383 (Simulation time: 0 hr 55 min 12 sec) 
Heartbeat CPU 0 instructions: 82000003 cycles: 114467710 heartbeat IPC: 0.598774 cumulative IPC: 0.665339 (Simulation time: 0 hr 55 min 46 sec) 
Heartbeat CPU 0 instructions: 83000003 cycles: 116151481 heartbeat IPC: 0.593905 cumulative IPC: 0.664245 (Simulation time: 0 hr 56 min 17 sec) 
Heartbeat CPU 0 instructions: 84000000 cycles: 117779617 heartbeat IPC: 0.614197 cumulative IPC: 0.663514 (Simulation time: 0 hr 56 min 50 sec) 
Heartbeat CPU 0 instructions: 85000001 cycles: 119443942 heartbeat IPC: 0.600845 cumulative IPC: 0.662593 (Simulation time: 0 hr 57 min 20 sec) 
Heartbeat CPU 0 instructions: 86000002 cycles: 121081656 heartbeat IPC: 0.610608 cumulative IPC: 0.661851 (Simulation time: 0 hr 57 min 50 sec) 
Heartbeat CPU 0 instructions: 87000000 cycles: 122726992 heartbeat IPC: 0.607777 cumulative IPC: 0.661088 (Simulation time: 0 hr 58 min 18 sec) 
Heartbeat CPU 0 instructions: 88000000 cycles: 124395622 heartbeat IPC: 0.599294 cumulative IPC: 0.660215 (Simulation time: 0 hr 58 min 47 sec) 
Heartbeat CPU 0 instructions: 89000002 cycles: 126033630 heartbeat IPC: 0.610499 cumulative IPC: 0.659535 (Simulation time: 0 hr 59 min 14 sec) 
Heartbeat CPU 0 instructions: 90000001 cycles: 127677582 heartbeat IPC: 0.60829 cumulative IPC: 0.658841 (Simulation time: 0 hr 59 min 41 sec) 
Heartbeat CPU 0 instructions: 91000003 cycles: 129318950 heartbeat IPC: 0.609249 cumulative IPC: 0.65818 (Simulation time: 1 hr 0 min 7 sec) 
Heartbeat CPU 0 instructions: 92000000 cycles: 130968791 heartbeat IPC: 0.606117 cumulative IPC: 0.657491 (Simulation time: 1 hr 0 min 33 sec) 
Heartbeat CPU 0 instructions: 93000001 cycles: 132648949 heartbeat IPC: 0.595183 cumulative IPC: 0.656663 (Simulation time: 1 hr 0 min 57 sec) 
Heartbeat CPU 0 instructions: 94000003 cycles: 134308147 heartbeat IPC: 0.602702 cumulative IPC: 0.655964 (Simulation time: 1 hr 1 min 22 sec) 
Heartbeat CPU 0 instructions: 95000002 cycles: 136019040 heartbeat IPC: 0.58449 cumulative IPC: 0.655021 (Simulation time: 1 hr 1 min 46 sec) 
Heartbeat CPU 0 instructions: 96000000 cycles: 137670973 heartbeat IPC: 0.60535 cumulative IPC: 0.654397 (Simulation time: 1 hr 2 min 9 sec) 
Heartbeat CPU 0 instructions: 97000003 cycles: 139616538 heartbeat IPC: 0.513991 cumulative IPC: 0.652349 (Simulation time: 1 hr 2 min 33 sec) 
Heartbeat CPU 0 instructions: 98000002 cycles: 145023960 heartbeat IPC: 0.184931 cumulative IPC: 0.634135 (Simulation time: 1 hr 3 min 16 sec) 
Heartbeat CPU 0 instructions: 99000000 cycles: 147993357 heartbeat IPC: 0.336768 cumulative IPC: 0.627905 (Simulation time: 1 hr 3 min 50 sec) 
Heartbeat CPU 0 instructions: 100000000 cycles: 149611812 heartbeat IPC: 0.617873 cumulative IPC: 0.627792 (Simulation time: 1 hr 4 min 9 sec) 
Heartbeat CPU 0 instructions: 101000002 cycles: 150855256 heartbeat IPC: 0.80422 cumulative IPC: 0.629309 (Simulation time: 1 hr 4 min 23 sec) 
Heartbeat CPU 0 instructions: 102000003 cycles: 152245185 heartbeat IPC: 0.719462 cumulative IPC: 0.630168 (Simulation time: 1 hr 4 min 39 sec) 
Heartbeat CPU 0 instructions: 103000002 cycles: 153733880 heartbeat IPC: 0.671729 cumulative IPC: 0.630587 (Simulation time: 1 hr 4 min 55 sec) 
Heartbeat CPU 0 instructions: 104000000 cycles: 155235221 heartbeat IPC: 0.66607 cumulative IPC: 0.630945 (Simulation time: 1 hr 5 min 10 sec) 
Heartbeat CPU 0 instructions: 105000001 cycles: 156752222 heartbeat IPC: 0.659196 cumulative IPC: 0.631229 (Simulation time: 1 hr 5 min 26 sec) 
Heartbeat CPU 0 instructions: 106000001 cycles: 158273543 heartbeat IPC: 0.657323 cumulative IPC: 0.631491 (Simulation time: 1 hr 5 min 41 sec) 
Heartbeat CPU 0 instructions: 107000001 cycles: 159793253 heartbeat IPC: 0.65802 cumulative IPC: 0.631753 (Simulation time: 1 hr 5 min 56 sec) 
Heartbeat CPU 0 instructions: 108000000 cycles: 161315698 heartbeat IPC: 0.656838 cumulative IPC: 0.631999 (Simulation time: 1 hr 6 min 10 sec) 
Heartbeat CPU 0 instructions: 109000001 cycles: 162819488 heartbeat IPC: 0.664987 cumulative IPC: 0.632316 (Simulation time: 1 hr 6 min 22 sec) 
Heartbeat CPU 0 instructions: 110000001 cycles: 164357203 heartbeat IPC: 0.650316 cumulative IPC: 0.632491 (Simulation time: 1 hr 6 min 34 sec) 
Finished CPU 0 instructions: 100000000 cycles: 158104935 cummulative IPC: 0.632491 (Simulation time: 1 hr 6 min 34 sec) 

ChampSim completed all CPUs

Region of Interest Statistics

CPU 0 cummulative IPC: 0.632491 instructions: 100000000 cycles: 158104935
LLC TOTAL     ACCESS:    4601153  HIT:     957883  MISS:    3643270
LLC LOAD      ACCESS:     465965  HIT:     112056  MISS:     353909
LLC RFO       ACCESS:     743177  HIT:      92324  MISS:     650853
LLC PREFETCH  ACCESS:    2291930  HIT:     449981  MISS:    1841949
LLC WRITEBACK ACCESS:    1100081  HIT:     303522  MISS:     796559
Insertion Distribution: 
	LOAD 37054 0 0 0 0 0 59750 260652 
	RFO 183 0 0 0 0 0 51260 601860 
	PREF 0 85547 0 0 0 0 233858 1698201 
	WRITEBACK 0 0 0 0 0 0 0 817335 
Total Prefetch Downgrades: 71813
