
*** ChampSim Multicore Out-of-Order Simulator ***

Warmup Instructions: 10000000
Simulation Instructions: 100000000
Configuration: 2
Number of CPUs: 1
LLC sets: 2048
LLC ways: 16
Off-chip DRAM Channels: 1 Width: 64-bit Data Rate: 1600 MT/s

CPU 0 runs /datasets/cs240c-wi22-a00-public/data/Assignment2-gz/cactusADM_734B.trace.gz
CPU 0 L1D next line prefetcher
CPU 0 L2C IP-based stride prefetcher
Initialize SRRIP state
Heartbeat CPU 0 instructions: 1000003 cycles: 592726 heartbeat IPC: 1.68713 cumulative IPC: 1.68713 (Simulation time: 0 hr 0 min 42 sec) 
Heartbeat CPU 0 instructions: 2000001 cycles: 1185927 heartbeat IPC: 1.68577 cumulative IPC: 1.68645 (Simulation time: 0 hr 1 min 24 sec) 
Heartbeat CPU 0 instructions: 3000003 cycles: 1778979 heartbeat IPC: 1.6862 cumulative IPC: 1.68636 (Simulation time: 0 hr 2 min 6 sec) 
Heartbeat CPU 0 instructions: 4000000 cycles: 2371929 heartbeat IPC: 1.68648 cumulative IPC: 1.68639 (Simulation time: 0 hr 2 min 46 sec) 
Heartbeat CPU 0 instructions: 5000000 cycles: 2965279 heartbeat IPC: 1.68535 cumulative IPC: 1.68618 (Simulation time: 0 hr 3 min 26 sec) 
Heartbeat CPU 0 instructions: 6000002 cycles: 3558551 heartbeat IPC: 1.68557 cumulative IPC: 1.68608 (Simulation time: 0 hr 4 min 6 sec) 
Heartbeat CPU 0 instructions: 7000000 cycles: 4151394 heartbeat IPC: 1.68678 cumulative IPC: 1.68618 (Simulation time: 0 hr 4 min 45 sec) 
Heartbeat CPU 0 instructions: 8000000 cycles: 4744343 heartbeat IPC: 1.68649 cumulative IPC: 1.68622 (Simulation time: 0 hr 5 min 24 sec) 
Heartbeat CPU 0 instructions: 9000001 cycles: 5337493 heartbeat IPC: 1.68592 cumulative IPC: 1.68619 (Simulation time: 0 hr 6 min 3 sec) 
Heartbeat CPU 0 instructions: 10000003 cycles: 5958967 heartbeat IPC: 1.60908 cumulative IPC: 1.67814 (Simulation time: 0 hr 6 min 47 sec) 

Warmup complete CPU 0 instructions: 10000003 cycles: 5958967 (Simulation time: 0 hr 6 min 47 sec) 

Heartbeat CPU 0 instructions: 11000002 cycles: 12570569 heartbeat IPC: 0.151249 cumulative IPC: 0.151249 (Simulation time: 0 hr 7 min 47 sec) 
Heartbeat CPU 0 instructions: 12000000 cycles: 14313515 heartbeat IPC: 0.57374 cumulative IPC: 0.23939 (Simulation time: 0 hr 8 min 28 sec) 
Heartbeat CPU 0 instructions: 13000002 cycles: 16002174 heartbeat IPC: 0.592187 cumulative IPC: 0.298709 (Simulation time: 0 hr 9 min 14 sec) 
Heartbeat CPU 0 instructions: 14000000 cycles: 17688683 heartbeat IPC: 0.59294 cumulative IPC: 0.341014 (Simulation time: 0 hr 9 min 56 sec) 
Heartbeat CPU 0 instructions: 15000003 cycles: 19428364 heartbeat IPC: 0.57482 cumulative IPC: 0.371212 (Simulation time: 0 hr 10 min 39 sec) 
Heartbeat CPU 0 instructions: 16000000 cycles: 21170879 heartbeat IPC: 0.573881 cumulative IPC: 0.394428 (Simulation time: 0 hr 11 min 26 sec) 
Heartbeat CPU 0 instructions: 17000002 cycles: 22904850 heartbeat IPC: 0.576712 cumulative IPC: 0.41308 (Simulation time: 0 hr 12 min 7 sec) 
Heartbeat CPU 0 instructions: 18000001 cycles: 24562901 heartbeat IPC: 0.603117 cumulative IPC: 0.430016 (Simulation time: 0 hr 12 min 54 sec) 
Heartbeat CPU 0 instructions: 19000000 cycles: 26280568 heartbeat IPC: 0.582184 cumulative IPC: 0.442878 (Simulation time: 0 hr 13 min 35 sec) 
Heartbeat CPU 0 instructions: 20000000 cycles: 28023620 heartbeat IPC: 0.573706 cumulative IPC: 0.453213 (Simulation time: 0 hr 14 min 20 sec) 
Heartbeat CPU 0 instructions: 21000002 cycles: 29766999 heartbeat IPC: 0.5736 cumulative IPC: 0.462029 (Simulation time: 0 hr 15 min 2 sec) 
Heartbeat CPU 0 instructions: 22000000 cycles: 31476660 heartbeat IPC: 0.58491 cumulative IPC: 0.470262 (Simulation time: 0 hr 15 min 48 sec) 
Heartbeat CPU 0 instructions: 23000001 cycles: 33140844 heartbeat IPC: 0.600896 cumulative IPC: 0.47826 (Simulation time: 0 hr 16 min 31 sec) 
Heartbeat CPU 0 instructions: 24000000 cycles: 40710737 heartbeat IPC: 0.132102 cumulative IPC: 0.402857 (Simulation time: 0 hr 17 min 18 sec) 
Heartbeat CPU 0 instructions: 25000000 cycles: 42449881 heartbeat IPC: 0.574996 cumulative IPC: 0.411061 (Simulation time: 0 hr 17 min 59 sec) 
Heartbeat CPU 0 instructions: 26000002 cycles: 44182096 heartbeat IPC: 0.577297 cumulative IPC: 0.418595 (Simulation time: 0 hr 18 min 44 sec) 
Heartbeat CPU 0 instructions: 27000002 cycles: 45841991 heartbeat IPC: 0.602448 cumulative IPC: 0.426246 (Simulation time: 0 hr 19 min 25 sec) 
Heartbeat CPU 0 instructions: 28000000 cycles: 47564854 heartbeat IPC: 0.580428 cumulative IPC: 0.432631 (Simulation time: 0 hr 20 min 9 sec) 
Heartbeat CPU 0 instructions: 29000001 cycles: 49321000 heartbeat IPC: 0.569429 cumulative IPC: 0.438171 (Simulation time: 0 hr 20 min 53 sec) 
Heartbeat CPU 0 instructions: 30000001 cycles: 51059820 heartbeat IPC: 0.575103 cumulative IPC: 0.443451 (Simulation time: 0 hr 21 min 35 sec) 
Heartbeat CPU 0 instructions: 31000003 cycles: 52769971 heartbeat IPC: 0.584745 cumulative IPC: 0.448612 (Simulation time: 0 hr 22 min 20 sec) 
Heartbeat CPU 0 instructions: 32000000 cycles: 54426055 heartbeat IPC: 0.603832 cumulative IPC: 0.453916 (Simulation time: 0 hr 23 min 6 sec) 
Heartbeat CPU 0 instructions: 33000000 cycles: 56158113 heartbeat IPC: 0.577348 cumulative IPC: 0.458175 (Simulation time: 0 hr 23 min 50 sec) 
Heartbeat CPU 0 instructions: 34000001 cycles: 57898695 heartbeat IPC: 0.574521 cumulative IPC: 0.462074 (Simulation time: 0 hr 24 min 34 sec) 
Heartbeat CPU 0 instructions: 35000000 cycles: 59634084 heartbeat IPC: 0.576239 cumulative IPC: 0.465765 (Simulation time: 0 hr 25 min 19 sec) 
Heartbeat CPU 0 instructions: 36000000 cycles: 61314035 heartbeat IPC: 0.595255 cumulative IPC: 0.469695 (Simulation time: 0 hr 26 min 2 sec) 
Heartbeat CPU 0 instructions: 37000003 cycles: 68838524 heartbeat IPC: 0.1329 cumulative IPC: 0.429392 (Simulation time: 0 hr 26 min 50 sec) 
Heartbeat CPU 0 instructions: 38000001 cycles: 70574485 heartbeat IPC: 0.576049 cumulative IPC: 0.433332 (Simulation time: 0 hr 27 min 33 sec) 
Heartbeat CPU 0 instructions: 39000001 cycles: 72310830 heartbeat IPC: 0.575922 cumulative IPC: 0.437064 (Simulation time: 0 hr 28 min 16 sec) 
Heartbeat CPU 0 instructions: 40000000 cycles: 74025395 heartbeat IPC: 0.583238 cumulative IPC: 0.440746 (Simulation time: 0 hr 28 min 56 sec) 
Heartbeat CPU 0 instructions: 41000001 cycles: 75676875 heartbeat IPC: 0.605518 cumulative IPC: 0.444649 (Simulation time: 0 hr 29 min 38 sec) 
Heartbeat CPU 0 instructions: 42000002 cycles: 77409027 heartbeat IPC: 0.577317 cumulative IPC: 0.447865 (Simulation time: 0 hr 30 min 17 sec) 
Heartbeat CPU 0 instructions: 43000000 cycles: 79146093 heartbeat IPC: 0.575682 cumulative IPC: 0.450899 (Simulation time: 0 hr 31 min 0 sec) 
Heartbeat CPU 0 instructions: 44000000 cycles: 80883295 heartbeat IPC: 0.575638 cumulative IPC: 0.453791 (Simulation time: 0 hr 31 min 45 sec) 
Heartbeat CPU 0 instructions: 45000000 cycles: 82565026 heartbeat IPC: 0.594625 cumulative IPC: 0.456883 (Simulation time: 0 hr 32 min 32 sec) 
Heartbeat CPU 0 instructions: 46000003 cycles: 84244834 heartbeat IPC: 0.595308 cumulative IPC: 0.459853 (Simulation time: 0 hr 33 min 16 sec) 
Heartbeat CPU 0 instructions: 47000001 cycles: 85979186 heartbeat IPC: 0.576583 cumulative IPC: 0.462383 (Simulation time: 0 hr 33 min 58 sec) 
Heartbeat CPU 0 instructions: 48000000 cycles: 87716575 heartbeat IPC: 0.575576 cumulative IPC: 0.464789 (Simulation time: 0 hr 34 min 45 sec) 
Heartbeat CPU 0 instructions: 49000000 cycles: 89449745 heartbeat IPC: 0.576977 cumulative IPC: 0.467117 (Simulation time: 0 hr 35 min 27 sec) 
Heartbeat CPU 0 instructions: 50000001 cycles: 96893067 heartbeat IPC: 0.134349 cumulative IPC: 0.439879 (Simulation time: 0 hr 36 min 18 sec) 
Heartbeat CPU 0 instructions: 51000000 cycles: 98619757 heartbeat IPC: 0.579142 cumulative IPC: 0.442474 (Simulation time: 0 hr 37 min 2 sec) 
Heartbeat CPU 0 instructions: 52000000 cycles: 100355431 heartbeat IPC: 0.576145 cumulative IPC: 0.444932 (Simulation time: 0 hr 37 min 47 sec) 
Heartbeat CPU 0 instructions: 53000003 cycles: 102092783 heartbeat IPC: 0.57559 cumulative IPC: 0.447293 (Simulation time: 0 hr 38 min 29 sec) 
Heartbeat CPU 0 instructions: 54000000 cycles: 103779040 heartbeat IPC: 0.593028 cumulative IPC: 0.449805 (Simulation time: 0 hr 39 min 16 sec) 
Heartbeat CPU 0 instructions: 55000001 cycles: 105453267 heartbeat IPC: 0.597291 cumulative IPC: 0.452287 (Simulation time: 0 hr 39 min 59 sec) 
Heartbeat CPU 0 instructions: 56000000 cycles: 107202860 heartbeat IPC: 0.571561 cumulative IPC: 0.454348 (Simulation time: 0 hr 40 min 46 sec) 
Heartbeat CPU 0 instructions: 57000000 cycles: 108951366 heartbeat IPC: 0.571917 cumulative IPC: 0.456344 (Simulation time: 0 hr 41 min 29 sec) 
Heartbeat CPU 0 instructions: 58000001 cycles: 110683075 heartbeat IPC: 0.577465 cumulative IPC: 0.458347 (Simulation time: 0 hr 42 min 9 sec) 
Heartbeat CPU 0 instructions: 59000000 cycles: 112339610 heartbeat IPC: 0.603669 cumulative IPC: 0.46061 (Simulation time: 0 hr 42 min 51 sec) 
Heartbeat CPU 0 instructions: 60000000 cycles: 114044135 heartbeat IPC: 0.586674 cumulative IPC: 0.462598 (Simulation time: 0 hr 43 min 35 sec) 
Heartbeat CPU 0 instructions: 61000002 cycles: 115781263 heartbeat IPC: 0.575664 cumulative IPC: 0.464387 (Simulation time: 0 hr 44 min 21 sec) 
Heartbeat CPU 0 instructions: 62000002 cycles: 117519850 heartbeat IPC: 0.57518 cumulative IPC: 0.466113 (Simulation time: 0 hr 45 min 4 sec) 
Heartbeat CPU 0 instructions: 63000002 cycles: 124877903 heartbeat IPC: 0.135906 cumulative IPC: 0.445682 (Simulation time: 0 hr 45 min 57 sec) 
Heartbeat CPU 0 instructions: 64000000 cycles: 126825160 heartbeat IPC: 0.513542 cumulative IPC: 0.446775 (Simulation time: 0 hr 46 min 40 sec) 
Heartbeat CPU 0 instructions: 65000003 cycles: 128559732 heartbeat IPC: 0.576513 cumulative IPC: 0.448611 (Simulation time: 0 hr 47 min 22 sec) 
Heartbeat CPU 0 instructions: 66000001 cycles: 130298831 heartbeat IPC: 0.575009 cumulative IPC: 0.450378 (Simulation time: 0 hr 48 min 4 sec) 
Heartbeat CPU 0 instructions: 67000000 cycles: 132033125 heartbeat IPC: 0.576603 cumulative IPC: 0.452115 (Simulation time: 0 hr 48 min 46 sec) 
Heartbeat CPU 0 instructions: 68000000 cycles: 133694148 heartbeat IPC: 0.602039 cumulative IPC: 0.454064 (Simulation time: 0 hr 49 min 29 sec) 
Heartbeat CPU 0 instructions: 69000000 cycles: 135393301 heartbeat IPC: 0.588529 cumulative IPC: 0.45583 (Simulation time: 0 hr 50 min 11 sec) 
Heartbeat CPU 0 instructions: 70000001 cycles: 137132367 heartbeat IPC: 0.575022 cumulative IPC: 0.45741 (Simulation time: 0 hr 50 min 53 sec) 
Heartbeat CPU 0 instructions: 71000001 cycles: 138871927 heartbeat IPC: 0.574858 cumulative IPC: 0.458947 (Simulation time: 0 hr 51 min 37 sec) 
Heartbeat CPU 0 instructions: 72000000 cycles: 140590806 heartbeat IPC: 0.581774 cumulative IPC: 0.460515 (Simulation time: 0 hr 52 min 23 sec) 
Heartbeat CPU 0 instructions: 73000003 cycles: 142237794 heartbeat IPC: 0.607171 cumulative IPC: 0.462288 (Simulation time: 0 hr 53 min 9 sec) 
Heartbeat CPU 0 instructions: 74000002 cycles: 143968175 heartbeat IPC: 0.577907 cumulative IPC: 0.463737 (Simulation time: 0 hr 53 min 49 sec) 
Heartbeat CPU 0 instructions: 75000002 cycles: 145706754 heartbeat IPC: 0.575182 cumulative IPC: 0.465124 (Simulation time: 0 hr 54 min 31 sec) 
Heartbeat CPU 0 instructions: 76000000 cycles: 151879748 heartbeat IPC: 0.161996 cumulative IPC: 0.4523 (Simulation time: 0 hr 55 min 16 sec) 
Heartbeat CPU 0 instructions: 77000000 cycles: 155059547 heartbeat IPC: 0.314485 cumulative IPC: 0.449361 (Simulation time: 0 hr 55 min 53 sec) 
Heartbeat CPU 0 instructions: 78000002 cycles: 156755106 heartbeat IPC: 0.589777 cumulative IPC: 0.45094 (Simulation time: 0 hr 56 min 28 sec) 
Heartbeat CPU 0 instructions: 79000002 cycles: 158495243 heartbeat IPC: 0.574667 cumulative IPC: 0.452351 (Simulation time: 0 hr 57 min 0 sec) 
Heartbeat CPU 0 instructions: 80000000 cycles: 160231041 heartbeat IPC: 0.576103 cumulative IPC: 0.453744 (Simulation time: 0 hr 57 min 31 sec) 
Heartbeat CPU 0 instructions: 81000000 cycles: 161955822 heartbeat IPC: 0.579784 cumulative IPC: 0.455137 (Simulation time: 0 hr 58 min 1 sec) 
Heartbeat CPU 0 instructions: 82000003 cycles: 163599111 heartbeat IPC: 0.608537 cumulative IPC: 0.456736 (Simulation time: 0 hr 58 min 33 sec) 
Heartbeat CPU 0 instructions: 83000003 cycles: 165327735 heartbeat IPC: 0.578495 cumulative IPC: 0.458057 (Simulation time: 0 hr 59 min 4 sec) 
Heartbeat CPU 0 instructions: 84000000 cycles: 167064998 heartbeat IPC: 0.575616 cumulative IPC: 0.459325 (Simulation time: 0 hr 59 min 34 sec) 
Heartbeat CPU 0 instructions: 85000003 cycles: 168802702 heartbeat IPC: 0.575474 cumulative IPC: 0.460564 (Simulation time: 1 hr 0 min 5 sec) 
Heartbeat CPU 0 instructions: 86000000 cycles: 170495490 heartbeat IPC: 0.59074 cumulative IPC: 0.461904 (Simulation time: 1 hr 0 min 35 sec) 
Heartbeat CPU 0 instructions: 87000000 cycles: 172168280 heartbeat IPC: 0.597804 cumulative IPC: 0.463271 (Simulation time: 1 hr 1 min 1 sec) 
Heartbeat CPU 0 instructions: 88000000 cycles: 173933499 heartbeat IPC: 0.566502 cumulative IPC: 0.464356 (Simulation time: 1 hr 1 min 28 sec) 
Heartbeat CPU 0 instructions: 89000002 cycles: 179034260 heartbeat IPC: 0.19605 cumulative IPC: 0.456449 (Simulation time: 1 hr 1 min 57 sec) 
Heartbeat CPU 0 instructions: 90000002 cycles: 183288128 heartbeat IPC: 0.23508 cumulative IPC: 0.451138 (Simulation time: 1 hr 2 min 25 sec) 
Heartbeat CPU 0 instructions: 91000003 cycles: 184934759 heartbeat IPC: 0.607301 cumulative IPC: 0.452575 (Simulation time: 1 hr 2 min 49 sec) 
Heartbeat CPU 0 instructions: 92000000 cycles: 186661485 heartbeat IPC: 0.579129 cumulative IPC: 0.453784 (Simulation time: 1 hr 3 min 9 sec) 
Heartbeat CPU 0 instructions: 93000000 cycles: 188400155 heartbeat IPC: 0.575152 cumulative IPC: 0.454941 (Simulation time: 1 hr 3 min 29 sec) 
Heartbeat CPU 0 instructions: 94000003 cycles: 190139504 heartbeat IPC: 0.574929 cumulative IPC: 0.456074 (Simulation time: 1 hr 3 min 48 sec) 
Heartbeat CPU 0 instructions: 95000000 cycles: 191837101 heartbeat IPC: 0.589066 cumulative IPC: 0.457289 (Simulation time: 1 hr 4 min 9 sec) 
Heartbeat CPU 0 instructions: 96000000 cycles: 193506250 heartbeat IPC: 0.599108 cumulative IPC: 0.458551 (Simulation time: 1 hr 4 min 28 sec) 
Heartbeat CPU 0 instructions: 97000001 cycles: 195241163 heartbeat IPC: 0.576398 cumulative IPC: 0.459631 (Simulation time: 1 hr 4 min 47 sec) 
Heartbeat CPU 0 instructions: 98000000 cycles: 196980825 heartbeat IPC: 0.574824 cumulative IPC: 0.46068 (Simulation time: 1 hr 5 min 6 sec) 
Heartbeat CPU 0 instructions: 99000001 cycles: 198717739 heartbeat IPC: 0.575734 cumulative IPC: 0.461717 (Simulation time: 1 hr 5 min 24 sec) 
Heartbeat CPU 0 instructions: 100000000 cycles: 200387863 heartbeat IPC: 0.598757 cumulative IPC: 0.462894 (Simulation time: 1 hr 5 min 43 sec) 
Heartbeat CPU 0 instructions: 101000000 cycles: 202088746 heartbeat IPC: 0.58793 cumulative IPC: 0.463978 (Simulation time: 1 hr 6 min 0 sec) 
Heartbeat CPU 0 instructions: 102000000 cycles: 206102455 heartbeat IPC: 0.249146 cumulative IPC: 0.45967 (Simulation time: 1 hr 6 min 17 sec) 
Heartbeat CPU 0 instructions: 103000000 cycles: 211442984 heartbeat IPC: 0.187247 cumulative IPC: 0.45259 (Simulation time: 1 hr 6 min 34 sec) 
Heartbeat CPU 0 instructions: 104000000 cycles: 213145912 heartbeat IPC: 0.587224 cumulative IPC: 0.453697 (Simulation time: 1 hr 6 min 44 sec) 
Heartbeat CPU 0 instructions: 105000000 cycles: 214808151 heartbeat IPC: 0.601598 cumulative IPC: 0.454874 (Simulation time: 1 hr 6 min 55 sec) 
Heartbeat CPU 0 instructions: 106000002 cycles: 216540539 heartbeat IPC: 0.577239 cumulative IPC: 0.45588 (Simulation time: 1 hr 7 min 5 sec) 
Heartbeat CPU 0 instructions: 107000001 cycles: 218279570 heartbeat IPC: 0.575032 cumulative IPC: 0.456856 (Simulation time: 1 hr 7 min 15 sec) 
Heartbeat CPU 0 instructions: 108000000 cycles: 220013459 heartbeat IPC: 0.576738 cumulative IPC: 0.457827 (Simulation time: 1 hr 7 min 23 sec) 
Heartbeat CPU 0 instructions: 109000001 cycles: 221685360 heartbeat IPC: 0.598122 cumulative IPC: 0.458915 (Simulation time: 1 hr 7 min 31 sec) 
Heartbeat CPU 0 instructions: 110000003 cycles: 223378282 heartbeat IPC: 0.590696 cumulative IPC: 0.459941 (Simulation time: 1 hr 7 min 39 sec) 
Finished CPU 0 instructions: 100000000 cycles: 217419315 cummulative IPC: 0.459941 (Simulation time: 1 hr 7 min 39 sec) 

ChampSim completed all CPUs

Region of Interest Statistics

CPU 0 cummulative IPC: 0.459941 instructions: 100000000 cycles: 217419315
LLC TOTAL     ACCESS:    1164066  HIT:     330179  MISS:     833887
LLC LOAD      ACCESS:      21727  HIT:       2799  MISS:      18928
LLC RFO       ACCESS:     264086  HIT:      78294  MISS:     185792
LLC PREFETCH  ACCESS:     612152  HIT:     133621  MISS:     478531
LLC WRITEBACK ACCESS:     266101  HIT:     115465  MISS:     150636
Insertion Distribution: 
	LOAD 0 0 0 0 0 0 9929 10190 
	RFO 11365 0 0 0 0 0 20173 166738 
	PREF 0 44962 0 0 0 0 61746 421870 
	WRITEBACK 0 0 0 0 0 0 0 153028 
Total Prefetch Downgrades: 51076
