
*** ChampSim Multicore Out-of-Order Simulator ***

Warmup Instructions: 10000000
Simulation Instructions: 100000000
Configuration: 2
Number of CPUs: 1
LLC sets: 2048
LLC ways: 16
Off-chip DRAM Channels: 1 Width: 64-bit Data Rate: 1600 MT/s

CPU 0 runs /datasets/cs240c-wi22-a00-public/data/Assignment2-gz/astar_163B.trace.gz
CPU 0 L1D next line prefetcher
CPU 0 L2C IP-based stride prefetcher
Initialize SRRIP state
Heartbeat CPU 0 instructions: 1000002 cycles: 531212 heartbeat IPC: 1.88249 cumulative IPC: 1.88249 (Simulation time: 0 hr 0 min 30 sec) 
Heartbeat CPU 0 instructions: 2000003 cycles: 1060822 heartbeat IPC: 1.88818 cumulative IPC: 1.88533 (Simulation time: 0 hr 1 min 3 sec) 
Heartbeat CPU 0 instructions: 3000003 cycles: 1590855 heartbeat IPC: 1.88668 cumulative IPC: 1.88578 (Simulation time: 0 hr 1 min 35 sec) 
Heartbeat CPU 0 instructions: 4000000 cycles: 2120959 heartbeat IPC: 1.88642 cumulative IPC: 1.88594 (Simulation time: 0 hr 2 min 5 sec) 
Heartbeat CPU 0 instructions: 5000000 cycles: 2652872 heartbeat IPC: 1.88001 cumulative IPC: 1.88475 (Simulation time: 0 hr 2 min 38 sec) 
Heartbeat CPU 0 instructions: 6000002 cycles: 3181386 heartbeat IPC: 1.8921 cumulative IPC: 1.88597 (Simulation time: 0 hr 3 min 10 sec) 
Heartbeat CPU 0 instructions: 7000003 cycles: 3710910 heartbeat IPC: 1.88849 cumulative IPC: 1.88633 (Simulation time: 0 hr 3 min 41 sec) 
Heartbeat CPU 0 instructions: 8000000 cycles: 4240193 heartbeat IPC: 1.88934 cumulative IPC: 1.88671 (Simulation time: 0 hr 4 min 14 sec) 
Heartbeat CPU 0 instructions: 9000000 cycles: 4771206 heartbeat IPC: 1.88319 cumulative IPC: 1.88632 (Simulation time: 0 hr 4 min 44 sec) 
Heartbeat CPU 0 instructions: 10000001 cycles: 5301285 heartbeat IPC: 1.88651 cumulative IPC: 1.88634 (Simulation time: 0 hr 5 min 16 sec) 

Warmup complete CPU 0 instructions: 10000001 cycles: 5301285 (Simulation time: 0 hr 5 min 16 sec) 

Heartbeat CPU 0 instructions: 11000003 cycles: 7522672 heartbeat IPC: 0.45017 cumulative IPC: 0.45017 (Simulation time: 0 hr 5 min 53 sec) 
Heartbeat CPU 0 instructions: 12000000 cycles: 9769205 heartbeat IPC: 0.445129 cumulative IPC: 0.447635 (Simulation time: 0 hr 6 min 30 sec) 
Heartbeat CPU 0 instructions: 13000000 cycles: 12019173 heartbeat IPC: 0.444451 cumulative IPC: 0.446569 (Simulation time: 0 hr 7 min 9 sec) 
Heartbeat CPU 0 instructions: 14000000 cycles: 14274389 heartbeat IPC: 0.443417 cumulative IPC: 0.445777 (Simulation time: 0 hr 7 min 47 sec) 
Heartbeat CPU 0 instructions: 15000000 cycles: 16591884 heartbeat IPC: 0.4315 cumulative IPC: 0.442846 (Simulation time: 0 hr 8 min 23 sec) 
Heartbeat CPU 0 instructions: 16000000 cycles: 18954852 heartbeat IPC: 0.423197 cumulative IPC: 0.439446 (Simulation time: 0 hr 8 min 58 sec) 
Heartbeat CPU 0 instructions: 17000003 cycles: 21273017 heartbeat IPC: 0.431377 cumulative IPC: 0.438274 (Simulation time: 0 hr 9 min 33 sec) 
Heartbeat CPU 0 instructions: 18000002 cycles: 23584438 heartbeat IPC: 0.432634 cumulative IPC: 0.437561 (Simulation time: 0 hr 10 min 9 sec) 
Heartbeat CPU 0 instructions: 19000000 cycles: 25893663 heartbeat IPC: 0.433045 cumulative IPC: 0.437055 (Simulation time: 0 hr 10 min 42 sec) 
Heartbeat CPU 0 instructions: 20000000 cycles: 28208147 heartbeat IPC: 0.432062 cumulative IPC: 0.43655 (Simulation time: 0 hr 11 min 19 sec) 
Heartbeat CPU 0 instructions: 21000003 cycles: 30565046 heartbeat IPC: 0.424288 cumulative IPC: 0.435406 (Simulation time: 0 hr 11 min 53 sec) 
Heartbeat CPU 0 instructions: 22000002 cycles: 33031750 heartbeat IPC: 0.405399 cumulative IPC: 0.432737 (Simulation time: 0 hr 12 min 27 sec) 
Heartbeat CPU 0 instructions: 23000001 cycles: 35454477 heartbeat IPC: 0.412758 cumulative IPC: 0.431132 (Simulation time: 0 hr 13 min 1 sec) 
Heartbeat CPU 0 instructions: 24000000 cycles: 37896519 heartbeat IPC: 0.409493 cumulative IPC: 0.429511 (Simulation time: 0 hr 13 min 36 sec) 
Heartbeat CPU 0 instructions: 25000003 cycles: 40073897 heartbeat IPC: 0.459269 cumulative IPC: 0.431374 (Simulation time: 0 hr 14 min 10 sec) 
Heartbeat CPU 0 instructions: 26000003 cycles: 41823790 heartbeat IPC: 0.571464 cumulative IPC: 0.438086 (Simulation time: 0 hr 14 min 48 sec) 
Heartbeat CPU 0 instructions: 27000000 cycles: 43647685 heartbeat IPC: 0.548276 cumulative IPC: 0.443327 (Simulation time: 0 hr 15 min 23 sec) 
Heartbeat CPU 0 instructions: 28000000 cycles: 45587777 heartbeat IPC: 0.515439 cumulative IPC: 0.4468 (Simulation time: 0 hr 16 min 5 sec) 
Heartbeat CPU 0 instructions: 29000000 cycles: 47521613 heartbeat IPC: 0.517107 cumulative IPC: 0.45002 (Simulation time: 0 hr 16 min 39 sec) 
Heartbeat CPU 0 instructions: 30000000 cycles: 49442177 heartbeat IPC: 0.52068 cumulative IPC: 0.453095 (Simulation time: 0 hr 17 min 15 sec) 
Heartbeat CPU 0 instructions: 31000001 cycles: 51308037 heartbeat IPC: 0.535946 cumulative IPC: 0.456455 (Simulation time: 0 hr 17 min 51 sec) 
Heartbeat CPU 0 instructions: 32000000 cycles: 53212717 heartbeat IPC: 0.525022 cumulative IPC: 0.459181 (Simulation time: 0 hr 18 min 27 sec) 
Heartbeat CPU 0 instructions: 33000000 cycles: 55098997 heartbeat IPC: 0.530144 cumulative IPC: 0.461869 (Simulation time: 0 hr 19 min 4 sec) 
Heartbeat CPU 0 instructions: 34000001 cycles: 56957760 heartbeat IPC: 0.537993 cumulative IPC: 0.464608 (Simulation time: 0 hr 19 min 43 sec) 
Heartbeat CPU 0 instructions: 35000001 cycles: 58828044 heartbeat IPC: 0.534678 cumulative IPC: 0.467056 (Simulation time: 0 hr 20 min 23 sec) 
Heartbeat CPU 0 instructions: 36000000 cycles: 60689601 heartbeat IPC: 0.537184 cumulative IPC: 0.469413 (Simulation time: 0 hr 21 min 1 sec) 
Heartbeat CPU 0 instructions: 37000000 cycles: 62631658 heartbeat IPC: 0.514918 cumulative IPC: 0.470955 (Simulation time: 0 hr 21 min 38 sec) 
Heartbeat CPU 0 instructions: 38000000 cycles: 64524935 heartbeat IPC: 0.528185 cumulative IPC: 0.472784 (Simulation time: 0 hr 22 min 17 sec) 
Heartbeat CPU 0 instructions: 39000001 cycles: 66380908 heartbeat IPC: 0.538801 cumulative IPC: 0.47479 (Simulation time: 0 hr 22 min 56 sec) 
Heartbeat CPU 0 instructions: 40000000 cycles: 68266709 heartbeat IPC: 0.530278 cumulative IPC: 0.476452 (Simulation time: 0 hr 23 min 33 sec) 
Heartbeat CPU 0 instructions: 41000001 cycles: 70189284 heartbeat IPC: 0.520136 cumulative IPC: 0.477746 (Simulation time: 0 hr 24 min 10 sec) 
Heartbeat CPU 0 instructions: 42000001 cycles: 72174890 heartbeat IPC: 0.503625 cumulative IPC: 0.478515 (Simulation time: 0 hr 24 min 45 sec) 
Heartbeat CPU 0 instructions: 43000001 cycles: 74195847 heartbeat IPC: 0.494815 cumulative IPC: 0.478993 (Simulation time: 0 hr 25 min 19 sec) 
Heartbeat CPU 0 instructions: 44000000 cycles: 76243867 heartbeat IPC: 0.488276 cumulative IPC: 0.479261 (Simulation time: 0 hr 25 min 55 sec) 
Heartbeat CPU 0 instructions: 45000000 cycles: 78347860 heartbeat IPC: 0.475287 cumulative IPC: 0.479146 (Simulation time: 0 hr 26 min 27 sec) 
Heartbeat CPU 0 instructions: 46000002 cycles: 80255888 heartbeat IPC: 0.524102 cumulative IPC: 0.480291 (Simulation time: 0 hr 27 min 3 sec) 
Heartbeat CPU 0 instructions: 47000000 cycles: 82179817 heartbeat IPC: 0.519769 cumulative IPC: 0.481279 (Simulation time: 0 hr 27 min 40 sec) 
Heartbeat CPU 0 instructions: 48000000 cycles: 84124466 heartbeat IPC: 0.514232 cumulative IPC: 0.482092 (Simulation time: 0 hr 28 min 16 sec) 
Heartbeat CPU 0 instructions: 49000003 cycles: 86078082 heartbeat IPC: 0.511873 cumulative IPC: 0.482812 (Simulation time: 0 hr 28 min 54 sec) 
Heartbeat CPU 0 instructions: 50000001 cycles: 87989777 heartbeat IPC: 0.523095 cumulative IPC: 0.483743 (Simulation time: 0 hr 29 min 30 sec) 
Heartbeat CPU 0 instructions: 51000003 cycles: 89922977 heartbeat IPC: 0.517278 cumulative IPC: 0.484509 (Simulation time: 0 hr 30 min 8 sec) 
Heartbeat CPU 0 instructions: 52000000 cycles: 91954714 heartbeat IPC: 0.492188 cumulative IPC: 0.484689 (Simulation time: 0 hr 30 min 44 sec) 
Heartbeat CPU 0 instructions: 53000001 cycles: 93933267 heartbeat IPC: 0.50542 cumulative IPC: 0.485152 (Simulation time: 0 hr 31 min 19 sec) 
Heartbeat CPU 0 instructions: 54000003 cycles: 95847124 heartbeat IPC: 0.522506 cumulative IPC: 0.485942 (Simulation time: 0 hr 31 min 58 sec) 
Heartbeat CPU 0 instructions: 55000000 cycles: 97743565 heartbeat IPC: 0.527302 cumulative IPC: 0.48679 (Simulation time: 0 hr 32 min 34 sec) 
Heartbeat CPU 0 instructions: 56000000 cycles: 99666364 heartbeat IPC: 0.520075 cumulative IPC: 0.487468 (Simulation time: 0 hr 33 min 12 sec) 
Heartbeat CPU 0 instructions: 57000000 cycles: 101562583 heartbeat IPC: 0.527365 cumulative IPC: 0.488254 (Simulation time: 0 hr 33 min 50 sec) 
Heartbeat CPU 0 instructions: 58000001 cycles: 103508981 heartbeat IPC: 0.51377 cumulative IPC: 0.48876 (Simulation time: 0 hr 34 min 27 sec) 
Heartbeat CPU 0 instructions: 59000003 cycles: 105441223 heartbeat IPC: 0.517535 cumulative IPC: 0.489315 (Simulation time: 0 hr 35 min 5 sec) 
Heartbeat CPU 0 instructions: 60000000 cycles: 107344671 heartbeat IPC: 0.525361 cumulative IPC: 0.489988 (Simulation time: 0 hr 35 min 41 sec) 
Heartbeat CPU 0 instructions: 61000002 cycles: 109248889 heartbeat IPC: 0.525151 cumulative IPC: 0.490632 (Simulation time: 0 hr 36 min 19 sec) 
Heartbeat CPU 0 instructions: 62000001 cycles: 111154625 heartbeat IPC: 0.524731 cumulative IPC: 0.491246 (Simulation time: 0 hr 36 min 56 sec) 
Heartbeat CPU 0 instructions: 63000001 cycles: 113223847 heartbeat IPC: 0.483273 cumulative IPC: 0.491093 (Simulation time: 0 hr 37 min 29 sec) 
Heartbeat CPU 0 instructions: 64000000 cycles: 115178588 heartbeat IPC: 0.511576 cumulative IPC: 0.491457 (Simulation time: 0 hr 38 min 3 sec) 
Heartbeat CPU 0 instructions: 65000000 cycles: 117119306 heartbeat IPC: 0.515273 cumulative IPC: 0.491871 (Simulation time: 0 hr 38 min 38 sec) 
Heartbeat CPU 0 instructions: 66000000 cycles: 119077220 heartbeat IPC: 0.510748 cumulative IPC: 0.492195 (Simulation time: 0 hr 39 min 18 sec) 
Heartbeat CPU 0 instructions: 67000003 cycles: 121029541 heartbeat IPC: 0.512212 cumulative IPC: 0.492533 (Simulation time: 0 hr 39 min 54 sec) 
Heartbeat CPU 0 instructions: 68000000 cycles: 122962143 heartbeat IPC: 0.517436 cumulative IPC: 0.492942 (Simulation time: 0 hr 40 min 29 sec) 
Heartbeat CPU 0 instructions: 69000000 cycles: 124904102 heartbeat IPC: 0.514944 cumulative IPC: 0.493299 (Simulation time: 0 hr 41 min 4 sec) 
Heartbeat CPU 0 instructions: 70000000 cycles: 126861610 heartbeat IPC: 0.510854 cumulative IPC: 0.493582 (Simulation time: 0 hr 41 min 40 sec) 
Heartbeat CPU 0 instructions: 71000001 cycles: 128827191 heartbeat IPC: 0.508756 cumulative IPC: 0.493824 (Simulation time: 0 hr 42 min 14 sec) 
Heartbeat CPU 0 instructions: 72000000 cycles: 130780417 heartbeat IPC: 0.511973 cumulative IPC: 0.494106 (Simulation time: 0 hr 42 min 49 sec) 
Heartbeat CPU 0 instructions: 73000000 cycles: 132726552 heartbeat IPC: 0.513839 cumulative IPC: 0.494407 (Simulation time: 0 hr 43 min 26 sec) 
Heartbeat CPU 0 instructions: 74000000 cycles: 134665838 heartbeat IPC: 0.515654 cumulative IPC: 0.494726 (Simulation time: 0 hr 44 min 5 sec) 
Heartbeat CPU 0 instructions: 75000001 cycles: 136574821 heartbeat IPC: 0.52384 cumulative IPC: 0.495149 (Simulation time: 0 hr 44 min 40 sec) 
Heartbeat CPU 0 instructions: 76000000 cycles: 138505577 heartbeat IPC: 0.517931 cumulative IPC: 0.49548 (Simulation time: 0 hr 45 min 16 sec) 
Heartbeat CPU 0 instructions: 77000001 cycles: 140541536 heartbeat IPC: 0.49117 cumulative IPC: 0.495415 (Simulation time: 0 hr 45 min 49 sec) 
Heartbeat CPU 0 instructions: 78000000 cycles: 142513025 heartbeat IPC: 0.50723 cumulative IPC: 0.495584 (Simulation time: 0 hr 46 min 23 sec) 
Heartbeat CPU 0 instructions: 79000003 cycles: 144590693 heartbeat IPC: 0.48131 cumulative IPC: 0.495371 (Simulation time: 0 hr 46 min 58 sec) 
Heartbeat CPU 0 instructions: 80000000 cycles: 146760536 heartbeat IPC: 0.460861 cumulative IPC: 0.494842 (Simulation time: 0 hr 47 min 33 sec) 
Heartbeat CPU 0 instructions: 81000003 cycles: 148881476 heartbeat IPC: 0.47149 cumulative IPC: 0.494497 (Simulation time: 0 hr 48 min 7 sec) 
Heartbeat CPU 0 instructions: 82000000 cycles: 150931039 heartbeat IPC: 0.487907 cumulative IPC: 0.494404 (Simulation time: 0 hr 48 min 39 sec) 
Heartbeat CPU 0 instructions: 83000000 cycles: 152922601 heartbeat IPC: 0.502118 cumulative IPC: 0.494509 (Simulation time: 0 hr 49 min 12 sec) 
Heartbeat CPU 0 instructions: 84000000 cycles: 154910244 heartbeat IPC: 0.503108 cumulative IPC: 0.494623 (Simulation time: 0 hr 49 min 45 sec) 
Heartbeat CPU 0 instructions: 85000001 cycles: 156882427 heartbeat IPC: 0.507053 cumulative IPC: 0.494785 (Simulation time: 0 hr 50 min 18 sec) 
Heartbeat CPU 0 instructions: 86000002 cycles: 158841066 heartbeat IPC: 0.510559 cumulative IPC: 0.494986 (Simulation time: 0 hr 50 min 54 sec) 
Heartbeat CPU 0 instructions: 87000000 cycles: 160840340 heartbeat IPC: 0.500181 cumulative IPC: 0.495053 (Simulation time: 0 hr 51 min 26 sec) 
Heartbeat CPU 0 instructions: 88000000 cycles: 162894781 heartbeat IPC: 0.48675 cumulative IPC: 0.494944 (Simulation time: 0 hr 52 min 0 sec) 
Heartbeat CPU 0 instructions: 89000003 cycles: 164887310 heartbeat IPC: 0.501876 cumulative IPC: 0.495031 (Simulation time: 0 hr 52 min 38 sec) 
Heartbeat CPU 0 instructions: 90000000 cycles: 166865245 heartbeat IPC: 0.505576 cumulative IPC: 0.49516 (Simulation time: 0 hr 53 min 13 sec) 
Heartbeat CPU 0 instructions: 91000000 cycles: 168857940 heartbeat IPC: 0.501833 cumulative IPC: 0.495241 (Simulation time: 0 hr 53 min 45 sec) 
Heartbeat CPU 0 instructions: 92000000 cycles: 170871819 heartbeat IPC: 0.496554 cumulative IPC: 0.495257 (Simulation time: 0 hr 54 min 15 sec) 
Heartbeat CPU 0 instructions: 93000003 cycles: 172836461 heartbeat IPC: 0.509 cumulative IPC: 0.495418 (Simulation time: 0 hr 54 min 46 sec) 
Heartbeat CPU 0 instructions: 94000000 cycles: 174785458 heartbeat IPC: 0.513083 cumulative IPC: 0.495622 (Simulation time: 0 hr 55 min 19 sec) 
Heartbeat CPU 0 instructions: 95000000 cycles: 176754315 heartbeat IPC: 0.507909 cumulative IPC: 0.495763 (Simulation time: 0 hr 55 min 49 sec) 
Heartbeat CPU 0 instructions: 96000000 cycles: 178746987 heartbeat IPC: 0.501839 cumulative IPC: 0.495832 (Simulation time: 0 hr 56 min 18 sec) 
Heartbeat CPU 0 instructions: 97000000 cycles: 180745753 heartbeat IPC: 0.500309 cumulative IPC: 0.495883 (Simulation time: 0 hr 56 min 46 sec) 
Heartbeat CPU 0 instructions: 98000000 cycles: 182726254 heartbeat IPC: 0.504923 cumulative IPC: 0.495984 (Simulation time: 0 hr 57 min 12 sec) 
Heartbeat CPU 0 instructions: 99000000 cycles: 184799527 heartbeat IPC: 0.482329 cumulative IPC: 0.495827 (Simulation time: 0 hr 57 min 39 sec) 
Heartbeat CPU 0 instructions: 100000000 cycles: 186806003 heartbeat IPC: 0.498386 cumulative IPC: 0.495855 (Simulation time: 0 hr 58 min 5 sec) 
Heartbeat CPU 0 instructions: 101000000 cycles: 188853627 heartbeat IPC: 0.488371 cumulative IPC: 0.495771 (Simulation time: 0 hr 58 min 32 sec) 
Heartbeat CPU 0 instructions: 102000003 cycles: 190858323 heartbeat IPC: 0.49883 cumulative IPC: 0.495804 (Simulation time: 0 hr 58 min 58 sec) 
Heartbeat CPU 0 instructions: 103000000 cycles: 192806626 heartbeat IPC: 0.513266 cumulative IPC: 0.495986 (Simulation time: 0 hr 59 min 24 sec) 
Heartbeat CPU 0 instructions: 104000000 cycles: 194747187 heartbeat IPC: 0.515315 cumulative IPC: 0.496184 (Simulation time: 0 hr 59 min 49 sec) 
Heartbeat CPU 0 instructions: 105000002 cycles: 196684704 heartbeat IPC: 0.516126 cumulative IPC: 0.496386 (Simulation time: 1 hr 0 min 14 sec) 
Heartbeat CPU 0 instructions: 106000003 cycles: 198610121 heartbeat IPC: 0.519369 cumulative IPC: 0.496615 (Simulation time: 1 hr 0 min 38 sec) 
Heartbeat CPU 0 instructions: 107000000 cycles: 200547915 heartbeat IPC: 0.516049 cumulative IPC: 0.496808 (Simulation time: 1 hr 1 min 2 sec) 
Heartbeat CPU 0 instructions: 108000000 cycles: 202607215 heartbeat IPC: 0.485602 cumulative IPC: 0.496691 (Simulation time: 1 hr 1 min 24 sec) 
Heartbeat CPU 0 instructions: 109000003 cycles: 204644753 heartbeat IPC: 0.49079 cumulative IPC: 0.49663 (Simulation time: 1 hr 1 min 47 sec) 
Heartbeat CPU 0 instructions: 110000002 cycles: 206646797 heartbeat IPC: 0.499489 cumulative IPC: 0.496659 (Simulation time: 1 hr 2 min 9 sec) 
Finished CPU 0 instructions: 100000001 cycles: 201345512 cummulative IPC: 0.496659 (Simulation time: 1 hr 2 min 9 sec) 

ChampSim completed all CPUs

Region of Interest Statistics

CPU 0 cummulative IPC: 0.496659 instructions: 100000001 cycles: 201345512
LLC TOTAL     ACCESS:     479211  HIT:     192363  MISS:     286848
LLC LOAD      ACCESS:     108307  HIT:      50228  MISS:      58079
LLC RFO       ACCESS:      72099  HIT:      12594  MISS:      59505
LLC PREFETCH  ACCESS:     138947  HIT:      53849  MISS:      85098
LLC WRITEBACK ACCESS:     159858  HIT:      75692  MISS:      84166
Insertion Distribution: 
	LOAD 13943 0 0 0 0 0 27780 30460 
	RFO 0 0 0 0 0 0 2300 61083 
	PREF 0 7899 0 0 0 0 22558 75631 
	WRITEBACK 0 0 0 0 0 0 0 85809 
Total Prefetch Downgrades: 8349
