
*** ChampSim Multicore Out-of-Order Simulator ***

Warmup Instructions: 10000000
Simulation Instructions: 100000000
Configuration: 2
Number of CPUs: 1
LLC sets: 2048
LLC ways: 16
Off-chip DRAM Channels: 1 Width: 64-bit Data Rate: 1600 MT/s

CPU 0 runs /datasets/cs240c-wi22-a00-public/data/Assignment2-gz/zeusmp_300B.trace.gz
CPU 0 L1D next line prefetcher
CPU 0 L2C IP-based stride prefetcher
Initialize SRRIP state
Heartbeat CPU 0 instructions: 1000003 cycles: 509580 heartbeat IPC: 1.96241 cumulative IPC: 1.96241 (Simulation time: 0 hr 0 min 32 sec) 
Heartbeat CPU 0 instructions: 2000003 cycles: 1062148 heartbeat IPC: 1.80973 cumulative IPC: 1.88298 (Simulation time: 0 hr 1 min 0 sec) 
Heartbeat CPU 0 instructions: 3000002 cycles: 1606421 heartbeat IPC: 1.83731 cumulative IPC: 1.86751 (Simulation time: 0 hr 1 min 28 sec) 
Heartbeat CPU 0 instructions: 4000000 cycles: 2093210 heartbeat IPC: 2.05427 cumulative IPC: 1.91094 (Simulation time: 0 hr 1 min 54 sec) 
Heartbeat CPU 0 instructions: 5000001 cycles: 2575892 heartbeat IPC: 2.07176 cumulative IPC: 1.94108 (Simulation time: 0 hr 2 min 23 sec) 
Heartbeat CPU 0 instructions: 6000000 cycles: 3062581 heartbeat IPC: 2.0547 cumulative IPC: 1.95913 (Simulation time: 0 hr 2 min 51 sec) 
Heartbeat CPU 0 instructions: 7000001 cycles: 3590722 heartbeat IPC: 1.89344 cumulative IPC: 1.94947 (Simulation time: 0 hr 3 min 20 sec) 
Heartbeat CPU 0 instructions: 8000000 cycles: 4144747 heartbeat IPC: 1.80497 cumulative IPC: 1.93015 (Simulation time: 0 hr 3 min 46 sec) 
Heartbeat CPU 0 instructions: 9000000 cycles: 4672649 heartbeat IPC: 1.89429 cumulative IPC: 1.9261 (Simulation time: 0 hr 4 min 16 sec) 
Heartbeat CPU 0 instructions: 10000002 cycles: 5158943 heartbeat IPC: 2.05637 cumulative IPC: 1.93838 (Simulation time: 0 hr 4 min 47 sec) 

Warmup complete CPU 0 instructions: 10000002 cycles: 5158943 (Simulation time: 0 hr 4 min 47 sec) 

Heartbeat CPU 0 instructions: 11000003 cycles: 5846520 heartbeat IPC: 1.45438 cumulative IPC: 1.45438 (Simulation time: 0 hr 5 min 17 sec) 
Heartbeat CPU 0 instructions: 12000000 cycles: 6527765 heartbeat IPC: 1.4679 cumulative IPC: 1.46111 (Simulation time: 0 hr 5 min 47 sec) 
Heartbeat CPU 0 instructions: 13000000 cycles: 7326581 heartbeat IPC: 1.25185 cumulative IPC: 1.38399 (Simulation time: 0 hr 6 min 18 sec) 
Heartbeat CPU 0 instructions: 14000000 cycles: 8140182 heartbeat IPC: 1.2291 cumulative IPC: 1.34172 (Simulation time: 0 hr 6 min 49 sec) 
Heartbeat CPU 0 instructions: 15000002 cycles: 8868343 heartbeat IPC: 1.37333 cumulative IPC: 1.34793 (Simulation time: 0 hr 7 min 21 sec) 
Heartbeat CPU 0 instructions: 16000000 cycles: 9552597 heartbeat IPC: 1.46144 cumulative IPC: 1.36561 (Simulation time: 0 hr 7 min 53 sec) 
Heartbeat CPU 0 instructions: 17000003 cycles: 10240610 heartbeat IPC: 1.45347 cumulative IPC: 1.3775 (Simulation time: 0 hr 8 min 29 sec) 
Heartbeat CPU 0 instructions: 18000000 cycles: 10938079 heartbeat IPC: 1.43375 cumulative IPC: 1.38429 (Simulation time: 0 hr 9 min 2 sec) 
Heartbeat CPU 0 instructions: 19000003 cycles: 11756040 heartbeat IPC: 1.22256 cumulative IPC: 1.36424 (Simulation time: 0 hr 9 min 33 sec) 
Heartbeat CPU 0 instructions: 20000000 cycles: 12568227 heartbeat IPC: 1.23124 cumulative IPC: 1.34966 (Simulation time: 0 hr 10 min 2 sec) 
Heartbeat CPU 0 instructions: 21000001 cycles: 13268170 heartbeat IPC: 1.42869 cumulative IPC: 1.35648 (Simulation time: 0 hr 10 min 37 sec) 
Heartbeat CPU 0 instructions: 22000000 cycles: 13958167 heartbeat IPC: 1.44928 cumulative IPC: 1.36376 (Simulation time: 0 hr 11 min 8 sec) 
Heartbeat CPU 0 instructions: 23000001 cycles: 14651049 heartbeat IPC: 1.44325 cumulative IPC: 1.36956 (Simulation time: 0 hr 11 min 41 sec) 
Heartbeat CPU 0 instructions: 24000000 cycles: 15383324 heartbeat IPC: 1.36561 cumulative IPC: 1.36928 (Simulation time: 0 hr 12 min 12 sec) 
Heartbeat CPU 0 instructions: 25000000 cycles: 16197415 heartbeat IPC: 1.22836 cumulative IPC: 1.35888 (Simulation time: 0 hr 12 min 41 sec) 
Heartbeat CPU 0 instructions: 26000000 cycles: 16999123 heartbeat IPC: 1.24734 cumulative IPC: 1.35133 (Simulation time: 0 hr 13 min 10 sec) 
Heartbeat CPU 0 instructions: 27000002 cycles: 17685819 heartbeat IPC: 1.45625 cumulative IPC: 1.35708 (Simulation time: 0 hr 13 min 40 sec) 
Heartbeat CPU 0 instructions: 28000000 cycles: 18375732 heartbeat IPC: 1.44946 cumulative IPC: 1.3619 (Simulation time: 0 hr 14 min 8 sec) 
Heartbeat CPU 0 instructions: 29000003 cycles: 19067471 heartbeat IPC: 1.44564 cumulative IPC: 1.36607 (Simulation time: 0 hr 14 min 36 sec) 
Heartbeat CPU 0 instructions: 30000002 cycles: 19830286 heartbeat IPC: 1.31093 cumulative IPC: 1.3632 (Simulation time: 0 hr 15 min 5 sec) 
Heartbeat CPU 0 instructions: 31000001 cycles: 20647566 heartbeat IPC: 1.22357 cumulative IPC: 1.35583 (Simulation time: 0 hr 15 min 35 sec) 
Heartbeat CPU 0 instructions: 32000000 cycles: 21416328 heartbeat IPC: 1.30079 cumulative IPC: 1.35323 (Simulation time: 0 hr 16 min 4 sec) 
Heartbeat CPU 0 instructions: 33000000 cycles: 22100623 heartbeat IPC: 1.46136 cumulative IPC: 1.3576 (Simulation time: 0 hr 16 min 31 sec) 
Heartbeat CPU 0 instructions: 34000000 cycles: 22795294 heartbeat IPC: 1.43953 cumulative IPC: 1.36083 (Simulation time: 0 hr 17 min 0 sec) 
Heartbeat CPU 0 instructions: 35000002 cycles: 23482227 heartbeat IPC: 1.45575 cumulative IPC: 1.36438 (Simulation time: 0 hr 17 min 30 sec) 
Heartbeat CPU 0 instructions: 36000000 cycles: 24269451 heartbeat IPC: 1.27028 cumulative IPC: 1.36051 (Simulation time: 0 hr 17 min 57 sec) 
Heartbeat CPU 0 instructions: 37000003 cycles: 25084178 heartbeat IPC: 1.22741 cumulative IPC: 1.35507 (Simulation time: 0 hr 18 min 28 sec) 
Heartbeat CPU 0 instructions: 38000001 cycles: 25826419 heartbeat IPC: 1.34727 cumulative IPC: 1.35479 (Simulation time: 0 hr 18 min 56 sec) 
Heartbeat CPU 0 instructions: 39000002 cycles: 26511345 heartbeat IPC: 1.46001 cumulative IPC: 1.35816 (Simulation time: 0 hr 19 min 25 sec) 
Heartbeat CPU 0 instructions: 40000000 cycles: 27207595 heartbeat IPC: 1.43626 cumulative IPC: 1.36063 (Simulation time: 0 hr 19 min 55 sec) 
Heartbeat CPU 0 instructions: 41000001 cycles: 27893298 heartbeat IPC: 1.45836 cumulative IPC: 1.36357 (Simulation time: 0 hr 20 min 22 sec) 
Heartbeat CPU 0 instructions: 42000001 cycles: 28715246 heartbeat IPC: 1.21662 cumulative IPC: 1.35845 (Simulation time: 0 hr 20 min 52 sec) 
Heartbeat CPU 0 instructions: 43000000 cycles: 29526452 heartbeat IPC: 1.23273 cumulative IPC: 1.35426 (Simulation time: 0 hr 21 min 20 sec) 
Heartbeat CPU 0 instructions: 44000000 cycles: 30238267 heartbeat IPC: 1.40486 cumulative IPC: 1.3557 (Simulation time: 0 hr 21 min 53 sec) 
Heartbeat CPU 0 instructions: 45000002 cycles: 30927353 heartbeat IPC: 1.4512 cumulative IPC: 1.35825 (Simulation time: 0 hr 22 min 22 sec) 
Heartbeat CPU 0 instructions: 46000002 cycles: 31618382 heartbeat IPC: 1.44712 cumulative IPC: 1.36057 (Simulation time: 0 hr 22 min 48 sec) 
Heartbeat CPU 0 instructions: 47000001 cycles: 32338759 heartbeat IPC: 1.38816 cumulative IPC: 1.3613 (Simulation time: 0 hr 23 min 17 sec) 
Heartbeat CPU 0 instructions: 48000000 cycles: 33151647 heartbeat IPC: 1.23018 cumulative IPC: 1.3575 (Simulation time: 0 hr 23 min 46 sec) 
Heartbeat CPU 0 instructions: 49000003 cycles: 33958291 heartbeat IPC: 1.23971 cumulative IPC: 1.3542 (Simulation time: 0 hr 24 min 14 sec) 
Heartbeat CPU 0 instructions: 50000001 cycles: 34645661 heartbeat IPC: 1.45482 cumulative IPC: 1.35654 (Simulation time: 0 hr 24 min 41 sec) 
Heartbeat CPU 0 instructions: 51000002 cycles: 35333867 heartbeat IPC: 1.45305 cumulative IPC: 1.35874 (Simulation time: 0 hr 25 min 11 sec) 
Heartbeat CPU 0 instructions: 52000000 cycles: 36024007 heartbeat IPC: 1.44898 cumulative IPC: 1.36076 (Simulation time: 0 hr 25 min 39 sec) 
Heartbeat CPU 0 instructions: 53000000 cycles: 36773240 heartbeat IPC: 1.3347 cumulative IPC: 1.36014 (Simulation time: 0 hr 26 min 6 sec) 
Heartbeat CPU 0 instructions: 54000002 cycles: 37585579 heartbeat IPC: 1.23102 cumulative IPC: 1.35691 (Simulation time: 0 hr 26 min 35 sec) 
Heartbeat CPU 0 instructions: 55000001 cycles: 38363445 heartbeat IPC: 1.28557 cumulative IPC: 1.35524 (Simulation time: 0 hr 27 min 4 sec) 
Heartbeat CPU 0 instructions: 56000000 cycles: 39050303 heartbeat IPC: 1.4559 cumulative IPC: 1.35728 (Simulation time: 0 hr 27 min 30 sec) 
Heartbeat CPU 0 instructions: 57000000 cycles: 39739327 heartbeat IPC: 1.45133 cumulative IPC: 1.35915 (Simulation time: 0 hr 28 min 2 sec) 
Heartbeat CPU 0 instructions: 58000000 cycles: 40428974 heartbeat IPC: 1.45002 cumulative IPC: 1.36093 (Simulation time: 0 hr 28 min 32 sec) 
Heartbeat CPU 0 instructions: 59000003 cycles: 41202927 heartbeat IPC: 1.29207 cumulative IPC: 1.35945 (Simulation time: 0 hr 29 min 2 sec) 
Heartbeat CPU 0 instructions: 60000000 cycles: 42015226 heartbeat IPC: 1.23107 cumulative IPC: 1.35662 (Simulation time: 0 hr 29 min 32 sec) 
Heartbeat CPU 0 instructions: 61000000 cycles: 42766054 heartbeat IPC: 1.33186 cumulative IPC: 1.35613 (Simulation time: 0 hr 30 min 0 sec) 
Heartbeat CPU 0 instructions: 62000002 cycles: 43454036 heartbeat IPC: 1.45353 cumulative IPC: 1.35788 (Simulation time: 0 hr 30 min 28 sec) 
Heartbeat CPU 0 instructions: 63000003 cycles: 44144191 heartbeat IPC: 1.44895 cumulative IPC: 1.35949 (Simulation time: 0 hr 30 min 58 sec) 
Heartbeat CPU 0 instructions: 64000000 cycles: 44830108 heartbeat IPC: 1.4579 cumulative IPC: 1.36119 (Simulation time: 0 hr 31 min 31 sec) 
Heartbeat CPU 0 instructions: 65000003 cycles: 45638541 heartbeat IPC: 1.23696 cumulative IPC: 1.35871 (Simulation time: 0 hr 31 min 59 sec) 
Heartbeat CPU 0 instructions: 66000003 cycles: 46451286 heartbeat IPC: 1.2304 cumulative IPC: 1.35618 (Simulation time: 0 hr 32 min 25 sec) 
Heartbeat CPU 0 instructions: 67000002 cycles: 47172199 heartbeat IPC: 1.38713 cumulative IPC: 1.35671 (Simulation time: 0 hr 32 min 53 sec) 
Heartbeat CPU 0 instructions: 68000000 cycles: 47861101 heartbeat IPC: 1.45158 cumulative IPC: 1.35825 (Simulation time: 0 hr 33 min 19 sec) 
Heartbeat CPU 0 instructions: 69000000 cycles: 48550870 heartbeat IPC: 1.44976 cumulative IPC: 1.3597 (Simulation time: 0 hr 33 min 47 sec) 
Heartbeat CPU 0 instructions: 70000001 cycles: 49261167 heartbeat IPC: 1.40786 cumulative IPC: 1.36048 (Simulation time: 0 hr 34 min 16 sec) 
Heartbeat CPU 0 instructions: 71000001 cycles: 50070897 heartbeat IPC: 1.23498 cumulative IPC: 1.35821 (Simulation time: 0 hr 34 min 48 sec) 
Heartbeat CPU 0 instructions: 72000000 cycles: 50881842 heartbeat IPC: 1.23313 cumulative IPC: 1.35599 (Simulation time: 0 hr 35 min 17 sec) 
Heartbeat CPU 0 instructions: 73000003 cycles: 51577210 heartbeat IPC: 1.43809 cumulative IPC: 1.35722 (Simulation time: 0 hr 35 min 44 sec) 
Heartbeat CPU 0 instructions: 74000001 cycles: 52266309 heartbeat IPC: 1.45117 cumulative IPC: 1.3586 (Simulation time: 0 hr 36 min 12 sec) 
Heartbeat CPU 0 instructions: 75000003 cycles: 52955900 heartbeat IPC: 1.45014 cumulative IPC: 1.35992 (Simulation time: 0 hr 36 min 39 sec) 
Heartbeat CPU 0 instructions: 76000000 cycles: 53696559 heartbeat IPC: 1.35014 cumulative IPC: 1.35977 (Simulation time: 0 hr 37 min 8 sec) 
Heartbeat CPU 0 instructions: 77000001 cycles: 54508341 heartbeat IPC: 1.23186 cumulative IPC: 1.35767 (Simulation time: 0 hr 37 min 38 sec) 
Heartbeat CPU 0 instructions: 78000003 cycles: 55294478 heartbeat IPC: 1.27205 cumulative IPC: 1.35632 (Simulation time: 0 hr 38 min 11 sec) 
Heartbeat CPU 0 instructions: 79000001 cycles: 55982700 heartbeat IPC: 1.45302 cumulative IPC: 1.35763 (Simulation time: 0 hr 38 min 40 sec) 
Heartbeat CPU 0 instructions: 80000000 cycles: 56671141 heartbeat IPC: 1.45256 cumulative IPC: 1.3589 (Simulation time: 0 hr 39 min 7 sec) 
Heartbeat CPU 0 instructions: 81000000 cycles: 57360344 heartbeat IPC: 1.45095 cumulative IPC: 1.36012 (Simulation time: 0 hr 39 min 35 sec) 
Heartbeat CPU 0 instructions: 82000002 cycles: 58128245 heartbeat IPC: 1.30225 cumulative IPC: 1.35928 (Simulation time: 0 hr 40 min 1 sec) 
Heartbeat CPU 0 instructions: 83000001 cycles: 58939921 heartbeat IPC: 1.23202 cumulative IPC: 1.35736 (Simulation time: 0 hr 40 min 29 sec) 
Heartbeat CPU 0 instructions: 84000000 cycles: 59702296 heartbeat IPC: 1.31169 cumulative IPC: 1.35672 (Simulation time: 0 hr 40 min 57 sec) 
Heartbeat CPU 0 instructions: 85000001 cycles: 60402030 heartbeat IPC: 1.42912 cumulative IPC: 1.35764 (Simulation time: 0 hr 41 min 25 sec) 
Heartbeat CPU 0 instructions: 86000002 cycles: 61105340 heartbeat IPC: 1.42185 cumulative IPC: 1.35844 (Simulation time: 0 hr 41 min 52 sec) 
Heartbeat CPU 0 instructions: 87000000 cycles: 61808590 heartbeat IPC: 1.42197 cumulative IPC: 1.35923 (Simulation time: 0 hr 42 min 19 sec) 
Heartbeat CPU 0 instructions: 88000000 cycles: 62612300 heartbeat IPC: 1.24423 cumulative IPC: 1.35762 (Simulation time: 0 hr 42 min 47 sec) 
Heartbeat CPU 0 instructions: 89000000 cycles: 63425104 heartbeat IPC: 1.23031 cumulative IPC: 1.35585 (Simulation time: 0 hr 43 min 17 sec) 
Heartbeat CPU 0 instructions: 90000002 cycles: 64154875 heartbeat IPC: 1.3703 cumulative IPC: 1.35603 (Simulation time: 0 hr 43 min 46 sec) 
Heartbeat CPU 0 instructions: 91000002 cycles: 64838391 heartbeat IPC: 1.46302 cumulative IPC: 1.35725 (Simulation time: 0 hr 44 min 14 sec) 
Heartbeat CPU 0 instructions: 92000000 cycles: 65529300 heartbeat IPC: 1.44737 cumulative IPC: 1.35828 (Simulation time: 0 hr 44 min 42 sec) 
Heartbeat CPU 0 instructions: 93000001 cycles: 66218307 heartbeat IPC: 1.45137 cumulative IPC: 1.35933 (Simulation time: 0 hr 45 min 10 sec) 
Heartbeat CPU 0 instructions: 94000000 cycles: 67042710 heartbeat IPC: 1.213 cumulative IPC: 1.35738 (Simulation time: 0 hr 45 min 37 sec) 
Heartbeat CPU 0 instructions: 95000003 cycles: 67854989 heartbeat IPC: 1.23111 cumulative IPC: 1.35575 (Simulation time: 0 hr 46 min 8 sec) 
Heartbeat CPU 0 instructions: 96000000 cycles: 68559537 heartbeat IPC: 1.41935 cumulative IPC: 1.35645 (Simulation time: 0 hr 46 min 37 sec) 
Heartbeat CPU 0 instructions: 97000001 cycles: 69250627 heartbeat IPC: 1.44699 cumulative IPC: 1.35743 (Simulation time: 0 hr 47 min 6 sec) 
Heartbeat CPU 0 instructions: 98000000 cycles: 69947055 heartbeat IPC: 1.4359 cumulative IPC: 1.35827 (Simulation time: 0 hr 47 min 36 sec) 
Heartbeat CPU 0 instructions: 99000001 cycles: 70679249 heartbeat IPC: 1.36576 cumulative IPC: 1.35836 (Simulation time: 0 hr 48 min 7 sec) 
Heartbeat CPU 0 instructions: 100000000 cycles: 71491336 heartbeat IPC: 1.23139 cumulative IPC: 1.3568 (Simulation time: 0 hr 48 min 37 sec) 
Heartbeat CPU 0 instructions: 101000001 cycles: 72292766 heartbeat IPC: 1.24777 cumulative IPC: 1.3555 (Simulation time: 0 hr 49 min 6 sec) 
Heartbeat CPU 0 instructions: 102000003 cycles: 72976568 heartbeat IPC: 1.46241 cumulative IPC: 1.35658 (Simulation time: 0 hr 49 min 35 sec) 
Heartbeat CPU 0 instructions: 103000003 cycles: 73664098 heartbeat IPC: 1.45448 cumulative IPC: 1.35756 (Simulation time: 0 hr 50 min 4 sec) 
Heartbeat CPU 0 instructions: 104000000 cycles: 74352427 heartbeat IPC: 1.45279 cumulative IPC: 1.35851 (Simulation time: 0 hr 50 min 33 sec) 
Heartbeat CPU 0 instructions: 105000001 cycles: 75114545 heartbeat IPC: 1.31213 cumulative IPC: 1.358 (Simulation time: 0 hr 51 min 0 sec) 
Heartbeat CPU 0 instructions: 106000002 cycles: 75922677 heartbeat IPC: 1.23742 cumulative IPC: 1.35663 (Simulation time: 0 hr 51 min 28 sec) 
Heartbeat CPU 0 instructions: 107000003 cycles: 76695647 heartbeat IPC: 1.29371 cumulative IPC: 1.35595 (Simulation time: 0 hr 51 min 58 sec) 
Heartbeat CPU 0 instructions: 108000000 cycles: 77382908 heartbeat IPC: 1.45505 cumulative IPC: 1.35689 (Simulation time: 0 hr 52 min 25 sec) 
Heartbeat CPU 0 instructions: 109000001 cycles: 78072811 heartbeat IPC: 1.44948 cumulative IPC: 1.35777 (Simulation time: 0 hr 52 min 51 sec) 
Heartbeat CPU 0 instructions: 110000000 cycles: 78760860 heartbeat IPC: 1.45338 cumulative IPC: 1.35866 (Simulation time: 0 hr 53 min 18 sec) 
Finished CPU 0 instructions: 100000002 cycles: 73601918 cummulative IPC: 1.35866 (Simulation time: 0 hr 53 min 18 sec) 

ChampSim completed all CPUs

Region of Interest Statistics

CPU 0 cummulative IPC: 1.35866 instructions: 100000002 cycles: 73601918
LLC TOTAL     ACCESS:     632010  HIT:     292147  MISS:     339863
LLC LOAD      ACCESS:      37147  HIT:      23130  MISS:      14017
LLC RFO       ACCESS:     152072  HIT:      75861  MISS:      76211
LLC PREFETCH  ACCESS:     286979  HIT:      94071  MISS:     192908
LLC WRITEBACK ACCESS:     155812  HIT:      99085  MISS:      56727
Insertion Distribution: 
	LOAD 2920 0 0 0 0 0 3892 8804 
	RFO 81 0 0 0 0 0 8903 77481 
	PREF 0 21649 0 0 0 0 42206 151464 
	WRITEBACK 0 0 0 0 0 0 0 58468 
Total Prefetch Downgrades: 22008
