
*** ChampSim Multicore Out-of-Order Simulator ***

Warmup Instructions: 10000000
Simulation Instructions: 100000000
Configuration: 2
Number of CPUs: 1
LLC sets: 2048
LLC ways: 16
Off-chip DRAM Channels: 1 Width: 64-bit Data Rate: 1600 MT/s

CPU 0 runs /datasets/cs240c-wi22-a00-public/data/Assignment2-gz/lbm_1004B.trace.gz
CPU 0 L1D next line prefetcher
CPU 0 L2C IP-based stride prefetcher
Initialize SRRIP state
Heartbeat CPU 0 instructions: 1000002 cycles: 391414 heartbeat IPC: 2.55484 cumulative IPC: 2.55484 (Simulation time: 0 hr 0 min 29 sec) 
Heartbeat CPU 0 instructions: 2000001 cycles: 782838 heartbeat IPC: 2.55477 cumulative IPC: 2.55481 (Simulation time: 0 hr 0 min 59 sec) 
Heartbeat CPU 0 instructions: 3000001 cycles: 1174187 heartbeat IPC: 2.55526 cumulative IPC: 2.55496 (Simulation time: 0 hr 1 min 31 sec) 
Heartbeat CPU 0 instructions: 4000000 cycles: 1570372 heartbeat IPC: 2.52407 cumulative IPC: 2.54717 (Simulation time: 0 hr 2 min 1 sec) 
Heartbeat CPU 0 instructions: 5000002 cycles: 1961791 heartbeat IPC: 2.55481 cumulative IPC: 2.54869 (Simulation time: 0 hr 2 min 31 sec) 
Heartbeat CPU 0 instructions: 6000002 cycles: 2353159 heartbeat IPC: 2.55514 cumulative IPC: 2.54976 (Simulation time: 0 hr 3 min 1 sec) 
Heartbeat CPU 0 instructions: 7000003 cycles: 2749267 heartbeat IPC: 2.52457 cumulative IPC: 2.54613 (Simulation time: 0 hr 3 min 30 sec) 
Heartbeat CPU 0 instructions: 8000000 cycles: 3140617 heartbeat IPC: 2.55525 cumulative IPC: 2.54727 (Simulation time: 0 hr 4 min 3 sec) 
Heartbeat CPU 0 instructions: 9000003 cycles: 3532059 heartbeat IPC: 2.55466 cumulative IPC: 2.54809 (Simulation time: 0 hr 4 min 33 sec) 
Heartbeat CPU 0 instructions: 10000000 cycles: 3923432 heartbeat IPC: 2.5551 cumulative IPC: 2.54879 (Simulation time: 0 hr 5 min 3 sec) 

Warmup complete CPU 0 instructions: 10000004 cycles: 3923433 (Simulation time: 0 hr 5 min 3 sec) 

Heartbeat CPU 0 instructions: 11000002 cycles: 5451382 heartbeat IPC: 0.654473 cumulative IPC: 0.654471 (Simulation time: 0 hr 5 min 40 sec) 
Heartbeat CPU 0 instructions: 12000000 cycles: 6847219 heartbeat IPC: 0.716415 cumulative IPC: 0.684043 (Simulation time: 0 hr 6 min 14 sec) 
Heartbeat CPU 0 instructions: 13000002 cycles: 8365004 heartbeat IPC: 0.658856 cumulative IPC: 0.675436 (Simulation time: 0 hr 6 min 52 sec) 
Heartbeat CPU 0 instructions: 14000003 cycles: 9906706 heartbeat IPC: 0.648634 cumulative IPC: 0.66853 (Simulation time: 0 hr 7 min 30 sec) 
Heartbeat CPU 0 instructions: 15000003 cycles: 11348889 heartbeat IPC: 0.693393 cumulative IPC: 0.673359 (Simulation time: 0 hr 8 min 3 sec) 
Heartbeat CPU 0 instructions: 16000000 cycles: 12844165 heartbeat IPC: 0.668771 cumulative IPC: 0.67259 (Simulation time: 0 hr 8 min 43 sec) 
Heartbeat CPU 0 instructions: 17000000 cycles: 14414281 heartbeat IPC: 0.636896 cumulative IPC: 0.667248 (Simulation time: 0 hr 9 min 23 sec) 
Heartbeat CPU 0 instructions: 18000002 cycles: 15877545 heartbeat IPC: 0.683405 cumulative IPC: 0.669226 (Simulation time: 0 hr 10 min 0 sec) 
Heartbeat CPU 0 instructions: 19000002 cycles: 17387647 heartbeat IPC: 0.662207 cumulative IPC: 0.668438 (Simulation time: 0 hr 10 min 35 sec) 
Heartbeat CPU 0 instructions: 20000000 cycles: 18884328 heartbeat IPC: 0.668144 cumulative IPC: 0.668409 (Simulation time: 0 hr 11 min 10 sec) 
Heartbeat CPU 0 instructions: 21000003 cycles: 20432582 heartbeat IPC: 0.645891 cumulative IPC: 0.666297 (Simulation time: 0 hr 11 min 45 sec) 
Heartbeat CPU 0 instructions: 22000002 cycles: 21920662 heartbeat IPC: 0.672006 cumulative IPC: 0.666769 (Simulation time: 0 hr 12 min 23 sec) 
Heartbeat CPU 0 instructions: 23000001 cycles: 23404920 heartbeat IPC: 0.673737 cumulative IPC: 0.6673 (Simulation time: 0 hr 13 min 0 sec) 
Heartbeat CPU 0 instructions: 24000000 cycles: 24949453 heartbeat IPC: 0.647444 cumulative IPC: 0.665841 (Simulation time: 0 hr 13 min 34 sec) 
Heartbeat CPU 0 instructions: 25000003 cycles: 26414676 heartbeat IPC: 0.682492 cumulative IPC: 0.666926 (Simulation time: 0 hr 14 min 19 sec) 
Heartbeat CPU 0 instructions: 26000002 cycles: 27868993 heartbeat IPC: 0.687607 cumulative IPC: 0.668182 (Simulation time: 0 hr 14 min 57 sec) 
Heartbeat CPU 0 instructions: 27000001 cycles: 29366748 heartbeat IPC: 0.667665 cumulative IPC: 0.668152 (Simulation time: 0 hr 15 min 36 sec) 
Heartbeat CPU 0 instructions: 28000000 cycles: 30887633 heartbeat IPC: 0.657511 cumulative IPC: 0.667552 (Simulation time: 0 hr 16 min 15 sec) 
Heartbeat CPU 0 instructions: 29000002 cycles: 32293444 heartbeat IPC: 0.711335 cumulative IPC: 0.669721 (Simulation time: 0 hr 16 min 51 sec) 
Heartbeat CPU 0 instructions: 30000003 cycles: 33759388 heartbeat IPC: 0.682155 cumulative IPC: 0.670332 (Simulation time: 0 hr 17 min 25 sec) 
Heartbeat CPU 0 instructions: 31000001 cycles: 35312945 heartbeat IPC: 0.643683 cumulative IPC: 0.669013 (Simulation time: 0 hr 18 min 1 sec) 
Heartbeat CPU 0 instructions: 32000000 cycles: 36786433 heartbeat IPC: 0.678661 cumulative IPC: 0.669446 (Simulation time: 0 hr 18 min 36 sec) 
Heartbeat CPU 0 instructions: 33000000 cycles: 38233828 heartbeat IPC: 0.690896 cumulative IPC: 0.670351 (Simulation time: 0 hr 19 min 8 sec) 
Heartbeat CPU 0 instructions: 34000002 cycles: 39804992 heartbeat IPC: 0.636472 cumulative IPC: 0.668867 (Simulation time: 0 hr 19 min 42 sec) 
Heartbeat CPU 0 instructions: 35000001 cycles: 41290365 heartbeat IPC: 0.673231 cumulative IPC: 0.669041 (Simulation time: 0 hr 20 min 17 sec) 
Heartbeat CPU 0 instructions: 36000000 cycles: 42758699 heartbeat IPC: 0.681043 cumulative IPC: 0.669494 (Simulation time: 0 hr 20 min 51 sec) 
Heartbeat CPU 0 instructions: 37000002 cycles: 44226367 heartbeat IPC: 0.681354 cumulative IPC: 0.669926 (Simulation time: 0 hr 21 min 28 sec) 
Heartbeat CPU 0 instructions: 38000000 cycles: 45772981 heartbeat IPC: 0.646572 cumulative IPC: 0.669063 (Simulation time: 0 hr 22 min 7 sec) 
Heartbeat CPU 0 instructions: 39000003 cycles: 47304161 heartbeat IPC: 0.653093 cumulative IPC: 0.6685 (Simulation time: 0 hr 22 min 53 sec) 
Heartbeat CPU 0 instructions: 40000000 cycles: 48759300 heartbeat IPC: 0.687218 cumulative IPC: 0.669107 (Simulation time: 0 hr 23 min 46 sec) 
Heartbeat CPU 0 instructions: 41000002 cycles: 50309627 heartbeat IPC: 0.645027 cumulative IPC: 0.668302 (Simulation time: 0 hr 24 min 48 sec) 
Heartbeat CPU 0 instructions: 42000000 cycles: 51800936 heartbeat IPC: 0.670551 cumulative IPC: 0.668372 (Simulation time: 0 hr 25 min 44 sec) 
Heartbeat CPU 0 instructions: 43000002 cycles: 53300566 heartbeat IPC: 0.666833 cumulative IPC: 0.668326 (Simulation time: 0 hr 26 min 40 sec) 
Heartbeat CPU 0 instructions: 44000000 cycles: 54884153 heartbeat IPC: 0.631477 cumulative IPC: 0.66718 (Simulation time: 0 hr 27 min 40 sec) 
Heartbeat CPU 0 instructions: 45000000 cycles: 56368688 heartbeat IPC: 0.673612 cumulative IPC: 0.667363 (Simulation time: 0 hr 28 min 37 sec) 
Heartbeat CPU 0 instructions: 46000003 cycles: 57873355 heartbeat IPC: 0.664601 cumulative IPC: 0.667285 (Simulation time: 0 hr 29 min 34 sec) 
Heartbeat CPU 0 instructions: 47000002 cycles: 59357536 heartbeat IPC: 0.673772 cumulative IPC: 0.667459 (Simulation time: 0 hr 30 min 29 sec) 
Heartbeat CPU 0 instructions: 48000000 cycles: 60914254 heartbeat IPC: 0.642376 cumulative IPC: 0.666774 (Simulation time: 0 hr 31 min 28 sec) 
Heartbeat CPU 0 instructions: 49000000 cycles: 62369778 heartbeat IPC: 0.687038 cumulative IPC: 0.667279 (Simulation time: 0 hr 32 min 26 sec) 
Heartbeat CPU 0 instructions: 50000003 cycles: 63858588 heartbeat IPC: 0.671679 cumulative IPC: 0.667388 (Simulation time: 0 hr 33 min 22 sec) 
Heartbeat CPU 0 instructions: 51000001 cycles: 65407038 heartbeat IPC: 0.645806 cumulative IPC: 0.666844 (Simulation time: 0 hr 34 min 18 sec) 
Heartbeat CPU 0 instructions: 52000000 cycles: 66912552 heartbeat IPC: 0.664224 cumulative IPC: 0.666782 (Simulation time: 0 hr 35 min 16 sec) 
Heartbeat CPU 0 instructions: 53000002 cycles: 68385338 heartbeat IPC: 0.678987 cumulative IPC: 0.667061 (Simulation time: 0 hr 36 min 11 sec) 
Heartbeat CPU 0 instructions: 54000002 cycles: 69882881 heartbeat IPC: 0.66776 cumulative IPC: 0.667077 (Simulation time: 0 hr 37 min 6 sec) 
Heartbeat CPU 0 instructions: 55000001 cycles: 71409537 heartbeat IPC: 0.655026 cumulative IPC: 0.666804 (Simulation time: 0 hr 38 min 5 sec) 
Heartbeat CPU 0 instructions: 56000000 cycles: 72918992 heartbeat IPC: 0.66249 cumulative IPC: 0.66671 (Simulation time: 0 hr 39 min 4 sec) 
Heartbeat CPU 0 instructions: 57000003 cycles: 74391455 heartbeat IPC: 0.679136 cumulative IPC: 0.666969 (Simulation time: 0 hr 39 min 54 sec) 
Heartbeat CPU 0 instructions: 58000003 cycles: 75936126 heartbeat IPC: 0.647387 cumulative IPC: 0.666549 (Simulation time: 0 hr 40 min 48 sec) 
Heartbeat CPU 0 instructions: 59000002 cycles: 77467844 heartbeat IPC: 0.652861 cumulative IPC: 0.666264 (Simulation time: 0 hr 41 min 44 sec) 
Heartbeat CPU 0 instructions: 60000000 cycles: 78979840 heartbeat IPC: 0.661376 cumulative IPC: 0.666166 (Simulation time: 0 hr 42 min 42 sec) 
Heartbeat CPU 0 instructions: 61000003 cycles: 80517827 heartbeat IPC: 0.650203 cumulative IPC: 0.665845 (Simulation time: 0 hr 43 min 29 sec) 
Heartbeat CPU 0 instructions: 62000001 cycles: 81975909 heartbeat IPC: 0.685831 cumulative IPC: 0.666218 (Simulation time: 0 hr 44 min 22 sec) 
Heartbeat CPU 0 instructions: 63000001 cycles: 83460206 heartbeat IPC: 0.67372 cumulative IPC: 0.666358 (Simulation time: 0 hr 45 min 14 sec) 
Heartbeat CPU 0 instructions: 64000000 cycles: 84911167 heartbeat IPC: 0.689198 cumulative IPC: 0.666768 (Simulation time: 0 hr 46 min 10 sec) 
Heartbeat CPU 0 instructions: 65000000 cycles: 86422484 heartbeat IPC: 0.661675 cumulative IPC: 0.666674 (Simulation time: 0 hr 47 min 14 sec) 
Heartbeat CPU 0 instructions: 66000000 cycles: 87904667 heartbeat IPC: 0.674681 cumulative IPC: 0.666816 (Simulation time: 0 hr 48 min 10 sec) 
Heartbeat CPU 0 instructions: 67000000 cycles: 89383395 heartbeat IPC: 0.676257 cumulative IPC: 0.666979 (Simulation time: 0 hr 49 min 4 sec) 
Heartbeat CPU 0 instructions: 68000000 cycles: 90836475 heartbeat IPC: 0.688193 cumulative IPC: 0.667334 (Simulation time: 0 hr 49 min 48 sec) 
Heartbeat CPU 0 instructions: 69000000 cycles: 92313591 heartbeat IPC: 0.676995 cumulative IPC: 0.667495 (Simulation time: 0 hr 50 min 38 sec) 
Heartbeat CPU 0 instructions: 70000000 cycles: 93820514 heartbeat IPC: 0.663604 cumulative IPC: 0.66743 (Simulation time: 0 hr 51 min 29 sec) 
Heartbeat CPU 0 instructions: 71000002 cycles: 95294979 heartbeat IPC: 0.678213 cumulative IPC: 0.667604 (Simulation time: 0 hr 52 min 25 sec) 
Heartbeat CPU 0 instructions: 72000000 cycles: 97630807 heartbeat IPC: 0.428113 cumulative IPC: 0.661634 (Simulation time: 0 hr 53 min 28 sec) 
Heartbeat CPU 0 instructions: 73000001 cycles: 100794732 heartbeat IPC: 0.316063 cumulative IPC: 0.650347 (Simulation time: 0 hr 54 min 40 sec) 
Heartbeat CPU 0 instructions: 74000002 cycles: 107350359 heartbeat IPC: 0.152541 cumulative IPC: 0.618794 (Simulation time: 0 hr 56 min 22 sec) 
Heartbeat CPU 0 instructions: 75000003 cycles: 109764227 heartbeat IPC: 0.414273 cumulative IPC: 0.61413 (Simulation time: 0 hr 57 min 8 sec) 
Heartbeat CPU 0 instructions: 76000000 cycles: 111836841 heartbeat IPC: 0.482481 cumulative IPC: 0.611601 (Simulation time: 0 hr 57 min 54 sec) 
Heartbeat CPU 0 instructions: 77000000 cycles: 113146304 heartbeat IPC: 0.763672 cumulative IPC: 0.613425 (Simulation time: 0 hr 58 min 30 sec) 
Heartbeat CPU 0 instructions: 78000002 cycles: 114451541 heartbeat IPC: 0.766146 cumulative IPC: 0.615228 (Simulation time: 0 hr 58 min 59 sec) 
Heartbeat CPU 0 instructions: 79000000 cycles: 115941734 heartbeat IPC: 0.671053 cumulative IPC: 0.615971 (Simulation time: 0 hr 59 min 28 sec) 
Heartbeat CPU 0 instructions: 80000000 cycles: 117403260 heartbeat IPC: 0.684216 cumulative IPC: 0.61685 (Simulation time: 1 hr 0 min 3 sec) 
Heartbeat CPU 0 instructions: 81000001 cycles: 118778685 heartbeat IPC: 0.727049 cumulative IPC: 0.618169 (Simulation time: 1 hr 0 min 30 sec) 
Heartbeat CPU 0 instructions: 82000002 cycles: 120198956 heartbeat IPC: 0.704092 cumulative IPC: 0.619219 (Simulation time: 1 hr 0 min 54 sec) 
Heartbeat CPU 0 instructions: 83000003 cycles: 121736247 heartbeat IPC: 0.650496 cumulative IPC: 0.619627 (Simulation time: 1 hr 1 min 18 sec) 
Heartbeat CPU 0 instructions: 84000000 cycles: 123224744 heartbeat IPC: 0.671817 cumulative IPC: 0.620278 (Simulation time: 1 hr 1 min 41 sec) 
Heartbeat CPU 0 instructions: 85000000 cycles: 124712130 heartbeat IPC: 0.67232 cumulative IPC: 0.620919 (Simulation time: 1 hr 2 min 4 sec) 
Heartbeat CPU 0 instructions: 86000000 cycles: 126304837 heartbeat IPC: 0.627862 cumulative IPC: 0.621009 (Simulation time: 1 hr 2 min 26 sec) 
Heartbeat CPU 0 instructions: 87000002 cycles: 127795129 heartbeat IPC: 0.671011 cumulative IPC: 0.621611 (Simulation time: 1 hr 2 min 48 sec) 
Heartbeat CPU 0 instructions: 88000000 cycles: 129252542 heartbeat IPC: 0.686146 cumulative IPC: 0.622361 (Simulation time: 1 hr 3 min 7 sec) 
Heartbeat CPU 0 instructions: 89000003 cycles: 130747059 heartbeat IPC: 0.669115 cumulative IPC: 0.622912 (Simulation time: 1 hr 3 min 25 sec) 
Heartbeat CPU 0 instructions: 90000002 cycles: 132280973 heartbeat IPC: 0.651926 cumulative IPC: 0.623259 (Simulation time: 1 hr 3 min 43 sec) 
Heartbeat CPU 0 instructions: 91000001 cycles: 133799236 heartbeat IPC: 0.658647 cumulative IPC: 0.623673 (Simulation time: 1 hr 4 min 1 sec) 
Heartbeat CPU 0 instructions: 92000000 cycles: 135305947 heartbeat IPC: 0.663697 cumulative IPC: 0.624132 (Simulation time: 1 hr 4 min 19 sec) 
Heartbeat CPU 0 instructions: 93000003 cycles: 136852237 heartbeat IPC: 0.646711 cumulative IPC: 0.624394 (Simulation time: 1 hr 4 min 36 sec) 
Heartbeat CPU 0 instructions: 94000003 cycles: 138360855 heartbeat IPC: 0.662858 cumulative IPC: 0.624826 (Simulation time: 1 hr 4 min 52 sec) 
Heartbeat CPU 0 instructions: 95000000 cycles: 139861458 heartbeat IPC: 0.666397 cumulative IPC: 0.625285 (Simulation time: 1 hr 5 min 8 sec) 
Heartbeat CPU 0 instructions: 96000000 cycles: 141428920 heartbeat IPC: 0.637974 cumulative IPC: 0.62543 (Simulation time: 1 hr 5 min 25 sec) 
Heartbeat CPU 0 instructions: 97000002 cycles: 142903746 heartbeat IPC: 0.678047 cumulative IPC: 0.625988 (Simulation time: 1 hr 5 min 40 sec) 
Heartbeat CPU 0 instructions: 98000001 cycles: 144371041 heartbeat IPC: 0.681526 cumulative IPC: 0.626568 (Simulation time: 1 hr 5 min 54 sec) 
Heartbeat CPU 0 instructions: 99000000 cycles: 145876990 heartbeat IPC: 0.664032 cumulative IPC: 0.626966 (Simulation time: 1 hr 6 min 8 sec) 
Heartbeat CPU 0 instructions: 100000000 cycles: 147385146 heartbeat IPC: 0.663061 cumulative IPC: 0.627345 (Simulation time: 1 hr 6 min 21 sec) 
Heartbeat CPU 0 instructions: 101000000 cycles: 148808917 heartbeat IPC: 0.70236 cumulative IPC: 0.628082 (Simulation time: 1 hr 6 min 32 sec) 
Heartbeat CPU 0 instructions: 102000000 cycles: 150280554 heartbeat IPC: 0.679515 cumulative IPC: 0.628599 (Simulation time: 1 hr 6 min 42 sec) 
Heartbeat CPU 0 instructions: 103000001 cycles: 151855871 heartbeat IPC: 0.634794 cumulative IPC: 0.628665 (Simulation time: 1 hr 6 min 50 sec) 
Heartbeat CPU 0 instructions: 104000000 cycles: 153316567 heartbeat IPC: 0.684604 cumulative IPC: 0.629212 (Simulation time: 1 hr 6 min 58 sec) 
Heartbeat CPU 0 instructions: 105000001 cycles: 154776802 heartbeat IPC: 0.684822 cumulative IPC: 0.629751 (Simulation time: 1 hr 7 min 7 sec) 
Heartbeat CPU 0 instructions: 106000000 cycles: 156264761 heartbeat IPC: 0.672061 cumulative IPC: 0.630164 (Simulation time: 1 hr 7 min 14 sec) 
Heartbeat CPU 0 instructions: 107000000 cycles: 157856237 heartbeat IPC: 0.628348 cumulative IPC: 0.630145 (Simulation time: 1 hr 7 min 22 sec) 
Heartbeat CPU 0 instructions: 108000000 cycles: 159353701 heartbeat IPC: 0.667796 cumulative IPC: 0.630508 (Simulation time: 1 hr 7 min 30 sec) 
Heartbeat CPU 0 instructions: 109000003 cycles: 160845958 heartbeat IPC: 0.670128 cumulative IPC: 0.630885 (Simulation time: 1 hr 7 min 38 sec) 
Heartbeat CPU 0 instructions: 110000001 cycles: 162426824 heartbeat IPC: 0.632563 cumulative IPC: 0.630901 (Simulation time: 1 hr 7 min 46 sec) 
Finished CPU 0 instructions: 100000001 cycles: 158503392 cummulative IPC: 0.630901 (Simulation time: 1 hr 7 min 46 sec) 

ChampSim completed all CPUs

Region of Interest Statistics

CPU 0 cummulative IPC: 0.630901 instructions: 100000001 cycles: 158503392
LLC TOTAL     ACCESS:    5800598  HIT:    1087170  MISS:    4713428
LLC LOAD      ACCESS:     419786  HIT:      20860  MISS:     398926
LLC RFO       ACCESS:    2473104  HIT:     263078  MISS:    2210026
LLC PREFETCH  ACCESS:     434582  HIT:      27276  MISS:     407306
LLC WRITEBACK ACCESS:    2473126  HIT:     775956  MISS:    1697170
Insertion Distribution: 
	LOAD 0 0 0 0 0 0 3676 425405 
	RFO 85508 0 0 0 0 0 423984 1896344 
	PREF 0 13490 0 0 0 0 57845 379427 
	WRITEBACK 0 0 0 0 0 0 0 1815856 
Total Prefetch Downgrades: 20812
