
*** ChampSim Multicore Out-of-Order Simulator ***

Warmup Instructions: 10000000
Simulation Instructions: 100000000
Configuration: 2
Number of CPUs: 1
LLC sets: 2048
LLC ways: 16
Off-chip DRAM Channels: 1 Width: 64-bit Data Rate: 1600 MT/s

CPU 0 runs /datasets/cs240c-wi22-a00-public/data/Assignment2-gz/perlbench_53B.trace.gz
CPU 0 L1D next line prefetcher
CPU 0 L2C IP-based stride prefetcher
Initialize SRRIP state
Heartbeat CPU 0 instructions: 1000000 cycles: 615802 heartbeat IPC: 1.6239 cumulative IPC: 1.6239 (Simulation time: 0 hr 0 min 39 sec) 
Heartbeat CPU 0 instructions: 2000001 cycles: 1252973 heartbeat IPC: 1.56944 cumulative IPC: 1.5962 (Simulation time: 0 hr 1 min 18 sec) 
Heartbeat CPU 0 instructions: 3000002 cycles: 1908459 heartbeat IPC: 1.52559 cumulative IPC: 1.57195 (Simulation time: 0 hr 1 min 58 sec) 
Heartbeat CPU 0 instructions: 4000000 cycles: 2523972 heartbeat IPC: 1.62466 cumulative IPC: 1.5848 (Simulation time: 0 hr 2 min 32 sec) 
Heartbeat CPU 0 instructions: 5000001 cycles: 3151982 heartbeat IPC: 1.59233 cumulative IPC: 1.5863 (Simulation time: 0 hr 3 min 9 sec) 
Heartbeat CPU 0 instructions: 6000001 cycles: 3767489 heartbeat IPC: 1.62468 cumulative IPC: 1.59257 (Simulation time: 0 hr 3 min 46 sec) 
Heartbeat CPU 0 instructions: 7000002 cycles: 4390292 heartbeat IPC: 1.60565 cumulative IPC: 1.59443 (Simulation time: 0 hr 4 min 25 sec) 
Heartbeat CPU 0 instructions: 8000000 cycles: 5000686 heartbeat IPC: 1.63828 cumulative IPC: 1.59978 (Simulation time: 0 hr 5 min 0 sec) 
Heartbeat CPU 0 instructions: 9000000 cycles: 5652422 heartbeat IPC: 1.53436 cumulative IPC: 1.59224 (Simulation time: 0 hr 5 min 42 sec) 
Heartbeat CPU 0 instructions: 10000001 cycles: 6287691 heartbeat IPC: 1.57414 cumulative IPC: 1.59041 (Simulation time: 0 hr 6 min 18 sec) 

Warmup complete CPU 0 instructions: 10000001 cycles: 6287691 (Simulation time: 0 hr 6 min 18 sec) 

Heartbeat CPU 0 instructions: 11000000 cycles: 9157705 heartbeat IPC: 0.34843 cumulative IPC: 0.34843 (Simulation time: 0 hr 6 min 58 sec) 
Heartbeat CPU 0 instructions: 12000000 cycles: 12019768 heartbeat IPC: 0.349398 cumulative IPC: 0.348913 (Simulation time: 0 hr 7 min 43 sec) 
Heartbeat CPU 0 instructions: 13000000 cycles: 14373312 heartbeat IPC: 0.424891 cumulative IPC: 0.371029 (Simulation time: 0 hr 8 min 22 sec) 
Heartbeat CPU 0 instructions: 14000000 cycles: 16884502 heartbeat IPC: 0.398218 cumulative IPC: 0.377472 (Simulation time: 0 hr 9 min 5 sec) 
Heartbeat CPU 0 instructions: 15000001 cycles: 19639534 heartbeat IPC: 0.362973 cumulative IPC: 0.37448 (Simulation time: 0 hr 9 min 46 sec) 
Heartbeat CPU 0 instructions: 16000000 cycles: 22303638 heartbeat IPC: 0.37536 cumulative IPC: 0.374627 (Simulation time: 0 hr 10 min 29 sec) 
Heartbeat CPU 0 instructions: 17000001 cycles: 24979337 heartbeat IPC: 0.373735 cumulative IPC: 0.374499 (Simulation time: 0 hr 11 min 10 sec) 
Heartbeat CPU 0 instructions: 18000002 cycles: 27836068 heartbeat IPC: 0.350051 cumulative IPC: 0.371258 (Simulation time: 0 hr 11 min 52 sec) 
Heartbeat CPU 0 instructions: 19000000 cycles: 30660081 heartbeat IPC: 0.354105 cumulative IPC: 0.36927 (Simulation time: 0 hr 12 min 32 sec) 
Heartbeat CPU 0 instructions: 20000000 cycles: 33514884 heartbeat IPC: 0.350287 cumulative IPC: 0.36728 (Simulation time: 0 hr 13 min 16 sec) 
Heartbeat CPU 0 instructions: 21000000 cycles: 35873673 heartbeat IPC: 0.423946 cumulative IPC: 0.371798 (Simulation time: 0 hr 14 min 0 sec) 
Heartbeat CPU 0 instructions: 22000000 cycles: 37950516 heartbeat IPC: 0.4815 cumulative IPC: 0.378993 (Simulation time: 0 hr 14 min 44 sec) 
Heartbeat CPU 0 instructions: 23000001 cycles: 39880262 heartbeat IPC: 0.518203 cumulative IPC: 0.38699 (Simulation time: 0 hr 15 min 22 sec) 
Heartbeat CPU 0 instructions: 24000000 cycles: 42278217 heartbeat IPC: 0.417022 cumulative IPC: 0.388991 (Simulation time: 0 hr 16 min 9 sec) 
Heartbeat CPU 0 instructions: 25000000 cycles: 44289632 heartbeat IPC: 0.497162 cumulative IPC: 0.394717 (Simulation time: 0 hr 16 min 45 sec) 
Heartbeat CPU 0 instructions: 26000001 cycles: 46274037 heartbeat IPC: 0.50393 cumulative IPC: 0.400137 (Simulation time: 0 hr 17 min 22 sec) 
Heartbeat CPU 0 instructions: 27000002 cycles: 48569124 heartbeat IPC: 0.435714 cumulative IPC: 0.402068 (Simulation time: 0 hr 18 min 3 sec) 
Heartbeat CPU 0 instructions: 28000000 cycles: 51140731 heartbeat IPC: 0.388861 cumulative IPC: 0.401311 (Simulation time: 0 hr 18 min 52 sec) 
Heartbeat CPU 0 instructions: 29000000 cycles: 53460301 heartbeat IPC: 0.431114 cumulative IPC: 0.402776 (Simulation time: 0 hr 19 min 38 sec) 
Heartbeat CPU 0 instructions: 30000000 cycles: 55502973 heartbeat IPC: 0.489555 cumulative IPC: 0.406378 (Simulation time: 0 hr 20 min 23 sec) 
Heartbeat CPU 0 instructions: 31000001 cycles: 57490027 heartbeat IPC: 0.503258 cumulative IPC: 0.410138 (Simulation time: 0 hr 21 min 1 sec) 
Heartbeat CPU 0 instructions: 32000000 cycles: 59487327 heartbeat IPC: 0.500675 cumulative IPC: 0.413537 (Simulation time: 0 hr 21 min 39 sec) 
Heartbeat CPU 0 instructions: 33000003 cycles: 61942019 heartbeat IPC: 0.407384 cumulative IPC: 0.413265 (Simulation time: 0 hr 22 min 19 sec) 
Heartbeat CPU 0 instructions: 34000000 cycles: 64638139 heartbeat IPC: 0.370902 cumulative IPC: 0.411308 (Simulation time: 0 hr 22 min 59 sec) 
Heartbeat CPU 0 instructions: 35000000 cycles: 67188366 heartbeat IPC: 0.392122 cumulative IPC: 0.410504 (Simulation time: 0 hr 23 min 38 sec) 
Heartbeat CPU 0 instructions: 36000000 cycles: 69978362 heartbeat IPC: 0.358423 cumulative IPC: 0.408223 (Simulation time: 0 hr 24 min 20 sec) 
Heartbeat CPU 0 instructions: 37000002 cycles: 72817170 heartbeat IPC: 0.352261 cumulative IPC: 0.405835 (Simulation time: 0 hr 25 min 1 sec) 
Heartbeat CPU 0 instructions: 38000000 cycles: 75684170 heartbeat IPC: 0.348796 cumulative IPC: 0.403479 (Simulation time: 0 hr 25 min 39 sec) 
Heartbeat CPU 0 instructions: 39000001 cycles: 78352745 heartbeat IPC: 0.374732 cumulative IPC: 0.402414 (Simulation time: 0 hr 26 min 21 sec) 
Heartbeat CPU 0 instructions: 40000000 cycles: 80950625 heartbeat IPC: 0.384929 cumulative IPC: 0.401806 (Simulation time: 0 hr 27 min 2 sec) 
Heartbeat CPU 0 instructions: 41000002 cycles: 83821702 heartbeat IPC: 0.348302 cumulative IPC: 0.399825 (Simulation time: 0 hr 27 min 42 sec) 
Heartbeat CPU 0 instructions: 42000000 cycles: 86424157 heartbeat IPC: 0.384252 cumulative IPC: 0.399319 (Simulation time: 0 hr 28 min 26 sec) 
Heartbeat CPU 0 instructions: 43000002 cycles: 89263286 heartbeat IPC: 0.352221 cumulative IPC: 0.397707 (Simulation time: 0 hr 29 min 7 sec) 
Heartbeat CPU 0 instructions: 44000000 cycles: 91929045 heartbeat IPC: 0.375127 cumulative IPC: 0.397004 (Simulation time: 0 hr 29 min 53 sec) 
Heartbeat CPU 0 instructions: 45000001 cycles: 93389006 heartbeat IPC: 0.68495 cumulative IPC: 0.401831 (Simulation time: 0 hr 30 min 27 sec) 
Heartbeat CPU 0 instructions: 46000000 cycles: 95413164 heartbeat IPC: 0.494032 cumulative IPC: 0.403925 (Simulation time: 0 hr 31 min 3 sec) 
Heartbeat CPU 0 instructions: 47000002 cycles: 97328567 heartbeat IPC: 0.522084 cumulative IPC: 0.406411 (Simulation time: 0 hr 31 min 41 sec) 
Heartbeat CPU 0 instructions: 48000000 cycles: 99248782 heartbeat IPC: 0.520774 cumulative IPC: 0.408773 (Simulation time: 0 hr 32 min 20 sec) 
Heartbeat CPU 0 instructions: 49000000 cycles: 101599208 heartbeat IPC: 0.425455 cumulative IPC: 0.409185 (Simulation time: 0 hr 32 min 59 sec) 
Heartbeat CPU 0 instructions: 50000002 cycles: 103461748 heartbeat IPC: 0.536902 cumulative IPC: 0.411633 (Simulation time: 0 hr 33 min 36 sec) 
Heartbeat CPU 0 instructions: 51000000 cycles: 105392290 heartbeat IPC: 0.517988 cumulative IPC: 0.413704 (Simulation time: 0 hr 34 min 12 sec) 
Heartbeat CPU 0 instructions: 52000000 cycles: 107307295 heartbeat IPC: 0.522192 cumulative IPC: 0.415761 (Simulation time: 0 hr 34 min 49 sec) 
Heartbeat CPU 0 instructions: 53000002 cycles: 109257995 heartbeat IPC: 0.512637 cumulative IPC: 0.417596 (Simulation time: 0 hr 35 min 25 sec) 
Heartbeat CPU 0 instructions: 54000000 cycles: 112148369 heartbeat IPC: 0.345975 cumulative IPC: 0.415641 (Simulation time: 0 hr 36 min 5 sec) 
Heartbeat CPU 0 instructions: 55000000 cycles: 114636352 heartbeat IPC: 0.401932 cumulative IPC: 0.415326 (Simulation time: 0 hr 36 min 45 sec) 
Heartbeat CPU 0 instructions: 56000000 cycles: 117437330 heartbeat IPC: 0.357018 cumulative IPC: 0.413856 (Simulation time: 0 hr 37 min 25 sec) 
Heartbeat CPU 0 instructions: 57000001 cycles: 120421995 heartbeat IPC: 0.335046 cumulative IPC: 0.411796 (Simulation time: 0 hr 38 min 9 sec) 
Heartbeat CPU 0 instructions: 58000003 cycles: 123390129 heartbeat IPC: 0.336913 cumulative IPC: 0.409898 (Simulation time: 0 hr 39 min 1 sec) 
Heartbeat CPU 0 instructions: 59000002 cycles: 126204057 heartbeat IPC: 0.355375 cumulative IPC: 0.408618 (Simulation time: 0 hr 39 min 42 sec) 
Heartbeat CPU 0 instructions: 60000000 cycles: 128966606 heartbeat IPC: 0.361984 cumulative IPC: 0.407568 (Simulation time: 0 hr 40 min 28 sec) 
Heartbeat CPU 0 instructions: 61000002 cycles: 131598101 heartbeat IPC: 0.380013 cumulative IPC: 0.406989 (Simulation time: 0 hr 41 min 9 sec) 
Heartbeat CPU 0 instructions: 62000002 cycles: 134279888 heartbeat IPC: 0.372886 cumulative IPC: 0.406275 (Simulation time: 0 hr 41 min 55 sec) 
Heartbeat CPU 0 instructions: 63000001 cycles: 136948476 heartbeat IPC: 0.37473 cumulative IPC: 0.40563 (Simulation time: 0 hr 42 min 37 sec) 
Heartbeat CPU 0 instructions: 64000000 cycles: 139604781 heartbeat IPC: 0.376462 cumulative IPC: 0.405049 (Simulation time: 0 hr 43 min 19 sec) 
Heartbeat CPU 0 instructions: 65000003 cycles: 142242355 heartbeat IPC: 0.379137 cumulative IPC: 0.404547 (Simulation time: 0 hr 44 min 1 sec) 
Heartbeat CPU 0 instructions: 66000001 cycles: 144870718 heartbeat IPC: 0.380464 cumulative IPC: 0.40409 (Simulation time: 0 hr 44 min 42 sec) 
Heartbeat CPU 0 instructions: 67000001 cycles: 147483806 heartbeat IPC: 0.382689 cumulative IPC: 0.403694 (Simulation time: 0 hr 45 min 25 sec) 
Heartbeat CPU 0 instructions: 68000000 cycles: 150152526 heartbeat IPC: 0.374711 cumulative IPC: 0.403156 (Simulation time: 0 hr 46 min 6 sec) 
Heartbeat CPU 0 instructions: 69000001 cycles: 152791953 heartbeat IPC: 0.37887 cumulative IPC: 0.402719 (Simulation time: 0 hr 46 min 47 sec) 
Heartbeat CPU 0 instructions: 70000001 cycles: 155404043 heartbeat IPC: 0.382835 cumulative IPC: 0.40237 (Simulation time: 0 hr 47 min 28 sec) 
Heartbeat CPU 0 instructions: 71000001 cycles: 158122399 heartbeat IPC: 0.367869 cumulative IPC: 0.401753 (Simulation time: 0 hr 48 min 15 sec) 
Heartbeat CPU 0 instructions: 72000000 cycles: 160726995 heartbeat IPC: 0.383936 cumulative IPC: 0.401452 (Simulation time: 0 hr 49 min 1 sec) 
Heartbeat CPU 0 instructions: 73000002 cycles: 163387378 heartbeat IPC: 0.375886 cumulative IPC: 0.401019 (Simulation time: 0 hr 49 min 43 sec) 
Heartbeat CPU 0 instructions: 74000001 cycles: 166068752 heartbeat IPC: 0.372943 cumulative IPC: 0.400548 (Simulation time: 0 hr 50 min 24 sec) 
Heartbeat CPU 0 instructions: 75000001 cycles: 168729310 heartbeat IPC: 0.375861 cumulative IPC: 0.400144 (Simulation time: 0 hr 51 min 7 sec) 
Heartbeat CPU 0 instructions: 76000000 cycles: 171371368 heartbeat IPC: 0.378492 cumulative IPC: 0.399797 (Simulation time: 0 hr 51 min 46 sec) 
Heartbeat CPU 0 instructions: 77000002 cycles: 174044172 heartbeat IPC: 0.37414 cumulative IPC: 0.399388 (Simulation time: 0 hr 52 min 23 sec) 
Heartbeat CPU 0 instructions: 78000000 cycles: 176698162 heartbeat IPC: 0.37679 cumulative IPC: 0.399036 (Simulation time: 0 hr 53 min 5 sec) 
Heartbeat CPU 0 instructions: 79000002 cycles: 179359409 heartbeat IPC: 0.375764 cumulative IPC: 0.398679 (Simulation time: 0 hr 53 min 43 sec) 
Heartbeat CPU 0 instructions: 80000000 cycles: 181994137 heartbeat IPC: 0.379545 cumulative IPC: 0.398392 (Simulation time: 0 hr 54 min 16 sec) 
Heartbeat CPU 0 instructions: 81000000 cycles: 184608607 heartbeat IPC: 0.382487 cumulative IPC: 0.398159 (Simulation time: 0 hr 54 min 52 sec) 
Heartbeat CPU 0 instructions: 82000002 cycles: 187286144 heartbeat IPC: 0.373478 cumulative IPC: 0.397793 (Simulation time: 0 hr 55 min 27 sec) 
Heartbeat CPU 0 instructions: 83000000 cycles: 189932425 heartbeat IPC: 0.377888 cumulative IPC: 0.397507 (Simulation time: 0 hr 55 min 58 sec) 
Heartbeat CPU 0 instructions: 84000000 cycles: 192588795 heartbeat IPC: 0.376454 cumulative IPC: 0.397206 (Simulation time: 0 hr 56 min 30 sec) 
Heartbeat CPU 0 instructions: 85000001 cycles: 195267929 heartbeat IPC: 0.373255 cumulative IPC: 0.396867 (Simulation time: 0 hr 57 min 1 sec) 
Heartbeat CPU 0 instructions: 86000000 cycles: 197764496 heartbeat IPC: 0.40055 cumulative IPC: 0.396915 (Simulation time: 0 hr 57 min 35 sec) 
Heartbeat CPU 0 instructions: 87000000 cycles: 199895501 heartbeat IPC: 0.469262 cumulative IPC: 0.397711 (Simulation time: 0 hr 58 min 0 sec) 
Heartbeat CPU 0 instructions: 88000000 cycles: 201892825 heartbeat IPC: 0.50067 cumulative IPC: 0.398763 (Simulation time: 0 hr 58 min 26 sec) 
Heartbeat CPU 0 instructions: 89000001 cycles: 203968031 heartbeat IPC: 0.48188 cumulative IPC: 0.399635 (Simulation time: 0 hr 58 min 52 sec) 
Heartbeat CPU 0 instructions: 90000000 cycles: 206632303 heartbeat IPC: 0.375337 cumulative IPC: 0.399312 (Simulation time: 0 hr 59 min 22 sec) 
Heartbeat CPU 0 instructions: 91000001 cycles: 209407349 heartbeat IPC: 0.360355 cumulative IPC: 0.39878 (Simulation time: 0 hr 59 min 54 sec) 
Heartbeat CPU 0 instructions: 92000000 cycles: 212091908 heartbeat IPC: 0.3725 cumulative IPC: 0.398437 (Simulation time: 1 hr 0 min 21 sec) 
Heartbeat CPU 0 instructions: 93000000 cycles: 214745815 heartbeat IPC: 0.376803 cumulative IPC: 0.398162 (Simulation time: 1 hr 0 min 48 sec) 
Heartbeat CPU 0 instructions: 94000002 cycles: 217393869 heartbeat IPC: 0.377637 cumulative IPC: 0.397904 (Simulation time: 1 hr 1 min 13 sec) 
Heartbeat CPU 0 instructions: 95000000 cycles: 220013604 heartbeat IPC: 0.381717 cumulative IPC: 0.397706 (Simulation time: 1 hr 1 min 38 sec) 
Heartbeat CPU 0 instructions: 96000000 cycles: 222678068 heartbeat IPC: 0.37531 cumulative IPC: 0.39743 (Simulation time: 1 hr 2 min 2 sec) 
Heartbeat CPU 0 instructions: 97000000 cycles: 225318311 heartbeat IPC: 0.378753 cumulative IPC: 0.397205 (Simulation time: 1 hr 2 min 27 sec) 
Heartbeat CPU 0 instructions: 98000000 cycles: 227940812 heartbeat IPC: 0.381315 cumulative IPC: 0.397017 (Simulation time: 1 hr 2 min 50 sec) 
Heartbeat CPU 0 instructions: 99000002 cycles: 230549960 heartbeat IPC: 0.383268 cumulative IPC: 0.396857 (Simulation time: 1 hr 3 min 11 sec) 
Heartbeat CPU 0 instructions: 100000000 cycles: 233176572 heartbeat IPC: 0.380718 cumulative IPC: 0.39667 (Simulation time: 1 hr 3 min 32 sec) 
Heartbeat CPU 0 instructions: 101000002 cycles: 235831784 heartbeat IPC: 0.376619 cumulative IPC: 0.396438 (Simulation time: 1 hr 3 min 52 sec) 
Heartbeat CPU 0 instructions: 102000000 cycles: 238462405 heartbeat IPC: 0.380138 cumulative IPC: 0.396253 (Simulation time: 1 hr 4 min 13 sec) 
Heartbeat CPU 0 instructions: 103000000 cycles: 241088186 heartbeat IPC: 0.380839 cumulative IPC: 0.396081 (Simulation time: 1 hr 4 min 33 sec) 
Heartbeat CPU 0 instructions: 104000000 cycles: 243751843 heartbeat IPC: 0.375424 cumulative IPC: 0.395849 (Simulation time: 1 hr 4 min 54 sec) 
Heartbeat CPU 0 instructions: 105000003 cycles: 245933083 heartbeat IPC: 0.458456 cumulative IPC: 0.396419 (Simulation time: 1 hr 5 min 12 sec) 
Heartbeat CPU 0 instructions: 106000000 cycles: 247910200 heartbeat IPC: 0.505785 cumulative IPC: 0.397314 (Simulation time: 1 hr 5 min 28 sec) 
Heartbeat CPU 0 instructions: 107000003 cycles: 249886373 heartbeat IPC: 0.50603 cumulative IPC: 0.398196 (Simulation time: 1 hr 5 min 43 sec) 
Heartbeat CPU 0 instructions: 108000000 cycles: 252605037 heartbeat IPC: 0.367827 cumulative IPC: 0.397861 (Simulation time: 1 hr 6 min 0 sec) 
Heartbeat CPU 0 instructions: 109000001 cycles: 255301351 heartbeat IPC: 0.370877 cumulative IPC: 0.397569 (Simulation time: 1 hr 6 min 16 sec) 
Heartbeat CPU 0 instructions: 110000000 cycles: 257808965 heartbeat IPC: 0.398785 cumulative IPC: 0.397581 (Simulation time: 1 hr 6 min 32 sec) 
Finished CPU 0 instructions: 100000000 cycles: 251521275 cummulative IPC: 0.397581 (Simulation time: 1 hr 6 min 32 sec) 

ChampSim completed all CPUs

Region of Interest Statistics

CPU 0 cummulative IPC: 0.397581 instructions: 100000000 cycles: 251521275
LLC TOTAL     ACCESS:     656703  HIT:     613259  MISS:      43444
LLC LOAD      ACCESS:     310900  HIT:     303102  MISS:       7798
LLC RFO       ACCESS:      30805  HIT:      26575  MISS:       4230
LLC PREFETCH  ACCESS:     212716  HIT:     182014  MISS:      30702
LLC WRITEBACK ACCESS:     102282  HIT:     101568  MISS:        714
Insertion Distribution: 
	LOAD 3390 0 0 0 0 0 17756 343 
	RFO 782 0 0 0 0 0 5172 86 
	PREF 0 424 0 0 0 0 27880 14812 
	WRITEBACK 0 0 0 0 0 0 0 974 
Total Prefetch Downgrades: 3403
