
*** ChampSim Multicore Out-of-Order Simulator ***

Warmup Instructions: 10000000
Simulation Instructions: 100000000
Configuration: 2
Number of CPUs: 1
LLC sets: 2048
LLC ways: 16
Off-chip DRAM Channels: 1 Width: 64-bit Data Rate: 1600 MT/s

CPU 0 runs /datasets/cs240c-wi22-a00-public/data/Assignment2-gz/sphinx3_883B.trace.gz
CPU 0 L1D next line prefetcher
CPU 0 L2C IP-based stride prefetcher
Initialize SRRIP state
Heartbeat CPU 0 instructions: 1000003 cycles: 414388 heartbeat IPC: 2.4132 cumulative IPC: 2.4132 (Simulation time: 0 hr 0 min 31 sec) 
Heartbeat CPU 0 instructions: 2000000 cycles: 823945 heartbeat IPC: 2.44166 cumulative IPC: 2.42735 (Simulation time: 0 hr 0 min 59 sec) 
Heartbeat CPU 0 instructions: 3000003 cycles: 1298783 heartbeat IPC: 2.10599 cumulative IPC: 2.30986 (Simulation time: 0 hr 1 min 28 sec) 
Heartbeat CPU 0 instructions: 4000000 cycles: 1637673 heartbeat IPC: 2.9508 cumulative IPC: 2.44249 (Simulation time: 0 hr 1 min 52 sec) 
Heartbeat CPU 0 instructions: 5000000 cycles: 1992324 heartbeat IPC: 2.81967 cumulative IPC: 2.50963 (Simulation time: 0 hr 2 min 19 sec) 
Heartbeat CPU 0 instructions: 6000003 cycles: 2406749 heartbeat IPC: 2.41299 cumulative IPC: 2.49299 (Simulation time: 0 hr 2 min 50 sec) 
Heartbeat CPU 0 instructions: 7000002 cycles: 2815526 heartbeat IPC: 2.44632 cumulative IPC: 2.48621 (Simulation time: 0 hr 3 min 19 sec) 
Heartbeat CPU 0 instructions: 8000000 cycles: 3291701 heartbeat IPC: 2.10006 cumulative IPC: 2.43035 (Simulation time: 0 hr 3 min 50 sec) 
Heartbeat CPU 0 instructions: 9000001 cycles: 3630701 heartbeat IPC: 2.94986 cumulative IPC: 2.47886 (Simulation time: 0 hr 4 min 22 sec) 
Heartbeat CPU 0 instructions: 10000000 cycles: 3984781 heartbeat IPC: 2.82422 cumulative IPC: 2.50955 (Simulation time: 0 hr 4 min 50 sec) 

Warmup complete CPU 0 instructions: 10000004 cycles: 3984782 (Simulation time: 0 hr 4 min 50 sec) 

Heartbeat CPU 0 instructions: 11000002 cycles: 5717201 heartbeat IPC: 0.577228 cumulative IPC: 0.577226 (Simulation time: 0 hr 5 min 25 sec) 
Heartbeat CPU 0 instructions: 12000000 cycles: 7337750 heartbeat IPC: 0.617074 cumulative IPC: 0.596485 (Simulation time: 0 hr 5 min 57 sec) 
Heartbeat CPU 0 instructions: 13000001 cycles: 8521901 heartbeat IPC: 0.844488 cumulative IPC: 0.661212 (Simulation time: 0 hr 6 min 27 sec) 
Heartbeat CPU 0 instructions: 14000002 cycles: 9236897 heartbeat IPC: 1.39861 cumulative IPC: 0.761598 (Simulation time: 0 hr 6 min 57 sec) 
Heartbeat CPU 0 instructions: 15000000 cycles: 10098309 heartbeat IPC: 1.16088 cumulative IPC: 0.817858 (Simulation time: 0 hr 7 min 28 sec) 
Heartbeat CPU 0 instructions: 16000000 cycles: 11812223 heartbeat IPC: 0.58346 cumulative IPC: 0.766534 (Simulation time: 0 hr 8 min 8 sec) 
Heartbeat CPU 0 instructions: 17000000 cycles: 13421618 heartbeat IPC: 0.621351 cumulative IPC: 0.741774 (Simulation time: 0 hr 8 min 45 sec) 
Heartbeat CPU 0 instructions: 18000002 cycles: 14706481 heartbeat IPC: 0.778295 cumulative IPC: 0.74615 (Simulation time: 0 hr 9 min 21 sec) 
Heartbeat CPU 0 instructions: 19000003 cycles: 15505182 heartbeat IPC: 1.25203 cumulative IPC: 0.781223 (Simulation time: 0 hr 9 min 53 sec) 
Heartbeat CPU 0 instructions: 20000000 cycles: 16259251 heartbeat IPC: 1.32613 cumulative IPC: 0.814699 (Simulation time: 0 hr 10 min 23 sec) 
Heartbeat CPU 0 instructions: 21000000 cycles: 17857686 heartbeat IPC: 0.625612 cumulative IPC: 0.792912 (Simulation time: 0 hr 10 min 55 sec) 
Heartbeat CPU 0 instructions: 22000002 cycles: 19497043 heartbeat IPC: 0.609996 cumulative IPC: 0.773582 (Simulation time: 0 hr 11 min 29 sec) 
Heartbeat CPU 0 instructions: 23000003 cycles: 21030731 heartbeat IPC: 0.652024 cumulative IPC: 0.762644 (Simulation time: 0 hr 12 min 4 sec) 
Heartbeat CPU 0 instructions: 24000000 cycles: 21933580 heartbeat IPC: 1.1076 cumulative IPC: 0.779996 (Simulation time: 0 hr 12 min 32 sec) 
Heartbeat CPU 0 instructions: 25000001 cycles: 22728348 heartbeat IPC: 1.25823 cumulative IPC: 0.800274 (Simulation time: 0 hr 13 min 1 sec) 
Heartbeat CPU 0 instructions: 26000001 cycles: 23966804 heartbeat IPC: 0.807457 cumulative IPC: 0.80072 (Simulation time: 0 hr 13 min 32 sec) 
Heartbeat CPU 0 instructions: 27000001 cycles: 25598127 heartbeat IPC: 0.612999 cumulative IPC: 0.786551 (Simulation time: 0 hr 14 min 5 sec) 
Heartbeat CPU 0 instructions: 28000000 cycles: 27194274 heartbeat IPC: 0.626508 cumulative IPC: 0.775545 (Simulation time: 0 hr 14 min 36 sec) 
Heartbeat CPU 0 instructions: 29000000 cycles: 28211344 heartbeat IPC: 0.983217 cumulative IPC: 0.784263 (Simulation time: 0 hr 15 min 6 sec) 
Heartbeat CPU 0 instructions: 30000002 cycles: 29017650 heartbeat IPC: 1.24023 cumulative IPC: 0.79895 (Simulation time: 0 hr 15 min 36 sec) 
Heartbeat CPU 0 instructions: 31000003 cycles: 30104459 heartbeat IPC: 0.920126 cumulative IPC: 0.803992 (Simulation time: 0 hr 16 min 6 sec) 
Heartbeat CPU 0 instructions: 32000000 cycles: 31733254 heartbeat IPC: 0.613949 cumulative IPC: 0.792836 (Simulation time: 0 hr 16 min 37 sec) 
Heartbeat CPU 0 instructions: 33000000 cycles: 33292347 heartbeat IPC: 0.641399 cumulative IPC: 0.78478 (Simulation time: 0 hr 17 min 5 sec) 
Heartbeat CPU 0 instructions: 34000000 cycles: 34398318 heartbeat IPC: 0.904183 cumulative IPC: 0.789122 (Simulation time: 0 hr 17 min 31 sec) 
Heartbeat CPU 0 instructions: 35000003 cycles: 35211780 heartbeat IPC: 1.22932 cumulative IPC: 0.800589 (Simulation time: 0 hr 17 min 56 sec) 
Heartbeat CPU 0 instructions: 36000000 cycles: 36248502 heartbeat IPC: 0.964576 cumulative IPC: 0.805859 (Simulation time: 0 hr 18 min 25 sec) 
Heartbeat CPU 0 instructions: 37000001 cycles: 37892292 heartbeat IPC: 0.608351 cumulative IPC: 0.796284 (Simulation time: 0 hr 18 min 57 sec) 
Heartbeat CPU 0 instructions: 38000000 cycles: 39456173 heartbeat IPC: 0.639434 cumulative IPC: 0.789368 (Simulation time: 0 hr 19 min 28 sec) 
Heartbeat CPU 0 instructions: 39000003 cycles: 40555241 heartbeat IPC: 0.909865 cumulative IPC: 0.79299 (Simulation time: 0 hr 19 min 57 sec) 
Heartbeat CPU 0 instructions: 40000000 cycles: 41384382 heartbeat IPC: 1.20606 cumulative IPC: 0.802148 (Simulation time: 0 hr 20 min 26 sec) 
Heartbeat CPU 0 instructions: 41000003 cycles: 42415928 heartbeat IPC: 0.969422 cumulative IPC: 0.806637 (Simulation time: 0 hr 20 min 57 sec) 
Heartbeat CPU 0 instructions: 42000000 cycles: 44071000 heartbeat IPC: 0.604201 cumulative IPC: 0.798279 (Simulation time: 0 hr 21 min 30 sec) 
Heartbeat CPU 0 instructions: 43000003 cycles: 45662696 heartbeat IPC: 0.628263 cumulative IPC: 0.791786 (Simulation time: 0 hr 22 min 5 sec) 
Heartbeat CPU 0 instructions: 44000000 cycles: 46691826 heartbeat IPC: 0.971692 cumulative IPC: 0.796121 (Simulation time: 0 hr 22 min 37 sec) 
Heartbeat CPU 0 instructions: 45000002 cycles: 47490811 heartbeat IPC: 1.25159 cumulative IPC: 0.804486 (Simulation time: 0 hr 23 min 5 sec) 
Heartbeat CPU 0 instructions: 46000001 cycles: 48564179 heartbeat IPC: 0.931646 cumulative IPC: 0.807548 (Simulation time: 0 hr 23 min 37 sec) 
Heartbeat CPU 0 instructions: 47000002 cycles: 50202065 heartbeat IPC: 0.610544 cumulative IPC: 0.800566 (Simulation time: 0 hr 24 min 8 sec) 
Heartbeat CPU 0 instructions: 48000000 cycles: 51787818 heartbeat IPC: 0.630614 cumulative IPC: 0.794928 (Simulation time: 0 hr 24 min 40 sec) 
Heartbeat CPU 0 instructions: 49000001 cycles: 52732314 heartbeat IPC: 1.05877 cumulative IPC: 0.80004 (Simulation time: 0 hr 25 min 9 sec) 
Heartbeat CPU 0 instructions: 50000000 cycles: 53533998 heartbeat IPC: 1.24737 cumulative IPC: 0.807278 (Simulation time: 0 hr 25 min 39 sec) 
Heartbeat CPU 0 instructions: 51000003 cycles: 54659370 heartbeat IPC: 0.888598 cumulative IPC: 0.809084 (Simulation time: 0 hr 26 min 8 sec) 
Heartbeat CPU 0 instructions: 52000000 cycles: 56335548 heartbeat IPC: 0.596594 cumulative IPC: 0.80228 (Simulation time: 0 hr 26 min 40 sec) 
Heartbeat CPU 0 instructions: 53000000 cycles: 58130168 heartbeat IPC: 0.557221 cumulative IPC: 0.794158 (Simulation time: 0 hr 27 min 10 sec) 
Heartbeat CPU 0 instructions: 54000003 cycles: 59413787 heartbeat IPC: 0.77905 cumulative IPC: 0.793808 (Simulation time: 0 hr 27 min 40 sec) 
Heartbeat CPU 0 instructions: 55000003 cycles: 60286507 heartbeat IPC: 1.14584 cumulative IPC: 0.799265 (Simulation time: 0 hr 28 min 7 sec) 
Heartbeat CPU 0 instructions: 56000000 cycles: 61159858 heartbeat IPC: 1.14501 cumulative IPC: 0.804546 (Simulation time: 0 hr 28 min 39 sec) 
Heartbeat CPU 0 instructions: 57000002 cycles: 62344202 heartbeat IPC: 0.844351 cumulative IPC: 0.805354 (Simulation time: 0 hr 29 min 11 sec) 
Heartbeat CPU 0 instructions: 58000001 cycles: 63385658 heartbeat IPC: 0.960193 cumulative IPC: 0.808069 (Simulation time: 0 hr 29 min 40 sec) 
Heartbeat CPU 0 instructions: 59000003 cycles: 64223921 heartbeat IPC: 1.19295 cumulative IPC: 0.813425 (Simulation time: 0 hr 30 min 9 sec) 
Heartbeat CPU 0 instructions: 60000000 cycles: 65115851 heartbeat IPC: 1.12116 cumulative IPC: 0.817915 (Simulation time: 0 hr 30 min 38 sec) 
Heartbeat CPU 0 instructions: 61000001 cycles: 66335088 heartbeat IPC: 0.820186 cumulative IPC: 0.817959 (Simulation time: 0 hr 31 min 12 sec) 
Heartbeat CPU 0 instructions: 62000001 cycles: 67173324 heartbeat IPC: 1.19298 cumulative IPC: 0.822934 (Simulation time: 0 hr 31 min 46 sec) 
Heartbeat CPU 0 instructions: 63000003 cycles: 68006333 heartbeat IPC: 1.20047 cumulative IPC: 0.827846 (Simulation time: 0 hr 32 min 16 sec) 
Heartbeat CPU 0 instructions: 64000000 cycles: 69284271 heartbeat IPC: 0.782508 cumulative IPC: 0.826959 (Simulation time: 0 hr 32 min 47 sec) 
Heartbeat CPU 0 instructions: 65000003 cycles: 70144414 heartbeat IPC: 1.1626 cumulative IPC: 0.831323 (Simulation time: 0 hr 33 min 17 sec) 
Heartbeat CPU 0 instructions: 66000002 cycles: 70990193 heartbeat IPC: 1.18234 cumulative IPC: 0.835753 (Simulation time: 0 hr 33 min 47 sec) 
Heartbeat CPU 0 instructions: 67000000 cycles: 72247055 heartbeat IPC: 0.795631 cumulative IPC: 0.835015 (Simulation time: 0 hr 34 min 20 sec) 
Heartbeat CPU 0 instructions: 68000000 cycles: 73904153 heartbeat IPC: 0.603465 cumulative IPC: 0.829527 (Simulation time: 0 hr 34 min 51 sec) 
Heartbeat CPU 0 instructions: 69000003 cycles: 74764139 heartbeat IPC: 1.16281 cumulative IPC: 0.833576 (Simulation time: 0 hr 35 min 19 sec) 
Heartbeat CPU 0 instructions: 70000000 cycles: 75616184 heartbeat IPC: 1.17364 cumulative IPC: 0.837621 (Simulation time: 0 hr 35 min 48 sec) 
Heartbeat CPU 0 instructions: 71000000 cycles: 76777770 heartbeat IPC: 0.860892 cumulative IPC: 0.837993 (Simulation time: 0 hr 36 min 20 sec) 
Heartbeat CPU 0 instructions: 72000000 cycles: 78262278 heartbeat IPC: 0.673624 cumulative IPC: 0.834708 (Simulation time: 0 hr 36 min 51 sec) 
Heartbeat CPU 0 instructions: 73000000 cycles: 79120168 heartbeat IPC: 1.16565 cumulative IPC: 0.838486 (Simulation time: 0 hr 37 min 22 sec) 
Heartbeat CPU 0 instructions: 74000000 cycles: 79970027 heartbeat IPC: 1.17667 cumulative IPC: 0.842269 (Simulation time: 0 hr 37 min 52 sec) 
Heartbeat CPU 0 instructions: 75000000 cycles: 81190874 heartbeat IPC: 0.819103 cumulative IPC: 0.841902 (Simulation time: 0 hr 38 min 20 sec) 
Heartbeat CPU 0 instructions: 76000000 cycles: 82504116 heartbeat IPC: 0.761474 cumulative IPC: 0.840557 (Simulation time: 0 hr 38 min 48 sec) 
Heartbeat CPU 0 instructions: 77000000 cycles: 83380705 heartbeat IPC: 1.14079 cumulative IPC: 0.843872 (Simulation time: 0 hr 39 min 17 sec) 
Heartbeat CPU 0 instructions: 78000000 cycles: 84225110 heartbeat IPC: 1.18427 cumulative IPC: 0.847454 (Simulation time: 0 hr 39 min 46 sec) 
Heartbeat CPU 0 instructions: 79000001 cycles: 85596376 heartbeat IPC: 0.729254 cumulative IPC: 0.845468 (Simulation time: 0 hr 40 min 16 sec) 
Heartbeat CPU 0 instructions: 80000000 cycles: 86767171 heartbeat IPC: 0.85412 cumulative IPC: 0.84559 (Simulation time: 0 hr 40 min 44 sec) 
Heartbeat CPU 0 instructions: 81000000 cycles: 87634755 heartbeat IPC: 1.15263 cumulative IPC: 0.848775 (Simulation time: 0 hr 41 min 14 sec) 
Heartbeat CPU 0 instructions: 82000000 cycles: 88462832 heartbeat IPC: 1.20762 cumulative IPC: 0.852292 (Simulation time: 0 hr 41 min 43 sec) 
Heartbeat CPU 0 instructions: 83000000 cycles: 89963440 heartbeat IPC: 0.666397 cumulative IPC: 0.849048 (Simulation time: 0 hr 42 min 13 sec) 
Heartbeat CPU 0 instructions: 84000000 cycles: 90865881 heartbeat IPC: 1.10811 cumulative IPC: 0.851739 (Simulation time: 0 hr 42 min 42 sec) 
Heartbeat CPU 0 instructions: 85000001 cycles: 91706444 heartbeat IPC: 1.18968 cumulative IPC: 0.854977 (Simulation time: 0 hr 43 min 13 sec) 
Heartbeat CPU 0 instructions: 86000001 cycles: 92766614 heartbeat IPC: 0.943245 cumulative IPC: 0.856031 (Simulation time: 0 hr 43 min 42 sec) 
Heartbeat CPU 0 instructions: 87000000 cycles: 93990326 heartbeat IPC: 0.817185 cumulative IPC: 0.855503 (Simulation time: 0 hr 44 min 12 sec) 
Heartbeat CPU 0 instructions: 88000000 cycles: 94848708 heartbeat IPC: 1.16498 cumulative IPC: 0.858426 (Simulation time: 0 hr 44 min 41 sec) 
Heartbeat CPU 0 instructions: 89000000 cycles: 95669765 heartbeat IPC: 1.21794 cumulative IPC: 0.861646 (Simulation time: 0 hr 45 min 9 sec) 
Heartbeat CPU 0 instructions: 90000000 cycles: 97041457 heartbeat IPC: 0.729027 cumulative IPC: 0.859691 (Simulation time: 0 hr 45 min 38 sec) 
Heartbeat CPU 0 instructions: 91000003 cycles: 98289874 heartbeat IPC: 0.801017 cumulative IPC: 0.858914 (Simulation time: 0 hr 46 min 9 sec) 
Heartbeat CPU 0 instructions: 92000000 cycles: 99246603 heartbeat IPC: 1.04522 cumulative IPC: 0.860786 (Simulation time: 0 hr 46 min 38 sec) 
Heartbeat CPU 0 instructions: 93000000 cycles: 100084068 heartbeat IPC: 1.19408 cumulative IPC: 0.86369 (Simulation time: 0 hr 47 min 7 sec) 
Heartbeat CPU 0 instructions: 94000002 cycles: 100909650 heartbeat IPC: 1.21127 cumulative IPC: 0.866651 (Simulation time: 0 hr 47 min 36 sec) 
Heartbeat CPU 0 instructions: 95000001 cycles: 102356668 heartbeat IPC: 0.691076 cumulative IPC: 0.864068 (Simulation time: 0 hr 48 min 7 sec) 
Heartbeat CPU 0 instructions: 96000000 cycles: 103210121 heartbeat IPC: 1.17171 cumulative IPC: 0.866714 (Simulation time: 0 hr 48 min 36 sec) 
Heartbeat CPU 0 instructions: 97000002 cycles: 104053203 heartbeat IPC: 1.18613 cumulative IPC: 0.869405 (Simulation time: 0 hr 49 min 3 sec) 
Heartbeat CPU 0 instructions: 98000003 cycles: 105284757 heartbeat IPC: 0.811983 cumulative IPC: 0.868707 (Simulation time: 0 hr 49 min 34 sec) 
Heartbeat CPU 0 instructions: 99000000 cycles: 106375381 heartbeat IPC: 0.916904 cumulative IPC: 0.86922 (Simulation time: 0 hr 50 min 1 sec) 
Heartbeat CPU 0 instructions: 100000000 cycles: 107216370 heartbeat IPC: 1.18908 cumulative IPC: 0.871826 (Simulation time: 0 hr 50 min 31 sec) 
Heartbeat CPU 0 instructions: 101000000 cycles: 108050311 heartbeat IPC: 1.19913 cumulative IPC: 0.874449 (Simulation time: 0 hr 50 min 58 sec) 
Heartbeat CPU 0 instructions: 102000003 cycles: 109598801 heartbeat IPC: 0.645792 cumulative IPC: 0.871096 (Simulation time: 0 hr 51 min 26 sec) 
Heartbeat CPU 0 instructions: 103000001 cycles: 110533657 heartbeat IPC: 1.06968 cumulative IPC: 0.872839 (Simulation time: 0 hr 51 min 56 sec) 
Heartbeat CPU 0 instructions: 104000000 cycles: 111383059 heartbeat IPC: 1.1773 cumulative IPC: 0.875247 (Simulation time: 0 hr 52 min 24 sec) 
Heartbeat CPU 0 instructions: 105000002 cycles: 112490897 heartbeat IPC: 0.902661 cumulative IPC: 0.875527 (Simulation time: 0 hr 52 min 52 sec) 
Heartbeat CPU 0 instructions: 106000003 cycles: 113999252 heartbeat IPC: 0.662975 cumulative IPC: 0.872612 (Simulation time: 0 hr 53 min 23 sec) 
Heartbeat CPU 0 instructions: 107000001 cycles: 114857674 heartbeat IPC: 1.16493 cumulative IPC: 0.874876 (Simulation time: 0 hr 53 min 48 sec) 
Heartbeat CPU 0 instructions: 108000000 cycles: 115706214 heartbeat IPC: 1.17849 cumulative IPC: 0.877182 (Simulation time: 0 hr 54 min 13 sec) 
Heartbeat CPU 0 instructions: 109000001 cycles: 116890326 heartbeat IPC: 0.844516 cumulative IPC: 0.876839 (Simulation time: 0 hr 54 min 38 sec) 
Heartbeat CPU 0 instructions: 110000000 cycles: 118302257 heartbeat IPC: 0.708249 cumulative IPC: 0.874757 (Simulation time: 0 hr 55 min 6 sec) 
Finished CPU 0 instructions: 100000000 cycles: 114317476 cummulative IPC: 0.874757 (Simulation time: 0 hr 55 min 6 sec) 

ChampSim completed all CPUs

Region of Interest Statistics

CPU 0 cummulative IPC: 0.874757 instructions: 100000000 cycles: 114317476
LLC TOTAL     ACCESS:    1795727  HIT:     698264  MISS:    1097463
LLC LOAD      ACCESS:     315555  HIT:     202601  MISS:     112954
LLC RFO       ACCESS:      99607  HIT:      79440  MISS:      20167
LLC PREFETCH  ACCESS:    1239145  HIT:     285242  MISS:     953903
LLC WRITEBACK ACCESS:     141420  HIT:     130981  MISS:      10439
Insertion Distribution: 
	LOAD 10871 0 0 0 0 0 22225 104277 
	RFO 10562 0 0 0 0 0 3578 9873 
	PREF 0 4103 0 0 0 0 72231 985569 
	WRITEBACK 0 0 0 0 0 0 0 11586 
Total Prefetch Downgrades: 6582
