Initialize SIGNATURE TABLE
ST_SET: 1
ST_WAY: 256
ST_TAG_BIT: 16
ST_TAG_MASK: ffff

Initialize PATTERN TABLE
PT_SET: 512
PT_WAY: 4
SIG_DELTA_BIT: 7
C_SIG_BIT: 4
C_DELTA_BIT: 4

Initialize PREFETCH FILTER
FILTER_SET: 1024

*** ChampSim Multicore Out-of-Order Simulator ***

Warmup Instructions: 50000000
Simulation Instructions: 50000000
Number of CPUs: 1
LLC sets: 2048
LLC ways: 16
Off-chip DRAM Size: 4096 MB Channels: 1 Width: 64-bit Data Rate: 3200 MT/s

CPU 0 runs /Users/gandhardeshpande/Desktop/CSE240C/HW1/ChampSim/ipc1_public/server_039.champsimtrace.xz
CPU 0 L1I next line prefetcher
CPU 0 L1D next line prefetcher
Heartbeat CPU 0 instructions: 10000003 cycles: 3451490 heartbeat IPC: 2.8973 cumulative IPC: 2.8973 (Simulation time: 0 hr 0 min 14 sec) 
Heartbeat CPU 0 instructions: 20000002 cycles: 6896050 heartbeat IPC: 2.90313 cumulative IPC: 2.90021 (Simulation time: 0 hr 0 min 29 sec) 
Heartbeat CPU 0 instructions: 30000001 cycles: 10342433 heartbeat IPC: 2.90159 cumulative IPC: 2.90067 (Simulation time: 0 hr 0 min 44 sec) 
Heartbeat CPU 0 instructions: 40000002 cycles: 13784204 heartbeat IPC: 2.90548 cumulative IPC: 2.90187 (Simulation time: 0 hr 0 min 59 sec) 
Heartbeat CPU 0 instructions: 50000001 cycles: 17225334 heartbeat IPC: 2.90602 cumulative IPC: 2.9027 (Simulation time: 0 hr 1 min 14 sec) 

Warmup complete CPU 0 instructions: 50000001 cycles: 17225334 (Simulation time: 0 hr 1 min 14 sec) 

Heartbeat CPU 0 instructions: 60000000 cycles: 22996359 heartbeat IPC: 1.73279 cumulative IPC: 1.73279 (Simulation time: 0 hr 1 min 29 sec) 
Heartbeat CPU 0 instructions: 70000000 cycles: 28764950 heartbeat IPC: 1.73353 cumulative IPC: 1.73316 (Simulation time: 0 hr 1 min 44 sec) 
Heartbeat CPU 0 instructions: 80000000 cycles: 34529752 heartbeat IPC: 1.73466 cumulative IPC: 1.73366 (Simulation time: 0 hr 1 min 59 sec) 
Heartbeat CPU 0 instructions: 90000001 cycles: 40301162 heartbeat IPC: 1.73268 cumulative IPC: 1.73342 (Simulation time: 0 hr 2 min 13 sec) 
Heartbeat CPU 0 instructions: 100000002 cycles: 46081981 heartbeat IPC: 1.72986 cumulative IPC: 1.7327 (Simulation time: 0 hr 2 min 28 sec) 
Finished CPU 0 instructions: 50000001 cycles: 28856647 cumulative IPC: 1.7327 (Simulation time: 0 hr 2 min 28 sec) 

ChampSim completed all CPUs

Region of Interest Statistics

CPU 0 cumulative IPC: 1.7327 instructions: 50000001 cycles: 28856647
L1D TOTAL     ACCESS:   19876378  HIT:   19381838  MISS:     494540
L1D LOAD      ACCESS:    6488317  HIT:    6266769  MISS:     221548
L1D RFO       ACCESS:    7088869  HIT:    7022017  MISS:      66852
L1D PREFETCH  ACCESS:    6299192  HIT:    6093052  MISS:     206140
L1D WRITEBACK ACCESS:          0  HIT:          0  MISS:          0
L1D PREFETCH  REQUESTED:    6504258  ISSUED:    6371023  USEFUL:      50067  USELESS:     156077
L1D AVERAGE MISS LATENCY: 15.078 cycles
L1I TOTAL     ACCESS:   16333200  HIT:   11516785  MISS:    4816415
L1I LOAD      ACCESS:    9366724  HIT:    9338882  MISS:      27842
L1I RFO       ACCESS:          0  HIT:          0  MISS:          0
L1I PREFETCH  ACCESS:    6966476  HIT:    2177903  MISS:    4788573
L1I WRITEBACK ACCESS:          0  HIT:          0  MISS:          0
L1I PREFETCH  REQUESTED:    7127811  ISSUED:    7127811  USEFUL:    4154654  USELESS:     633967
L1I AVERAGE MISS LATENCY: 14.7344 cycles
L2C TOTAL     ACCESS:    7244850  HIT:    7244809  MISS:         41
L2C LOAD      ACCESS:     229595  HIT:     229593  MISS:          2
L2C RFO       ACCESS:      66752  HIT:      66752  MISS:          0
L2C PREFETCH  ACCESS:    6768531  HIT:    6768492  MISS:         39
L2C WRITEBACK ACCESS:     179972  HIT:     179972  MISS:          0
L2C PREFETCH  REQUESTED:    6027174  ISSUED:    6026020  USEFUL:          2  USELESS:          0
L2C AVERAGE MISS LATENCY: 44.0976 cycles
LLC TOTAL     ACCESS:    1038692  HIT:    1038275  MISS:        417
LLC LOAD      ACCESS:          1  HIT:          1  MISS:          0
LLC RFO       ACCESS:          0  HIT:          0  MISS:          0
LLC PREFETCH  ACCESS:    1038691  HIT:    1038274  MISS:        417
LLC WRITEBACK ACCESS:          0  HIT:          0  MISS:          0
LLC PREFETCH  REQUESTED:          0  ISSUED:          0  USEFUL:          1  USELESS:          0
LLC AVERAGE MISS LATENCY: 164.245 cycles
Major fault: 0 Minor fault: 356
I-Shadow cache 408 bytes
Touched + WorthPF tables 24576 bytes 
MMA filter 174 bytes 
FNL filter 272 bytes 
TOTAL PREFETCHER STORAGE SIZE: 98134 bytes
CPU 0 L1I next line prefetcher final stats
CPU 0 L1D next line prefetcher final stats

DRAM Statistics
 CHANNEL 0
 RQ ROW_BUFFER_HIT:         78  ROW_BUFFER_MISS:        339
 DBUS_CONGESTED:         57
 WQ ROW_BUFFER_HIT:          0  ROW_BUFFER_MISS:          0  FULL:          0

 AVG_CONGESTED_CYCLE: 5

CPU 0 Branch Prediction Accuracy: 99.9091% MPKI: 0.1547 Average ROB Occupancy at Mispredict: 305.635

Branch types
NOT_BRANCH: 41495033 82.9901%
BRANCH_DIRECT_JUMP: 491309 0.982618%
BRANCH_INDIRECT: 0 0%
BRANCH_CONDITIONAL: 5595263 11.1905%
BRANCH_DIRECT_CALL: 1028409 2.05682%
BRANCH_INDIRECT_CALL: 180756 0.361512%
BRANCH_RETURN: 1209171 2.41834%
BRANCH_OTHER: 0 0%

