
*** ChampSim Multicore Out-of-Order Simulator ***

Warmup Instructions: 10000000
Simulation Instructions: 100000000
Configuration: 2
Number of CPUs: 1
LLC sets: 2048
LLC ways: 16
Off-chip DRAM Channels: 1 Width: 64-bit Data Rate: 1600 MT/s

CPU 0 runs /datasets/cs240c-wi22-a00-public/data/Assignment2-gz/mcf_158B.trace.gz
CPU 0 L1D next line prefetcher
CPU 0 L2C IP-based stride prefetcher
Heartbeat CPU 0 instructions: 1000002 cycles: 512486 heartbeat IPC: 1.95128 cumulative IPC: 1.95128 (Simulation time: 0 hr 0 min 56 sec) 
Heartbeat CPU 0 instructions: 2000002 cycles: 1023498 heartbeat IPC: 1.9569 cumulative IPC: 1.95408 (Simulation time: 0 hr 1 min 49 sec) 
Heartbeat CPU 0 instructions: 3000000 cycles: 1535806 heartbeat IPC: 1.95195 cumulative IPC: 1.95337 (Simulation time: 0 hr 2 min 47 sec) 
Heartbeat CPU 0 instructions: 4000000 cycles: 2046342 heartbeat IPC: 1.95873 cumulative IPC: 1.95471 (Simulation time: 0 hr 3 min 44 sec) 
Heartbeat CPU 0 instructions: 5000002 cycles: 2553663 heartbeat IPC: 1.97114 cumulative IPC: 1.95797 (Simulation time: 0 hr 4 min 37 sec) 
Heartbeat CPU 0 instructions: 6000001 cycles: 3065949 heartbeat IPC: 1.95203 cumulative IPC: 1.95698 (Simulation time: 0 hr 5 min 31 sec) 
Heartbeat CPU 0 instructions: 7000001 cycles: 3574769 heartbeat IPC: 1.96533 cumulative IPC: 1.95817 (Simulation time: 0 hr 6 min 29 sec) 
Heartbeat CPU 0 instructions: 8000000 cycles: 4085222 heartbeat IPC: 1.95904 cumulative IPC: 1.95828 (Simulation time: 0 hr 7 min 22 sec) 
Heartbeat CPU 0 instructions: 9000000 cycles: 4603930 heartbeat IPC: 1.92787 cumulative IPC: 1.95485 (Simulation time: 0 hr 8 min 15 sec) 
Heartbeat CPU 0 instructions: 10000001 cycles: 5143795 heartbeat IPC: 1.85232 cumulative IPC: 1.94409 (Simulation time: 0 hr 9 min 6 sec) 

Warmup complete CPU 0 instructions: 10000001 cycles: 5143795 (Simulation time: 0 hr 9 min 6 sec) 

Heartbeat CPU 0 instructions: 11000001 cycles: 15516475 heartbeat IPC: 0.0964071 cumulative IPC: 0.0964071 (Simulation time: 0 hr 10 min 21 sec) 
Heartbeat CPU 0 instructions: 12000000 cycles: 24659966 heartbeat IPC: 0.109367 cumulative IPC: 0.102479 (Simulation time: 0 hr 11 min 34 sec) 
Heartbeat CPU 0 instructions: 13000001 cycles: 33741880 heartbeat IPC: 0.110109 cumulative IPC: 0.104902 (Simulation time: 0 hr 12 min 47 sec) 
Heartbeat CPU 0 instructions: 14000001 cycles: 42197480 heartbeat IPC: 0.118265 cumulative IPC: 0.107951 (Simulation time: 0 hr 13 min 57 sec) 
Heartbeat CPU 0 instructions: 15000000 cycles: 51117274 heartbeat IPC: 0.11211 cumulative IPC: 0.108758 (Simulation time: 0 hr 15 min 7 sec) 
Heartbeat CPU 0 instructions: 16000000 cycles: 67230643 heartbeat IPC: 0.0620603 cumulative IPC: 0.0966388 (Simulation time: 0 hr 16 min 42 sec) 
Heartbeat CPU 0 instructions: 17000001 cycles: 79526189 heartbeat IPC: 0.0813303 cumulative IPC: 0.0941083 (Simulation time: 0 hr 18 min 2 sec) 
Heartbeat CPU 0 instructions: 18000000 cycles: 88983642 heartbeat IPC: 0.105737 cumulative IPC: 0.09542 (Simulation time: 0 hr 19 min 17 sec) 
Heartbeat CPU 0 instructions: 19000001 cycles: 98715497 heartbeat IPC: 0.102755 cumulative IPC: 0.0961829 (Simulation time: 0 hr 20 min 30 sec) 
Heartbeat CPU 0 instructions: 20000000 cycles: 108008422 heartbeat IPC: 0.107609 cumulative IPC: 0.0972151 (Simulation time: 0 hr 21 min 42 sec) 
Heartbeat CPU 0 instructions: 21000000 cycles: 117385352 heartbeat IPC: 0.106645 cumulative IPC: 0.0980029 (Simulation time: 0 hr 22 min 53 sec) 
Heartbeat CPU 0 instructions: 22000002 cycles: 126768307 heartbeat IPC: 0.106576 cumulative IPC: 0.0986643 (Simulation time: 0 hr 24 min 4 sec) 
Heartbeat CPU 0 instructions: 23000002 cycles: 137617980 heartbeat IPC: 0.0921687 cumulative IPC: 0.0981323 (Simulation time: 0 hr 25 min 23 sec) 
Heartbeat CPU 0 instructions: 24000000 cycles: 154104043 heartbeat IPC: 0.0606572 cumulative IPC: 0.0939848 (Simulation time: 0 hr 27 min 2 sec) 
Heartbeat CPU 0 instructions: 25000000 cycles: 164066184 heartbeat IPC: 0.10038 cumulative IPC: 0.0943857 (Simulation time: 0 hr 28 min 14 sec) 
Heartbeat CPU 0 instructions: 26000000 cycles: 171934276 heartbeat IPC: 0.127096 cumulative IPC: 0.0959287 (Simulation time: 0 hr 29 min 21 sec) 
Heartbeat CPU 0 instructions: 27000002 cycles: 179762339 heartbeat IPC: 0.127746 cumulative IPC: 0.0973551 (Simulation time: 0 hr 30 min 30 sec) 
Heartbeat CPU 0 instructions: 28000000 cycles: 194800030 heartbeat IPC: 0.0664994 cumulative IPC: 0.0949086 (Simulation time: 0 hr 32 min 1 sec) 
Heartbeat CPU 0 instructions: 29000003 cycles: 204541302 heartbeat IPC: 0.102656 cumulative IPC: 0.0952871 (Simulation time: 0 hr 33 min 11 sec) 
Heartbeat CPU 0 instructions: 30000003 cycles: 212015777 heartbeat IPC: 0.133789 cumulative IPC: 0.0966782 (Simulation time: 0 hr 34 min 15 sec) 
Heartbeat CPU 0 instructions: 31000003 cycles: 220478809 heartbeat IPC: 0.118161 cumulative IPC: 0.0975225 (Simulation time: 0 hr 35 min 21 sec) 
Heartbeat CPU 0 instructions: 32000000 cycles: 235048638 heartbeat IPC: 0.0686348 cumulative IPC: 0.0956918 (Simulation time: 0 hr 36 min 52 sec) 
Heartbeat CPU 0 instructions: 33000000 cycles: 242945499 heartbeat IPC: 0.126633 cumulative IPC: 0.0967192 (Simulation time: 0 hr 37 min 57 sec) 
Heartbeat CPU 0 instructions: 34000000 cycles: 251066765 heartbeat IPC: 0.123134 cumulative IPC: 0.0975915 (Simulation time: 0 hr 38 min 59 sec) 
Heartbeat CPU 0 instructions: 35000001 cycles: 259676221 heartbeat IPC: 0.116151 cumulative IPC: 0.0982193 (Simulation time: 0 hr 40 min 7 sec) 
Heartbeat CPU 0 instructions: 36000000 cycles: 275093154 heartbeat IPC: 0.0648637 cumulative IPC: 0.0963144 (Simulation time: 0 hr 41 min 38 sec) 
Heartbeat CPU 0 instructions: 37000001 cycles: 284029278 heartbeat IPC: 0.111905 cumulative IPC: 0.0968139 (Simulation time: 0 hr 42 min 47 sec) 
Heartbeat CPU 0 instructions: 38000000 cycles: 292519216 heartbeat IPC: 0.117786 cumulative IPC: 0.0974335 (Simulation time: 0 hr 43 min 55 sec) 
Heartbeat CPU 0 instructions: 39000000 cycles: 299921800 heartbeat IPC: 0.135088 cumulative IPC: 0.0983791 (Simulation time: 0 hr 45 min 3 sec) 
Heartbeat CPU 0 instructions: 40000000 cycles: 314416709 heartbeat IPC: 0.0689897 cumulative IPC: 0.0970017 (Simulation time: 0 hr 46 min 32 sec) 
Heartbeat CPU 0 instructions: 41000003 cycles: 323965944 heartbeat IPC: 0.104721 cumulative IPC: 0.0972329 (Simulation time: 0 hr 47 min 43 sec) 
Heartbeat CPU 0 instructions: 42000000 cycles: 331427339 heartbeat IPC: 0.134023 cumulative IPC: 0.0980742 (Simulation time: 0 hr 48 min 45 sec) 
Heartbeat CPU 0 instructions: 43000001 cycles: 342248743 heartbeat IPC: 0.0924095 cumulative IPC: 0.0978924 (Simulation time: 0 hr 50 min 1 sec) 
Heartbeat CPU 0 instructions: 44000000 cycles: 354252236 heartbeat IPC: 0.083309 cumulative IPC: 0.0973909 (Simulation time: 0 hr 51 min 20 sec) 
Heartbeat CPU 0 instructions: 45000000 cycles: 360840279 heartbeat IPC: 0.15179 cumulative IPC: 0.0983985 (Simulation time: 0 hr 52 min 20 sec) 
Heartbeat CPU 0 instructions: 46000002 cycles: 371215968 heartbeat IPC: 0.0963793 cumulative IPC: 0.0983413 (Simulation time: 0 hr 53 min 33 sec) 
Heartbeat CPU 0 instructions: 47000002 cycles: 383628847 heartbeat IPC: 0.0805615 cumulative IPC: 0.0977582 (Simulation time: 0 hr 55 min 2 sec) 
Heartbeat CPU 0 instructions: 48000000 cycles: 390488740 heartbeat IPC: 0.145775 cumulative IPC: 0.0986129 (Simulation time: 0 hr 56 min 5 sec) 
Heartbeat CPU 0 instructions: 49000003 cycles: 400744424 heartbeat IPC: 0.0975072 cumulative IPC: 0.0985843 (Simulation time: 0 hr 57 min 18 sec) 
Heartbeat CPU 0 instructions: 50000000 cycles: 413231494 heartbeat IPC: 0.0800826 cumulative IPC: 0.0980181 (Simulation time: 0 hr 58 min 41 sec) 
Heartbeat CPU 0 instructions: 51000000 cycles: 419793430 heartbeat IPC: 0.152394 cumulative IPC: 0.0988787 (Simulation time: 0 hr 59 min 44 sec) 
Heartbeat CPU 0 instructions: 52000000 cycles: 429405562 heartbeat IPC: 0.104035 cumulative IPC: 0.0989955 (Simulation time: 1 hr 0 min 56 sec) 
Heartbeat CPU 0 instructions: 53000000 cycles: 442790707 heartbeat IPC: 0.0747097 cumulative IPC: 0.0982527 (Simulation time: 1 hr 2 min 21 sec) 
Heartbeat CPU 0 instructions: 54000000 cycles: 449560155 heartbeat IPC: 0.147723 cumulative IPC: 0.0990063 (Simulation time: 1 hr 3 min 19 sec) 
Heartbeat CPU 0 instructions: 55000000 cycles: 457676714 heartbeat IPC: 0.123205 cumulative IPC: 0.0994403 (Simulation time: 1 hr 4 min 24 sec) 
Heartbeat CPU 0 instructions: 56000000 cycles: 472332543 heartbeat IPC: 0.0682322 cumulative IPC: 0.0984613 (Simulation time: 1 hr 5 min 45 sec) 
Heartbeat CPU 0 instructions: 57000001 cycles: 479222474 heartbeat IPC: 0.145139 cumulative IPC: 0.0991397 (Simulation time: 1 hr 6 min 44 sec) 
Heartbeat CPU 0 instructions: 58000001 cycles: 485920217 heartbeat IPC: 0.149304 cumulative IPC: 0.0998385 (Simulation time: 1 hr 7 min 38 sec) 
Heartbeat CPU 0 instructions: 59000000 cycles: 501450908 heartbeat IPC: 0.0643886 cumulative IPC: 0.0987292 (Simulation time: 1 hr 8 min 56 sec) 
Heartbeat CPU 0 instructions: 60000000 cycles: 508459296 heartbeat IPC: 0.142686 cumulative IPC: 0.0993413 (Simulation time: 1 hr 9 min 47 sec) 
Heartbeat CPU 0 instructions: 61000000 cycles: 515753816 heartbeat IPC: 0.137089 cumulative IPC: 0.0998805 (Simulation time: 1 hr 10 min 31 sec) 
Heartbeat CPU 0 instructions: 62000001 cycles: 528251457 heartbeat IPC: 0.0800152 cumulative IPC: 0.0994059 (Simulation time: 1 hr 11 min 30 sec) 
Heartbeat CPU 0 instructions: 63000001 cycles: 538762756 heartbeat IPC: 0.0951357 cumulative IPC: 0.0993218 (Simulation time: 1 hr 12 min 21 sec) 
Heartbeat CPU 0 instructions: 64000000 cycles: 545519260 heartbeat IPC: 0.148005 cumulative IPC: 0.0999305 (Simulation time: 1 hr 13 min 0 sec) 
Heartbeat CPU 0 instructions: 65000000 cycles: 553209303 heartbeat IPC: 0.130038 cumulative IPC: 0.100353 (Simulation time: 1 hr 13 min 43 sec) 
Heartbeat CPU 0 instructions: 66000000 cycles: 567989341 heartbeat IPC: 0.0676588 cumulative IPC: 0.0994944 (Simulation time: 1 hr 14 min 35 sec) 
Heartbeat CPU 0 instructions: 67000002 cycles: 574572493 heartbeat IPC: 0.151903 cumulative IPC: 0.1001 (Simulation time: 1 hr 15 min 9 sec) 
Heartbeat CPU 0 instructions: 68000000 cycles: 581115514 heartbeat IPC: 0.152834 cumulative IPC: 0.100699 (Simulation time: 1 hr 15 min 45 sec) 
Heartbeat CPU 0 instructions: 69000000 cycles: 594214237 heartbeat IPC: 0.0763433 cumulative IPC: 0.100158 (Simulation time: 1 hr 16 min 29 sec) 
Heartbeat CPU 0 instructions: 70000000 cycles: 603567358 heartbeat IPC: 0.106916 cumulative IPC: 0.100263 (Simulation time: 1 hr 17 min 4 sec) 
Heartbeat CPU 0 instructions: 71000002 cycles: 610024639 heartbeat IPC: 0.154864 cumulative IPC: 0.100846 (Simulation time: 1 hr 17 min 33 sec) 
Heartbeat CPU 0 instructions: 72000000 cycles: 618107890 heartbeat IPC: 0.123712 cumulative IPC: 0.101148 (Simulation time: 1 hr 18 min 4 sec) 
Heartbeat CPU 0 instructions: 73000000 cycles: 632396602 heartbeat IPC: 0.0699853 cumulative IPC: 0.100438 (Simulation time: 1 hr 18 min 42 sec) 
Heartbeat CPU 0 instructions: 74000000 cycles: 639195326 heartbeat IPC: 0.147086 cumulative IPC: 0.100938 (Simulation time: 1 hr 19 min 7 sec) 
Heartbeat CPU 0 instructions: 75000001 cycles: 646140393 heartbeat IPC: 0.143987 cumulative IPC: 0.101405 (Simulation time: 1 hr 19 min 29 sec) 
Heartbeat CPU 0 instructions: 76000000 cycles: 658417004 heartbeat IPC: 0.0814556 cumulative IPC: 0.10103 (Simulation time: 1 hr 19 min 58 sec) 
Heartbeat CPU 0 instructions: 77000000 cycles: 669166756 heartbeat IPC: 0.0930254 cumulative IPC: 0.1009 (Simulation time: 1 hr 20 min 24 sec) 
Heartbeat CPU 0 instructions: 78000000 cycles: 676590723 heartbeat IPC: 0.134699 cumulative IPC: 0.101274 (Simulation time: 1 hr 20 min 45 sec) 
Heartbeat CPU 0 instructions: 79000003 cycles: 684245359 heartbeat IPC: 0.13064 cumulative IPC: 0.101605 (Simulation time: 1 hr 21 min 5 sec) 
Heartbeat CPU 0 instructions: 80000000 cycles: 699477250 heartbeat IPC: 0.0656515 cumulative IPC: 0.100816 (Simulation time: 1 hr 21 min 32 sec) 
Heartbeat CPU 0 instructions: 81000001 cycles: 707105802 heartbeat IPC: 0.131087 cumulative IPC: 0.101145 (Simulation time: 1 hr 21 min 48 sec) 
Heartbeat CPU 0 instructions: 82000001 cycles: 714488963 heartbeat IPC: 0.135443 cumulative IPC: 0.101502 (Simulation time: 1 hr 22 min 3 sec) 
Heartbeat CPU 0 instructions: 83000001 cycles: 727081815 heartbeat IPC: 0.0794101 cumulative IPC: 0.101117 (Simulation time: 1 hr 22 min 22 sec) 
Heartbeat CPU 0 instructions: 84000000 cycles: 738114599 heartbeat IPC: 0.0906389 cumulative IPC: 0.100959 (Simulation time: 1 hr 22 min 37 sec) 
Heartbeat CPU 0 instructions: 85000000 cycles: 744831381 heartbeat IPC: 0.148881 cumulative IPC: 0.101394 (Simulation time: 1 hr 22 min 48 sec) 
Heartbeat CPU 0 instructions: 86000000 cycles: 752843731 heartbeat IPC: 0.124807 cumulative IPC: 0.101645 (Simulation time: 1 hr 22 min 59 sec) 
Heartbeat CPU 0 instructions: 87000000 cycles: 767747287 heartbeat IPC: 0.0670981 cumulative IPC: 0.10097 (Simulation time: 1 hr 23 min 10 sec) 
Heartbeat CPU 0 instructions: 88000000 cycles: 775082044 heartbeat IPC: 0.136337 cumulative IPC: 0.101307 (Simulation time: 1 hr 23 min 17 sec) 
Heartbeat CPU 0 instructions: 89000000 cycles: 782725514 heartbeat IPC: 0.130831 cumulative IPC: 0.101597 (Simulation time: 1 hr 23 min 24 sec) 
Heartbeat CPU 0 instructions: 90000002 cycles: 796491659 heartbeat IPC: 0.0726421 cumulative IPC: 0.101093 (Simulation time: 1 hr 23 min 35 sec) 
Heartbeat CPU 0 instructions: 91000000 cycles: 806025672 heartbeat IPC: 0.104887 cumulative IPC: 0.101139 (Simulation time: 1 hr 23 min 43 sec) 
Heartbeat CPU 0 instructions: 92000000 cycles: 813277297 heartbeat IPC: 0.1379 cumulative IPC: 0.101468 (Simulation time: 1 hr 23 min 50 sec) 
Heartbeat CPU 0 instructions: 93000003 cycles: 824514946 heartbeat IPC: 0.0889869 cumulative IPC: 0.101297 (Simulation time: 1 hr 23 min 59 sec) 
Heartbeat CPU 0 instructions: 94000000 cycles: 836464042 heartbeat IPC: 0.0836881 cumulative IPC: 0.101044 (Simulation time: 1 hr 24 min 9 sec) 
Heartbeat CPU 0 instructions: 95000000 cycles: 843727959 heartbeat IPC: 0.137667 cumulative IPC: 0.101361 (Simulation time: 1 hr 24 min 16 sec) 
Heartbeat CPU 0 instructions: 96000000 cycles: 851558734 heartbeat IPC: 0.127701 cumulative IPC: 0.101605 (Simulation time: 1 hr 24 min 23 sec) 
Heartbeat CPU 0 instructions: 97000003 cycles: 867019489 heartbeat IPC: 0.0646801 cumulative IPC: 0.100943 (Simulation time: 1 hr 24 min 33 sec) 
Heartbeat CPU 0 instructions: 98000002 cycles: 874608188 heartbeat IPC: 0.131775 cumulative IPC: 0.101212 (Simulation time: 1 hr 24 min 41 sec) 
Heartbeat CPU 0 instructions: 99000000 cycles: 882141124 heartbeat IPC: 0.13275 cumulative IPC: 0.101483 (Simulation time: 1 hr 24 min 48 sec) 
Heartbeat CPU 0 instructions: 100000000 cycles: 895567384 heartbeat IPC: 0.0744809 cumulative IPC: 0.101075 (Simulation time: 1 hr 24 min 58 sec) 
Heartbeat CPU 0 instructions: 101000000 cycles: 905771419 heartbeat IPC: 0.0980004 cumulative IPC: 0.101041 (Simulation time: 1 hr 25 min 6 sec) 
Heartbeat CPU 0 instructions: 102000000 cycles: 913502995 heartbeat IPC: 0.12934 cumulative IPC: 0.101282 (Simulation time: 1 hr 25 min 14 sec) 
Heartbeat CPU 0 instructions: 103000001 cycles: 920861642 heartbeat IPC: 0.135895 cumulative IPC: 0.10156 (Simulation time: 1 hr 25 min 21 sec) 
Heartbeat CPU 0 instructions: 104000000 cycles: 936639897 heartbeat IPC: 0.0633783 cumulative IPC: 0.100913 (Simulation time: 1 hr 25 min 32 sec) 
Heartbeat CPU 0 instructions: 105000000 cycles: 945189282 heartbeat IPC: 0.116967 cumulative IPC: 0.101059 (Simulation time: 1 hr 25 min 40 sec) 
Heartbeat CPU 0 instructions: 106000000 cycles: 952885283 heartbeat IPC: 0.129938 cumulative IPC: 0.101293 (Simulation time: 1 hr 25 min 47 sec) 
Heartbeat CPU 0 instructions: 107000000 cycles: 963122368 heartbeat IPC: 0.0976841 cumulative IPC: 0.101255 (Simulation time: 1 hr 25 min 55 sec) 
Heartbeat CPU 0 instructions: 108000000 cycles: 976459499 heartbeat IPC: 0.0749786 cumulative IPC: 0.100894 (Simulation time: 1 hr 26 min 6 sec) 
Heartbeat CPU 0 instructions: 109000000 cycles: 984032670 heartbeat IPC: 0.132045 cumulative IPC: 0.101135 (Simulation time: 1 hr 26 min 13 sec) 
Heartbeat CPU 0 instructions: 110000000 cycles: 992300272 heartbeat IPC: 0.120954 cumulative IPC: 0.101301 (Simulation time: 1 hr 26 min 21 sec) 
Finished CPU 0 instructions: 100000002 cycles: 987156479 cummulative IPC: 0.101301 (Simulation time: 1 hr 26 min 21 sec) 

ChampSim completed all CPUs

Region of Interest Statistics

CPU 0 cummulative IPC: 0.101301 instructions: 100000002 cycles: 987156479
LLC TOTAL     ACCESS:   21080361  HIT:    8370915  MISS:   12709446
LLC LOAD      ACCESS:    9507911  HIT:    5171363  MISS:    4336548
LLC RFO       ACCESS:     164421  HIT:      95061  MISS:      69360
LLC PREFETCH  ACCESS:    9645264  HIT:    1982033  MISS:    7663231
LLC WRITEBACK ACCESS:    1762765  HIT:    1122458  MISS:     640307
