Initialize SIGNATURE TABLE
ST_SET: 1
ST_WAY: 256
ST_TAG_BIT: 16
ST_TAG_MASK: ffff

Initialize PATTERN TABLE
PT_SET: 512
PT_WAY: 4
SIG_DELTA_BIT: 7
C_SIG_BIT: 4
C_DELTA_BIT: 4

Initialize PREFETCH FILTER
FILTER_SET: 1024

*** ChampSim Multicore Out-of-Order Simulator ***

Warmup Instructions: 50000000
Simulation Instructions: 50000000
Number of CPUs: 1
LLC sets: 2048
LLC ways: 16
Off-chip DRAM Size: 4096 MB Channels: 1 Width: 64-bit Data Rate: 3200 MT/s

CPU 0 runs /Users/gandhardeshpande/Desktop/CSE240C/HW1/ChampSim/ipc1_public/client_003.champsimtrace.xz
CPU 0 L1I next line prefetcher
CPU 0 L1D next line prefetcher
Heartbeat CPU 0 instructions: 10000000 cycles: 3478227 heartbeat IPC: 2.87503 cumulative IPC: 2.87503 (Simulation time: 0 hr 0 min 14 sec) 
Heartbeat CPU 0 instructions: 20000002 cycles: 6932279 heartbeat IPC: 2.89515 cumulative IPC: 2.88505 (Simulation time: 0 hr 0 min 28 sec) 
Heartbeat CPU 0 instructions: 30000003 cycles: 10493108 heartbeat IPC: 2.80834 cumulative IPC: 2.85902 (Simulation time: 0 hr 0 min 43 sec) 
Heartbeat CPU 0 instructions: 40000001 cycles: 14109561 heartbeat IPC: 2.76514 cumulative IPC: 2.83496 (Simulation time: 0 hr 0 min 57 sec) 
Heartbeat CPU 0 instructions: 50000003 cycles: 17654620 heartbeat IPC: 2.82083 cumulative IPC: 2.83212 (Simulation time: 0 hr 1 min 12 sec) 

Warmup complete CPU 0 instructions: 50000003 cycles: 17654620 (Simulation time: 0 hr 1 min 12 sec) 

Heartbeat CPU 0 instructions: 60000002 cycles: 23948289 heartbeat IPC: 1.5889 cumulative IPC: 1.5889 (Simulation time: 0 hr 1 min 24 sec) 
Heartbeat CPU 0 instructions: 70000001 cycles: 30030056 heartbeat IPC: 1.64426 cumulative IPC: 1.6161 (Simulation time: 0 hr 1 min 37 sec) 
Heartbeat CPU 0 instructions: 80000001 cycles: 36888303 heartbeat IPC: 1.4581 cumulative IPC: 1.55976 (Simulation time: 0 hr 1 min 49 sec) 
Heartbeat CPU 0 instructions: 90000000 cycles: 45922789 heartbeat IPC: 1.10687 cumulative IPC: 1.41502 (Simulation time: 0 hr 1 min 58 sec) 
Heartbeat CPU 0 instructions: 100000003 cycles: 56740360 heartbeat IPC: 0.924422 cumulative IPC: 1.27924 (Simulation time: 0 hr 2 min 10 sec) 
Finished CPU 0 instructions: 50000000 cycles: 39085740 cumulative IPC: 1.27924 (Simulation time: 0 hr 2 min 10 sec) 

ChampSim completed all CPUs

Region of Interest Statistics

CPU 0 cumulative IPC: 1.27924 instructions: 50000000 cycles: 39085740
L1D TOTAL     ACCESS:   17659656  HIT:   17163645  MISS:     496011
L1D LOAD      ACCESS:    6050946  HIT:    5924240  MISS:     126706
L1D RFO       ACCESS:    5948225  HIT:    5713889  MISS:     234336
L1D PREFETCH  ACCESS:    5660485  HIT:    5525516  MISS:     134969
L1D WRITEBACK ACCESS:          0  HIT:          0  MISS:          0
L1D PREFETCH  REQUESTED:    6092341  ISSUED:    5951263  USEFUL:      67004  USELESS:      68013
L1D AVERAGE MISS LATENCY: 121.089 cycles
L1I TOTAL     ACCESS:   11514875  HIT:   10704212  MISS:     810663
L1I LOAD      ACCESS:    9448327  HIT:    9324257  MISS:     124070
L1I RFO       ACCESS:          0  HIT:          0  MISS:          0
L1I PREFETCH  ACCESS:    2066548  HIT:    1379955  MISS:     686593
L1I WRITEBACK ACCESS:          0  HIT:          0  MISS:          0
L1I PREFETCH  REQUESTED:    2143441  ISSUED:    2143430  USEFUL:     430299  USELESS:     256328
L1I AVERAGE MISS LATENCY: 20.3577 cycles
L2C TOTAL     ACCESS:    1925558  HIT:    1529444  MISS:     396114
L2C LOAD      ACCESS:     199367  HIT:     154609  MISS:      44758
L2C RFO       ACCESS:     232284  HIT:      25855  MISS:     206429
L2C PREFETCH  ACCESS:    1224593  HIT:    1080896  MISS:     143697
L2C WRITEBACK ACCESS:     269314  HIT:     268084  MISS:       1230
L2C PREFETCH  REQUESTED:    1439650  ISSUED:    1438780  USEFUL:      12609  USELESS:     131629
L2C AVERAGE MISS LATENCY: 166.164 cycles
LLC TOTAL     ACCESS:    1019252  HIT:     730434  MISS:     288818
LLC LOAD      ACCESS:      44654  HIT:      31182  MISS:      13472
LLC RFO       ACCESS:     206421  HIT:      34679  MISS:     171742
LLC PREFETCH  ACCESS:     543964  HIT:     440786  MISS:     103178
LLC WRITEBACK ACCESS:     224213  HIT:     223787  MISS:        426
LLC PREFETCH  REQUESTED:          0  ISSUED:          0  USEFUL:      10902  USELESS:      92967
LLC AVERAGE MISS LATENCY: 227.634 cycles
Major fault: 0 Minor fault: 5042
I-Shadow cache 408 bytes
Touched + WorthPF tables 24576 bytes 
MMA filter 174 bytes 
FNL filter 272 bytes 
TOTAL PREFETCHER STORAGE SIZE: 98134 bytes
CPU 0 L1I next line prefetcher final stats
CPU 0 L1D next line prefetcher final stats

DRAM Statistics
 CHANNEL 0
 RQ ROW_BUFFER_HIT:     101340  ROW_BUFFER_MISS:     187047
 DBUS_CONGESTED:     260670
 WQ ROW_BUFFER_HIT:      60243  ROW_BUFFER_MISS:     119130  FULL:          0

 AVG_CONGESTED_CYCLE: 6

CPU 0 Branch Prediction Accuracy: 98.6631% MPKI: 2.66884 Average ROB Occupancy at Mispredict: 75.9322

Branch types
NOT_BRANCH: 40018780 80.0376%
BRANCH_DIRECT_JUMP: 370861 0.741722%
BRANCH_INDIRECT: 83253 0.166506%
BRANCH_CONDITIONAL: 7877436 15.7549%
BRANCH_DIRECT_CALL: 722316 1.44463%
BRANCH_INDIRECT_CALL: 101901 0.203802%
BRANCH_RETURN: 825355 1.65071%
BRANCH_OTHER: 0 0%

