Initialize SIGNATURE TABLE
ST_SET: 1
ST_WAY: 256
ST_TAG_BIT: 16
ST_TAG_MASK: ffff

Initialize PATTERN TABLE
PT_SET: 512
PT_WAY: 4
SIG_DELTA_BIT: 7
C_SIG_BIT: 4
C_DELTA_BIT: 4

Initialize PREFETCH FILTER
FILTER_SET: 1024

*** ChampSim Multicore Out-of-Order Simulator ***

Warmup Instructions: 50000000
Simulation Instructions: 50000000
Number of CPUs: 1
LLC sets: 2048
LLC ways: 16
Off-chip DRAM Size: 4096 MB Channels: 1 Width: 64-bit Data Rate: 3200 MT/s

CPU 0 runs /Users/gandhardeshpande/Desktop/CSE240C/HW1/ChampSim/ipc1_public/server_035.champsimtrace.xz
CPU 0 L1I next line prefetcher
CPU 0 L1D next line prefetcher
Heartbeat CPU 0 instructions: 10000001 cycles: 3336398 heartbeat IPC: 2.99724 cumulative IPC: 2.99724 (Simulation time: 0 hr 0 min 15 sec) 
Heartbeat CPU 0 instructions: 20000000 cycles: 6671866 heartbeat IPC: 2.99808 cumulative IPC: 2.99766 (Simulation time: 0 hr 0 min 30 sec) 
Heartbeat CPU 0 instructions: 30000000 cycles: 10004138 heartbeat IPC: 3.00096 cumulative IPC: 2.99876 (Simulation time: 0 hr 0 min 44 sec) 
Heartbeat CPU 0 instructions: 40000000 cycles: 13341332 heartbeat IPC: 2.99653 cumulative IPC: 2.9982 (Simulation time: 0 hr 0 min 59 sec) 
Heartbeat CPU 0 instructions: 50000003 cycles: 16675202 heartbeat IPC: 2.99952 cumulative IPC: 2.99846 (Simulation time: 0 hr 1 min 14 sec) 

Warmup complete CPU 0 instructions: 50000003 cycles: 16675202 (Simulation time: 0 hr 1 min 14 sec) 

Heartbeat CPU 0 instructions: 60000001 cycles: 25079278 heartbeat IPC: 1.1899 cumulative IPC: 1.1899 (Simulation time: 0 hr 1 min 30 sec) 
Heartbeat CPU 0 instructions: 70000003 cycles: 33095405 heartbeat IPC: 1.24749 cumulative IPC: 1.21801 (Simulation time: 0 hr 1 min 46 sec) 
Heartbeat CPU 0 instructions: 80000001 cycles: 41234925 heartbeat IPC: 1.22857 cumulative IPC: 1.22151 (Simulation time: 0 hr 2 min 2 sec) 
Heartbeat CPU 0 instructions: 90000002 cycles: 48700718 heartbeat IPC: 1.33944 cumulative IPC: 1.249 (Simulation time: 0 hr 2 min 18 sec) 
Heartbeat CPU 0 instructions: 100000002 cycles: 56793533 heartbeat IPC: 1.23566 cumulative IPC: 1.24631 (Simulation time: 0 hr 2 min 34 sec) 
Finished CPU 0 instructions: 50000003 cycles: 40118332 cumulative IPC: 1.24631 (Simulation time: 0 hr 2 min 34 sec) 

ChampSim completed all CPUs

Region of Interest Statistics

CPU 0 cumulative IPC: 1.24631 instructions: 50000003 cycles: 40118332
L1D TOTAL     ACCESS:   18197808  HIT:   16693679  MISS:    1504129
L1D LOAD      ACCESS:    6130002  HIT:    5428272  MISS:     701730
L1D RFO       ACCESS:    6158367  HIT:    6006237  MISS:     152130
L1D PREFETCH  ACCESS:    5909439  HIT:    5259170  MISS:     650269
L1D WRITEBACK ACCESS:          0  HIT:          0  MISS:          0
L1D PREFETCH  REQUESTED:    6175203  ISSUED:    6074543  USEFUL:     138514  USELESS:     511760
L1D AVERAGE MISS LATENCY: 42.5705 cycles
L1I TOTAL     ACCESS:   15323987  HIT:   11201936  MISS:    4122051
L1I LOAD      ACCESS:    9704906  HIT:    9647275  MISS:      57631
L1I RFO       ACCESS:          0  HIT:          0  MISS:          0
L1I PREFETCH  ACCESS:    5619081  HIT:    1554661  MISS:    4064420
L1I WRITEBACK ACCESS:          0  HIT:          0  MISS:          0
L1I PREFETCH  REQUESTED:    5857062  ISSUED:    5856802  USEFUL:    3369468  USELESS:     694914
L1I AVERAGE MISS LATENCY: 16.2338 cycles
L2C TOTAL     ACCESS:    7313597  HIT:    6970634  MISS:     342963
L2C LOAD      ACCESS:     701452  HIT:     572205  MISS:     129247
L2C RFO       ACCESS:     150373  HIT:     129823  MISS:      20550
L2C PREFETCH  ACCESS:    6096711  HIT:    5905371  MISS:     191340
L2C WRITEBACK ACCESS:     365061  HIT:     363235  MISS:       1826
L2C PREFETCH  REQUESTED:    8110401  ISSUED:    8086902  USEFUL:      14442  USELESS:     176709
L2C AVERAGE MISS LATENCY: 140.101 cycles
LLC TOTAL     ACCESS:    3100173  HIT:    2792699  MISS:     307474
LLC LOAD      ACCESS:     128852  HIT:      50650  MISS:      78202
LLC RFO       ACCESS:      20546  HIT:      11481  MISS:       9065
LLC PREFETCH  ACCESS:    2848182  HIT:    2629234  MISS:     218948
LLC WRITEBACK ACCESS:     102593  HIT:     101334  MISS:       1259
LLC PREFETCH  REQUESTED:          0  ISSUED:          0  USEFUL:      38477  USELESS:     178051
LLC AVERAGE MISS LATENCY: 216.88 cycles
Major fault: 0 Minor fault: 5547
I-Shadow cache 408 bytes
Touched + WorthPF tables 24576 bytes 
MMA filter 174 bytes 
FNL filter 272 bytes 
TOTAL PREFETCHER STORAGE SIZE: 98134 bytes
CPU 0 L1I next line prefetcher final stats
CPU 0 L1D next line prefetcher final stats

DRAM Statistics
 CHANNEL 0
 RQ ROW_BUFFER_HIT:      80100  ROW_BUFFER_MISS:     226104
 DBUS_CONGESTED:     184896
 WQ ROW_BUFFER_HIT:      16435  ROW_BUFFER_MISS:      75598  FULL:          0

 AVG_CONGESTED_CYCLE: 6

CPU 0 Branch Prediction Accuracy: 99.9115% MPKI: 0.17232 Average ROB Occupancy at Mispredict: 217.104

Branch types
NOT_BRANCH: 40267397 80.5348%
BRANCH_DIRECT_JUMP: 771900 1.5438%
BRANCH_INDIRECT: 108179 0.216358%
BRANCH_CONDITIONAL: 6307187 12.6144%
BRANCH_DIRECT_CALL: 1060897 2.12179%
BRANCH_INDIRECT_CALL: 211720 0.42344%
BRANCH_RETURN: 1272639 2.54528%
BRANCH_OTHER: 0 0%

