Initialize SIGNATURE TABLE
ST_SET: 1
ST_WAY: 256
ST_TAG_BIT: 16
ST_TAG_MASK: ffff

Initialize PATTERN TABLE
PT_SET: 512
PT_WAY: 4
SIG_DELTA_BIT: 7
C_SIG_BIT: 4
C_DELTA_BIT: 4

Initialize PREFETCH FILTER
FILTER_SET: 1024

*** ChampSim Multicore Out-of-Order Simulator ***

Warmup Instructions: 50000000
Simulation Instructions: 50000000
Number of CPUs: 1
LLC sets: 2048
LLC ways: 16
Off-chip DRAM Size: 4096 MB Channels: 1 Width: 64-bit Data Rate: 3200 MT/s

CPU 0 runs /Users/gandhardeshpande/Desktop/CSE240C/HW1/ChampSim/ipc1_public/server_032.champsimtrace.xz
CPU 0 L1I next line prefetcher
CPU 0 L1D next line prefetcher
Heartbeat CPU 0 instructions: 10000002 cycles: 3521555 heartbeat IPC: 2.83966 cumulative IPC: 2.83966 (Simulation time: 0 hr 0 min 15 sec) 
Heartbeat CPU 0 instructions: 20000003 cycles: 7043932 heartbeat IPC: 2.83899 cumulative IPC: 2.83932 (Simulation time: 0 hr 0 min 30 sec) 
Heartbeat CPU 0 instructions: 30000000 cycles: 10566202 heartbeat IPC: 2.83908 cumulative IPC: 2.83924 (Simulation time: 0 hr 0 min 45 sec) 
Heartbeat CPU 0 instructions: 40000003 cycles: 14089674 heartbeat IPC: 2.83811 cumulative IPC: 2.83896 (Simulation time: 0 hr 1 min 1 sec) 
Heartbeat CPU 0 instructions: 50000000 cycles: 17612053 heartbeat IPC: 2.83899 cumulative IPC: 2.83896 (Simulation time: 0 hr 1 min 16 sec) 

Warmup complete CPU 0 instructions: 50000004 cycles: 17612054 (Simulation time: 0 hr 1 min 16 sec) 

Heartbeat CPU 0 instructions: 60000002 cycles: 24426094 heartbeat IPC: 1.46756 cumulative IPC: 1.46756 (Simulation time: 0 hr 1 min 32 sec) 
Heartbeat CPU 0 instructions: 70000000 cycles: 31235762 heartbeat IPC: 1.4685 cumulative IPC: 1.46803 (Simulation time: 0 hr 1 min 48 sec) 
*** Reached end of trace for Core: 0 Repeating trace: /Users/gandhardeshpande/Desktop/CSE240C/HW1/ChampSim/ipc1_public/server_032.champsimtrace.xz
Heartbeat CPU 0 instructions: 80000003 cycles: 38047146 heartbeat IPC: 1.46813 cumulative IPC: 1.46806 (Simulation time: 0 hr 2 min 4 sec) 
Heartbeat CPU 0 instructions: 90000002 cycles: 44829986 heartbeat IPC: 1.47431 cumulative IPC: 1.46962 (Simulation time: 0 hr 2 min 20 sec) 
Heartbeat CPU 0 instructions: 100000001 cycles: 51625941 heartbeat IPC: 1.47146 cumulative IPC: 1.46999 (Simulation time: 0 hr 2 min 36 sec) 
Finished CPU 0 instructions: 50000002 cycles: 34013889 cumulative IPC: 1.46999 (Simulation time: 0 hr 2 min 36 sec) 

ChampSim completed all CPUs

Region of Interest Statistics

CPU 0 cumulative IPC: 1.46999 instructions: 50000002 cycles: 34013889
L1D TOTAL     ACCESS:   19782540  HIT:   17954295  MISS:    1828245
L1D LOAD      ACCESS:    6762752  HIT:    5968139  MISS:     794613
L1D RFO       ACCESS:    6538438  HIT:    6243351  MISS:     295087
L1D PREFETCH  ACCESS:    6481350  HIT:    5742805  MISS:     738545
L1D WRITEBACK ACCESS:          0  HIT:          0  MISS:          0
L1D PREFETCH  REQUESTED:    6812443  ISSUED:    6673893  USEFUL:     168905  USELESS:     569640
L1D AVERAGE MISS LATENCY: 19.9442 cycles
L1I TOTAL     ACCESS:   15205915  HIT:   11188479  MISS:    4017436
L1I LOAD      ACCESS:    9714038  HIT:    9614792  MISS:      99246
L1I RFO       ACCESS:          0  HIT:          0  MISS:          0
L1I PREFETCH  ACCESS:    5491877  HIT:    1573687  MISS:    3918190
L1I WRITEBACK ACCESS:          0  HIT:          0  MISS:          0
L1I PREFETCH  REQUESTED:    5764297  ISSUED:    5764297  USEFUL:    3155545  USELESS:     762642
L1I AVERAGE MISS LATENCY: 17.7865 cycles
L2C TOTAL     ACCESS:    8079972  HIT:    7332730  MISS:     747242
L2C LOAD      ACCESS:     784178  HIT:     662125  MISS:     122053
L2C RFO       ACCESS:     292637  HIT:     237961  MISS:      54676
L2C PREFETCH  ACCESS:    6366910  HIT:    5802065  MISS:     564845
L2C WRITEBACK ACCESS:     636247  HIT:     630579  MISS:       5668
L2C PREFETCH  REQUESTED:    8065109  ISSUED:    8038090  USEFUL:       9122  USELESS:     555592
L2C AVERAGE MISS LATENCY: 33.7007 cycles
LLC TOTAL     ACCESS:    2647034  HIT:    2640975  MISS:       6059
LLC LOAD      ACCESS:     122027  HIT:     121581  MISS:        446
LLC RFO       ACCESS:      54413  HIT:      54413  MISS:          0
LLC PREFETCH  ACCESS:    2358646  HIT:    2353068  MISS:       5578
LLC WRITEBACK ACCESS:     111948  HIT:     111913  MISS:         35
LLC PREFETCH  REQUESTED:          0  ISSUED:          0  USEFUL:        391  USELESS:       1733
LLC AVERAGE MISS LATENCY: 147.597 cycles
Major fault: 0 Minor fault: 1179
I-Shadow cache 408 bytes
Touched + WorthPF tables 24576 bytes 
MMA filter 174 bytes 
FNL filter 272 bytes 
TOTAL PREFETCHER STORAGE SIZE: 98134 bytes
CPU 0 L1I next line prefetcher final stats
CPU 0 L1D next line prefetcher final stats

DRAM Statistics
 CHANNEL 0
 RQ ROW_BUFFER_HIT:       1552  ROW_BUFFER_MISS:       4472
 DBUS_CONGESTED:        876
 WQ ROW_BUFFER_HIT:          1  ROW_BUFFER_MISS:         11  FULL:          0

 AVG_CONGESTED_CYCLE: 5

CPU 0 Branch Prediction Accuracy: 99.8762% MPKI: 0.2296 Average ROB Occupancy at Mispredict: 191.038

Branch types
NOT_BRANCH: 40726136 81.4523%
BRANCH_DIRECT_JUMP: 508374 1.01675%
BRANCH_INDIRECT: 180051 0.360102%
BRANCH_CONDITIONAL: 5999661 11.9993%
BRANCH_DIRECT_CALL: 1086739 2.17348%
BRANCH_INDIRECT_CALL: 206109 0.412218%
BRANCH_RETURN: 1292837 2.58567%
BRANCH_OTHER: 0 0%

