Initialize SIGNATURE TABLE
ST_SET: 1
ST_WAY: 256
ST_TAG_BIT: 16
ST_TAG_MASK: ffff

Initialize PATTERN TABLE
PT_SET: 512
PT_WAY: 4
SIG_DELTA_BIT: 7
C_SIG_BIT: 4
C_DELTA_BIT: 4

Initialize PREFETCH FILTER
FILTER_SET: 1024

*** ChampSim Multicore Out-of-Order Simulator ***

Warmup Instructions: 50000000
Simulation Instructions: 50000000
Number of CPUs: 1
LLC sets: 2048
LLC ways: 16
Off-chip DRAM Size: 4096 MB Channels: 1 Width: 64-bit Data Rate: 3200 MT/s

CPU 0 runs /Users/gandhardeshpande/Desktop/CSE240C/HW1/ChampSim/ipc1_public/server_012.champsimtrace.xz
CPU 0 L1I next line prefetcher
CPU 0 L1D next line prefetcher
Heartbeat CPU 0 instructions: 10000002 cycles: 3192573 heartbeat IPC: 3.13227 cumulative IPC: 3.13227 (Simulation time: 0 hr 0 min 14 sec) 
Heartbeat CPU 0 instructions: 20000002 cycles: 6388012 heartbeat IPC: 3.12946 cumulative IPC: 3.13086 (Simulation time: 0 hr 0 min 28 sec) 
Heartbeat CPU 0 instructions: 30000001 cycles: 9584514 heartbeat IPC: 3.12842 cumulative IPC: 3.13005 (Simulation time: 0 hr 0 min 42 sec) 
Heartbeat CPU 0 instructions: 40000000 cycles: 12786704 heartbeat IPC: 3.12286 cumulative IPC: 3.12825 (Simulation time: 0 hr 0 min 56 sec) 
Heartbeat CPU 0 instructions: 50000003 cycles: 15981076 heartbeat IPC: 3.13051 cumulative IPC: 3.1287 (Simulation time: 0 hr 1 min 10 sec) 

Warmup complete CPU 0 instructions: 50000003 cycles: 15981076 (Simulation time: 0 hr 1 min 10 sec) 

Heartbeat CPU 0 instructions: 60000002 cycles: 23172106 heartbeat IPC: 1.39062 cumulative IPC: 1.39062 (Simulation time: 0 hr 1 min 23 sec) 
Heartbeat CPU 0 instructions: 70000000 cycles: 30318569 heartbeat IPC: 1.39929 cumulative IPC: 1.39494 (Simulation time: 0 hr 1 min 35 sec) 
Heartbeat CPU 0 instructions: 80000003 cycles: 37457279 heartbeat IPC: 1.40081 cumulative IPC: 1.39689 (Simulation time: 0 hr 1 min 48 sec) 
Heartbeat CPU 0 instructions: 90000003 cycles: 44858436 heartbeat IPC: 1.35114 cumulative IPC: 1.38517 (Simulation time: 0 hr 2 min 1 sec) 
Heartbeat CPU 0 instructions: 100000002 cycles: 52149878 heartbeat IPC: 1.37147 cumulative IPC: 1.38241 (Simulation time: 0 hr 2 min 13 sec) 
Finished CPU 0 instructions: 50000001 cycles: 36168803 cumulative IPC: 1.38241 (Simulation time: 0 hr 2 min 13 sec) 

ChampSim completed all CPUs

Region of Interest Statistics

CPU 0 cumulative IPC: 1.38241 instructions: 50000001 cycles: 36168803
L1D TOTAL     ACCESS:   17306425  HIT:   16263546  MISS:    1042879
L1D LOAD      ACCESS:    6294873  HIT:    5806120  MISS:     488753
L1D RFO       ACCESS:    4960492  HIT:    4878706  MISS:      81786
L1D PREFETCH  ACCESS:    6051060  HIT:    5578720  MISS:     472340
L1D WRITEBACK ACCESS:          0  HIT:          0  MISS:          0
L1D PREFETCH  REQUESTED:    6329404  ISSUED:    6230008  USEFUL:     131799  USELESS:     340562
L1D AVERAGE MISS LATENCY: 41.1596 cycles
L1I TOTAL     ACCESS:   11814764  HIT:    9796790  MISS:    2017974
L1I LOAD      ACCESS:    8720452  HIT:    8586655  MISS:     133797
L1I RFO       ACCESS:          0  HIT:          0  MISS:          0
L1I PREFETCH  ACCESS:    3094312  HIT:    1210135  MISS:    1884177
L1I WRITEBACK ACCESS:          0  HIT:          0  MISS:          0
L1I PREFETCH  REQUESTED:    3282127  ISSUED:    3281174  USEFUL:    1311190  USELESS:     572980
L1I AVERAGE MISS LATENCY: 29.063 cycles
L2C TOTAL     ACCESS:    3809406  HIT:    2489415  MISS:    1319991
L2C LOAD      ACCESS:     493903  HIT:     240508  MISS:     253395
L2C RFO       ACCESS:      80603  HIT:      31997  MISS:      48606
L2C PREFETCH  ACCESS:    2959384  HIT:    1942433  MISS:    1016951
L2C WRITEBACK ACCESS:     275516  HIT:     274477  MISS:       1039
L2C PREFETCH  REQUESTED:    3193391  ISSUED:    3191035  USEFUL:      25241  USELESS:     991795
L2C AVERAGE MISS LATENCY: 46.9668 cycles
LLC TOTAL     ACCESS:    2373086  HIT:    2218908  MISS:     154178
LLC LOAD      ACCESS:     253271  HIT:     233094  MISS:      20177
LLC RFO       ACCESS:      48601  HIT:      38081  MISS:      10520
LLC PREFETCH  ACCESS:    1905884  HIT:    1782746  MISS:     123138
LLC WRITEBACK ACCESS:     165330  HIT:     164987  MISS:        343
LLC PREFETCH  REQUESTED:          0  ISSUED:          0  USEFUL:       9963  USELESS:     112740
LLC AVERAGE MISS LATENCY: 174.643 cycles
Major fault: 0 Minor fault: 5599
I-Shadow cache 408 bytes
Touched + WorthPF tables 24576 bytes 
MMA filter 174 bytes 
FNL filter 272 bytes 
TOTAL PREFETCHER STORAGE SIZE: 98134 bytes
CPU 0 L1I next line prefetcher final stats
CPU 0 L1D next line prefetcher final stats

DRAM Statistics
 CHANNEL 0
 RQ ROW_BUFFER_HIT:      23714  ROW_BUFFER_MISS:     130102
 DBUS_CONGESTED:      66732
 WQ ROW_BUFFER_HIT:      11874  ROW_BUFFER_MISS:      49413  FULL:          0

 AVG_CONGESTED_CYCLE: 5

CPU 0 Branch Prediction Accuracy: 99.4607% MPKI: 1.00288 Average ROB Occupancy at Mispredict: 123.895

Branch types
NOT_BRANCH: 40701152 81.4023%
BRANCH_DIRECT_JUMP: 469810 0.93962%
BRANCH_INDIRECT: 153732 0.307464%
BRANCH_CONDITIONAL: 6944088 13.8882%
BRANCH_DIRECT_CALL: 679880 1.35976%
BRANCH_INDIRECT_CALL: 168745 0.33749%
BRANCH_RETURN: 882493 1.76499%
BRANCH_OTHER: 0 0%

