Initialize SIGNATURE TABLE
ST_SET: 1
ST_WAY: 256
ST_TAG_BIT: 16
ST_TAG_MASK: ffff

Initialize PATTERN TABLE
PT_SET: 512
PT_WAY: 4
SIG_DELTA_BIT: 7
C_SIG_BIT: 4
C_DELTA_BIT: 4

Initialize PREFETCH FILTER
FILTER_SET: 1024

*** ChampSim Multicore Out-of-Order Simulator ***

Warmup Instructions: 50000000
Simulation Instructions: 50000000
Number of CPUs: 1
LLC sets: 2048
LLC ways: 16
Off-chip DRAM Size: 4096 MB Channels: 1 Width: 64-bit Data Rate: 3200 MT/s

CPU 0 runs /Users/gandhardeshpande/Desktop/CSE240C/HW1/ChampSim/ipc1_public/server_025.champsimtrace.xz
CPU 0 L1I next line prefetcher
CPU 0 L1D next line prefetcher
Heartbeat CPU 0 instructions: 10000003 cycles: 3528409 heartbeat IPC: 2.83414 cumulative IPC: 2.83414 (Simulation time: 0 hr 0 min 15 sec) 
Heartbeat CPU 0 instructions: 20000000 cycles: 7064523 heartbeat IPC: 2.82796 cumulative IPC: 2.83105 (Simulation time: 0 hr 0 min 30 sec) 
Heartbeat CPU 0 instructions: 30000001 cycles: 10592346 heartbeat IPC: 2.83461 cumulative IPC: 2.83223 (Simulation time: 0 hr 0 min 45 sec) 
Heartbeat CPU 0 instructions: 40000003 cycles: 14125860 heartbeat IPC: 2.83004 cumulative IPC: 2.83169 (Simulation time: 0 hr 1 min 0 sec) 
Heartbeat CPU 0 instructions: 50000001 cycles: 17658315 heartbeat IPC: 2.83089 cumulative IPC: 2.83153 (Simulation time: 0 hr 1 min 15 sec) 

Warmup complete CPU 0 instructions: 50000001 cycles: 17658315 (Simulation time: 0 hr 1 min 15 sec) 

Heartbeat CPU 0 instructions: 60000002 cycles: 24549450 heartbeat IPC: 1.45114 cumulative IPC: 1.45114 (Simulation time: 0 hr 1 min 30 sec) 
Heartbeat CPU 0 instructions: 70000000 cycles: 31570446 heartbeat IPC: 1.4243 cumulative IPC: 1.43759 (Simulation time: 0 hr 1 min 46 sec) 
Heartbeat CPU 0 instructions: 80000002 cycles: 38495030 heartbeat IPC: 1.44413 cumulative IPC: 1.43977 (Simulation time: 0 hr 2 min 1 sec) 
Heartbeat CPU 0 instructions: 90000001 cycles: 45063866 heartbeat IPC: 1.52234 cumulative IPC: 1.45956 (Simulation time: 0 hr 2 min 17 sec) 
Heartbeat CPU 0 instructions: 100000003 cycles: 51311577 heartbeat IPC: 1.60059 cumulative IPC: 1.48574 (Simulation time: 0 hr 2 min 32 sec) 
Finished CPU 0 instructions: 50000002 cycles: 33653262 cumulative IPC: 1.48574 (Simulation time: 0 hr 2 min 32 sec) 

ChampSim completed all CPUs

Region of Interest Statistics

CPU 0 cumulative IPC: 1.48574 instructions: 50000002 cycles: 33653262
L1D TOTAL     ACCESS:   19988185  HIT:   18562880  MISS:    1425305
L1D LOAD      ACCESS:    6960032  HIT:    6340450  MISS:     619582
L1D RFO       ACCESS:    6381498  HIT:    6133626  MISS:     247872
L1D PREFETCH  ACCESS:    6646655  HIT:    6088804  MISS:     557851
L1D WRITEBACK ACCESS:          0  HIT:          0  MISS:          0
L1D PREFETCH  REQUESTED:    7001230  ISSUED:    6826905  USEFUL:     130582  USELESS:     427262
L1D AVERAGE MISS LATENCY: 24.1039 cycles
L1I TOTAL     ACCESS:   14298937  HIT:   10831748  MISS:    3467189
L1I LOAD      ACCESS:    9504375  HIT:    9415456  MISS:      88919
L1I RFO       ACCESS:          0  HIT:          0  MISS:          0
L1I PREFETCH  ACCESS:    4794562  HIT:    1416292  MISS:    3378270
L1I WRITEBACK ACCESS:          0  HIT:          0  MISS:          0
L1I PREFETCH  REQUESTED:    4999314  ISSUED:    4998224  USEFUL:    2442521  USELESS:     935751
L1I AVERAGE MISS LATENCY: 19.2134 cycles
L2C TOTAL     ACCESS:    6474597  HIT:    5632274  MISS:     842323
L2C LOAD      ACCESS:     619958  HIT:     484845  MISS:     135113
L2C RFO       ACCESS:     246561  HIT:     167938  MISS:      78623
L2C PREFETCH  ACCESS:    5111341  HIT:    4487513  MISS:     623828
L2C WRITEBACK ACCESS:     496737  HIT:     491978  MISS:       4759
L2C PREFETCH  REQUESTED:    6047066  ISSUED:    6032393  USEFUL:      11938  USELESS:     611516
L2C AVERAGE MISS LATENCY: 37.9616 cycles
LLC TOTAL     ACCESS:    2432317  HIT:    2400471  MISS:      31846
LLC LOAD      ACCESS:     134989  HIT:     131642  MISS:       3347
LLC RFO       ACCESS:      78512  HIT:      67756  MISS:      10756
LLC PREFETCH  ACCESS:    2079965  HIT:    2062432  MISS:      17533
LLC WRITEBACK ACCESS:     138851  HIT:     138641  MISS:        210
LLC PREFETCH  REQUESTED:          0  ISSUED:          0  USEFUL:       1216  USELESS:      15004
LLC AVERAGE MISS LATENCY: 177.376 cycles
Major fault: 0 Minor fault: 2458
I-Shadow cache 408 bytes
Touched + WorthPF tables 24576 bytes 
MMA filter 174 bytes 
FNL filter 272 bytes 
TOTAL PREFETCHER STORAGE SIZE: 98134 bytes
CPU 0 L1I next line prefetcher final stats
CPU 0 L1D next line prefetcher final stats

DRAM Statistics
 CHANNEL 0
 RQ ROW_BUFFER_HIT:       9805  ROW_BUFFER_MISS:      21821
 DBUS_CONGESTED:      19727
 WQ ROW_BUFFER_HIT:       1452  ROW_BUFFER_MISS:      12140  FULL:          0

 AVG_CONGESTED_CYCLE: 6

CPU 0 Branch Prediction Accuracy: 99.8142% MPKI: 0.34676 Average ROB Occupancy at Mispredict: 201.32

Branch types
NOT_BRANCH: 40668887 81.3378%
BRANCH_DIRECT_JUMP: 531700 1.0634%
BRANCH_INDIRECT: 199025 0.39805%
BRANCH_CONDITIONAL: 6211490 12.423%
BRANCH_DIRECT_CALL: 1010911 2.02182%
BRANCH_INDIRECT_CALL: 183501 0.367002%
BRANCH_RETURN: 1194415 2.38883%
BRANCH_OTHER: 0 0%

