
*** ChampSim Multicore Out-of-Order Simulator ***

Warmup Instructions: 10000000
Simulation Instructions: 100000000
Configuration: 2
Number of CPUs: 1
LLC sets: 2048
LLC ways: 16
Off-chip DRAM Channels: 1 Width: 64-bit Data Rate: 1600 MT/s

CPU 0 runs /datasets/cs240c-wi22-a00-public/data/Assignment2-gz/lbm_94B.trace.gz
CPU 0 L1D next line prefetcher
CPU 0 L2C IP-based stride prefetcher
Heartbeat CPU 0 instructions: 1000000 cycles: 422068 heartbeat IPC: 2.36929 cumulative IPC: 2.36929 (Simulation time: 0 hr 0 min 39 sec) 
Heartbeat CPU 0 instructions: 2000000 cycles: 812399 heartbeat IPC: 2.56193 cumulative IPC: 2.46184 (Simulation time: 0 hr 1 min 15 sec) 
Heartbeat CPU 0 instructions: 3000000 cycles: 1211540 heartbeat IPC: 2.50538 cumulative IPC: 2.47619 (Simulation time: 0 hr 1 min 52 sec) 
Heartbeat CPU 0 instructions: 4000000 cycles: 1631535 heartbeat IPC: 2.38098 cumulative IPC: 2.45168 (Simulation time: 0 hr 2 min 29 sec) 
Heartbeat CPU 0 instructions: 5000001 cycles: 2021787 heartbeat IPC: 2.56245 cumulative IPC: 2.47306 (Simulation time: 0 hr 3 min 4 sec) 
Heartbeat CPU 0 instructions: 6000000 cycles: 2422466 heartbeat IPC: 2.49576 cumulative IPC: 2.47681 (Simulation time: 0 hr 3 min 41 sec) 
Heartbeat CPU 0 instructions: 7000001 cycles: 2840617 heartbeat IPC: 2.39148 cumulative IPC: 2.46425 (Simulation time: 0 hr 4 min 18 sec) 
Heartbeat CPU 0 instructions: 8000000 cycles: 3230856 heartbeat IPC: 2.56253 cumulative IPC: 2.47612 (Simulation time: 0 hr 4 min 55 sec) 
Heartbeat CPU 0 instructions: 9000003 cycles: 3631892 heartbeat IPC: 2.49355 cumulative IPC: 2.47805 (Simulation time: 0 hr 5 min 30 sec) 
Heartbeat CPU 0 instructions: 10000000 cycles: 4048468 heartbeat IPC: 2.40052 cumulative IPC: 2.47007 (Simulation time: 0 hr 6 min 8 sec) 

Warmup complete CPU 0 instructions: 10000004 cycles: 4048469 (Simulation time: 0 hr 6 min 8 sec) 

Heartbeat CPU 0 instructions: 11000003 cycles: 5372516 heartbeat IPC: 0.755262 cumulative IPC: 0.755259 (Simulation time: 0 hr 6 min 48 sec) 
Heartbeat CPU 0 instructions: 12000000 cycles: 6919876 heartbeat IPC: 0.64626 cumulative IPC: 0.696521 (Simulation time: 0 hr 7 min 33 sec) 
Heartbeat CPU 0 instructions: 13000000 cycles: 8517304 heartbeat IPC: 0.626006 cumulative IPC: 0.671315 (Simulation time: 0 hr 8 min 18 sec) 
Heartbeat CPU 0 instructions: 14000000 cycles: 9816907 heartbeat IPC: 0.769466 cumulative IPC: 0.693428 (Simulation time: 0 hr 9 min 0 sec) 
Heartbeat CPU 0 instructions: 15000003 cycles: 11357974 heartbeat IPC: 0.648903 cumulative IPC: 0.684041 (Simulation time: 0 hr 9 min 45 sec) 
Heartbeat CPU 0 instructions: 16000000 cycles: 12964731 heartbeat IPC: 0.62237 cumulative IPC: 0.672927 (Simulation time: 0 hr 10 min 30 sec) 
Heartbeat CPU 0 instructions: 17000001 cycles: 14274967 heartbeat IPC: 0.763222 cumulative IPC: 0.684496 (Simulation time: 0 hr 11 min 12 sec) 
Heartbeat CPU 0 instructions: 18000001 cycles: 15775620 heartbeat IPC: 0.666377 cumulative IPC: 0.682177 (Simulation time: 0 hr 12 min 1 sec) 
Heartbeat CPU 0 instructions: 19000000 cycles: 17408212 heartbeat IPC: 0.612522 cumulative IPC: 0.673665 (Simulation time: 0 hr 12 min 54 sec) 
Heartbeat CPU 0 instructions: 20000000 cycles: 18748105 heartbeat IPC: 0.746328 cumulative IPC: 0.680289 (Simulation time: 0 hr 13 min 41 sec) 
Heartbeat CPU 0 instructions: 21000001 cycles: 20214218 heartbeat IPC: 0.682076 cumulative IPC: 0.680451 (Simulation time: 0 hr 14 min 30 sec) 
Heartbeat CPU 0 instructions: 22000000 cycles: 21879726 heartbeat IPC: 0.600417 cumulative IPC: 0.672975 (Simulation time: 0 hr 15 min 22 sec) 
Heartbeat CPU 0 instructions: 23000000 cycles: 23261600 heartbeat IPC: 0.723655 cumulative IPC: 0.67662 (Simulation time: 0 hr 16 min 9 sec) 
Heartbeat CPU 0 instructions: 24000000 cycles: 24682337 heartbeat IPC: 0.70386 cumulative IPC: 0.678496 (Simulation time: 0 hr 16 min 56 sec) 
Heartbeat CPU 0 instructions: 25000000 cycles: 26309447 heartbeat IPC: 0.614587 cumulative IPC: 0.673825 (Simulation time: 0 hr 17 min 47 sec) 
Heartbeat CPU 0 instructions: 26000000 cycles: 27636242 heartbeat IPC: 0.753696 cumulative IPC: 0.678317 (Simulation time: 0 hr 18 min 35 sec) 
Heartbeat CPU 0 instructions: 27000002 cycles: 29083976 heartbeat IPC: 0.690736 cumulative IPC: 0.679035 (Simulation time: 0 hr 19 min 22 sec) 
Heartbeat CPU 0 instructions: 28000000 cycles: 30722161 heartbeat IPC: 0.61043 cumulative IPC: 0.674822 (Simulation time: 0 hr 20 min 12 sec) 
Heartbeat CPU 0 instructions: 29000000 cycles: 32092804 heartbeat IPC: 0.729585 cumulative IPC: 0.677499 (Simulation time: 0 hr 20 min 59 sec) 
Heartbeat CPU 0 instructions: 30000000 cycles: 33537296 heartbeat IPC: 0.692285 cumulative IPC: 0.678223 (Simulation time: 0 hr 21 min 48 sec) 
Heartbeat CPU 0 instructions: 31000003 cycles: 35091465 heartbeat IPC: 0.643433 cumulative IPC: 0.676481 (Simulation time: 0 hr 22 min 42 sec) 
Heartbeat CPU 0 instructions: 32000000 cycles: 36435719 heartbeat IPC: 0.743905 cumulative IPC: 0.67928 (Simulation time: 0 hr 23 min 34 sec) 
Heartbeat CPU 0 instructions: 33000000 cycles: 37860535 heartbeat IPC: 0.701845 cumulative IPC: 0.68023 (Simulation time: 0 hr 24 min 28 sec) 
Heartbeat CPU 0 instructions: 34000003 cycles: 39401124 heartbeat IPC: 0.649104 cumulative IPC: 0.678874 (Simulation time: 0 hr 25 min 21 sec) 
Heartbeat CPU 0 instructions: 35000003 cycles: 40752133 heartbeat IPC: 0.740188 cumulative IPC: 0.681131 (Simulation time: 0 hr 26 min 11 sec) 
Heartbeat CPU 0 instructions: 36000000 cycles: 42143334 heartbeat IPC: 0.718801 cumulative IPC: 0.682507 (Simulation time: 0 hr 27 min 4 sec) 
Heartbeat CPU 0 instructions: 37000003 cycles: 43582129 heartbeat IPC: 0.695028 cumulative IPC: 0.682962 (Simulation time: 0 hr 27 min 59 sec) 
Heartbeat CPU 0 instructions: 38000001 cycles: 44971066 heartbeat IPC: 0.719974 cumulative IPC: 0.684218 (Simulation time: 0 hr 28 min 51 sec) 
Heartbeat CPU 0 instructions: 39000002 cycles: 46332788 heartbeat IPC: 0.734365 cumulative IPC: 0.685833 (Simulation time: 0 hr 29 min 38 sec) 
Heartbeat CPU 0 instructions: 40000000 cycles: 47825023 heartbeat IPC: 0.670134 cumulative IPC: 0.685298 (Simulation time: 0 hr 30 min 29 sec) 
Heartbeat CPU 0 instructions: 41000003 cycles: 49289350 heartbeat IPC: 0.68291 cumulative IPC: 0.685221 (Simulation time: 0 hr 31 min 17 sec) 
Heartbeat CPU 0 instructions: 42000000 cycles: 50626693 heartbeat IPC: 0.747749 cumulative IPC: 0.687016 (Simulation time: 0 hr 32 min 4 sec) 
Heartbeat CPU 0 instructions: 43000001 cycles: 52069432 heartbeat IPC: 0.693127 cumulative IPC: 0.6872 (Simulation time: 0 hr 32 min 49 sec) 
Heartbeat CPU 0 instructions: 44000000 cycles: 53527311 heartbeat IPC: 0.685927 cumulative IPC: 0.687162 (Simulation time: 0 hr 33 min 34 sec) 
Heartbeat CPU 0 instructions: 45000002 cycles: 54882675 heartbeat IPC: 0.737811 cumulative IPC: 0.688513 (Simulation time: 0 hr 34 min 20 sec) 
Heartbeat CPU 0 instructions: 46000003 cycles: 56288149 heartbeat IPC: 0.711504 cumulative IPC: 0.689131 (Simulation time: 0 hr 35 min 6 sec) 
Heartbeat CPU 0 instructions: 47000001 cycles: 57713455 heartbeat IPC: 0.701602 cumulative IPC: 0.689463 (Simulation time: 0 hr 35 min 51 sec) 
Heartbeat CPU 0 instructions: 48000000 cycles: 59054215 heartbeat IPC: 0.745845 cumulative IPC: 0.690837 (Simulation time: 0 hr 36 min 35 sec) 
Heartbeat CPU 0 instructions: 49000000 cycles: 60469270 heartbeat IPC: 0.706686 cumulative IPC: 0.691234 (Simulation time: 0 hr 37 min 21 sec) 
Heartbeat CPU 0 instructions: 50000003 cycles: 61901797 heartbeat IPC: 0.698069 cumulative IPC: 0.691404 (Simulation time: 0 hr 38 min 8 sec) 
Heartbeat CPU 0 instructions: 51000003 cycles: 63264362 heartbeat IPC: 0.73391 cumulative IPC: 0.692382 (Simulation time: 0 hr 38 min 54 sec) 
Heartbeat CPU 0 instructions: 52000000 cycles: 64600394 heartbeat IPC: 0.748483 cumulative IPC: 0.693619 (Simulation time: 0 hr 39 min 41 sec) 
Heartbeat CPU 0 instructions: 53000001 cycles: 66016768 heartbeat IPC: 0.706029 cumulative IPC: 0.693903 (Simulation time: 0 hr 40 min 29 sec) 
Heartbeat CPU 0 instructions: 54000000 cycles: 67384977 heartbeat IPC: 0.730882 cumulative IPC: 0.694702 (Simulation time: 0 hr 41 min 16 sec) 
Heartbeat CPU 0 instructions: 55000003 cycles: 68726939 heartbeat IPC: 0.74518 cumulative IPC: 0.695749 (Simulation time: 0 hr 42 min 1 sec) 
Heartbeat CPU 0 instructions: 56000000 cycles: 70146089 heartbeat IPC: 0.704645 cumulative IPC: 0.69594 (Simulation time: 0 hr 42 min 47 sec) 
Heartbeat CPU 0 instructions: 57000003 cycles: 71509009 heartbeat IPC: 0.733721 cumulative IPC: 0.696704 (Simulation time: 0 hr 43 min 29 sec) 
Heartbeat CPU 0 instructions: 58000003 cycles: 72900171 heartbeat IPC: 0.718824 cumulative IPC: 0.697151 (Simulation time: 0 hr 44 min 12 sec) 
Heartbeat CPU 0 instructions: 59000002 cycles: 74292813 heartbeat IPC: 0.718059 cumulative IPC: 0.697565 (Simulation time: 0 hr 44 min 55 sec) 
Heartbeat CPU 0 instructions: 60000000 cycles: 75674808 heartbeat IPC: 0.72359 cumulative IPC: 0.698067 (Simulation time: 0 hr 45 min 38 sec) 
Heartbeat CPU 0 instructions: 61000000 cycles: 77021723 heartbeat IPC: 0.742437 cumulative IPC: 0.698886 (Simulation time: 0 hr 46 min 20 sec) 
Heartbeat CPU 0 instructions: 62000000 cycles: 78372238 heartbeat IPC: 0.740458 cumulative IPC: 0.699642 (Simulation time: 0 hr 47 min 3 sec) 
Heartbeat CPU 0 instructions: 63000001 cycles: 79792867 heartbeat IPC: 0.703914 cumulative IPC: 0.699722 (Simulation time: 0 hr 47 min 46 sec) 
Heartbeat CPU 0 instructions: 64000000 cycles: 81145977 heartbeat IPC: 0.739037 cumulative IPC: 0.700412 (Simulation time: 0 hr 48 min 28 sec) 
Heartbeat CPU 0 instructions: 65000003 cycles: 82525687 heartbeat IPC: 0.724792 cumulative IPC: 0.70084 (Simulation time: 0 hr 49 min 10 sec) 
Heartbeat CPU 0 instructions: 66000002 cycles: 83935739 heartbeat IPC: 0.709193 cumulative IPC: 0.700988 (Simulation time: 0 hr 49 min 56 sec) 
Heartbeat CPU 0 instructions: 67000002 cycles: 85300457 heartbeat IPC: 0.732752 cumulative IPC: 0.701521 (Simulation time: 0 hr 50 min 40 sec) 
Heartbeat CPU 0 instructions: 68000000 cycles: 86682432 heartbeat IPC: 0.723601 cumulative IPC: 0.701891 (Simulation time: 0 hr 51 min 23 sec) 
Heartbeat CPU 0 instructions: 69000000 cycles: 88063817 heartbeat IPC: 0.723911 cumulative IPC: 0.702253 (Simulation time: 0 hr 52 min 4 sec) 
Heartbeat CPU 0 instructions: 70000001 cycles: 89507693 heartbeat IPC: 0.692581 cumulative IPC: 0.702089 (Simulation time: 0 hr 52 min 50 sec) 
Heartbeat CPU 0 instructions: 71000001 cycles: 90850628 heartbeat IPC: 0.744638 cumulative IPC: 0.702747 (Simulation time: 0 hr 53 min 33 sec) 
Heartbeat CPU 0 instructions: 72000000 cycles: 92210426 heartbeat IPC: 0.735403 cumulative IPC: 0.703251 (Simulation time: 0 hr 54 min 16 sec) 
Heartbeat CPU 0 instructions: 73000001 cycles: 93675615 heartbeat IPC: 0.682507 cumulative IPC: 0.702912 (Simulation time: 0 hr 54 min 58 sec) 
Heartbeat CPU 0 instructions: 74000001 cycles: 95064945 heartbeat IPC: 0.719771 cumulative IPC: 0.703169 (Simulation time: 0 hr 55 min 38 sec) 
Heartbeat CPU 0 instructions: 75000000 cycles: 96449987 heartbeat IPC: 0.721999 cumulative IPC: 0.703452 (Simulation time: 0 hr 56 min 20 sec) 
Heartbeat CPU 0 instructions: 76000000 cycles: 97892329 heartbeat IPC: 0.693317 cumulative IPC: 0.703296 (Simulation time: 0 hr 57 min 3 sec) 
Heartbeat CPU 0 instructions: 77000002 cycles: 99237737 heartbeat IPC: 0.74327 cumulative IPC: 0.703861 (Simulation time: 0 hr 57 min 43 sec) 
Heartbeat CPU 0 instructions: 78000003 cycles: 100614995 heartbeat IPC: 0.726081 cumulative IPC: 0.704178 (Simulation time: 0 hr 58 min 26 sec) 
Heartbeat CPU 0 instructions: 79000000 cycles: 102039702 heartbeat IPC: 0.701897 cumulative IPC: 0.704145 (Simulation time: 0 hr 59 min 8 sec) 
Heartbeat CPU 0 instructions: 80000000 cycles: 103435715 heartbeat IPC: 0.716326 cumulative IPC: 0.704316 (Simulation time: 0 hr 59 min 51 sec) 
Heartbeat CPU 0 instructions: 81000000 cycles: 104812683 heartbeat IPC: 0.726233 cumulative IPC: 0.704615 (Simulation time: 1 hr 0 min 33 sec) 
Heartbeat CPU 0 instructions: 82000000 cycles: 106192734 heartbeat IPC: 0.724611 cumulative IPC: 0.704885 (Simulation time: 1 hr 1 min 14 sec) 
Heartbeat CPU 0 instructions: 83000003 cycles: 107601502 heartbeat IPC: 0.709842 cumulative IPC: 0.704953 (Simulation time: 1 hr 1 min 56 sec) 
Heartbeat CPU 0 instructions: 84000000 cycles: 108948981 heartbeat IPC: 0.742124 cumulative IPC: 0.70543 (Simulation time: 1 hr 2 min 37 sec) 
Heartbeat CPU 0 instructions: 85000001 cycles: 110327395 heartbeat IPC: 0.725472 cumulative IPC: 0.70569 (Simulation time: 1 hr 3 min 17 sec) 
Heartbeat CPU 0 instructions: 86000003 cycles: 111713121 heartbeat IPC: 0.721645 cumulative IPC: 0.705896 (Simulation time: 1 hr 3 min 57 sec) 
Heartbeat CPU 0 instructions: 87000000 cycles: 113103553 heartbeat IPC: 0.719199 cumulative IPC: 0.706065 (Simulation time: 1 hr 4 min 35 sec) 
Heartbeat CPU 0 instructions: 88000000 cycles: 114460557 heartbeat IPC: 0.736917 cumulative IPC: 0.706444 (Simulation time: 1 hr 5 min 11 sec) 
Heartbeat CPU 0 instructions: 89000003 cycles: 115805231 heartbeat IPC: 0.743677 cumulative IPC: 0.706892 (Simulation time: 1 hr 5 min 48 sec) 
Heartbeat CPU 0 instructions: 90000003 cycles: 117224112 heartbeat IPC: 0.704781 cumulative IPC: 0.706866 (Simulation time: 1 hr 6 min 25 sec) 
Heartbeat CPU 0 instructions: 91000002 cycles: 118560729 heartbeat IPC: 0.748157 cumulative IPC: 0.707348 (Simulation time: 1 hr 6 min 59 sec) 
Heartbeat CPU 0 instructions: 92000000 cycles: 119923074 heartbeat IPC: 0.734027 cumulative IPC: 0.707662 (Simulation time: 1 hr 7 min 33 sec) 
Heartbeat CPU 0 instructions: 93000003 cycles: 121349239 heartbeat IPC: 0.701183 cumulative IPC: 0.707583 (Simulation time: 1 hr 8 min 9 sec) 
Heartbeat CPU 0 instructions: 94000001 cycles: 122682690 heartbeat IPC: 0.749932 cumulative IPC: 0.708059 (Simulation time: 1 hr 8 min 47 sec) 
Heartbeat CPU 0 instructions: 95000003 cycles: 124035085 heartbeat IPC: 0.73943 cumulative IPC: 0.708412 (Simulation time: 1 hr 9 min 22 sec) 
Heartbeat CPU 0 instructions: 96000000 cycles: 125392943 heartbeat IPC: 0.736452 cumulative IPC: 0.708726 (Simulation time: 1 hr 9 min 55 sec) 
Heartbeat CPU 0 instructions: 97000000 cycles: 126829688 heartbeat IPC: 0.696018 cumulative IPC: 0.708577 (Simulation time: 1 hr 10 min 30 sec) 
Heartbeat CPU 0 instructions: 98000002 cycles: 128163621 heartbeat IPC: 0.749664 cumulative IPC: 0.709019 (Simulation time: 1 hr 11 min 5 sec) 
Heartbeat CPU 0 instructions: 99000001 cycles: 129523350 heartbeat IPC: 0.73544 cumulative IPC: 0.709305 (Simulation time: 1 hr 11 min 38 sec) 
Heartbeat CPU 0 instructions: 100000000 cycles: 130922414 heartbeat IPC: 0.714763 cumulative IPC: 0.709365 (Simulation time: 1 hr 12 min 11 sec) 
Heartbeat CPU 0 instructions: 101000003 cycles: 132285442 heartbeat IPC: 0.733663 cumulative IPC: 0.709624 (Simulation time: 1 hr 12 min 43 sec) 
Heartbeat CPU 0 instructions: 102000002 cycles: 133637013 heartbeat IPC: 0.739879 cumulative IPC: 0.709939 (Simulation time: 1 hr 13 min 14 sec) 
Heartbeat CPU 0 instructions: 103000000 cycles: 135035079 heartbeat IPC: 0.715272 cumulative IPC: 0.709996 (Simulation time: 1 hr 13 min 46 sec) 
Heartbeat CPU 0 instructions: 104000000 cycles: 136406056 heartbeat IPC: 0.729407 cumulative IPC: 0.710197 (Simulation time: 1 hr 14 min 15 sec) 
Heartbeat CPU 0 instructions: 105000002 cycles: 137795351 heartbeat IPC: 0.719791 cumulative IPC: 0.710297 (Simulation time: 1 hr 14 min 40 sec) 
Heartbeat CPU 0 instructions: 106000001 cycles: 139151541 heartbeat IPC: 0.737359 cumulative IPC: 0.710569 (Simulation time: 1 hr 15 min 4 sec) 
Heartbeat CPU 0 instructions: 107000000 cycles: 140556395 heartbeat IPC: 0.711817 cumulative IPC: 0.710581 (Simulation time: 1 hr 15 min 28 sec) 
Heartbeat CPU 0 instructions: 108000000 cycles: 141921287 heartbeat IPC: 0.732659 cumulative IPC: 0.7108 (Simulation time: 1 hr 15 min 52 sec) 
Heartbeat CPU 0 instructions: 109000002 cycles: 143306704 heartbeat IPC: 0.721806 cumulative IPC: 0.710909 (Simulation time: 1 hr 16 min 17 sec) 
Heartbeat CPU 0 instructions: 110000000 cycles: 144747490 heartbeat IPC: 0.694064 cumulative IPC: 0.710737 (Simulation time: 1 hr 16 min 42 sec) 
Finished CPU 0 instructions: 100000000 cycles: 140699022 cummulative IPC: 0.710737 (Simulation time: 1 hr 16 min 42 sec) 

ChampSim completed all CPUs

Region of Interest Statistics

CPU 0 cummulative IPC: 0.710737 instructions: 100000000 cycles: 140699022
LLC TOTAL     ACCESS:    5490724  HIT:    1551721  MISS:    3939003
LLC LOAD      ACCESS:     390888  HIT:         63  MISS:     390825
LLC RFO       ACCESS:    2345817  HIT:     502258  MISS:    1843559
LLC PREFETCH  ACCESS:     407878  HIT:          6  MISS:     407872
LLC WRITEBACK ACCESS:    2346141  HIT:    1049394  MISS:    1296747
