
*** ChampSim Multicore Out-of-Order Simulator ***

Warmup Instructions: 10000000
Simulation Instructions: 100000000
Configuration: 2
Number of CPUs: 1
LLC sets: 2048
LLC ways: 16
Off-chip DRAM Channels: 1 Width: 64-bit Data Rate: 1600 MT/s

CPU 0 runs /datasets/cs240c-wi22-a00-public/data/Assignment2-gz/mcf_158B.trace.gz
CPU 0 L1D next line prefetcher
CPU 0 L2C IP-based stride prefetcher
Heartbeat CPU 0 instructions: 1000002 cycles: 512505 heartbeat IPC: 1.9512 cumulative IPC: 1.9512 (Simulation time: 0 hr 0 min 41 sec) 
select_counter is 1023
Heartbeat CPU 0 instructions: 2000002 cycles: 1023333 heartbeat IPC: 1.95761 cumulative IPC: 1.9544 (Simulation time: 0 hr 1 min 20 sec) 
select_counter is 1023
Heartbeat CPU 0 instructions: 3000000 cycles: 1535484 heartbeat IPC: 1.95255 cumulative IPC: 1.95378 (Simulation time: 0 hr 2 min 6 sec) 
select_counter is 1023
Heartbeat CPU 0 instructions: 4000000 cycles: 2046055 heartbeat IPC: 1.95859 cumulative IPC: 1.95498 (Simulation time: 0 hr 2 min 46 sec) 
select_counter is 1020
Heartbeat CPU 0 instructions: 5000002 cycles: 2553361 heartbeat IPC: 1.9712 cumulative IPC: 1.9582 (Simulation time: 0 hr 3 min 29 sec) 
select_counter is 1022
Heartbeat CPU 0 instructions: 6000001 cycles: 3065676 heartbeat IPC: 1.95192 cumulative IPC: 1.95715 (Simulation time: 0 hr 4 min 8 sec) 
select_counter is 1022
Heartbeat CPU 0 instructions: 7000001 cycles: 3574508 heartbeat IPC: 1.96529 cumulative IPC: 1.95831 (Simulation time: 0 hr 4 min 52 sec) 
select_counter is 1023
Heartbeat CPU 0 instructions: 8000000 cycles: 4084975 heartbeat IPC: 1.95899 cumulative IPC: 1.9584 (Simulation time: 0 hr 5 min 34 sec) 
select_counter is 1023
Heartbeat CPU 0 instructions: 9000000 cycles: 4603819 heartbeat IPC: 1.92736 cumulative IPC: 1.9549 (Simulation time: 0 hr 6 min 18 sec) 
select_counter is 1023
Heartbeat CPU 0 instructions: 10000001 cycles: 5142829 heartbeat IPC: 1.85526 cumulative IPC: 1.94446 (Simulation time: 0 hr 6 min 59 sec) 
select_counter is 1023

Warmup complete CPU 0 instructions: 10000001 cycles: 5142829 (Simulation time: 0 hr 6 min 59 sec) 

Heartbeat CPU 0 instructions: 11000001 cycles: 15475965 heartbeat IPC: 0.096776 cumulative IPC: 0.096776 (Simulation time: 0 hr 8 min 0 sec) 
select_counter is 1023
Heartbeat CPU 0 instructions: 12000000 cycles: 24627342 heartbeat IPC: 0.109273 cumulative IPC: 0.102646 (Simulation time: 0 hr 8 min 58 sec) 
select_counter is 1019
Heartbeat CPU 0 instructions: 13000001 cycles: 33706121 heartbeat IPC: 0.110147 cumulative IPC: 0.10503 (Simulation time: 0 hr 9 min 54 sec) 
select_counter is 1022
Heartbeat CPU 0 instructions: 14000001 cycles: 42180002 heartbeat IPC: 0.11801 cumulative IPC: 0.108 (Simulation time: 0 hr 10 min 48 sec) 
select_counter is 1022
Heartbeat CPU 0 instructions: 15000000 cycles: 51086452 heartbeat IPC: 0.112278 cumulative IPC: 0.108829 (Simulation time: 0 hr 11 min 40 sec) 
select_counter is 1023
Heartbeat CPU 0 instructions: 16000000 cycles: 66834759 heartbeat IPC: 0.0634989 cumulative IPC: 0.0972574 (Simulation time: 0 hr 12 min 52 sec) 
select_counter is 1023
Heartbeat CPU 0 instructions: 17000001 cycles: 78761898 heartbeat IPC: 0.0838425 cumulative IPC: 0.0950841 (Simulation time: 0 hr 13 min 55 sec) 
select_counter is 1022
Heartbeat CPU 0 instructions: 18000000 cycles: 88122135 heartbeat IPC: 0.106835 cumulative IPC: 0.0964096 (Simulation time: 0 hr 14 min 49 sec) 
select_counter is 1023
Heartbeat CPU 0 instructions: 19000001 cycles: 97791065 heartbeat IPC: 0.103424 cumulative IPC: 0.0971416 (Simulation time: 0 hr 15 min 50 sec) 
select_counter is 1020
Heartbeat CPU 0 instructions: 20000000 cycles: 107025888 heartbeat IPC: 0.108286 cumulative IPC: 0.0981517 (Simulation time: 0 hr 16 min 50 sec) 
select_counter is 1023
Heartbeat CPU 0 instructions: 21000000 cycles: 116359019 heartbeat IPC: 0.107145 cumulative IPC: 0.0989065 (Simulation time: 0 hr 17 min 46 sec) 
select_counter is 1022
Heartbeat CPU 0 instructions: 22000002 cycles: 125730831 heartbeat IPC: 0.106703 cumulative IPC: 0.0995124 (Simulation time: 0 hr 18 min 39 sec) 
select_counter is 1023
Heartbeat CPU 0 instructions: 23000002 cycles: 136572690 heartbeat IPC: 0.0922351 cumulative IPC: 0.0989121 (Simulation time: 0 hr 19 min 38 sec) 
select_counter is 1023
Heartbeat CPU 0 instructions: 24000000 cycles: 152952267 heartbeat IPC: 0.0610515 cumulative IPC: 0.0947165 (Simulation time: 0 hr 20 min 49 sec) 
select_counter is 1022
Heartbeat CPU 0 instructions: 25000000 cycles: 162766628 heartbeat IPC: 0.101892 cumulative IPC: 0.0951633 (Simulation time: 0 hr 21 min 49 sec) 
select_counter is 1019
Heartbeat CPU 0 instructions: 26000000 cycles: 170573928 heartbeat IPC: 0.128085 cumulative IPC: 0.096717 (Simulation time: 0 hr 22 min 42 sec) 
select_counter is 1022
Heartbeat CPU 0 instructions: 27000002 cycles: 178362292 heartbeat IPC: 0.128397 cumulative IPC: 0.0981414 (Simulation time: 0 hr 23 min 35 sec) 
select_counter is 1023
Heartbeat CPU 0 instructions: 28000000 cycles: 193368921 heartbeat IPC: 0.0666371 cumulative IPC: 0.0956297 (Simulation time: 0 hr 24 min 40 sec) 
select_counter is 1023
Heartbeat CPU 0 instructions: 29000003 cycles: 203179732 heartbeat IPC: 0.101929 cumulative IPC: 0.0959417 (Simulation time: 0 hr 25 min 33 sec) 
select_counter is 1023
Heartbeat CPU 0 instructions: 30000003 cycles: 210646075 heartbeat IPC: 0.133934 cumulative IPC: 0.0973221 (Simulation time: 0 hr 26 min 21 sec) 
select_counter is 1022
Heartbeat CPU 0 instructions: 31000003 cycles: 219094734 heartbeat IPC: 0.118362 cumulative IPC: 0.0981529 (Simulation time: 0 hr 27 min 14 sec) 
select_counter is 1023
Heartbeat CPU 0 instructions: 32000000 cycles: 233755268 heartbeat IPC: 0.0682101 cumulative IPC: 0.0962327 (Simulation time: 0 hr 28 min 27 sec) 
select_counter is 1022
Heartbeat CPU 0 instructions: 33000000 cycles: 241731233 heartbeat IPC: 0.125377 cumulative IPC: 0.0972152 (Simulation time: 0 hr 29 min 17 sec) 
select_counter is 1023
Heartbeat CPU 0 instructions: 34000000 cycles: 249790404 heartbeat IPC: 0.124082 cumulative IPC: 0.0981003 (Simulation time: 0 hr 30 min 9 sec) 
select_counter is 1019
Heartbeat CPU 0 instructions: 35000001 cycles: 258341636 heartbeat IPC: 0.116942 cumulative IPC: 0.0987366 (Simulation time: 0 hr 31 min 0 sec) 
select_counter is 1021
Heartbeat CPU 0 instructions: 36000000 cycles: 273810451 heartbeat IPC: 0.0646461 cumulative IPC: 0.0967738 (Simulation time: 0 hr 32 min 15 sec) 
select_counter is 1023
Heartbeat CPU 0 instructions: 37000001 cycles: 282693207 heartbeat IPC: 0.112578 cumulative IPC: 0.0972796 (Simulation time: 0 hr 33 min 9 sec) 
select_counter is 1023
Heartbeat CPU 0 instructions: 38000000 cycles: 291138711 heartbeat IPC: 0.118406 cumulative IPC: 0.0979035 (Simulation time: 0 hr 33 min 59 sec) 
select_counter is 1022
Heartbeat CPU 0 instructions: 39000000 cycles: 298541098 heartbeat IPC: 0.135092 cumulative IPC: 0.0988417 (Simulation time: 0 hr 34 min 51 sec) 
select_counter is 1022
Heartbeat CPU 0 instructions: 40000000 cycles: 312956421 heartbeat IPC: 0.0693706 cumulative IPC: 0.0974616 (Simulation time: 0 hr 36 min 1 sec) 
select_counter is 1023
Heartbeat CPU 0 instructions: 41000003 cycles: 322399559 heartbeat IPC: 0.105897 cumulative IPC: 0.0977127 (Simulation time: 0 hr 36 min 55 sec) 
select_counter is 1023
Heartbeat CPU 0 instructions: 42000000 cycles: 329846845 heartbeat IPC: 0.134277 cumulative IPC: 0.0985513 (Simulation time: 0 hr 37 min 45 sec) 
select_counter is 1020
Heartbeat CPU 0 instructions: 43000001 cycles: 340662742 heartbeat IPC: 0.0924566 cumulative IPC: 0.0983548 (Simulation time: 0 hr 38 min 39 sec) 
select_counter is 1023
Heartbeat CPU 0 instructions: 44000000 cycles: 352858442 heartbeat IPC: 0.081996 cumulative IPC: 0.0977811 (Simulation time: 0 hr 39 min 39 sec) 
select_counter is 1021
Heartbeat CPU 0 instructions: 45000000 cycles: 359509453 heartbeat IPC: 0.150353 cumulative IPC: 0.0987678 (Simulation time: 0 hr 40 min 23 sec) 
select_counter is 1023
Heartbeat CPU 0 instructions: 46000002 cycles: 369907225 heartbeat IPC: 0.0961746 cumulative IPC: 0.0986938 (Simulation time: 0 hr 41 min 16 sec) 
select_counter is 1023
Heartbeat CPU 0 instructions: 47000002 cycles: 382253810 heartbeat IPC: 0.0809941 cumulative IPC: 0.0981144 (Simulation time: 0 hr 42 min 12 sec) 
select_counter is 1022
Heartbeat CPU 0 instructions: 48000000 cycles: 389078269 heartbeat IPC: 0.146531 cumulative IPC: 0.098975 (Simulation time: 0 hr 42 min 57 sec) 
select_counter is 1022
Heartbeat CPU 0 instructions: 49000003 cycles: 399327623 heartbeat IPC: 0.0975674 cumulative IPC: 0.0989384 (Simulation time: 0 hr 43 min 50 sec) 
select_counter is 1023
Heartbeat CPU 0 instructions: 50000000 cycles: 411842047 heartbeat IPC: 0.0799076 cumulative IPC: 0.0983528 (Simulation time: 0 hr 44 min 48 sec) 
select_counter is 1023
Heartbeat CPU 0 instructions: 51000000 cycles: 418453373 heartbeat IPC: 0.151256 cumulative IPC: 0.099199 (Simulation time: 0 hr 45 min 32 sec) 
select_counter is 1023
Heartbeat CPU 0 instructions: 52000000 cycles: 427923521 heartbeat IPC: 0.105595 cumulative IPC: 0.0993423 (Simulation time: 0 hr 46 min 18 sec) 
select_counter is 1022
Heartbeat CPU 0 instructions: 53000000 cycles: 441245623 heartbeat IPC: 0.0750632 cumulative IPC: 0.0986006 (Simulation time: 0 hr 47 min 15 sec) 
select_counter is 1020
Heartbeat CPU 0 instructions: 54000000 cycles: 448003636 heartbeat IPC: 0.147972 cumulative IPC: 0.099354 (Simulation time: 0 hr 47 min 49 sec) 
select_counter is 1021
Heartbeat CPU 0 instructions: 55000000 cycles: 456032753 heartbeat IPC: 0.124547 cumulative IPC: 0.0998026 (Simulation time: 0 hr 48 min 30 sec) 
select_counter is 1021
Heartbeat CPU 0 instructions: 56000000 cycles: 470582086 heartbeat IPC: 0.0687317 cumulative IPC: 0.0988314 (Simulation time: 0 hr 49 min 20 sec) 
select_counter is 1022
Heartbeat CPU 0 instructions: 57000001 cycles: 477366072 heartbeat IPC: 0.147406 cumulative IPC: 0.0995292 (Simulation time: 0 hr 49 min 52 sec) 
select_counter is 1021
Heartbeat CPU 0 instructions: 58000001 cycles: 484047784 heartbeat IPC: 0.149662 cumulative IPC: 0.100229 (Simulation time: 0 hr 50 min 19 sec) 
select_counter is 1022
Heartbeat CPU 0 instructions: 59000000 cycles: 499663073 heartbeat IPC: 0.0640397 cumulative IPC: 0.0990859 (Simulation time: 0 hr 50 min 59 sec) 
select_counter is 1023
Heartbeat CPU 0 instructions: 60000000 cycles: 506759990 heartbeat IPC: 0.140906 cumulative IPC: 0.0996776 (Simulation time: 0 hr 51 min 22 sec) 
select_counter is 1022
Heartbeat CPU 0 instructions: 61000000 cycles: 514044722 heartbeat IPC: 0.137273 cumulative IPC: 0.100216 (Simulation time: 0 hr 51 min 44 sec) 
select_counter is 1022
Heartbeat CPU 0 instructions: 62000001 cycles: 526506832 heartbeat IPC: 0.0802433 cumulative IPC: 0.0997384 (Simulation time: 0 hr 52 min 12 sec) 
select_counter is 1023
Heartbeat CPU 0 instructions: 63000001 cycles: 536973597 heartbeat IPC: 0.0955405 cumulative IPC: 0.0996558 (Simulation time: 0 hr 52 min 36 sec) 
select_counter is 1023
Heartbeat CPU 0 instructions: 64000000 cycles: 543647504 heartbeat IPC: 0.149837 cumulative IPC: 0.100278 (Simulation time: 0 hr 52 min 56 sec) 
select_counter is 1023
Heartbeat CPU 0 instructions: 65000000 cycles: 551259188 heartbeat IPC: 0.131377 cumulative IPC: 0.100711 (Simulation time: 0 hr 53 min 17 sec) 
select_counter is 1017
Heartbeat CPU 0 instructions: 66000000 cycles: 566073992 heartbeat IPC: 0.0675 cumulative IPC: 0.099834 (Simulation time: 0 hr 53 min 45 sec) 
select_counter is 1023
Heartbeat CPU 0 instructions: 67000002 cycles: 572714940 heartbeat IPC: 0.150581 cumulative IPC: 0.100428 (Simulation time: 0 hr 54 min 3 sec) 
select_counter is 1021
Heartbeat CPU 0 instructions: 68000000 cycles: 579274519 heartbeat IPC: 0.152449 cumulative IPC: 0.101022 (Simulation time: 0 hr 54 min 21 sec) 
select_counter is 1022
Heartbeat CPU 0 instructions: 69000000 cycles: 592422989 heartbeat IPC: 0.0760545 cumulative IPC: 0.100463 (Simulation time: 0 hr 54 min 43 sec) 
select_counter is 1023
Heartbeat CPU 0 instructions: 70000000 cycles: 601740385 heartbeat IPC: 0.107326 cumulative IPC: 0.10057 (Simulation time: 0 hr 55 min 0 sec) 
select_counter is 1023
Heartbeat CPU 0 instructions: 71000002 cycles: 608186454 heartbeat IPC: 0.155134 cumulative IPC: 0.101154 (Simulation time: 0 hr 55 min 14 sec) 
select_counter is 1023
Heartbeat CPU 0 instructions: 72000000 cycles: 616272379 heartbeat IPC: 0.123671 cumulative IPC: 0.101451 (Simulation time: 0 hr 55 min 31 sec) 
select_counter is 1023
Heartbeat CPU 0 instructions: 73000000 cycles: 630537461 heartbeat IPC: 0.0701012 cumulative IPC: 0.100736 (Simulation time: 0 hr 55 min 49 sec) 
select_counter is 1022
Heartbeat CPU 0 instructions: 74000000 cycles: 637282134 heartbeat IPC: 0.148265 cumulative IPC: 0.101244 (Simulation time: 0 hr 55 min 58 sec) 
select_counter is 1022
Heartbeat CPU 0 instructions: 75000001 cycles: 644132578 heartbeat IPC: 0.145976 cumulative IPC: 0.101723 (Simulation time: 0 hr 56 min 4 sec) 
select_counter is 1023
Heartbeat CPU 0 instructions: 76000000 cycles: 656394285 heartbeat IPC: 0.0815546 cumulative IPC: 0.101343 (Simulation time: 0 hr 56 min 12 sec) 
select_counter is 1023
Heartbeat CPU 0 instructions: 77000000 cycles: 667148526 heartbeat IPC: 0.0929866 cumulative IPC: 0.101208 (Simulation time: 0 hr 56 min 18 sec) 
select_counter is 1023
Heartbeat CPU 0 instructions: 78000000 cycles: 674547489 heartbeat IPC: 0.135154 cumulative IPC: 0.101583 (Simulation time: 0 hr 56 min 23 sec) 
select_counter is 1023
Heartbeat CPU 0 instructions: 79000003 cycles: 682214438 heartbeat IPC: 0.13043 cumulative IPC: 0.101909 (Simulation time: 0 hr 56 min 29 sec) 
select_counter is 1023
Heartbeat CPU 0 instructions: 80000000 cycles: 697370370 heartbeat IPC: 0.0659806 cumulative IPC: 0.101123 (Simulation time: 0 hr 56 min 36 sec) 
select_counter is 1023
Heartbeat CPU 0 instructions: 81000001 cycles: 704943183 heartbeat IPC: 0.132051 cumulative IPC: 0.101458 (Simulation time: 0 hr 56 min 41 sec) 
select_counter is 1023
Heartbeat CPU 0 instructions: 82000001 cycles: 712278388 heartbeat IPC: 0.136329 cumulative IPC: 0.101819 (Simulation time: 0 hr 56 min 46 sec) 
select_counter is 1023
Heartbeat CPU 0 instructions: 83000001 cycles: 724897527 heartbeat IPC: 0.0792447 cumulative IPC: 0.101423 (Simulation time: 0 hr 56 min 52 sec) 
select_counter is 1021
Heartbeat CPU 0 instructions: 84000000 cycles: 736033522 heartbeat IPC: 0.0897988 cumulative IPC: 0.101246 (Simulation time: 0 hr 56 min 58 sec) 
select_counter is 1021
Heartbeat CPU 0 instructions: 85000000 cycles: 742817946 heartbeat IPC: 0.147396 cumulative IPC: 0.101671 (Simulation time: 0 hr 57 min 3 sec) 
select_counter is 1023
Heartbeat CPU 0 instructions: 86000000 cycles: 750897175 heartbeat IPC: 0.123774 cumulative IPC: 0.10191 (Simulation time: 0 hr 57 min 8 sec) 
select_counter is 1022
Heartbeat CPU 0 instructions: 87000000 cycles: 765844751 heartbeat IPC: 0.0669005 cumulative IPC: 0.101222 (Simulation time: 0 hr 57 min 15 sec) 
select_counter is 1019
Heartbeat CPU 0 instructions: 88000000 cycles: 773259010 heartbeat IPC: 0.134875 cumulative IPC: 0.101547 (Simulation time: 0 hr 57 min 20 sec) 
select_counter is 1020
Heartbeat CPU 0 instructions: 89000000 cycles: 780947476 heartbeat IPC: 0.130065 cumulative IPC: 0.10183 (Simulation time: 0 hr 57 min 24 sec) 
select_counter is 1020
Heartbeat CPU 0 instructions: 90000002 cycles: 794708260 heartbeat IPC: 0.0726704 cumulative IPC: 0.101322 (Simulation time: 0 hr 57 min 31 sec) 
select_counter is 1023
Heartbeat CPU 0 instructions: 91000000 cycles: 804166559 heartbeat IPC: 0.105727 cumulative IPC: 0.101374 (Simulation time: 0 hr 57 min 36 sec) 
select_counter is 1023
Heartbeat CPU 0 instructions: 92000000 cycles: 811410589 heartbeat IPC: 0.138045 cumulative IPC: 0.101703 (Simulation time: 0 hr 57 min 41 sec) 
select_counter is 1021
Heartbeat CPU 0 instructions: 93000003 cycles: 822683551 heartbeat IPC: 0.0887081 cumulative IPC: 0.101524 (Simulation time: 0 hr 57 min 47 sec) 
select_counter is 1023
Heartbeat CPU 0 instructions: 94000000 cycles: 834733021 heartbeat IPC: 0.082991 cumulative IPC: 0.101255 (Simulation time: 0 hr 57 min 53 sec) 
select_counter is 1022
Heartbeat CPU 0 instructions: 95000000 cycles: 841974088 heartbeat IPC: 0.138101 cumulative IPC: 0.101574 (Simulation time: 0 hr 57 min 58 sec) 
select_counter is 1022
Heartbeat CPU 0 instructions: 96000000 cycles: 849775278 heartbeat IPC: 0.128186 cumulative IPC: 0.101819 (Simulation time: 0 hr 58 min 3 sec) 
select_counter is 1023
Heartbeat CPU 0 instructions: 97000003 cycles: 865275813 heartbeat IPC: 0.0645141 cumulative IPC: 0.101147 (Simulation time: 0 hr 58 min 10 sec) 
select_counter is 1023
Heartbeat CPU 0 instructions: 98000002 cycles: 872939637 heartbeat IPC: 0.130483 cumulative IPC: 0.101406 (Simulation time: 0 hr 58 min 15 sec) 
select_counter is 1021
Heartbeat CPU 0 instructions: 99000000 cycles: 880502280 heartbeat IPC: 0.132229 cumulative IPC: 0.101673 (Simulation time: 0 hr 58 min 20 sec) 
select_counter is 1023
Heartbeat CPU 0 instructions: 100000000 cycles: 893967573 heartbeat IPC: 0.074265 cumulative IPC: 0.101257 (Simulation time: 0 hr 58 min 27 sec) 
select_counter is 1023
Heartbeat CPU 0 instructions: 101000000 cycles: 904179508 heartbeat IPC: 0.0979246 cumulative IPC: 0.101219 (Simulation time: 0 hr 58 min 32 sec) 
select_counter is 1023
Heartbeat CPU 0 instructions: 102000000 cycles: 911914172 heartbeat IPC: 0.129288 cumulative IPC: 0.101459 (Simulation time: 0 hr 58 min 37 sec) 
select_counter is 1023
Heartbeat CPU 0 instructions: 103000001 cycles: 919228936 heartbeat IPC: 0.13671 cumulative IPC: 0.101741 (Simulation time: 0 hr 58 min 42 sec) 
select_counter is 1017
Heartbeat CPU 0 instructions: 104000000 cycles: 935038496 heartbeat IPC: 0.0632528 cumulative IPC: 0.101087 (Simulation time: 0 hr 58 min 49 sec) 
select_counter is 1022
Heartbeat CPU 0 instructions: 105000000 cycles: 943610539 heartbeat IPC: 0.116658 cumulative IPC: 0.101229 (Simulation time: 0 hr 58 min 54 sec) 
select_counter is 1023
Heartbeat CPU 0 instructions: 106000000 cycles: 951247722 heartbeat IPC: 0.130938 cumulative IPC: 0.101469 (Simulation time: 0 hr 58 min 59 sec) 
select_counter is 1023
Heartbeat CPU 0 instructions: 107000000 cycles: 961532247 heartbeat IPC: 0.0972335 cumulative IPC: 0.101423 (Simulation time: 0 hr 59 min 5 sec) 
select_counter is 1022
Heartbeat CPU 0 instructions: 108000000 cycles: 975077520 heartbeat IPC: 0.0738265 cumulative IPC: 0.101038 (Simulation time: 0 hr 59 min 11 sec) 
select_counter is 1022
Heartbeat CPU 0 instructions: 109000000 cycles: 982711896 heartbeat IPC: 0.130986 cumulative IPC: 0.101272 (Simulation time: 0 hr 59 min 16 sec) 
select_counter is 1023
Heartbeat CPU 0 instructions: 110000000 cycles: 990995374 heartbeat IPC: 0.120722 cumulative IPC: 0.101435 (Simulation time: 0 hr 59 min 21 sec) 
select_counter is 1023
Finished CPU 0 instructions: 100000002 cycles: 985852547 cummulative IPC: 0.101435 (Simulation time: 0 hr 59 min 21 sec) 

ChampSim completed all CPUs

Region of Interest Statistics

CPU 0 cummulative IPC: 0.101435 instructions: 100000002 cycles: 985852547
LLC TOTAL     ACCESS:   21080648  HIT:    8493059  MISS:   12587589
LLC LOAD      ACCESS:    9508077  HIT:    5185140  MISS:    4322937
LLC RFO       ACCESS:     164473  HIT:      96558  MISS:      67915
LLC PREFETCH  ACCESS:    9645276  HIT:    2101112  MISS:    7544164
LLC WRITEBACK ACCESS:    1762822  HIT:    1110249  MISS:     652573
Ship samples: 
10, 46, 82, 121, 146, 191, 203, 232, 278, 314, 351, 372, 384, 432, 454, 505, 531, 565, 588, 639, 655, 672, 718, 756, 774, 822, 839, 878, 911, 957, 976, 999, 1026, 1083, 1094, 1127, 1172, 1197, 1219, 1258, 1290, 1327, 1351, 1407, 1414, 1465, 1488, 1522, 1560, 1569, 1601, 1660, 1665, 1717, 1739, 1774, 1792, 1831, 1883, 1919, 1924, 1975, 2009, 2022, 
Lime duel samples: 
17, 100, 217, 299, 395, 489, 581, 696, 779, 870, 962, 1079, 1182, 1249, 1362, 1469, 1554, 1640, 1732, 1853, 1921, 
Lime samples: 
17, 100, 217, 299, 395, 489, 581, 696, 779, 870, 962, 1079, 1182, 1249, 1362, 1469, 1554, 1640, 1732, 1853, 1921, 
Insertion Distribution: 
	LOAD 15158 0 0 0 0 0 15626 94896 
	RFO 1899 0 0 0 0 0 714 564 
	PREF 0 33489 0 0 0 0 54817 182593 
	WRITEBACK 0 0 0 0 0 0 0 18503 
Total Prefetch Downgrades: 40230
