
*** ChampSim Multicore Out-of-Order Simulator ***

Warmup Instructions: 10000000
Simulation Instructions: 100000000
Configuration: 2
Number of CPUs: 1
LLC sets: 2048
LLC ways: 16
Off-chip DRAM Channels: 1 Width: 64-bit Data Rate: 1600 MT/s

CPU 0 runs /datasets/cs240c-wi22-a00-public/data/Assignment2-gz/lbm_94B.trace.gz
CPU 0 L1D next line prefetcher
CPU 0 L2C IP-based stride prefetcher
Heartbeat CPU 0 instructions: 1000000 cycles: 422068 heartbeat IPC: 2.36929 cumulative IPC: 2.36929 (Simulation time: 0 hr 0 min 31 sec) 
select_counter is 1023
Heartbeat CPU 0 instructions: 2000000 cycles: 812399 heartbeat IPC: 2.56193 cumulative IPC: 2.46184 (Simulation time: 0 hr 1 min 0 sec) 
select_counter is 1023
Heartbeat CPU 0 instructions: 3000000 cycles: 1211540 heartbeat IPC: 2.50538 cumulative IPC: 2.47619 (Simulation time: 0 hr 1 min 27 sec) 
select_counter is 1023
Heartbeat CPU 0 instructions: 4000000 cycles: 1631535 heartbeat IPC: 2.38098 cumulative IPC: 2.45168 (Simulation time: 0 hr 1 min 57 sec) 
select_counter is 1023
Heartbeat CPU 0 instructions: 5000001 cycles: 2021787 heartbeat IPC: 2.56245 cumulative IPC: 2.47306 (Simulation time: 0 hr 2 min 25 sec) 
select_counter is 1023
Heartbeat CPU 0 instructions: 6000000 cycles: 2422465 heartbeat IPC: 2.49577 cumulative IPC: 2.47682 (Simulation time: 0 hr 2 min 53 sec) 
select_counter is 1023
Heartbeat CPU 0 instructions: 7000001 cycles: 2840614 heartbeat IPC: 2.39149 cumulative IPC: 2.46426 (Simulation time: 0 hr 3 min 23 sec) 
select_counter is 1022
Heartbeat CPU 0 instructions: 8000000 cycles: 3230851 heartbeat IPC: 2.56254 cumulative IPC: 2.47613 (Simulation time: 0 hr 3 min 51 sec) 
select_counter is 1023
Heartbeat CPU 0 instructions: 9000003 cycles: 3631886 heartbeat IPC: 2.49356 cumulative IPC: 2.47805 (Simulation time: 0 hr 4 min 20 sec) 
select_counter is 1022
Heartbeat CPU 0 instructions: 10000000 cycles: 4048463 heartbeat IPC: 2.40051 cumulative IPC: 2.47007 (Simulation time: 0 hr 4 min 49 sec) 
select_counter is 1023

Warmup complete CPU 0 instructions: 10000004 cycles: 4048464 (Simulation time: 0 hr 4 min 49 sec) 

Heartbeat CPU 0 instructions: 11000001 cycles: 5424178 heartbeat IPC: 0.726895 cumulative IPC: 0.726893 (Simulation time: 0 hr 5 min 20 sec) 
select_counter is 1023
Heartbeat CPU 0 instructions: 12000000 cycles: 7006213 heartbeat IPC: 0.632097 cumulative IPC: 0.676189 (Simulation time: 0 hr 5 min 56 sec) 
select_counter is 1023
Heartbeat CPU 0 instructions: 13000000 cycles: 8658300 heartbeat IPC: 0.605295 cumulative IPC: 0.650782 (Simulation time: 0 hr 6 min 31 sec) 
select_counter is 1023
Heartbeat CPU 0 instructions: 14000000 cycles: 9989512 heartbeat IPC: 0.751195 cumulative IPC: 0.673281 (Simulation time: 0 hr 7 min 1 sec) 
select_counter is 1023
Heartbeat CPU 0 instructions: 15000003 cycles: 11543999 heartbeat IPC: 0.643301 cumulative IPC: 0.667064 (Simulation time: 0 hr 7 min 34 sec) 
select_counter is 1021
Heartbeat CPU 0 instructions: 16000000 cycles: 13246056 heartbeat IPC: 0.587523 cumulative IPC: 0.652344 (Simulation time: 0 hr 8 min 7 sec) 
select_counter is 1023
Heartbeat CPU 0 instructions: 17000001 cycles: 14612972 heartbeat IPC: 0.731575 cumulative IPC: 0.662596 (Simulation time: 0 hr 8 min 37 sec) 
select_counter is 1022
Heartbeat CPU 0 instructions: 18000001 cycles: 16100692 heartbeat IPC: 0.67217 cumulative IPC: 0.663777 (Simulation time: 0 hr 9 min 7 sec) 
select_counter is 1023
Heartbeat CPU 0 instructions: 19000000 cycles: 17746139 heartbeat IPC: 0.607737 cumulative IPC: 0.657046 (Simulation time: 0 hr 9 min 43 sec) 
select_counter is 1023
Heartbeat CPU 0 instructions: 20000000 cycles: 19105806 heartbeat IPC: 0.735474 cumulative IPC: 0.664128 (Simulation time: 0 hr 10 min 17 sec) 
select_counter is 1021
Heartbeat CPU 0 instructions: 21000001 cycles: 20528603 heartbeat IPC: 0.702842 cumulative IPC: 0.66747 (Simulation time: 0 hr 10 min 51 sec) 
select_counter is 1023
Heartbeat CPU 0 instructions: 22000000 cycles: 22177216 heartbeat IPC: 0.60657 cumulative IPC: 0.661932 (Simulation time: 0 hr 11 min 28 sec) 
select_counter is 1022
Heartbeat CPU 0 instructions: 23000000 cycles: 23529507 heartbeat IPC: 0.739486 cumulative IPC: 0.667315 (Simulation time: 0 hr 12 min 3 sec) 
select_counter is 1023
Heartbeat CPU 0 instructions: 24000000 cycles: 24966587 heartbeat IPC: 0.695855 cumulative IPC: 0.669276 (Simulation time: 0 hr 12 min 35 sec) 
select_counter is 1023
Heartbeat CPU 0 instructions: 25000000 cycles: 26606180 heartbeat IPC: 0.609907 cumulative IPC: 0.664961 (Simulation time: 0 hr 13 min 9 sec) 
select_counter is 1023
Heartbeat CPU 0 instructions: 26000000 cycles: 27958658 heartbeat IPC: 0.739384 cumulative IPC: 0.66917 (Simulation time: 0 hr 13 min 41 sec) 
select_counter is 1022
Heartbeat CPU 0 instructions: 27000002 cycles: 29362109 heartbeat IPC: 0.712531 cumulative IPC: 0.671574 (Simulation time: 0 hr 14 min 13 sec) 
select_counter is 1023
Heartbeat CPU 0 instructions: 28000000 cycles: 31017768 heartbeat IPC: 0.603988 cumulative IPC: 0.667425 (Simulation time: 0 hr 14 min 51 sec) 
select_counter is 1023
Heartbeat CPU 0 instructions: 29000000 cycles: 32401165 heartbeat IPC: 0.722858 cumulative IPC: 0.67013 (Simulation time: 0 hr 15 min 22 sec) 
select_counter is 1023
Heartbeat CPU 0 instructions: 30000000 cycles: 33819699 heartbeat IPC: 0.704953 cumulative IPC: 0.671789 (Simulation time: 0 hr 15 min 51 sec) 
select_counter is 1023
Heartbeat CPU 0 instructions: 31000001 cycles: 35394014 heartbeat IPC: 0.635198 cumulative IPC: 0.669951 (Simulation time: 0 hr 16 min 27 sec) 
select_counter is 1022
Heartbeat CPU 0 instructions: 32000000 cycles: 36759270 heartbeat IPC: 0.732463 cumulative IPC: 0.672561 (Simulation time: 0 hr 16 min 58 sec) 
select_counter is 1023
Heartbeat CPU 0 instructions: 33000000 cycles: 38186613 heartbeat IPC: 0.700602 cumulative IPC: 0.673733 (Simulation time: 0 hr 17 min 33 sec) 
select_counter is 1023
Heartbeat CPU 0 instructions: 34000003 cycles: 39728636 heartbeat IPC: 0.648501 cumulative IPC: 0.672642 (Simulation time: 0 hr 18 min 4 sec) 
select_counter is 1023
Heartbeat CPU 0 instructions: 35000003 cycles: 41100835 heartbeat IPC: 0.728757 cumulative IPC: 0.674721 (Simulation time: 0 hr 18 min 34 sec) 
select_counter is 1023
Heartbeat CPU 0 instructions: 36000000 cycles: 42510301 heartbeat IPC: 0.709486 cumulative IPC: 0.675995 (Simulation time: 0 hr 19 min 3 sec) 
select_counter is 1020
Heartbeat CPU 0 instructions: 37000003 cycles: 43971978 heartbeat IPC: 0.684148 cumulative IPC: 0.676293 (Simulation time: 0 hr 19 min 34 sec) 
select_counter is 1023
Heartbeat CPU 0 instructions: 38000001 cycles: 45366641 heartbeat IPC: 0.717018 cumulative IPC: 0.677668 (Simulation time: 0 hr 20 min 5 sec) 
select_counter is 1023
Heartbeat CPU 0 instructions: 39000002 cycles: 46720479 heartbeat IPC: 0.738642 cumulative IPC: 0.679602 (Simulation time: 0 hr 20 min 35 sec) 
select_counter is 1023
Heartbeat CPU 0 instructions: 40000000 cycles: 48228379 heartbeat IPC: 0.663173 cumulative IPC: 0.679042 (Simulation time: 0 hr 21 min 9 sec) 
select_counter is 1022
Heartbeat CPU 0 instructions: 41000003 cycles: 49664583 heartbeat IPC: 0.696282 cumulative IPC: 0.679584 (Simulation time: 0 hr 21 min 39 sec) 
select_counter is 1023
Heartbeat CPU 0 instructions: 42000000 cycles: 50996988 heartbeat IPC: 0.75052 cumulative IPC: 0.681597 (Simulation time: 0 hr 22 min 11 sec) 
select_counter is 1023
Heartbeat CPU 0 instructions: 43000001 cycles: 52404532 heartbeat IPC: 0.710458 cumulative IPC: 0.682438 (Simulation time: 0 hr 22 min 46 sec) 
select_counter is 1022
Heartbeat CPU 0 instructions: 44000000 cycles: 53883905 heartbeat IPC: 0.675961 cumulative IPC: 0.682245 (Simulation time: 0 hr 23 min 19 sec) 
select_counter is 1023
Heartbeat CPU 0 instructions: 45000002 cycles: 55212245 heartbeat IPC: 0.752821 cumulative IPC: 0.684078 (Simulation time: 0 hr 23 min 52 sec) 
select_counter is 1022
Heartbeat CPU 0 instructions: 46000003 cycles: 56643923 heartbeat IPC: 0.698482 cumulative IPC: 0.68447 (Simulation time: 0 hr 24 min 23 sec) 
select_counter is 1021
Heartbeat CPU 0 instructions: 47000001 cycles: 58115335 heartbeat IPC: 0.679618 cumulative IPC: 0.684338 (Simulation time: 0 hr 24 min 51 sec) 
select_counter is 1022
Heartbeat CPU 0 instructions: 48000000 cycles: 59500077 heartbeat IPC: 0.722155 cumulative IPC: 0.685282 (Simulation time: 0 hr 25 min 19 sec) 
select_counter is 1023
Heartbeat CPU 0 instructions: 49000000 cycles: 60911206 heartbeat IPC: 0.708652 cumulative IPC: 0.685862 (Simulation time: 0 hr 25 min 51 sec) 
select_counter is 1023
Heartbeat CPU 0 instructions: 50000003 cycles: 62314208 heartbeat IPC: 0.712759 cumulative IPC: 0.68651 (Simulation time: 0 hr 26 min 22 sec) 
select_counter is 1022
Heartbeat CPU 0 instructions: 51000003 cycles: 63687038 heartbeat IPC: 0.728422 cumulative IPC: 0.687474 (Simulation time: 0 hr 26 min 50 sec) 
select_counter is 1022
Heartbeat CPU 0 instructions: 52000000 cycles: 65065706 heartbeat IPC: 0.725336 cumulative IPC: 0.68833 (Simulation time: 0 hr 27 min 22 sec) 
select_counter is 1023
Heartbeat CPU 0 instructions: 53000001 cycles: 66495883 heartbeat IPC: 0.699215 cumulative IPC: 0.688579 (Simulation time: 0 hr 27 min 54 sec) 
select_counter is 1023
Heartbeat CPU 0 instructions: 54000000 cycles: 67883532 heartbeat IPC: 0.720643 cumulative IPC: 0.689276 (Simulation time: 0 hr 28 min 26 sec) 
select_counter is 1022
Heartbeat CPU 0 instructions: 55000003 cycles: 69229862 heartbeat IPC: 0.742762 cumulative IPC: 0.690381 (Simulation time: 0 hr 29 min 1 sec) 
select_counter is 1023
Heartbeat CPU 0 instructions: 56000000 cycles: 70643764 heartbeat IPC: 0.70726 cumulative IPC: 0.690739 (Simulation time: 0 hr 29 min 33 sec) 
select_counter is 1023
Heartbeat CPU 0 instructions: 57000003 cycles: 72001935 heartbeat IPC: 0.736287 cumulative IPC: 0.69165 (Simulation time: 0 hr 30 min 2 sec) 
select_counter is 1022
Heartbeat CPU 0 instructions: 58000003 cycles: 73375275 heartbeat IPC: 0.728152 cumulative IPC: 0.692373 (Simulation time: 0 hr 30 min 35 sec) 
select_counter is 1020
Heartbeat CPU 0 instructions: 59000002 cycles: 74794510 heartbeat IPC: 0.704604 cumulative IPC: 0.692618 (Simulation time: 0 hr 31 min 5 sec) 
select_counter is 1023
Heartbeat CPU 0 instructions: 60000000 cycles: 76165198 heartbeat IPC: 0.729559 cumulative IPC: 0.69332 (Simulation time: 0 hr 31 min 37 sec) 
select_counter is 1023
Heartbeat CPU 0 instructions: 61000000 cycles: 77522051 heartbeat IPC: 0.737 cumulative IPC: 0.694127 (Simulation time: 0 hr 32 min 9 sec) 
select_counter is 1023
Heartbeat CPU 0 instructions: 62000000 cycles: 78901384 heartbeat IPC: 0.724988 cumulative IPC: 0.694696 (Simulation time: 0 hr 32 min 39 sec) 
select_counter is 1022
Heartbeat CPU 0 instructions: 63000003 cycles: 80341129 heartbeat IPC: 0.69457 cumulative IPC: 0.694693 (Simulation time: 0 hr 33 min 9 sec) 
select_counter is 1023
Heartbeat CPU 0 instructions: 64000000 cycles: 81703552 heartbeat IPC: 0.733984 cumulative IPC: 0.695383 (Simulation time: 0 hr 33 min 39 sec) 
select_counter is 1023
Heartbeat CPU 0 instructions: 65000003 cycles: 83041061 heartbeat IPC: 0.747661 cumulative IPC: 0.696268 (Simulation time: 0 hr 34 min 7 sec) 
select_counter is 1023
Heartbeat CPU 0 instructions: 66000002 cycles: 84445881 heartbeat IPC: 0.711834 cumulative IPC: 0.69654 (Simulation time: 0 hr 34 min 37 sec) 
select_counter is 1022
Heartbeat CPU 0 instructions: 67000002 cycles: 85790702 heartbeat IPC: 0.743593 cumulative IPC: 0.697314 (Simulation time: 0 hr 35 min 9 sec) 
select_counter is 1023
Heartbeat CPU 0 instructions: 68000000 cycles: 87160487 heartbeat IPC: 0.73004 cumulative IPC: 0.697853 (Simulation time: 0 hr 35 min 40 sec) 
select_counter is 1023
Heartbeat CPU 0 instructions: 69000000 cycles: 88547471 heartbeat IPC: 0.720989 cumulative IPC: 0.698233 (Simulation time: 0 hr 36 min 11 sec) 
select_counter is 1023
Heartbeat CPU 0 instructions: 70000001 cycles: 89999314 heartbeat IPC: 0.68878 cumulative IPC: 0.698073 (Simulation time: 0 hr 36 min 44 sec) 
select_counter is 1023
Heartbeat CPU 0 instructions: 71000001 cycles: 91340256 heartbeat IPC: 0.745744 cumulative IPC: 0.698806 (Simulation time: 0 hr 37 min 15 sec) 
select_counter is 1023
Heartbeat CPU 0 instructions: 72000000 cycles: 92696205 heartbeat IPC: 0.73749 cumulative IPC: 0.699397 (Simulation time: 0 hr 37 min 44 sec) 
select_counter is 1022
Heartbeat CPU 0 instructions: 73000001 cycles: 94117941 heartbeat IPC: 0.703366 cumulative IPC: 0.69946 (Simulation time: 0 hr 38 min 17 sec) 
select_counter is 1023
Heartbeat CPU 0 instructions: 74000001 cycles: 95508798 heartbeat IPC: 0.718981 cumulative IPC: 0.699757 (Simulation time: 0 hr 38 min 48 sec) 
select_counter is 1023
Heartbeat CPU 0 instructions: 75000003 cycles: 96872013 heartbeat IPC: 0.733561 cumulative IPC: 0.700253 (Simulation time: 0 hr 39 min 22 sec) 
select_counter is 1023
Heartbeat CPU 0 instructions: 76000000 cycles: 98281139 heartbeat IPC: 0.709658 cumulative IPC: 0.700394 (Simulation time: 0 hr 39 min 52 sec) 
select_counter is 1023
Heartbeat CPU 0 instructions: 77000002 cycles: 99654798 heartbeat IPC: 0.727984 cumulative IPC: 0.70079 (Simulation time: 0 hr 40 min 24 sec) 
select_counter is 1023
Heartbeat CPU 0 instructions: 78000003 cycles: 101033929 heartbeat IPC: 0.725095 cumulative IPC: 0.701136 (Simulation time: 0 hr 40 min 55 sec) 
select_counter is 1022
Heartbeat CPU 0 instructions: 79000000 cycles: 102419098 heartbeat IPC: 0.721931 cumulative IPC: 0.701429 (Simulation time: 0 hr 41 min 30 sec) 
select_counter is 1020
Heartbeat CPU 0 instructions: 80000000 cycles: 103830583 heartbeat IPC: 0.708474 cumulative IPC: 0.701528 (Simulation time: 0 hr 41 min 58 sec) 
select_counter is 1023
Heartbeat CPU 0 instructions: 81000000 cycles: 105180845 heartbeat IPC: 0.740597 cumulative IPC: 0.70205 (Simulation time: 0 hr 42 min 27 sec) 
select_counter is 1022
Heartbeat CPU 0 instructions: 82000000 cycles: 106567155 heartbeat IPC: 0.721339 cumulative IPC: 0.702311 (Simulation time: 0 hr 42 min 56 sec) 
select_counter is 1023
Heartbeat CPU 0 instructions: 83000003 cycles: 107975265 heartbeat IPC: 0.710174 cumulative IPC: 0.702417 (Simulation time: 0 hr 43 min 26 sec) 
select_counter is 1018
Heartbeat CPU 0 instructions: 84000000 cycles: 109333262 heartbeat IPC: 0.736376 cumulative IPC: 0.702855 (Simulation time: 0 hr 43 min 53 sec) 
select_counter is 1023
Heartbeat CPU 0 instructions: 85000001 cycles: 110703194 heartbeat IPC: 0.729964 cumulative IPC: 0.703204 (Simulation time: 0 hr 44 min 19 sec) 
select_counter is 1023
Heartbeat CPU 0 instructions: 86000003 cycles: 112115702 heartbeat IPC: 0.707962 cumulative IPC: 0.703266 (Simulation time: 0 hr 44 min 47 sec) 
select_counter is 1023
Heartbeat CPU 0 instructions: 87000000 cycles: 113495624 heartbeat IPC: 0.724676 cumulative IPC: 0.703536 (Simulation time: 0 hr 45 min 12 sec) 
select_counter is 1023
Heartbeat CPU 0 instructions: 88000000 cycles: 114874672 heartbeat IPC: 0.725138 cumulative IPC: 0.703805 (Simulation time: 0 hr 45 min 38 sec) 
select_counter is 1023
Heartbeat CPU 0 instructions: 89000003 cycles: 116231881 heartbeat IPC: 0.736808 cumulative IPC: 0.704204 (Simulation time: 0 hr 46 min 7 sec) 
select_counter is 1021
Heartbeat CPU 0 instructions: 90000003 cycles: 117656274 heartbeat IPC: 0.702053 cumulative IPC: 0.704177 (Simulation time: 0 hr 46 min 32 sec) 
select_counter is 1023
Heartbeat CPU 0 instructions: 91000002 cycles: 118997267 heartbeat IPC: 0.745715 cumulative IPC: 0.704661 (Simulation time: 0 hr 46 min 59 sec) 
select_counter is 1023
Heartbeat CPU 0 instructions: 92000000 cycles: 120368531 heartbeat IPC: 0.729253 cumulative IPC: 0.704951 (Simulation time: 0 hr 47 min 24 sec) 
select_counter is 1022
Heartbeat CPU 0 instructions: 93000003 cycles: 121805997 heartbeat IPC: 0.695671 cumulative IPC: 0.704838 (Simulation time: 0 hr 47 min 46 sec) 
select_counter is 1023
Heartbeat CPU 0 instructions: 94000001 cycles: 123160764 heartbeat IPC: 0.738133 cumulative IPC: 0.705217 (Simulation time: 0 hr 48 min 10 sec) 
select_counter is 1022
Heartbeat CPU 0 instructions: 95000001 cycles: 124512189 heartbeat IPC: 0.73996 cumulative IPC: 0.705607 (Simulation time: 0 hr 48 min 37 sec) 
select_counter is 1023
Heartbeat CPU 0 instructions: 96000000 cycles: 125868254 heartbeat IPC: 0.737427 cumulative IPC: 0.705961 (Simulation time: 0 hr 49 min 2 sec) 
select_counter is 1022
Heartbeat CPU 0 instructions: 97000000 cycles: 127297045 heartbeat IPC: 0.699892 cumulative IPC: 0.70589 (Simulation time: 0 hr 49 min 25 sec) 
select_counter is 1022
Heartbeat CPU 0 instructions: 98000002 cycles: 128644952 heartbeat IPC: 0.741892 cumulative IPC: 0.70628 (Simulation time: 0 hr 49 min 46 sec) 
select_counter is 1023
Heartbeat CPU 0 instructions: 99000001 cycles: 130003676 heartbeat IPC: 0.735984 cumulative IPC: 0.7066 (Simulation time: 0 hr 50 min 6 sec) 
select_counter is 1023
Heartbeat CPU 0 instructions: 100000000 cycles: 131394845 heartbeat IPC: 0.718819 cumulative IPC: 0.706734 (Simulation time: 0 hr 50 min 26 sec) 
select_counter is 1023
Heartbeat CPU 0 instructions: 101000003 cycles: 132775121 heartbeat IPC: 0.724495 cumulative IPC: 0.706924 (Simulation time: 0 hr 50 min 43 sec) 
select_counter is 1023
Heartbeat CPU 0 instructions: 102000002 cycles: 134143780 heartbeat IPC: 0.730641 cumulative IPC: 0.707174 (Simulation time: 0 hr 51 min 0 sec) 
select_counter is 1022
Heartbeat CPU 0 instructions: 103000000 cycles: 135578645 heartbeat IPC: 0.696928 cumulative IPC: 0.707062 (Simulation time: 0 hr 51 min 16 sec) 
select_counter is 1023
Heartbeat CPU 0 instructions: 104000000 cycles: 136936939 heartbeat IPC: 0.736218 cumulative IPC: 0.70736 (Simulation time: 0 hr 51 min 31 sec) 
select_counter is 1023
Heartbeat CPU 0 instructions: 105000002 cycles: 138302767 heartbeat IPC: 0.732158 cumulative IPC: 0.707612 (Simulation time: 0 hr 51 min 45 sec) 
select_counter is 1023
Heartbeat CPU 0 instructions: 106000001 cycles: 139645340 heartbeat IPC: 0.744838 cumulative IPC: 0.707981 (Simulation time: 0 hr 51 min 58 sec) 
select_counter is 1023
Heartbeat CPU 0 instructions: 107000000 cycles: 141067823 heartbeat IPC: 0.702995 cumulative IPC: 0.707929 (Simulation time: 0 hr 52 min 12 sec) 
select_counter is 1023
Heartbeat CPU 0 instructions: 108000000 cycles: 142444792 heartbeat IPC: 0.726233 cumulative IPC: 0.708111 (Simulation time: 0 hr 52 min 26 sec) 
select_counter is 1023
Heartbeat CPU 0 instructions: 109000002 cycles: 143818467 heartbeat IPC: 0.727976 cumulative IPC: 0.708306 (Simulation time: 0 hr 52 min 39 sec) 
select_counter is 1023
Heartbeat CPU 0 instructions: 110000000 cycles: 145261753 heartbeat IPC: 0.692862 cumulative IPC: 0.708149 (Simulation time: 0 hr 52 min 53 sec) 
select_counter is 1023
Finished CPU 0 instructions: 100000000 cycles: 141213290 cummulative IPC: 0.708149 (Simulation time: 0 hr 52 min 53 sec) 

ChampSim completed all CPUs

Region of Interest Statistics

CPU 0 cummulative IPC: 0.708149 instructions: 100000000 cycles: 141213290
LLC TOTAL     ACCESS:    5490023  HIT:    1536020  MISS:    3954003
LLC LOAD      ACCESS:     390575  HIT:        551  MISS:     390024
LLC RFO       ACCESS:    2345808  HIT:     497335  MISS:    1848473
LLC PREFETCH  ACCESS:     407502  HIT:        580  MISS:     406922
LLC WRITEBACK ACCESS:    2346138  HIT:    1037554  MISS:    1308584
Ship samples: 
17, 47, 77, 119, 147, 179, 209, 235, 263, 309, 338, 352, 385, 447, 450, 497, 543, 549, 581, 633, 654, 687, 718, 765, 797, 808, 848, 887, 899, 946, 966, 1022, 1041, 1068, 1119, 1140, 1160, 1206, 1217, 1257, 1309, 1336, 1360, 1385, 1436, 1453, 1484, 1521, 1567, 1583, 1629, 1646, 1668, 1697, 1750, 1783, 1793, 1855, 1862, 1896, 1938, 1953, 2010, 2021, 
Lime duel samples: 
16, 103, 201, 305, 391, 496, 582, 674, 799, 872, 965, 1059, 1165, 1269, 1350, 1454, 1552, 1660, 1754, 1853, 1941, 
Lime samples: 
16, 103, 201, 305, 391, 496, 582, 674, 799, 872, 965, 1059, 1165, 1269, 1350, 1454, 1552, 1660, 1754, 1853, 1941, 
Insertion Distribution: 
	LOAD 0 0 0 0 0 0 94 12592 
	RFO 2004 0 0 0 0 0 11758 59187 
	PREF 0 199 0 0 0 0 1734 11957 
	WRITEBACK 0 0 0 0 0 0 0 56718 
Total Prefetch Downgrades: 496
