
*** ChampSim Multicore Out-of-Order Simulator ***

Warmup Instructions: 10000000
Simulation Instructions: 100000000
Configuration: 2
Number of CPUs: 1
LLC sets: 2048
LLC ways: 16
Off-chip DRAM Channels: 1 Width: 64-bit Data Rate: 1600 MT/s

CPU 0 runs /datasets/cs240c-wi22-a00-public/data/Assignment2-gz/soplex_205B.trace.gz
CPU 0 L1D next line prefetcher
CPU 0 L2C IP-based stride prefetcher
Heartbeat CPU 0 instructions: 1000000 cycles: 395620 heartbeat IPC: 2.52768 cumulative IPC: 2.52768 (Simulation time: 0 hr 0 min 24 sec) 
select_counter is 889
Heartbeat CPU 0 instructions: 2000002 cycles: 927636 heartbeat IPC: 1.87965 cumulative IPC: 2.15602 (Simulation time: 0 hr 0 min 51 sec) 
select_counter is 1023
Heartbeat CPU 0 instructions: 3000000 cycles: 1399707 heartbeat IPC: 2.11832 cumulative IPC: 2.14331 (Simulation time: 0 hr 1 min 28 sec) 
select_counter is 1023
Heartbeat CPU 0 instructions: 4000000 cycles: 1760958 heartbeat IPC: 2.76816 cumulative IPC: 2.27149 (Simulation time: 0 hr 1 min 57 sec) 
select_counter is 1022
Heartbeat CPU 0 instructions: 5000003 cycles: 2204396 heartbeat IPC: 2.25511 cumulative IPC: 2.2682 (Simulation time: 0 hr 2 min 28 sec) 
select_counter is 1023
Heartbeat CPU 0 instructions: 6000003 cycles: 2624348 heartbeat IPC: 2.38122 cumulative IPC: 2.28628 (Simulation time: 0 hr 3 min 0 sec) 
select_counter is 1023
Heartbeat CPU 0 instructions: 7000000 cycles: 3008783 heartbeat IPC: 2.60121 cumulative IPC: 2.32652 (Simulation time: 0 hr 3 min 24 sec) 
select_counter is 1023
Heartbeat CPU 0 instructions: 8000000 cycles: 3402842 heartbeat IPC: 2.53769 cumulative IPC: 2.35098 (Simulation time: 0 hr 3 min 48 sec) 
select_counter is 1022
Heartbeat CPU 0 instructions: 9000003 cycles: 3928018 heartbeat IPC: 1.90413 cumulative IPC: 2.29123 (Simulation time: 0 hr 4 min 19 sec) 
select_counter is 1022
Heartbeat CPU 0 instructions: 10000000 cycles: 4413366 heartbeat IPC: 2.06037 cumulative IPC: 2.26584 (Simulation time: 0 hr 4 min 50 sec) 
select_counter is 1023

Warmup complete CPU 0 instructions: 10000004 cycles: 4413368 (Simulation time: 0 hr 4 min 50 sec) 

Heartbeat CPU 0 instructions: 11000001 cycles: 7040808 heartbeat IPC: 0.380599 cumulative IPC: 0.380597 (Simulation time: 0 hr 5 min 24 sec) 
select_counter is 1023
Heartbeat CPU 0 instructions: 12000000 cycles: 9300381 heartbeat IPC: 0.442561 cumulative IPC: 0.409247 (Simulation time: 0 hr 5 min 59 sec) 
select_counter is 1023
Heartbeat CPU 0 instructions: 13000000 cycles: 12919229 heartbeat IPC: 0.276331 cumulative IPC: 0.352698 (Simulation time: 0 hr 6 min 41 sec) 
select_counter is 1022
Heartbeat CPU 0 instructions: 14000003 cycles: 14241076 heartbeat IPC: 0.756519 cumulative IPC: 0.407012 (Simulation time: 0 hr 7 min 5 sec) 
select_counter is 1023
Heartbeat CPU 0 instructions: 15000000 cycles: 15997402 heartbeat IPC: 0.569369 cumulative IPC: 0.431628 (Simulation time: 0 hr 7 min 33 sec) 
select_counter is 1023
Heartbeat CPU 0 instructions: 16000000 cycles: 19435847 heartbeat IPC: 0.290829 cumulative IPC: 0.399401 (Simulation time: 0 hr 8 min 16 sec) 
select_counter is 1021
Heartbeat CPU 0 instructions: 17000001 cycles: 23166255 heartbeat IPC: 0.268067 cumulative IPC: 0.373276 (Simulation time: 0 hr 9 min 8 sec) 
select_counter is 1023
Heartbeat CPU 0 instructions: 18000000 cycles: 29771547 heartbeat IPC: 0.151394 cumulative IPC: 0.31548 (Simulation time: 0 hr 9 min 55 sec) 
select_counter is 1023
Heartbeat CPU 0 instructions: 19000003 cycles: 34308726 heartbeat IPC: 0.220402 cumulative IPC: 0.30105 (Simulation time: 0 hr 10 min 43 sec) 
select_counter is 1023
Heartbeat CPU 0 instructions: 20000000 cycles: 36542406 heartbeat IPC: 0.44769 cumulative IPC: 0.311245 (Simulation time: 0 hr 11 min 26 sec) 
select_counter is 1022
Heartbeat CPU 0 instructions: 21000001 cycles: 41185864 heartbeat IPC: 0.215357 cumulative IPC: 0.299137 (Simulation time: 0 hr 12 min 12 sec) 
select_counter is 1023
Heartbeat CPU 0 instructions: 22000001 cycles: 45353075 heartbeat IPC: 0.239969 cumulative IPC: 0.293114 (Simulation time: 0 hr 12 min 55 sec) 
select_counter is 1023
Heartbeat CPU 0 instructions: 23000001 cycles: 48581388 heartbeat IPC: 0.309759 cumulative IPC: 0.294331 (Simulation time: 0 hr 13 min 36 sec) 
select_counter is 1022
Heartbeat CPU 0 instructions: 24000000 cycles: 52413908 heartbeat IPC: 0.260925 cumulative IPC: 0.291663 (Simulation time: 0 hr 14 min 14 sec) 
select_counter is 1023
Heartbeat CPU 0 instructions: 25000000 cycles: 56323885 heartbeat IPC: 0.255756 cumulative IPC: 0.288959 (Simulation time: 0 hr 14 min 51 sec) 
select_counter is 1023
Heartbeat CPU 0 instructions: 26000002 cycles: 60092430 heartbeat IPC: 0.265355 cumulative IPC: 0.287361 (Simulation time: 0 hr 15 min 32 sec) 
select_counter is 1023
Heartbeat CPU 0 instructions: 27000000 cycles: 62676394 heartbeat IPC: 0.387002 cumulative IPC: 0.29178 (Simulation time: 0 hr 16 min 7 sec) 
select_counter is 1021
Heartbeat CPU 0 instructions: 28000000 cycles: 66333858 heartbeat IPC: 0.273413 cumulative IPC: 0.290695 (Simulation time: 0 hr 16 min 49 sec) 
select_counter is 1022
Heartbeat CPU 0 instructions: 29000000 cycles: 68367196 heartbeat IPC: 0.491802 cumulative IPC: 0.297089 (Simulation time: 0 hr 17 min 25 sec) 
select_counter is 1023
Heartbeat CPU 0 instructions: 30000003 cycles: 69285594 heartbeat IPC: 1.08886 cumulative IPC: 0.308298 (Simulation time: 0 hr 17 min 54 sec) 
select_counter is 1022
Heartbeat CPU 0 instructions: 31000003 cycles: 70617803 heartbeat IPC: 0.750633 cumulative IPC: 0.317199 (Simulation time: 0 hr 18 min 23 sec) 
select_counter is 1022
Heartbeat CPU 0 instructions: 32000000 cycles: 73782817 heartbeat IPC: 0.315953 cumulative IPC: 0.317142 (Simulation time: 0 hr 19 min 5 sec) 
select_counter is 1023
Heartbeat CPU 0 instructions: 33000000 cycles: 76786726 heartbeat IPC: 0.3329 cumulative IPC: 0.317796 (Simulation time: 0 hr 19 min 47 sec) 
select_counter is 1022
Heartbeat CPU 0 instructions: 34000002 cycles: 78518049 heartbeat IPC: 0.577594 cumulative IPC: 0.323866 (Simulation time: 0 hr 20 min 23 sec) 
select_counter is 1023
Heartbeat CPU 0 instructions: 35000003 cycles: 81225098 heartbeat IPC: 0.369406 cumulative IPC: 0.325471 (Simulation time: 0 hr 20 min 55 sec) 
select_counter is 1022
Heartbeat CPU 0 instructions: 36000000 cycles: 83825672 heartbeat IPC: 0.384529 cumulative IPC: 0.327405 (Simulation time: 0 hr 21 min 31 sec) 
select_counter is 1023
Heartbeat CPU 0 instructions: 37000000 cycles: 87481655 heartbeat IPC: 0.273524 cumulative IPC: 0.325034 (Simulation time: 0 hr 22 min 14 sec) 
select_counter is 1023
Heartbeat CPU 0 instructions: 38000002 cycles: 88788075 heartbeat IPC: 0.765452 cumulative IPC: 0.331853 (Simulation time: 0 hr 22 min 39 sec) 
select_counter is 1023
Heartbeat CPU 0 instructions: 39000003 cycles: 90800427 heartbeat IPC: 0.496931 cumulative IPC: 0.335698 (Simulation time: 0 hr 23 min 9 sec) 
select_counter is 1023
Heartbeat CPU 0 instructions: 40000000 cycles: 94304112 heartbeat IPC: 0.285413 cumulative IPC: 0.333738 (Simulation time: 0 hr 23 min 50 sec) 
select_counter is 1023
Heartbeat CPU 0 instructions: 41000000 cycles: 97746086 heartbeat IPC: 0.290531 cumulative IPC: 0.332145 (Simulation time: 0 hr 24 min 30 sec) 
select_counter is 1023
Heartbeat CPU 0 instructions: 42000001 cycles: 99606862 heartbeat IPC: 0.537411 cumulative IPC: 0.336157 (Simulation time: 0 hr 24 min 59 sec) 
select_counter is 1015
Heartbeat CPU 0 instructions: 43000001 cycles: 103445064 heartbeat IPC: 0.260539 cumulative IPC: 0.333227 (Simulation time: 0 hr 25 min 48 sec) 
select_counter is 1023
Heartbeat CPU 0 instructions: 44000000 cycles: 105865198 heartbeat IPC: 0.4132 cumulative IPC: 0.335134 (Simulation time: 0 hr 26 min 19 sec) 
select_counter is 1023
Heartbeat CPU 0 instructions: 45000001 cycles: 107173888 heartbeat IPC: 0.764124 cumulative IPC: 0.340598 (Simulation time: 0 hr 26 min 44 sec) 
select_counter is 1023
Heartbeat CPU 0 instructions: 46000002 cycles: 110026505 heartbeat IPC: 0.350556 cumulative IPC: 0.340867 (Simulation time: 0 hr 27 min 16 sec) 
select_counter is 1023
Heartbeat CPU 0 instructions: 47000001 cycles: 113285428 heartbeat IPC: 0.30685 cumulative IPC: 0.339848 (Simulation time: 0 hr 27 min 55 sec) 
select_counter is 1022
Heartbeat CPU 0 instructions: 48000000 cycles: 116070920 heartbeat IPC: 0.359003 cumulative IPC: 0.340326 (Simulation time: 0 hr 28 min 37 sec) 
select_counter is 1023
Heartbeat CPU 0 instructions: 49000001 cycles: 118083438 heartbeat IPC: 0.49689 cumulative IPC: 0.343098 (Simulation time: 0 hr 29 min 8 sec) 
select_counter is 1014
Heartbeat CPU 0 instructions: 50000000 cycles: 121458497 heartbeat IPC: 0.296291 cumulative IPC: 0.341748 (Simulation time: 0 hr 29 min 51 sec) 
select_counter is 1023
Heartbeat CPU 0 instructions: 51000003 cycles: 123906829 heartbeat IPC: 0.408443 cumulative IPC: 0.343115 (Simulation time: 0 hr 30 min 22 sec) 
select_counter is 1018
Heartbeat CPU 0 instructions: 52000000 cycles: 125204018 heartbeat IPC: 0.770895 cumulative IPC: 0.347709 (Simulation time: 0 hr 30 min 44 sec) 
select_counter is 1023
Heartbeat CPU 0 instructions: 53000003 cycles: 128012534 heartbeat IPC: 0.356061 cumulative IPC: 0.347899 (Simulation time: 0 hr 31 min 14 sec) 
select_counter is 1021
Heartbeat CPU 0 instructions: 54000000 cycles: 131239035 heartbeat IPC: 0.309932 cumulative IPC: 0.346933 (Simulation time: 0 hr 31 min 55 sec) 
select_counter is 1022
Heartbeat CPU 0 instructions: 55000001 cycles: 134273739 heartbeat IPC: 0.329522 cumulative IPC: 0.346526 (Simulation time: 0 hr 32 min 37 sec) 
select_counter is 1023
Heartbeat CPU 0 instructions: 56000000 cycles: 136142453 heartbeat IPC: 0.535127 cumulative IPC: 0.349202 (Simulation time: 0 hr 33 min 10 sec) 
select_counter is 1012
Heartbeat CPU 0 instructions: 57000000 cycles: 139616394 heartbeat IPC: 0.287858 cumulative IPC: 0.347625 (Simulation time: 0 hr 33 min 50 sec) 
select_counter is 1020
Heartbeat CPU 0 instructions: 58000000 cycles: 141912883 heartbeat IPC: 0.435447 cumulative IPC: 0.349092 (Simulation time: 0 hr 34 min 18 sec) 
select_counter is 1022
Heartbeat CPU 0 instructions: 59000001 cycles: 143199577 heartbeat IPC: 0.777186 cumulative IPC: 0.353061 (Simulation time: 0 hr 34 min 41 sec) 
select_counter is 1023
Heartbeat CPU 0 instructions: 60000000 cycles: 146035211 heartbeat IPC: 0.352654 cumulative IPC: 0.353053 (Simulation time: 0 hr 35 min 13 sec) 
select_counter is 1021
Heartbeat CPU 0 instructions: 61000003 cycles: 149315506 heartbeat IPC: 0.304852 cumulative IPC: 0.351962 (Simulation time: 0 hr 35 min 50 sec) 
select_counter is 1023
Heartbeat CPU 0 instructions: 62000002 cycles: 152413787 heartbeat IPC: 0.322759 cumulative IPC: 0.35135 (Simulation time: 0 hr 36 min 26 sec) 
select_counter is 1023
Heartbeat CPU 0 instructions: 63000001 cycles: 154112813 heartbeat IPC: 0.588572 cumulative IPC: 0.354043 (Simulation time: 0 hr 37 min 0 sec) 
select_counter is 1020
Heartbeat CPU 0 instructions: 64000000 cycles: 157948680 heartbeat IPC: 0.260697 cumulative IPC: 0.351711 (Simulation time: 0 hr 37 min 41 sec) 
select_counter is 1022
Heartbeat CPU 0 instructions: 65000001 cycles: 159878719 heartbeat IPC: 0.518125 cumulative IPC: 0.353777 (Simulation time: 0 hr 38 min 5 sec) 
select_counter is 1022
Heartbeat CPU 0 instructions: 66000000 cycles: 161166520 heartbeat IPC: 0.776517 cumulative IPC: 0.35725 (Simulation time: 0 hr 38 min 27 sec) 
select_counter is 1023
Heartbeat CPU 0 instructions: 67000003 cycles: 164020721 heartbeat IPC: 0.350362 cumulative IPC: 0.357126 (Simulation time: 0 hr 39 min 2 sec) 
select_counter is 1023
Heartbeat CPU 0 instructions: 68000000 cycles: 167318796 heartbeat IPC: 0.303206 cumulative IPC: 0.356035 (Simulation time: 0 hr 39 min 41 sec) 
select_counter is 1023
Heartbeat CPU 0 instructions: 69000001 cycles: 170024253 heartbeat IPC: 0.369624 cumulative IPC: 0.356257 (Simulation time: 0 hr 40 min 25 sec) 
select_counter is 1023
Heartbeat CPU 0 instructions: 70000000 cycles: 171914909 heartbeat IPC: 0.528916 cumulative IPC: 0.358206 (Simulation time: 0 hr 40 min 56 sec) 
select_counter is 1010
Heartbeat CPU 0 instructions: 71000001 cycles: 175342849 heartbeat IPC: 0.291721 cumulative IPC: 0.356872 (Simulation time: 0 hr 41 min 37 sec) 
select_counter is 1023
Heartbeat CPU 0 instructions: 72000000 cycles: 177596728 heartbeat IPC: 0.443679 cumulative IPC: 0.358002 (Simulation time: 0 hr 42 min 3 sec) 
select_counter is 1023
Heartbeat CPU 0 instructions: 73000000 cycles: 178878958 heartbeat IPC: 0.779891 cumulative IPC: 0.361103 (Simulation time: 0 hr 42 min 27 sec) 
select_counter is 1023
Heartbeat CPU 0 instructions: 74000001 cycles: 181678212 heartbeat IPC: 0.357238 cumulative IPC: 0.361042 (Simulation time: 0 hr 43 min 3 sec) 
select_counter is 1023
Heartbeat CPU 0 instructions: 75000000 cycles: 184973865 heartbeat IPC: 0.30343 cumulative IPC: 0.35999 (Simulation time: 0 hr 43 min 38 sec) 
select_counter is 1023
Heartbeat CPU 0 instructions: 76000000 cycles: 188134958 heartbeat IPC: 0.316346 cumulative IPC: 0.359239 (Simulation time: 0 hr 44 min 14 sec) 
select_counter is 1023
Heartbeat CPU 0 instructions: 77000000 cycles: 189792221 heartbeat IPC: 0.603405 cumulative IPC: 0.361422 (Simulation time: 0 hr 44 min 42 sec) 
select_counter is 1022
Heartbeat CPU 0 instructions: 78000000 cycles: 193726348 heartbeat IPC: 0.254186 cumulative IPC: 0.359194 (Simulation time: 0 hr 45 min 26 sec) 
select_counter is 1022
Heartbeat CPU 0 instructions: 79000002 cycles: 195559163 heartbeat IPC: 0.54561 cumulative IPC: 0.360981 (Simulation time: 0 hr 45 min 47 sec) 
select_counter is 1022
Heartbeat CPU 0 instructions: 80000000 cycles: 196844523 heartbeat IPC: 0.777991 cumulative IPC: 0.363766 (Simulation time: 0 hr 46 min 8 sec) 
select_counter is 1023
Heartbeat CPU 0 instructions: 81000000 cycles: 199688130 heartbeat IPC: 0.351666 cumulative IPC: 0.36359 (Simulation time: 0 hr 46 min 42 sec) 
select_counter is 1023
Heartbeat CPU 0 instructions: 82000000 cycles: 203013482 heartbeat IPC: 0.30072 cumulative IPC: 0.362538 (Simulation time: 0 hr 47 min 19 sec) 
select_counter is 1023
Heartbeat CPU 0 instructions: 83000000 cycles: 206241935 heartbeat IPC: 0.309746 cumulative IPC: 0.361693 (Simulation time: 0 hr 47 min 51 sec) 
select_counter is 1023
Heartbeat CPU 0 instructions: 84000000 cycles: 208005151 heartbeat IPC: 0.567145 cumulative IPC: 0.363472 (Simulation time: 0 hr 48 min 21 sec) 
select_counter is 1022
Heartbeat CPU 0 instructions: 85000000 cycles: 212068458 heartbeat IPC: 0.246105 cumulative IPC: 0.361176 (Simulation time: 0 hr 48 min 54 sec) 
select_counter is 1023
Heartbeat CPU 0 instructions: 86000002 cycles: 213522056 heartbeat IPC: 0.687949 cumulative IPC: 0.363447 (Simulation time: 0 hr 49 min 12 sec) 
select_counter is 1023
Heartbeat CPU 0 instructions: 87000002 cycles: 214799325 heartbeat IPC: 0.78292 cumulative IPC: 0.365994 (Simulation time: 0 hr 49 min 30 sec) 
select_counter is 1023
Heartbeat CPU 0 instructions: 88000000 cycles: 217658339 heartbeat IPC: 0.34977 cumulative IPC: 0.365776 (Simulation time: 0 hr 49 min 55 sec) 
select_counter is 1022
Heartbeat CPU 0 instructions: 89000003 cycles: 221416836 heartbeat IPC: 0.266065 cumulative IPC: 0.364049 (Simulation time: 0 hr 50 min 21 sec) 
select_counter is 1022
Heartbeat CPU 0 instructions: 90000001 cycles: 224428906 heartbeat IPC: 0.331997 cumulative IPC: 0.363611 (Simulation time: 0 hr 50 min 42 sec) 
select_counter is 1022
Heartbeat CPU 0 instructions: 91000003 cycles: 226357766 heartbeat IPC: 0.518442 cumulative IPC: 0.364956 (Simulation time: 0 hr 51 min 1 sec) 
select_counter is 1023
Heartbeat CPU 0 instructions: 92000000 cycles: 230192706 heartbeat IPC: 0.26076 cumulative IPC: 0.363186 (Simulation time: 0 hr 51 min 23 sec) 
select_counter is 1023
Heartbeat CPU 0 instructions: 93000000 cycles: 231512387 heartbeat IPC: 0.757759 cumulative IPC: 0.365479 (Simulation time: 0 hr 51 min 33 sec) 
select_counter is 1023
Heartbeat CPU 0 instructions: 94000000 cycles: 232906598 heartbeat IPC: 0.717252 cumulative IPC: 0.367626 (Simulation time: 0 hr 51 min 45 sec) 
select_counter is 1023
Heartbeat CPU 0 instructions: 95000002 cycles: 235803605 heartbeat IPC: 0.345185 cumulative IPC: 0.367345 (Simulation time: 0 hr 52 min 2 sec) 
select_counter is 1023
Heartbeat CPU 0 instructions: 96000000 cycles: 238915362 heartbeat IPC: 0.321361 cumulative IPC: 0.366735 (Simulation time: 0 hr 52 min 20 sec) 
select_counter is 1023
Heartbeat CPU 0 instructions: 97000003 cycles: 241570854 heartbeat IPC: 0.376579 cumulative IPC: 0.366845 (Simulation time: 0 hr 52 min 35 sec) 
select_counter is 1022
Heartbeat CPU 0 instructions: 98000000 cycles: 243899622 heartbeat IPC: 0.42941 cumulative IPC: 0.367453 (Simulation time: 0 hr 52 min 51 sec) 
select_counter is 1023
Heartbeat CPU 0 instructions: 99000000 cycles: 247338370 heartbeat IPC: 0.290804 cumulative IPC: 0.366368 (Simulation time: 0 hr 53 min 8 sec) 
select_counter is 1023
Heartbeat CPU 0 instructions: 100000000 cycles: 248660681 heartbeat IPC: 0.756252 cumulative IPC: 0.368479 (Simulation time: 0 hr 53 min 17 sec) 
select_counter is 1023
Heartbeat CPU 0 instructions: 101000003 cycles: 250595889 heartbeat IPC: 0.516742 cumulative IPC: 0.369644 (Simulation time: 0 hr 53 min 28 sec) 
select_counter is 1022
Heartbeat CPU 0 instructions: 102000002 cycles: 253713557 heartbeat IPC: 0.320752 cumulative IPC: 0.369033 (Simulation time: 0 hr 53 min 43 sec) 
select_counter is 1021
Heartbeat CPU 0 instructions: 103000000 cycles: 256063638 heartbeat IPC: 0.425516 cumulative IPC: 0.36956 (Simulation time: 0 hr 53 min 58 sec) 
select_counter is 1022
Heartbeat CPU 0 instructions: 104000000 cycles: 264950739 heartbeat IPC: 0.112523 cumulative IPC: 0.360793 (Simulation time: 0 hr 54 min 18 sec) 
select_counter is 1023
Heartbeat CPU 0 instructions: 105000000 cycles: 267062347 heartbeat IPC: 0.473573 cumulative IPC: 0.361699 (Simulation time: 0 hr 54 min 34 sec) 
select_counter is 1023
Heartbeat CPU 0 instructions: 106000002 cycles: 271092246 heartbeat IPC: 0.248146 cumulative IPC: 0.359984 (Simulation time: 0 hr 54 min 47 sec) 
select_counter is 1023
Heartbeat CPU 0 instructions: 107000003 cycles: 275542194 heartbeat IPC: 0.224722 cumulative IPC: 0.357763 (Simulation time: 0 hr 55 min 0 sec) 
select_counter is 1023
Heartbeat CPU 0 instructions: 108000000 cycles: 278996288 heartbeat IPC: 0.289511 cumulative IPC: 0.356905 (Simulation time: 0 hr 55 min 13 sec) 
select_counter is 1023
Heartbeat CPU 0 instructions: 109000000 cycles: 282348161 heartbeat IPC: 0.298341 cumulative IPC: 0.356199 (Simulation time: 0 hr 55 min 24 sec) 
select_counter is 1023
Heartbeat CPU 0 instructions: 110000003 cycles: 286079418 heartbeat IPC: 0.268007 cumulative IPC: 0.35503 (Simulation time: 0 hr 55 min 34 sec) 
select_counter is 1023
Finished CPU 0 instructions: 100000003 cycles: 281666051 cummulative IPC: 0.35503 (Simulation time: 0 hr 55 min 34 sec) 

ChampSim completed all CPUs

Region of Interest Statistics

CPU 0 cummulative IPC: 0.35503 instructions: 100000003 cycles: 281666051
LLC TOTAL     ACCESS:    8734644  HIT:    4016906  MISS:    4717738
LLC LOAD      ACCESS:    2233515  HIT:     942044  MISS:    1291471
LLC RFO       ACCESS:     871496  HIT:     366477  MISS:     505019
LLC PREFETCH  ACCESS:    3454798  HIT:    1210536  MISS:    2244262
LLC WRITEBACK ACCESS:    2174835  HIT:    1497849  MISS:     676986
Ship samples: 
15, 52, 69, 102, 141, 171, 211, 253, 287, 296, 341, 366, 390, 420, 462, 508, 540, 545, 598, 619, 653, 693, 716, 743, 786, 806, 842, 882, 915, 949, 989, 1023, 1043, 1060, 1097, 1142, 1157, 1185, 1247, 1255, 1284, 1330, 1369, 1406, 1412, 1468, 1477, 1519, 1561, 1575, 1630, 1656, 1673, 1717, 1729, 1786, 1801, 1845, 1872, 1903, 1926, 1973, 1990, 2019, 
Lime duel samples: 
20, 110, 194, 316, 398, 486, 606, 698, 789, 876, 975, 1085, 1174, 1256, 1359, 1459, 1560, 1661, 1736, 1836, 1940, 
Lime samples: 
20, 110, 194, 316, 398, 486, 606, 698, 789, 876, 975, 1085, 1174, 1256, 1359, 1459, 1560, 1661, 1736, 1836, 1940, 
Insertion Distribution: 
	LOAD 10713 0 0 0 0 0 4220 26024 
	RFO 5064 0 0 0 0 0 2967 10360 
	PREF 0 3469 0 0 0 0 9519 60978 
	WRITEBACK 0 0 0 0 0 0 0 20563 
Total Prefetch Downgrades: 4072
