
*** ChampSim Multicore Out-of-Order Simulator ***

Warmup Instructions: 10000000
Simulation Instructions: 100000000
Configuration: 2
Number of CPUs: 1
LLC sets: 2048
LLC ways: 16
Off-chip DRAM Channels: 1 Width: 64-bit Data Rate: 1600 MT/s

CPU 0 runs /datasets/cs240c-wi22-a00-public/data/Assignment2-gz/perlbench_53B.trace.gz
CPU 0 L1D next line prefetcher
CPU 0 L2C IP-based stride prefetcher
Heartbeat CPU 0 instructions: 1000000 cycles: 615818 heartbeat IPC: 1.62386 cumulative IPC: 1.62386 (Simulation time: 0 hr 0 min 34 sec) 
select_counter is 624
Heartbeat CPU 0 instructions: 2000001 cycles: 1252990 heartbeat IPC: 1.56944 cumulative IPC: 1.59618 (Simulation time: 0 hr 1 min 9 sec) 
select_counter is 698
Heartbeat CPU 0 instructions: 3000002 cycles: 1908492 heartbeat IPC: 1.52555 cumulative IPC: 1.57192 (Simulation time: 0 hr 1 min 42 sec) 
select_counter is 776
Heartbeat CPU 0 instructions: 4000000 cycles: 2523921 heartbeat IPC: 1.62488 cumulative IPC: 1.58484 (Simulation time: 0 hr 2 min 15 sec) 
select_counter is 828
Heartbeat CPU 0 instructions: 5000001 cycles: 3151956 heartbeat IPC: 1.59227 cumulative IPC: 1.58632 (Simulation time: 0 hr 2 min 49 sec) 
select_counter is 885
Heartbeat CPU 0 instructions: 6000001 cycles: 3767501 heartbeat IPC: 1.62458 cumulative IPC: 1.59257 (Simulation time: 0 hr 3 min 24 sec) 
select_counter is 915
Heartbeat CPU 0 instructions: 7000002 cycles: 4390374 heartbeat IPC: 1.60547 cumulative IPC: 1.5944 (Simulation time: 0 hr 3 min 58 sec) 
select_counter is 912
Heartbeat CPU 0 instructions: 8000000 cycles: 5000756 heartbeat IPC: 1.63832 cumulative IPC: 1.59976 (Simulation time: 0 hr 4 min 31 sec) 
select_counter is 903
Heartbeat CPU 0 instructions: 9000000 cycles: 5652483 heartbeat IPC: 1.53438 cumulative IPC: 1.59222 (Simulation time: 0 hr 5 min 4 sec) 
select_counter is 903
Heartbeat CPU 0 instructions: 10000001 cycles: 6287606 heartbeat IPC: 1.5745 cumulative IPC: 1.59043 (Simulation time: 0 hr 5 min 38 sec) 
select_counter is 868

Warmup complete CPU 0 instructions: 10000001 cycles: 6287606 (Simulation time: 0 hr 5 min 38 sec) 

Heartbeat CPU 0 instructions: 11000000 cycles: 9206397 heartbeat IPC: 0.342607 cumulative IPC: 0.342607 (Simulation time: 0 hr 6 min 15 sec) 
select_counter is 844
Heartbeat CPU 0 instructions: 12000000 cycles: 12085965 heartbeat IPC: 0.347274 cumulative IPC: 0.344925 (Simulation time: 0 hr 6 min 55 sec) 
select_counter is 822
Heartbeat CPU 0 instructions: 13000000 cycles: 14441263 heartbeat IPC: 0.424575 cumulative IPC: 0.367933 (Simulation time: 0 hr 7 min 34 sec) 
select_counter is 829
Heartbeat CPU 0 instructions: 14000000 cycles: 16962315 heartbeat IPC: 0.39666 cumulative IPC: 0.374717 (Simulation time: 0 hr 8 min 9 sec) 
select_counter is 816
Heartbeat CPU 0 instructions: 15000001 cycles: 19727191 heartbeat IPC: 0.36168 cumulative IPC: 0.372035 (Simulation time: 0 hr 8 min 46 sec) 
select_counter is 794
Heartbeat CPU 0 instructions: 16000000 cycles: 22402651 heartbeat IPC: 0.373767 cumulative IPC: 0.372323 (Simulation time: 0 hr 9 min 25 sec) 
select_counter is 788
Heartbeat CPU 0 instructions: 17000001 cycles: 25087632 heartbeat IPC: 0.372442 cumulative IPC: 0.37234 (Simulation time: 0 hr 10 min 2 sec) 
select_counter is 794
Heartbeat CPU 0 instructions: 18000002 cycles: 27954476 heartbeat IPC: 0.348816 cumulative IPC: 0.369227 (Simulation time: 0 hr 10 min 43 sec) 
select_counter is 770
Heartbeat CPU 0 instructions: 19000000 cycles: 30808963 heartbeat IPC: 0.350325 cumulative IPC: 0.367027 (Simulation time: 0 hr 11 min 20 sec) 
select_counter is 745
Heartbeat CPU 0 instructions: 20000000 cycles: 33671434 heartbeat IPC: 0.349349 cumulative IPC: 0.365179 (Simulation time: 0 hr 12 min 0 sec) 
select_counter is 746
Heartbeat CPU 0 instructions: 21000000 cycles: 36036950 heartbeat IPC: 0.422741 cumulative IPC: 0.369756 (Simulation time: 0 hr 12 min 43 sec) 
select_counter is 750
Heartbeat CPU 0 instructions: 22000000 cycles: 38117737 heartbeat IPC: 0.480587 cumulative IPC: 0.377001 (Simulation time: 0 hr 13 min 22 sec) 
select_counter is 745
Heartbeat CPU 0 instructions: 23000001 cycles: 40055387 heartbeat IPC: 0.51609 cumulative IPC: 0.384982 (Simulation time: 0 hr 13 min 59 sec) 
select_counter is 734
Heartbeat CPU 0 instructions: 24000000 cycles: 42453952 heartbeat IPC: 0.416916 cumulative IPC: 0.3871 (Simulation time: 0 hr 14 min 41 sec) 
select_counter is 736
Heartbeat CPU 0 instructions: 25000000 cycles: 44465846 heartbeat IPC: 0.497044 cumulative IPC: 0.392894 (Simulation time: 0 hr 15 min 17 sec) 
select_counter is 736
Heartbeat CPU 0 instructions: 26000001 cycles: 46450865 heartbeat IPC: 0.503774 cumulative IPC: 0.398374 (Simulation time: 0 hr 15 min 52 sec) 
select_counter is 736
Heartbeat CPU 0 instructions: 27000002 cycles: 48747757 heartbeat IPC: 0.435371 cumulative IPC: 0.400375 (Simulation time: 0 hr 16 min 33 sec) 
select_counter is 732
Heartbeat CPU 0 instructions: 28000000 cycles: 51324117 heartbeat IPC: 0.388144 cumulative IPC: 0.399676 (Simulation time: 0 hr 17 min 14 sec) 
select_counter is 731
Heartbeat CPU 0 instructions: 29000000 cycles: 53650403 heartbeat IPC: 0.42987 cumulative IPC: 0.401159 (Simulation time: 0 hr 17 min 54 sec) 
select_counter is 726
Heartbeat CPU 0 instructions: 30000000 cycles: 55696529 heartbeat IPC: 0.488728 cumulative IPC: 0.404785 (Simulation time: 0 hr 18 min 32 sec) 
select_counter is 725
Heartbeat CPU 0 instructions: 31000001 cycles: 57684311 heartbeat IPC: 0.503074 cumulative IPC: 0.408587 (Simulation time: 0 hr 19 min 5 sec) 
select_counter is 725
Heartbeat CPU 0 instructions: 32000000 cycles: 59682139 heartbeat IPC: 0.500543 cumulative IPC: 0.412027 (Simulation time: 0 hr 19 min 40 sec) 
select_counter is 725
Heartbeat CPU 0 instructions: 33000003 cycles: 62150332 heartbeat IPC: 0.405156 cumulative IPC: 0.411724 (Simulation time: 0 hr 20 min 12 sec) 
select_counter is 720
Heartbeat CPU 0 instructions: 34000000 cycles: 64862978 heartbeat IPC: 0.368643 cumulative IPC: 0.409728 (Simulation time: 0 hr 20 min 50 sec) 
select_counter is 720
Heartbeat CPU 0 instructions: 35000000 cycles: 67428549 heartbeat IPC: 0.389777 cumulative IPC: 0.408891 (Simulation time: 0 hr 21 min 29 sec) 
select_counter is 719
Heartbeat CPU 0 instructions: 36000000 cycles: 70226786 heartbeat IPC: 0.357368 cumulative IPC: 0.406636 (Simulation time: 0 hr 22 min 10 sec) 
select_counter is 718
Heartbeat CPU 0 instructions: 37000002 cycles: 73079593 heartbeat IPC: 0.350533 cumulative IPC: 0.40424 (Simulation time: 0 hr 22 min 50 sec) 
select_counter is 701
Heartbeat CPU 0 instructions: 38000000 cycles: 75985686 heartbeat IPC: 0.344104 cumulative IPC: 0.401733 (Simulation time: 0 hr 23 min 23 sec) 
select_counter is 690
Heartbeat CPU 0 instructions: 39000001 cycles: 78663001 heartbeat IPC: 0.373509 cumulative IPC: 0.400689 (Simulation time: 0 hr 24 min 0 sec) 
select_counter is 689
Heartbeat CPU 0 instructions: 40000000 cycles: 81273745 heartbeat IPC: 0.383032 cumulative IPC: 0.400074 (Simulation time: 0 hr 24 min 35 sec) 
select_counter is 679
Heartbeat CPU 0 instructions: 41000002 cycles: 84162813 heartbeat IPC: 0.346133 cumulative IPC: 0.398073 (Simulation time: 0 hr 25 min 15 sec) 
select_counter is 664
Heartbeat CPU 0 instructions: 42000000 cycles: 86773281 heartbeat IPC: 0.383072 cumulative IPC: 0.397586 (Simulation time: 0 hr 25 min 49 sec) 
select_counter is 658
Heartbeat CPU 0 instructions: 43000002 cycles: 89626339 heartbeat IPC: 0.350502 cumulative IPC: 0.395974 (Simulation time: 0 hr 26 min 28 sec) 
select_counter is 629
Heartbeat CPU 0 instructions: 44000000 cycles: 92308279 heartbeat IPC: 0.372864 cumulative IPC: 0.395254 (Simulation time: 0 hr 27 min 5 sec) 
select_counter is 631
Heartbeat CPU 0 instructions: 45000001 cycles: 93772415 heartbeat IPC: 0.682997 cumulative IPC: 0.400069 (Simulation time: 0 hr 27 min 33 sec) 
select_counter is 637
Heartbeat CPU 0 instructions: 46000000 cycles: 95800093 heartbeat IPC: 0.493174 cumulative IPC: 0.402179 (Simulation time: 0 hr 28 min 2 sec) 
select_counter is 637
Heartbeat CPU 0 instructions: 47000002 cycles: 97715496 heartbeat IPC: 0.522084 cumulative IPC: 0.404691 (Simulation time: 0 hr 28 min 34 sec) 
select_counter is 637
Heartbeat CPU 0 instructions: 48000000 cycles: 99635711 heartbeat IPC: 0.520774 cumulative IPC: 0.407078 (Simulation time: 0 hr 29 min 10 sec) 
select_counter is 637
Heartbeat CPU 0 instructions: 49000000 cycles: 101990768 heartbeat IPC: 0.424618 cumulative IPC: 0.40751 (Simulation time: 0 hr 29 min 46 sec) 
select_counter is 631
Heartbeat CPU 0 instructions: 50000002 cycles: 103860770 heartbeat IPC: 0.53476 cumulative IPC: 0.409949 (Simulation time: 0 hr 30 min 16 sec) 
select_counter is 632
Heartbeat CPU 0 instructions: 51000000 cycles: 105792489 heartbeat IPC: 0.517673 cumulative IPC: 0.41204 (Simulation time: 0 hr 30 min 46 sec) 
select_counter is 634
Heartbeat CPU 0 instructions: 52000000 cycles: 107707494 heartbeat IPC: 0.522192 cumulative IPC: 0.41412 (Simulation time: 0 hr 31 min 18 sec) 
select_counter is 634
Heartbeat CPU 0 instructions: 53000002 cycles: 109658670 heartbeat IPC: 0.512512 cumulative IPC: 0.415977 (Simulation time: 0 hr 31 min 53 sec) 
select_counter is 633
Heartbeat CPU 0 instructions: 54000000 cycles: 112565234 heartbeat IPC: 0.344048 cumulative IPC: 0.41401 (Simulation time: 0 hr 32 min 27 sec) 
select_counter is 627
Heartbeat CPU 0 instructions: 55000000 cycles: 115063087 heartbeat IPC: 0.400344 cumulative IPC: 0.413696 (Simulation time: 0 hr 33 min 5 sec) 
select_counter is 626
Heartbeat CPU 0 instructions: 56000000 cycles: 117877379 heartbeat IPC: 0.355329 cumulative IPC: 0.412224 (Simulation time: 0 hr 33 min 41 sec) 
select_counter is 604
Heartbeat CPU 0 instructions: 57000001 cycles: 120880991 heartbeat IPC: 0.332933 cumulative IPC: 0.410146 (Simulation time: 0 hr 34 min 18 sec) 
select_counter is 598
Heartbeat CPU 0 instructions: 58000003 cycles: 123852835 heartbeat IPC: 0.336492 cumulative IPC: 0.408284 (Simulation time: 0 hr 35 min 0 sec) 
select_counter is 598
Heartbeat CPU 0 instructions: 59000002 cycles: 126677892 heartbeat IPC: 0.353975 cumulative IPC: 0.40701 (Simulation time: 0 hr 35 min 37 sec) 
select_counter is 669
Heartbeat CPU 0 instructions: 60000000 cycles: 129454037 heartbeat IPC: 0.360211 cumulative IPC: 0.405955 (Simulation time: 0 hr 36 min 14 sec) 
select_counter is 679
Heartbeat CPU 0 instructions: 61000002 cycles: 132101511 heartbeat IPC: 0.377719 cumulative IPC: 0.405361 (Simulation time: 0 hr 36 min 50 sec) 
select_counter is 673
Heartbeat CPU 0 instructions: 62000002 cycles: 134806849 heartbeat IPC: 0.36964 cumulative IPC: 0.404609 (Simulation time: 0 hr 37 min 30 sec) 
select_counter is 672
Heartbeat CPU 0 instructions: 63000001 cycles: 137494497 heartbeat IPC: 0.372072 cumulative IPC: 0.403942 (Simulation time: 0 hr 38 min 6 sec) 
select_counter is 666
Heartbeat CPU 0 instructions: 64000000 cycles: 140170834 heartbeat IPC: 0.373645 cumulative IPC: 0.403337 (Simulation time: 0 hr 38 min 43 sec) 
select_counter is 649
Heartbeat CPU 0 instructions: 65000003 cycles: 142825503 heartbeat IPC: 0.376696 cumulative IPC: 0.402819 (Simulation time: 0 hr 39 min 18 sec) 
select_counter is 635
Heartbeat CPU 0 instructions: 66000001 cycles: 145472606 heartbeat IPC: 0.377771 cumulative IPC: 0.402342 (Simulation time: 0 hr 39 min 56 sec) 
select_counter is 619
Heartbeat CPU 0 instructions: 67000001 cycles: 148091519 heartbeat IPC: 0.381838 cumulative IPC: 0.401964 (Simulation time: 0 hr 40 min 33 sec) 
select_counter is 615
Heartbeat CPU 0 instructions: 68000000 cycles: 150782543 heartbeat IPC: 0.371605 cumulative IPC: 0.401398 (Simulation time: 0 hr 41 min 4 sec) 
select_counter is 604
Heartbeat CPU 0 instructions: 69000001 cycles: 153442831 heartbeat IPC: 0.3759 cumulative IPC: 0.400937 (Simulation time: 0 hr 41 min 36 sec) 
select_counter is 593
Heartbeat CPU 0 instructions: 70000001 cycles: 156076426 heartbeat IPC: 0.379709 cumulative IPC: 0.400564 (Simulation time: 0 hr 42 min 13 sec) 
select_counter is 580
Heartbeat CPU 0 instructions: 71000001 cycles: 158800573 heartbeat IPC: 0.367087 cumulative IPC: 0.399966 (Simulation time: 0 hr 42 min 50 sec) 
select_counter is 584
Heartbeat CPU 0 instructions: 72000000 cycles: 161409299 heartbeat IPC: 0.383328 cumulative IPC: 0.399686 (Simulation time: 0 hr 43 min 28 sec) 
select_counter is 591
Heartbeat CPU 0 instructions: 73000002 cycles: 164070956 heartbeat IPC: 0.375707 cumulative IPC: 0.399282 (Simulation time: 0 hr 44 min 1 sec) 
select_counter is 599
Heartbeat CPU 0 instructions: 74000001 cycles: 166767786 heartbeat IPC: 0.370805 cumulative IPC: 0.398803 (Simulation time: 0 hr 44 min 36 sec) 
select_counter is 589
Heartbeat CPU 0 instructions: 75000001 cycles: 169453299 heartbeat IPC: 0.372368 cumulative IPC: 0.398368 (Simulation time: 0 hr 45 min 6 sec) 
select_counter is 583
Heartbeat CPU 0 instructions: 76000000 cycles: 172120145 heartbeat IPC: 0.374974 cumulative IPC: 0.397992 (Simulation time: 0 hr 45 min 38 sec) 
select_counter is 569
Heartbeat CPU 0 instructions: 77000002 cycles: 174816962 heartbeat IPC: 0.370808 cumulative IPC: 0.397557 (Simulation time: 0 hr 46 min 14 sec) 
select_counter is 559
Heartbeat CPU 0 instructions: 78000000 cycles: 177492106 heartbeat IPC: 0.373811 cumulative IPC: 0.397186 (Simulation time: 0 hr 46 min 49 sec) 
select_counter is 546
Heartbeat CPU 0 instructions: 79000002 cycles: 180173322 heartbeat IPC: 0.372966 cumulative IPC: 0.396812 (Simulation time: 0 hr 47 min 19 sec) 
select_counter is 532
Heartbeat CPU 0 instructions: 80000000 cycles: 182829612 heartbeat IPC: 0.376464 cumulative IPC: 0.396506 (Simulation time: 0 hr 47 min 50 sec) 
select_counter is 513
Heartbeat CPU 0 instructions: 81000000 cycles: 185449961 heartbeat IPC: 0.381629 cumulative IPC: 0.396289 (Simulation time: 0 hr 48 min 20 sec) 
select_counter is 501
Heartbeat CPU 0 instructions: 82000002 cycles: 188134576 heartbeat IPC: 0.372494 cumulative IPC: 0.395937 (Simulation time: 0 hr 48 min 49 sec) 
select_counter is 485
Heartbeat CPU 0 instructions: 83000000 cycles: 190784735 heartbeat IPC: 0.377335 cumulative IPC: 0.39567 (Simulation time: 0 hr 49 min 17 sec) 
select_counter is 470
Heartbeat CPU 0 instructions: 84000000 cycles: 193443362 heartbeat IPC: 0.376134 cumulative IPC: 0.395393 (Simulation time: 0 hr 49 min 44 sec) 
select_counter is 446
Heartbeat CPU 0 instructions: 85000001 cycles: 196122309 heartbeat IPC: 0.373281 cumulative IPC: 0.395081 (Simulation time: 0 hr 50 min 8 sec) 
select_counter is 443
Heartbeat CPU 0 instructions: 86000000 cycles: 198618912 heartbeat IPC: 0.400544 cumulative IPC: 0.395151 (Simulation time: 0 hr 50 min 34 sec) 
select_counter is 444
Heartbeat CPU 0 instructions: 87000000 cycles: 200750921 heartbeat IPC: 0.469041 cumulative IPC: 0.395962 (Simulation time: 0 hr 50 min 52 sec) 
select_counter is 449
Heartbeat CPU 0 instructions: 88000000 cycles: 202748909 heartbeat IPC: 0.500503 cumulative IPC: 0.397025 (Simulation time: 0 hr 51 min 10 sec) 
select_counter is 450
Heartbeat CPU 0 instructions: 89000001 cycles: 204826762 heartbeat IPC: 0.481266 cumulative IPC: 0.397906 (Simulation time: 0 hr 51 min 30 sec) 
select_counter is 457
Heartbeat CPU 0 instructions: 90000000 cycles: 207490077 heartbeat IPC: 0.375472 cumulative IPC: 0.397609 (Simulation time: 0 hr 51 min 48 sec) 
select_counter is 480
Heartbeat CPU 0 instructions: 91000001 cycles: 210263073 heartbeat IPC: 0.360621 cumulative IPC: 0.397107 (Simulation time: 0 hr 52 min 7 sec) 
select_counter is 492
Heartbeat CPU 0 instructions: 92000000 cycles: 212945106 heartbeat IPC: 0.372851 cumulative IPC: 0.396792 (Simulation time: 0 hr 52 min 26 sec) 
select_counter is 487
Heartbeat CPU 0 instructions: 93000000 cycles: 215596631 heartbeat IPC: 0.377141 cumulative IPC: 0.396543 (Simulation time: 0 hr 52 min 42 sec) 
select_counter is 484
Heartbeat CPU 0 instructions: 94000002 cycles: 218244357 heartbeat IPC: 0.377683 cumulative IPC: 0.396307 (Simulation time: 0 hr 52 min 57 sec) 
select_counter is 473
Heartbeat CPU 0 instructions: 95000000 cycles: 220863943 heartbeat IPC: 0.381739 cumulative IPC: 0.396129 (Simulation time: 0 hr 53 min 13 sec) 
select_counter is 462
Heartbeat CPU 0 instructions: 96000000 cycles: 223528122 heartbeat IPC: 0.37535 cumulative IPC: 0.395875 (Simulation time: 0 hr 53 min 29 sec) 
select_counter is 448
Heartbeat CPU 0 instructions: 97000000 cycles: 226168781 heartbeat IPC: 0.378693 cumulative IPC: 0.395668 (Simulation time: 0 hr 53 min 43 sec) 
select_counter is 431
Heartbeat CPU 0 instructions: 98000000 cycles: 228791398 heartbeat IPC: 0.381299 cumulative IPC: 0.395499 (Simulation time: 0 hr 53 min 57 sec) 
select_counter is 419
Heartbeat CPU 0 instructions: 99000002 cycles: 231400423 heartbeat IPC: 0.383286 cumulative IPC: 0.395357 (Simulation time: 0 hr 54 min 11 sec) 
select_counter is 399
Heartbeat CPU 0 instructions: 100000000 cycles: 234026650 heartbeat IPC: 0.380774 cumulative IPC: 0.395189 (Simulation time: 0 hr 54 min 24 sec) 
select_counter is 386
Heartbeat CPU 0 instructions: 101000002 cycles: 236681554 heartbeat IPC: 0.376662 cumulative IPC: 0.394976 (Simulation time: 0 hr 54 min 36 sec) 
select_counter is 375
Heartbeat CPU 0 instructions: 102000000 cycles: 239312017 heartbeat IPC: 0.38016 cumulative IPC: 0.394808 (Simulation time: 0 hr 54 min 47 sec) 
select_counter is 360
Heartbeat CPU 0 instructions: 103000000 cycles: 241937889 heartbeat IPC: 0.380826 cumulative IPC: 0.394653 (Simulation time: 0 hr 54 min 59 sec) 
select_counter is 350
Heartbeat CPU 0 instructions: 104000000 cycles: 244600319 heartbeat IPC: 0.375597 cumulative IPC: 0.39444 (Simulation time: 0 hr 55 min 12 sec) 
select_counter is 350
Heartbeat CPU 0 instructions: 105000003 cycles: 246779233 heartbeat IPC: 0.458946 cumulative IPC: 0.395024 (Simulation time: 0 hr 55 min 22 sec) 
select_counter is 354
Heartbeat CPU 0 instructions: 106000000 cycles: 248756219 heartbeat IPC: 0.505819 cumulative IPC: 0.395928 (Simulation time: 0 hr 55 min 32 sec) 
select_counter is 354
Heartbeat CPU 0 instructions: 107000003 cycles: 250731547 heartbeat IPC: 0.506247 cumulative IPC: 0.396819 (Simulation time: 0 hr 55 min 41 sec) 
select_counter is 354
Heartbeat CPU 0 instructions: 108000000 cycles: 253483290 heartbeat IPC: 0.363405 cumulative IPC: 0.396447 (Simulation time: 0 hr 55 min 50 sec) 
select_counter is 369
Heartbeat CPU 0 instructions: 109000001 cycles: 256182252 heartbeat IPC: 0.370513 cumulative IPC: 0.396167 (Simulation time: 0 hr 55 min 57 sec) 
select_counter is 367
Heartbeat CPU 0 instructions: 110000000 cycles: 258696514 heartbeat IPC: 0.397731 cumulative IPC: 0.396183 (Simulation time: 0 hr 56 min 2 sec) 
select_counter is 380
Finished CPU 0 instructions: 100000000 cycles: 252408909 cummulative IPC: 0.396183 (Simulation time: 0 hr 56 min 2 sec) 

ChampSim completed all CPUs

Region of Interest Statistics

CPU 0 cummulative IPC: 0.396183 instructions: 100000000 cycles: 252408909
LLC TOTAL     ACCESS:     656687  HIT:     514193  MISS:     142494
LLC LOAD      ACCESS:     310877  HIT:     303115  MISS:       7762
LLC RFO       ACCESS:      30799  HIT:      26983  MISS:       3816
LLC PREFETCH  ACCESS:     212737  HIT:      86200  MISS:     126537
LLC WRITEBACK ACCESS:     102274  HIT:      97895  MISS:       4379
Ship samples: 
18, 46, 65, 116, 131, 189, 198, 226, 281, 289, 324, 376, 399, 433, 470, 501, 522, 559, 592, 615, 650, 689, 712, 740, 778, 821, 851, 889, 913, 935, 988, 1008, 1024, 1074, 1090, 1125, 1182, 1213, 1225, 1255, 1287, 1313, 1354, 1405, 1412, 1442, 1474, 1511, 1553, 1587, 1619, 1633, 1678, 1719, 1728, 1770, 1818, 1827, 1862, 1919, 1925, 1963, 2004, 2026, 
Lime duel samples: 
16, 109, 221, 311, 394, 498, 588, 676, 769, 877, 967, 1087, 1165, 1250, 1371, 1445, 1538, 1656, 1751, 1836, 1931, 
Lime samples: 
16, 109, 221, 311, 394, 498, 588, 676, 769, 877, 967, 1087, 1165, 1250, 1371, 1445, 1538, 1656, 1751, 1836, 1931, 
Insertion Distribution: 
	LOAD 373 0 0 0 0 0 1666 53 
	RFO 40 0 0 0 0 0 363 18 
	PREF 0 1133 0 0 0 0 6916 4760 
	WRITEBACK 0 0 0 0 0 0 0 231 
Total Prefetch Downgrades: 341
