
*** ChampSim Multicore Out-of-Order Simulator ***

Warmup Instructions: 10000000
Simulation Instructions: 100000000
Configuration: 2
Number of CPUs: 1
LLC sets: 2048
LLC ways: 16
Off-chip DRAM Channels: 1 Width: 64-bit Data Rate: 1600 MT/s

CPU 0 runs /datasets/cs240c-wi22-a00-public/data/Assignment2-gz/soplex_217B.trace.gz
CPU 0 L1D next line prefetcher
CPU 0 L2C IP-based stride prefetcher
Heartbeat CPU 0 instructions: 1000002 cycles: 441692 heartbeat IPC: 2.26403 cumulative IPC: 2.26403 (Simulation time: 0 hr 0 min 35 sec) 
select_counter is 1023
Heartbeat CPU 0 instructions: 2000003 cycles: 800732 heartbeat IPC: 2.78521 cumulative IPC: 2.49772 (Simulation time: 0 hr 1 min 4 sec) 
select_counter is 1022
Heartbeat CPU 0 instructions: 3000002 cycles: 1245833 heartbeat IPC: 2.24668 cumulative IPC: 2.40803 (Simulation time: 0 hr 1 min 33 sec) 
select_counter is 1023
Heartbeat CPU 0 instructions: 4000000 cycles: 1673851 heartbeat IPC: 2.33635 cumulative IPC: 2.3897 (Simulation time: 0 hr 2 min 3 sec) 
select_counter is 1023
Heartbeat CPU 0 instructions: 5000001 cycles: 2057901 heartbeat IPC: 2.60383 cumulative IPC: 2.42966 (Simulation time: 0 hr 2 min 27 sec) 
select_counter is 1023
Heartbeat CPU 0 instructions: 6000000 cycles: 2432207 heartbeat IPC: 2.67161 cumulative IPC: 2.4669 (Simulation time: 0 hr 2 min 52 sec) 
select_counter is 1022
Heartbeat CPU 0 instructions: 7000003 cycles: 2961720 heartbeat IPC: 1.88853 cumulative IPC: 2.36349 (Simulation time: 0 hr 3 min 19 sec) 
select_counter is 1023
Heartbeat CPU 0 instructions: 8000000 cycles: 3409731 heartbeat IPC: 2.23208 cumulative IPC: 2.34623 (Simulation time: 0 hr 3 min 52 sec) 
select_counter is 1022
Heartbeat CPU 0 instructions: 9000001 cycles: 3834235 heartbeat IPC: 2.35569 cumulative IPC: 2.34727 (Simulation time: 0 hr 4 min 20 sec) 
select_counter is 1022
Heartbeat CPU 0 instructions: 10000000 cycles: 4246751 heartbeat IPC: 2.42415 cumulative IPC: 2.35474 (Simulation time: 0 hr 4 min 48 sec) 
select_counter is 1011

Warmup complete CPU 0 instructions: 10000004 cycles: 4246752 (Simulation time: 0 hr 4 min 48 sec) 

Heartbeat CPU 0 instructions: 11000002 cycles: 8172268 heartbeat IPC: 0.254744 cumulative IPC: 0.254743 (Simulation time: 0 hr 5 min 36 sec) 
select_counter is 1023
Heartbeat CPU 0 instructions: 12000000 cycles: 10797162 heartbeat IPC: 0.380967 cumulative IPC: 0.305324 (Simulation time: 0 hr 6 min 9 sec) 
select_counter is 1022
Heartbeat CPU 0 instructions: 13000000 cycles: 12161903 heartbeat IPC: 0.73274 cumulative IPC: 0.379019 (Simulation time: 0 hr 6 min 32 sec) 
select_counter is 1018
Heartbeat CPU 0 instructions: 14000000 cycles: 14919497 heartbeat IPC: 0.362635 cumulative IPC: 0.374786 (Simulation time: 0 hr 7 min 8 sec) 
select_counter is 1023
Heartbeat CPU 0 instructions: 15000000 cycles: 17752830 heartbeat IPC: 0.352941 cumulative IPC: 0.370203 (Simulation time: 0 hr 7 min 49 sec) 
select_counter is 1021
Heartbeat CPU 0 instructions: 16000000 cycles: 21484374 heartbeat IPC: 0.267986 cumulative IPC: 0.348076 (Simulation time: 0 hr 8 min 39 sec) 
select_counter is 1022
Heartbeat CPU 0 instructions: 17000002 cycles: 23888975 heartbeat IPC: 0.41587 cumulative IPC: 0.356375 (Simulation time: 0 hr 9 min 15 sec) 
select_counter is 1023
Heartbeat CPU 0 instructions: 18000002 cycles: 26520344 heartbeat IPC: 0.38003 cumulative IPC: 0.35917 (Simulation time: 0 hr 9 min 54 sec) 
select_counter is 1023
Heartbeat CPU 0 instructions: 19000000 cycles: 30114273 heartbeat IPC: 0.278246 cumulative IPC: 0.347926 (Simulation time: 0 hr 10 min 38 sec) 
select_counter is 1023
Heartbeat CPU 0 instructions: 20000000 cycles: 31474758 heartbeat IPC: 0.735032 cumulative IPC: 0.367269 (Simulation time: 0 hr 11 min 0 sec) 
select_counter is 1023
Heartbeat CPU 0 instructions: 21000000 cycles: 32930662 heartbeat IPC: 0.686858 cumulative IPC: 0.38349 (Simulation time: 0 hr 11 min 25 sec) 
select_counter is 1023
Heartbeat CPU 0 instructions: 22000001 cycles: 36131766 heartbeat IPC: 0.312393 cumulative IPC: 0.376352 (Simulation time: 0 hr 12 min 0 sec) 
select_counter is 1023
Heartbeat CPU 0 instructions: 23000003 cycles: 39705186 heartbeat IPC: 0.279845 cumulative IPC: 0.366626 (Simulation time: 0 hr 12 min 40 sec) 
select_counter is 1023
Heartbeat CPU 0 instructions: 24000000 cycles: 42947741 heartbeat IPC: 0.308398 cumulative IPC: 0.361748 (Simulation time: 0 hr 13 min 22 sec) 
select_counter is 1023
Heartbeat CPU 0 instructions: 25000001 cycles: 44565462 heartbeat IPC: 0.618154 cumulative IPC: 0.372036 (Simulation time: 0 hr 13 min 53 sec) 
select_counter is 1022
Heartbeat CPU 0 instructions: 26000003 cycles: 48462291 heartbeat IPC: 0.256619 cumulative IPC: 0.361864 (Simulation time: 0 hr 14 min 35 sec) 
select_counter is 1022
Heartbeat CPU 0 instructions: 27000002 cycles: 50873606 heartbeat IPC: 0.414711 cumulative IPC: 0.364597 (Simulation time: 0 hr 15 min 5 sec) 
select_counter is 1023
Heartbeat CPU 0 instructions: 28000000 cycles: 52215847 heartbeat IPC: 0.745021 cumulative IPC: 0.375242 (Simulation time: 0 hr 15 min 25 sec) 
select_counter is 1020
Heartbeat CPU 0 instructions: 29000002 cycles: 54955136 heartbeat IPC: 0.365059 cumulative IPC: 0.374691 (Simulation time: 0 hr 15 min 54 sec) 
select_counter is 1023
Heartbeat CPU 0 instructions: 30000002 cycles: 57874042 heartbeat IPC: 0.342594 cumulative IPC: 0.372944 (Simulation time: 0 hr 16 min 30 sec) 
select_counter is 1021
Heartbeat CPU 0 instructions: 31000000 cycles: 61173393 heartbeat IPC: 0.303089 cumulative IPC: 0.368896 (Simulation time: 0 hr 17 min 8 sec) 
select_counter is 1023
Heartbeat CPU 0 instructions: 32000000 cycles: 63079539 heartbeat IPC: 0.524619 cumulative IPC: 0.373941 (Simulation time: 0 hr 17 min 38 sec) 
select_counter is 1019
Heartbeat CPU 0 instructions: 33000001 cycles: 66724612 heartbeat IPC: 0.274343 cumulative IPC: 0.36813 (Simulation time: 0 hr 18 min 17 sec) 
select_counter is 1023
Heartbeat CPU 0 instructions: 34000000 cycles: 69604769 heartbeat IPC: 0.347203 cumulative IPC: 0.367208 (Simulation time: 0 hr 18 min 47 sec) 
select_counter is 1023
Heartbeat CPU 0 instructions: 35000002 cycles: 70971573 heartbeat IPC: 0.731635 cumulative IPC: 0.374673 (Simulation time: 0 hr 19 min 7 sec) 
select_counter is 1023
Heartbeat CPU 0 instructions: 36000000 cycles: 73226660 heartbeat IPC: 0.443441 cumulative IPC: 0.376921 (Simulation time: 0 hr 19 min 31 sec) 
select_counter is 1023
Heartbeat CPU 0 instructions: 37000002 cycles: 75822771 heartbeat IPC: 0.385192 cumulative IPC: 0.377221 (Simulation time: 0 hr 20 min 3 sec) 
select_counter is 1023
Heartbeat CPU 0 instructions: 38000000 cycles: 79369881 heartbeat IPC: 0.281919 cumulative IPC: 0.372721 (Simulation time: 0 hr 20 min 42 sec) 
select_counter is 1022
Heartbeat CPU 0 instructions: 39000001 cycles: 81535382 heartbeat IPC: 0.461787 cumulative IPC: 0.375217 (Simulation time: 0 hr 21 min 13 sec) 
select_counter is 1021
Heartbeat CPU 0 instructions: 40000000 cycles: 84798023 heartbeat IPC: 0.3065 cumulative IPC: 0.372434 (Simulation time: 0 hr 21 min 50 sec) 
select_counter is 1020
Heartbeat CPU 0 instructions: 41000000 cycles: 87978557 heartbeat IPC: 0.314413 cumulative IPC: 0.37023 (Simulation time: 0 hr 22 min 28 sec) 
select_counter is 1021
Heartbeat CPU 0 instructions: 42000002 cycles: 89363571 heartbeat IPC: 0.722016 cumulative IPC: 0.375954 (Simulation time: 0 hr 22 min 47 sec) 
select_counter is 1023
Heartbeat CPU 0 instructions: 43000001 cycles: 91196600 heartbeat IPC: 0.545545 cumulative IPC: 0.379529 (Simulation time: 0 hr 23 min 13 sec) 
select_counter is 1023
Heartbeat CPU 0 instructions: 44000000 cycles: 93997230 heartbeat IPC: 0.357062 cumulative IPC: 0.378828 (Simulation time: 0 hr 23 min 45 sec) 
select_counter is 1023
Heartbeat CPU 0 instructions: 45000003 cycles: 97680086 heartbeat IPC: 0.271529 cumulative IPC: 0.374599 (Simulation time: 0 hr 24 min 25 sec) 
select_counter is 1023
Heartbeat CPU 0 instructions: 46000000 cycles: 100561702 heartbeat IPC: 0.347026 cumulative IPC: 0.373774 (Simulation time: 0 hr 25 min 1 sec) 
select_counter is 1023
Heartbeat CPU 0 instructions: 47000001 cycles: 102332482 heartbeat IPC: 0.564723 cumulative IPC: 0.377221 (Simulation time: 0 hr 25 min 29 sec) 
select_counter is 1014
Heartbeat CPU 0 instructions: 48000000 cycles: 105986083 heartbeat IPC: 0.273702 cumulative IPC: 0.373504 (Simulation time: 0 hr 26 min 5 sec) 
select_counter is 1023
Heartbeat CPU 0 instructions: 49000000 cycles: 108629838 heartbeat IPC: 0.37825 cumulative IPC: 0.373624 (Simulation time: 0 hr 26 min 28 sec) 
select_counter is 1023
Heartbeat CPU 0 instructions: 50000001 cycles: 109991127 heartbeat IPC: 0.734599 cumulative IPC: 0.378271 (Simulation time: 0 hr 26 min 45 sec) 
select_counter is 1020
Heartbeat CPU 0 instructions: 51000000 cycles: 112543320 heartbeat IPC: 0.39182 cumulative IPC: 0.37859 (Simulation time: 0 hr 27 min 5 sec) 
select_counter is 1023
Heartbeat CPU 0 instructions: 52000000 cycles: 115262506 heartbeat IPC: 0.367757 cumulative IPC: 0.378325 (Simulation time: 0 hr 27 min 33 sec) 
select_counter is 1023
Heartbeat CPU 0 instructions: 53000000 cycles: 118573998 heartbeat IPC: 0.301979 cumulative IPC: 0.376113 (Simulation time: 0 hr 28 min 1 sec) 
select_counter is 1023
Heartbeat CPU 0 instructions: 54000000 cycles: 120566714 heartbeat IPC: 0.501828 cumulative IPC: 0.378267 (Simulation time: 0 hr 28 min 27 sec) 
select_counter is 1022
Heartbeat CPU 0 instructions: 55000000 cycles: 123994776 heartbeat IPC: 0.29171 cumulative IPC: 0.375789 (Simulation time: 0 hr 28 min 58 sec) 
select_counter is 1022
Heartbeat CPU 0 instructions: 56000000 cycles: 126934297 heartbeat IPC: 0.340191 cumulative IPC: 0.374936 (Simulation time: 0 hr 29 min 25 sec) 
select_counter is 1022
Heartbeat CPU 0 instructions: 57000003 cycles: 128305663 heartbeat IPC: 0.729202 cumulative IPC: 0.378852 (Simulation time: 0 hr 29 min 41 sec) 
select_counter is 1021
Heartbeat CPU 0 instructions: 58000000 cycles: 130507909 heartbeat IPC: 0.454081 cumulative IPC: 0.380164 (Simulation time: 0 hr 30 min 2 sec) 
select_counter is 1023
Heartbeat CPU 0 instructions: 59000001 cycles: 133115753 heartbeat IPC: 0.383459 cumulative IPC: 0.380231 (Simulation time: 0 hr 30 min 32 sec) 
select_counter is 1020
Heartbeat CPU 0 instructions: 60000000 cycles: 136589612 heartbeat IPC: 0.287864 cumulative IPC: 0.377807 (Simulation time: 0 hr 31 min 5 sec) 
select_counter is 1023
Heartbeat CPU 0 instructions: 61000000 cycles: 138939173 heartbeat IPC: 0.425611 cumulative IPC: 0.37864 (Simulation time: 0 hr 31 min 31 sec) 
select_counter is 1022
Heartbeat CPU 0 instructions: 62000001 cycles: 141782289 heartbeat IPC: 0.351727 cumulative IPC: 0.378084 (Simulation time: 0 hr 32 min 1 sec) 
select_counter is 1023
Heartbeat CPU 0 instructions: 63000001 cycles: 145328646 heartbeat IPC: 0.28198 cumulative IPC: 0.375668 (Simulation time: 0 hr 32 min 30 sec) 
select_counter is 1023
Heartbeat CPU 0 instructions: 64000000 cycles: 146701967 heartbeat IPC: 0.728161 cumulative IPC: 0.379066 (Simulation time: 0 hr 32 min 46 sec) 
select_counter is 1022
Heartbeat CPU 0 instructions: 65000000 cycles: 148252377 heartbeat IPC: 0.644991 cumulative IPC: 0.381929 (Simulation time: 0 hr 33 min 4 sec) 
select_counter is 1023
Heartbeat CPU 0 instructions: 66000002 cycles: 151363809 heartbeat IPC: 0.321396 cumulative IPC: 0.380649 (Simulation time: 0 hr 33 min 31 sec) 
select_counter is 1022
Heartbeat CPU 0 instructions: 67000000 cycles: 154718312 heartbeat IPC: 0.298106 cumulative IPC: 0.378809 (Simulation time: 0 hr 34 min 1 sec) 
select_counter is 1022
Heartbeat CPU 0 instructions: 68000000 cycles: 160763504 heartbeat IPC: 0.165421 cumulative IPC: 0.370567 (Simulation time: 0 hr 34 min 35 sec) 
select_counter is 1023
Heartbeat CPU 0 instructions: 69000001 cycles: 164970589 heartbeat IPC: 0.237695 cumulative IPC: 0.367089 (Simulation time: 0 hr 35 min 6 sec) 
select_counter is 1022
Heartbeat CPU 0 instructions: 70000002 cycles: 169172353 heartbeat IPC: 0.237996 cumulative IPC: 0.3638 (Simulation time: 0 hr 35 min 41 sec) 
select_counter is 1023
Heartbeat CPU 0 instructions: 71000002 cycles: 173704932 heartbeat IPC: 0.220625 cumulative IPC: 0.359971 (Simulation time: 0 hr 36 min 13 sec) 
select_counter is 1023
Heartbeat CPU 0 instructions: 72000000 cycles: 177165033 heartbeat IPC: 0.289008 cumulative IPC: 0.358551 (Simulation time: 0 hr 36 min 41 sec) 
select_counter is 1023
Heartbeat CPU 0 instructions: 73000000 cycles: 180536593 heartbeat IPC: 0.296599 cumulative IPC: 0.357366 (Simulation time: 0 hr 37 min 9 sec) 
select_counter is 1023
Heartbeat CPU 0 instructions: 74000000 cycles: 184406923 heartbeat IPC: 0.258376 cumulative IPC: 0.355239 (Simulation time: 0 hr 37 min 35 sec) 
select_counter is 1022
Heartbeat CPU 0 instructions: 75000002 cycles: 188381073 heartbeat IPC: 0.251627 cumulative IPC: 0.353003 (Simulation time: 0 hr 38 min 5 sec) 
select_counter is 1021
Heartbeat CPU 0 instructions: 76000000 cycles: 191001772 heartbeat IPC: 0.381577 cumulative IPC: 0.353404 (Simulation time: 0 hr 38 min 30 sec) 
select_counter is 1023
Heartbeat CPU 0 instructions: 77000000 cycles: 194659671 heartbeat IPC: 0.273381 cumulative IPC: 0.351867 (Simulation time: 0 hr 39 min 0 sec) 
select_counter is 1023
Heartbeat CPU 0 instructions: 78000002 cycles: 196850056 heartbeat IPC: 0.456542 cumulative IPC: 0.353057 (Simulation time: 0 hr 39 min 26 sec) 
select_counter is 1023
Heartbeat CPU 0 instructions: 79000002 cycles: 198705848 heartbeat IPC: 0.538853 cumulative IPC: 0.35483 (Simulation time: 0 hr 39 min 53 sec) 
select_counter is 1023
Heartbeat CPU 0 instructions: 80000000 cycles: 199872599 heartbeat IPC: 0.857079 cumulative IPC: 0.357826 (Simulation time: 0 hr 40 min 15 sec) 
select_counter is 1023
Heartbeat CPU 0 instructions: 81000003 cycles: 202062799 heartbeat IPC: 0.456581 cumulative IPC: 0.358919 (Simulation time: 0 hr 40 min 40 sec) 
select_counter is 1023
Heartbeat CPU 0 instructions: 82000001 cycles: 205070455 heartbeat IPC: 0.332484 cumulative IPC: 0.358523 (Simulation time: 0 hr 41 min 8 sec) 
select_counter is 1023
Heartbeat CPU 0 instructions: 83000002 cycles: 207775239 heartbeat IPC: 0.369716 cumulative IPC: 0.358672 (Simulation time: 0 hr 41 min 34 sec) 
select_counter is 1022
Heartbeat CPU 0 instructions: 84000000 cycles: 210087716 heartbeat IPC: 0.432436 cumulative IPC: 0.359501 (Simulation time: 0 hr 41 min 59 sec) 
select_counter is 1022
Heartbeat CPU 0 instructions: 85000000 cycles: 211699394 heartbeat IPC: 0.620471 cumulative IPC: 0.361528 (Simulation time: 0 hr 42 min 23 sec) 
select_counter is 1023
Heartbeat CPU 0 instructions: 86000001 cycles: 215796249 heartbeat IPC: 0.24409 cumulative IPC: 0.359254 (Simulation time: 0 hr 42 min 56 sec) 
select_counter is 1022
Heartbeat CPU 0 instructions: 87000000 cycles: 218453099 heartbeat IPC: 0.376385 cumulative IPC: 0.359466 (Simulation time: 0 hr 43 min 18 sec) 
select_counter is 1022
Heartbeat CPU 0 instructions: 88000000 cycles: 219810575 heartbeat IPC: 0.736661 cumulative IPC: 0.361842 (Simulation time: 0 hr 43 min 34 sec) 
select_counter is 1021
Heartbeat CPU 0 instructions: 89000003 cycles: 222439254 heartbeat IPC: 0.38042 cumulative IPC: 0.362066 (Simulation time: 0 hr 43 min 54 sec) 
select_counter is 1022
Heartbeat CPU 0 instructions: 90000002 cycles: 225196512 heartbeat IPC: 0.362679 cumulative IPC: 0.362073 (Simulation time: 0 hr 44 min 21 sec) 
select_counter is 1021
Heartbeat CPU 0 instructions: 91000001 cycles: 228636318 heartbeat IPC: 0.290714 cumulative IPC: 0.360979 (Simulation time: 0 hr 44 min 48 sec) 
select_counter is 1023
Heartbeat CPU 0 instructions: 92000000 cycles: 230641467 heartbeat IPC: 0.498716 cumulative IPC: 0.362199 (Simulation time: 0 hr 45 min 11 sec) 
select_counter is 1017
Heartbeat CPU 0 instructions: 93000000 cycles: 234444076 heartbeat IPC: 0.262977 cumulative IPC: 0.36056 (Simulation time: 0 hr 45 min 40 sec) 
select_counter is 1023
Heartbeat CPU 0 instructions: 94000001 cycles: 237489285 heartbeat IPC: 0.328385 cumulative IPC: 0.36014 (Simulation time: 0 hr 46 min 4 sec) 
select_counter is 1023
Heartbeat CPU 0 instructions: 95000003 cycles: 238877824 heartbeat IPC: 0.720183 cumulative IPC: 0.362271 (Simulation time: 0 hr 46 min 19 sec) 
select_counter is 1021
Heartbeat CPU 0 instructions: 96000000 cycles: 241150877 heartbeat IPC: 0.439936 cumulative IPC: 0.363016 (Simulation time: 0 hr 46 min 39 sec) 
select_counter is 1023
Heartbeat CPU 0 instructions: 97000002 cycles: 243629798 heartbeat IPC: 0.403402 cumulative IPC: 0.363434 (Simulation time: 0 hr 47 min 3 sec) 
select_counter is 1019
Heartbeat CPU 0 instructions: 98000003 cycles: 247689354 heartbeat IPC: 0.246333 cumulative IPC: 0.361482 (Simulation time: 0 hr 47 min 33 sec) 
select_counter is 1023
Heartbeat CPU 0 instructions: 99000000 cycles: 250673565 heartbeat IPC: 0.335096 cumulative IPC: 0.361162 (Simulation time: 0 hr 47 min 57 sec) 
select_counter is 1023
Heartbeat CPU 0 instructions: 100000000 cycles: 252611820 heartbeat IPC: 0.515928 cumulative IPC: 0.36237 (Simulation time: 0 hr 48 min 19 sec) 
select_counter is 1023
Heartbeat CPU 0 instructions: 101000001 cycles: 256558062 heartbeat IPC: 0.253406 cumulative IPC: 0.360666 (Simulation time: 0 hr 48 min 47 sec) 
select_counter is 1023
Heartbeat CPU 0 instructions: 102000000 cycles: 258196598 heartbeat IPC: 0.6103 cumulative IPC: 0.362276 (Simulation time: 0 hr 49 min 1 sec) 
select_counter is 1020
Heartbeat CPU 0 instructions: 103000001 cycles: 259506861 heartbeat IPC: 0.763206 cumulative IPC: 0.364334 (Simulation time: 0 hr 49 min 14 sec) 
select_counter is 1023
Heartbeat CPU 0 instructions: 104000000 cycles: 262789120 heartbeat IPC: 0.304668 cumulative IPC: 0.363577 (Simulation time: 0 hr 49 min 38 sec) 
select_counter is 1022
Heartbeat CPU 0 instructions: 105000001 cycles: 265957204 heartbeat IPC: 0.315649 cumulative IPC: 0.362997 (Simulation time: 0 hr 50 min 1 sec) 
select_counter is 1021
Heartbeat CPU 0 instructions: 106000002 cycles: 268710149 heartbeat IPC: 0.363248 cumulative IPC: 0.362999 (Simulation time: 0 hr 50 min 24 sec) 
select_counter is 1022
Heartbeat CPU 0 instructions: 107000000 cycles: 270490782 heartbeat IPC: 0.561597 cumulative IPC: 0.364327 (Simulation time: 0 hr 50 min 42 sec) 
select_counter is 1023
Heartbeat CPU 0 instructions: 108000000 cycles: 274549192 heartbeat IPC: 0.246402 cumulative IPC: 0.362557 (Simulation time: 0 hr 51 min 4 sec) 
select_counter is 1023
Heartbeat CPU 0 instructions: 109000000 cycles: 276500357 heartbeat IPC: 0.512514 cumulative IPC: 0.363632 (Simulation time: 0 hr 51 min 14 sec) 
select_counter is 1022
Heartbeat CPU 0 instructions: 110000002 cycles: 277845783 heartbeat IPC: 0.743261 cumulative IPC: 0.365498 (Simulation time: 0 hr 51 min 24 sec) 
select_counter is 1023
Finished CPU 0 instructions: 100000000 cycles: 273599035 cummulative IPC: 0.365498 (Simulation time: 0 hr 51 min 24 sec) 

ChampSim completed all CPUs

Region of Interest Statistics

CPU 0 cummulative IPC: 0.365498 instructions: 100000000 cycles: 273599035
LLC TOTAL     ACCESS:    8718022  HIT:    4142991  MISS:    4575031
LLC LOAD      ACCESS:    2239892  HIT:     953696  MISS:    1286196
LLC RFO       ACCESS:     764938  HIT:     334615  MISS:     430323
LLC PREFETCH  ACCESS:    3552708  HIT:    1324017  MISS:    2228691
LLC WRITEBACK ACCESS:    2160484  HIT:    1530663  MISS:     629821
Ship samples: 
26, 57, 81, 97, 144, 160, 213, 241, 263, 293, 349, 355, 407, 434, 464, 488, 521, 549, 597, 615, 666, 684, 725, 754, 797, 813, 842, 875, 900, 943, 973, 1001, 1036, 1069, 1096, 1144, 1176, 1196, 1243, 1260, 1311, 1330, 1355, 1386, 1435, 1444, 1488, 1535, 1563, 1598, 1601, 1637, 1690, 1702, 1744, 1774, 1805, 1848, 1886, 1895, 1947, 1953, 2008, 2024, 
Lime duel samples: 
29, 109, 220, 298, 401, 496, 598, 675, 799, 881, 980, 1070, 1154, 1278, 1353, 1465, 1564, 1654, 1749, 1824, 1945, 
Lime samples: 
29, 109, 220, 298, 401, 496, 598, 675, 799, 881, 980, 1070, 1154, 1278, 1353, 1465, 1564, 1654, 1749, 1824, 1945, 
Insertion Distribution: 
	LOAD 10461 0 0 0 0 0 3253 24651 
	RFO 5944 0 0 0 0 0 2469 9191 
	PREF 0 3714 0 0 0 0 8592 58447 
	WRITEBACK 0 0 0 0 0 0 0 17004 
Total Prefetch Downgrades: 4267
