
*** ChampSim Multicore Out-of-Order Simulator ***

Warmup Instructions: 10000000
Simulation Instructions: 100000000
Configuration: 2
Number of CPUs: 1
LLC sets: 2048
LLC ways: 16
Off-chip DRAM Channels: 1 Width: 64-bit Data Rate: 1600 MT/s

CPU 0 runs /datasets/cs240c-wi22-a00-public/data/Assignment2-gz/gcc_56B.trace.gz
CPU 0 L1D next line prefetcher
CPU 0 L2C IP-based stride prefetcher
Heartbeat CPU 0 instructions: 1000003 cycles: 954147 heartbeat IPC: 1.04806 cumulative IPC: 1.04806 (Simulation time: 0 hr 0 min 34 sec) 
select_counter is 707
Heartbeat CPU 0 instructions: 2000001 cycles: 1898354 heartbeat IPC: 1.05909 cumulative IPC: 1.05354 (Simulation time: 0 hr 1 min 8 sec) 
select_counter is 730
Heartbeat CPU 0 instructions: 3000001 cycles: 2885600 heartbeat IPC: 1.01292 cumulative IPC: 1.03965 (Simulation time: 0 hr 1 min 46 sec) 
select_counter is 740
Heartbeat CPU 0 instructions: 4000000 cycles: 3848224 heartbeat IPC: 1.03883 cumulative IPC: 1.03944 (Simulation time: 0 hr 2 min 21 sec) 
select_counter is 745
Heartbeat CPU 0 instructions: 5000002 cycles: 4737714 heartbeat IPC: 1.12424 cumulative IPC: 1.05536 (Simulation time: 0 hr 2 min 55 sec) 
select_counter is 765
Heartbeat CPU 0 instructions: 6000000 cycles: 5685680 heartbeat IPC: 1.05489 cumulative IPC: 1.05528 (Simulation time: 0 hr 3 min 33 sec) 
select_counter is 776
Heartbeat CPU 0 instructions: 7000000 cycles: 6649936 heartbeat IPC: 1.03707 cumulative IPC: 1.05264 (Simulation time: 0 hr 4 min 11 sec) 
select_counter is 780
Heartbeat CPU 0 instructions: 8000000 cycles: 7611167 heartbeat IPC: 1.04033 cumulative IPC: 1.05109 (Simulation time: 0 hr 4 min 43 sec) 
select_counter is 796
Heartbeat CPU 0 instructions: 9000000 cycles: 8622649 heartbeat IPC: 0.988648 cumulative IPC: 1.04376 (Simulation time: 0 hr 5 min 18 sec) 
select_counter is 803
Heartbeat CPU 0 instructions: 10000002 cycles: 9583170 heartbeat IPC: 1.0411 cumulative IPC: 1.0435 (Simulation time: 0 hr 5 min 54 sec) 
select_counter is 812

Warmup complete CPU 0 instructions: 10000002 cycles: 9583170 (Simulation time: 0 hr 5 min 54 sec) 

Heartbeat CPU 0 instructions: 11000000 cycles: 10944843 heartbeat IPC: 0.734389 cumulative IPC: 0.734389 (Simulation time: 0 hr 6 min 28 sec) 
select_counter is 820
Heartbeat CPU 0 instructions: 12000000 cycles: 12381521 heartbeat IPC: 0.69605 cumulative IPC: 0.714706 (Simulation time: 0 hr 7 min 5 sec) 
select_counter is 846
Heartbeat CPU 0 instructions: 13000001 cycles: 13776570 heartbeat IPC: 0.716821 cumulative IPC: 0.71541 (Simulation time: 0 hr 7 min 43 sec) 
select_counter is 844
Heartbeat CPU 0 instructions: 14000000 cycles: 15119453 heartbeat IPC: 0.744666 cumulative IPC: 0.722506 (Simulation time: 0 hr 8 min 19 sec) 
select_counter is 855
Heartbeat CPU 0 instructions: 15000003 cycles: 16503400 heartbeat IPC: 0.722573 cumulative IPC: 0.722519 (Simulation time: 0 hr 8 min 57 sec) 
select_counter is 864
Heartbeat CPU 0 instructions: 16000000 cycles: 17839435 heartbeat IPC: 0.748481 cumulative IPC: 0.726721 (Simulation time: 0 hr 9 min 37 sec) 
select_counter is 872
Heartbeat CPU 0 instructions: 17000001 cycles: 19173729 heartbeat IPC: 0.749461 cumulative IPC: 0.729884 (Simulation time: 0 hr 10 min 18 sec) 
select_counter is 884
Heartbeat CPU 0 instructions: 18000000 cycles: 20574283 heartbeat IPC: 0.714002 cumulative IPC: 0.727861 (Simulation time: 0 hr 10 min 54 sec) 
select_counter is 888
Heartbeat CPU 0 instructions: 19000000 cycles: 21963566 heartbeat IPC: 0.719796 cumulative IPC: 0.726956 (Simulation time: 0 hr 11 min 33 sec) 
select_counter is 902
Heartbeat CPU 0 instructions: 20000000 cycles: 23336067 heartbeat IPC: 0.728597 cumulative IPC: 0.727119 (Simulation time: 0 hr 12 min 14 sec) 
select_counter is 907
Heartbeat CPU 0 instructions: 21000000 cycles: 24689446 heartbeat IPC: 0.738891 cumulative IPC: 0.728174 (Simulation time: 0 hr 12 min 51 sec) 
select_counter is 915
Heartbeat CPU 0 instructions: 22000000 cycles: 26025373 heartbeat IPC: 0.748544 cumulative IPC: 0.729829 (Simulation time: 0 hr 13 min 28 sec) 
select_counter is 923
Heartbeat CPU 0 instructions: 23000000 cycles: 27366496 heartbeat IPC: 0.745644 cumulative IPC: 0.731022 (Simulation time: 0 hr 14 min 4 sec) 
select_counter is 929
Heartbeat CPU 0 instructions: 24000000 cycles: 28737431 heartbeat IPC: 0.729429 cumulative IPC: 0.730908 (Simulation time: 0 hr 14 min 39 sec) 
select_counter is 936
Heartbeat CPU 0 instructions: 25000000 cycles: 30119057 heartbeat IPC: 0.723785 cumulative IPC: 0.730429 (Simulation time: 0 hr 15 min 15 sec) 
select_counter is 947
Heartbeat CPU 0 instructions: 26000002 cycles: 31533652 heartbeat IPC: 0.706918 cumulative IPC: 0.728913 (Simulation time: 0 hr 15 min 53 sec) 
select_counter is 961
Heartbeat CPU 0 instructions: 27000000 cycles: 32927355 heartbeat IPC: 0.717512 cumulative IPC: 0.728233 (Simulation time: 0 hr 16 min 28 sec) 
select_counter is 971
Heartbeat CPU 0 instructions: 28000000 cycles: 34276135 heartbeat IPC: 0.741411 cumulative IPC: 0.728952 (Simulation time: 0 hr 17 min 8 sec) 
select_counter is 981
Heartbeat CPU 0 instructions: 29000000 cycles: 35627648 heartbeat IPC: 0.739911 cumulative IPC: 0.729521 (Simulation time: 0 hr 17 min 49 sec) 
select_counter is 991
Heartbeat CPU 0 instructions: 30000000 cycles: 36983258 heartbeat IPC: 0.737675 cumulative IPC: 0.729925 (Simulation time: 0 hr 18 min 28 sec) 
select_counter is 1003
Heartbeat CPU 0 instructions: 31000000 cycles: 38345142 heartbeat IPC: 0.734277 cumulative IPC: 0.730131 (Simulation time: 0 hr 19 min 7 sec) 
select_counter is 1008
Heartbeat CPU 0 instructions: 32000000 cycles: 39734033 heartbeat IPC: 0.719999 cumulative IPC: 0.729664 (Simulation time: 0 hr 19 min 42 sec) 
select_counter is 1017
Heartbeat CPU 0 instructions: 33000002 cycles: 41150662 heartbeat IPC: 0.705903 cumulative IPC: 0.728598 (Simulation time: 0 hr 20 min 20 sec) 
select_counter is 1023
Heartbeat CPU 0 instructions: 34000002 cycles: 42524699 heartbeat IPC: 0.727782 cumulative IPC: 0.728564 (Simulation time: 0 hr 20 min 58 sec) 
select_counter is 1023
Heartbeat CPU 0 instructions: 35000002 cycles: 43886257 heartbeat IPC: 0.734453 cumulative IPC: 0.728797 (Simulation time: 0 hr 21 min 35 sec) 
select_counter is 1015
Heartbeat CPU 0 instructions: 36000000 cycles: 45229081 heartbeat IPC: 0.744698 cumulative IPC: 0.729396 (Simulation time: 0 hr 22 min 16 sec) 
select_counter is 1022
Heartbeat CPU 0 instructions: 37000000 cycles: 46554594 heartbeat IPC: 0.754425 cumulative IPC: 0.730294 (Simulation time: 0 hr 22 min 54 sec) 
select_counter is 1022
Heartbeat CPU 0 instructions: 38000002 cycles: 47901364 heartbeat IPC: 0.742519 cumulative IPC: 0.730723 (Simulation time: 0 hr 23 min 29 sec) 
select_counter is 1023
Heartbeat CPU 0 instructions: 39000000 cycles: 49315469 heartbeat IPC: 0.70716 cumulative IPC: 0.729885 (Simulation time: 0 hr 24 min 4 sec) 
select_counter is 1012
Heartbeat CPU 0 instructions: 40000000 cycles: 50690910 heartbeat IPC: 0.72704 cumulative IPC: 0.729789 (Simulation time: 0 hr 24 min 45 sec) 
select_counter is 1023
Heartbeat CPU 0 instructions: 41000001 cycles: 52045560 heartbeat IPC: 0.738199 cumulative IPC: 0.730058 (Simulation time: 0 hr 25 min 24 sec) 
select_counter is 1019
Heartbeat CPU 0 instructions: 42000003 cycles: 53388763 heartbeat IPC: 0.744491 cumulative IPC: 0.7305 (Simulation time: 0 hr 26 min 2 sec) 
select_counter is 1023
Heartbeat CPU 0 instructions: 43000001 cycles: 54738759 heartbeat IPC: 0.740741 cumulative IPC: 0.730807 (Simulation time: 0 hr 26 min 35 sec) 
select_counter is 1023
Heartbeat CPU 0 instructions: 44000000 cycles: 56081673 heartbeat IPC: 0.744649 cumulative IPC: 0.731206 (Simulation time: 0 hr 27 min 7 sec) 
select_counter is 1023
Heartbeat CPU 0 instructions: 45000000 cycles: 57466002 heartbeat IPC: 0.722372 cumulative IPC: 0.730951 (Simulation time: 0 hr 27 min 40 sec) 
select_counter is 1022
Heartbeat CPU 0 instructions: 46000000 cycles: 58871716 heartbeat IPC: 0.711382 cumulative IPC: 0.730393 (Simulation time: 0 hr 28 min 14 sec) 
select_counter is 1023
Heartbeat CPU 0 instructions: 47000002 cycles: 60260301 heartbeat IPC: 0.720159 cumulative IPC: 0.730112 (Simulation time: 0 hr 28 min 55 sec) 
select_counter is 1022
Heartbeat CPU 0 instructions: 48000000 cycles: 61620143 heartbeat IPC: 0.735378 cumulative IPC: 0.73025 (Simulation time: 0 hr 29 min 32 sec) 
select_counter is 1023
Heartbeat CPU 0 instructions: 49000002 cycles: 62959017 heartbeat IPC: 0.746898 cumulative IPC: 0.730668 (Simulation time: 0 hr 30 min 9 sec) 
select_counter is 1019
Heartbeat CPU 0 instructions: 50000000 cycles: 64294313 heartbeat IPC: 0.748896 cumulative IPC: 0.731112 (Simulation time: 0 hr 30 min 49 sec) 
select_counter is 1023
Heartbeat CPU 0 instructions: 51000000 cycles: 65665822 heartbeat IPC: 0.729124 cumulative IPC: 0.731064 (Simulation time: 0 hr 31 min 25 sec) 
select_counter is 1023
Heartbeat CPU 0 instructions: 52000000 cycles: 67075763 heartbeat IPC: 0.70925 cumulative IPC: 0.730529 (Simulation time: 0 hr 32 min 1 sec) 
select_counter is 1023
Heartbeat CPU 0 instructions: 53000001 cycles: 68431330 heartbeat IPC: 0.737699 cumulative IPC: 0.730694 (Simulation time: 0 hr 32 min 36 sec) 
select_counter is 1022
Heartbeat CPU 0 instructions: 54000000 cycles: 69768619 heartbeat IPC: 0.747781 cumulative IPC: 0.731074 (Simulation time: 0 hr 33 min 13 sec) 
select_counter is 1023
Heartbeat CPU 0 instructions: 55000001 cycles: 71096694 heartbeat IPC: 0.75297 cumulative IPC: 0.731546 (Simulation time: 0 hr 33 min 47 sec) 
select_counter is 1023
Heartbeat CPU 0 instructions: 56000000 cycles: 72441931 heartbeat IPC: 0.743363 cumulative IPC: 0.731799 (Simulation time: 0 hr 34 min 22 sec) 
select_counter is 1023
Heartbeat CPU 0 instructions: 57000001 cycles: 73795914 heartbeat IPC: 0.738562 cumulative IPC: 0.731942 (Simulation time: 0 hr 34 min 57 sec) 
select_counter is 1022
Heartbeat CPU 0 instructions: 58000000 cycles: 75191868 heartbeat IPC: 0.716355 cumulative IPC: 0.73161 (Simulation time: 0 hr 35 min 30 sec) 
select_counter is 1023
Heartbeat CPU 0 instructions: 59000000 cycles: 76607407 heartbeat IPC: 0.706445 cumulative IPC: 0.731079 (Simulation time: 0 hr 36 min 9 sec) 
select_counter is 1023
Heartbeat CPU 0 instructions: 60000000 cycles: 78002034 heartbeat IPC: 0.717038 cumulative IPC: 0.730793 (Simulation time: 0 hr 36 min 43 sec) 
select_counter is 1022
Heartbeat CPU 0 instructions: 61000000 cycles: 79351407 heartbeat IPC: 0.741085 cumulative IPC: 0.730992 (Simulation time: 0 hr 37 min 21 sec) 
select_counter is 1023
Heartbeat CPU 0 instructions: 62000002 cycles: 80734371 heartbeat IPC: 0.723086 cumulative IPC: 0.730838 (Simulation time: 0 hr 37 min 59 sec) 
select_counter is 1019
Heartbeat CPU 0 instructions: 63000003 cycles: 82067414 heartbeat IPC: 0.750164 cumulative IPC: 0.731193 (Simulation time: 0 hr 38 min 38 sec) 
select_counter is 1023
Heartbeat CPU 0 instructions: 64000000 cycles: 83407402 heartbeat IPC: 0.746273 cumulative IPC: 0.731467 (Simulation time: 0 hr 39 min 14 sec) 
select_counter is 1022
Heartbeat CPU 0 instructions: 65000000 cycles: 84775494 heartbeat IPC: 0.730945 cumulative IPC: 0.731458 (Simulation time: 0 hr 39 min 49 sec) 
select_counter is 1015
Heartbeat CPU 0 instructions: 66000002 cycles: 86183748 heartbeat IPC: 0.710101 cumulative IPC: 0.731065 (Simulation time: 0 hr 40 min 22 sec) 
select_counter is 1022
Heartbeat CPU 0 instructions: 67000002 cycles: 87586519 heartbeat IPC: 0.712875 cumulative IPC: 0.730738 (Simulation time: 0 hr 40 min 56 sec) 
select_counter is 1017
Heartbeat CPU 0 instructions: 68000000 cycles: 88957323 heartbeat IPC: 0.729497 cumulative IPC: 0.730716 (Simulation time: 0 hr 41 min 32 sec) 
select_counter is 1021
Heartbeat CPU 0 instructions: 69000000 cycles: 90303397 heartbeat IPC: 0.742901 cumulative IPC: 0.73092 (Simulation time: 0 hr 42 min 6 sec) 
select_counter is 1022
Heartbeat CPU 0 instructions: 70000000 cycles: 91648275 heartbeat IPC: 0.743562 cumulative IPC: 0.731127 (Simulation time: 0 hr 42 min 39 sec) 
select_counter is 1020
Heartbeat CPU 0 instructions: 71000003 cycles: 93009609 heartbeat IPC: 0.734576 cumulative IPC: 0.731183 (Simulation time: 0 hr 43 min 17 sec) 
select_counter is 1023
Heartbeat CPU 0 instructions: 72000000 cycles: 94373247 heartbeat IPC: 0.73333 cumulative IPC: 0.731218 (Simulation time: 0 hr 43 min 49 sec) 
select_counter is 1018
Heartbeat CPU 0 instructions: 73000003 cycles: 95762516 heartbeat IPC: 0.719805 cumulative IPC: 0.731034 (Simulation time: 0 hr 44 min 18 sec) 
select_counter is 1022
Heartbeat CPU 0 instructions: 74000001 cycles: 97178431 heartbeat IPC: 0.706256 cumulative IPC: 0.730633 (Simulation time: 0 hr 44 min 48 sec) 
select_counter is 1022
Heartbeat CPU 0 instructions: 75000003 cycles: 98574439 heartbeat IPC: 0.71633 cumulative IPC: 0.730409 (Simulation time: 0 hr 45 min 20 sec) 
select_counter is 1022
Heartbeat CPU 0 instructions: 76000000 cycles: 99939149 heartbeat IPC: 0.732754 cumulative IPC: 0.730444 (Simulation time: 0 hr 45 min 57 sec) 
select_counter is 1023
Heartbeat CPU 0 instructions: 77000003 cycles: 101294415 heartbeat IPC: 0.737865 cumulative IPC: 0.730554 (Simulation time: 0 hr 46 min 30 sec) 
select_counter is 1021
Heartbeat CPU 0 instructions: 78000001 cycles: 102648895 heartbeat IPC: 0.738289 cumulative IPC: 0.730666 (Simulation time: 0 hr 47 min 2 sec) 
select_counter is 1023
Heartbeat CPU 0 instructions: 79000000 cycles: 104025297 heartbeat IPC: 0.726531 cumulative IPC: 0.730606 (Simulation time: 0 hr 47 min 31 sec) 
select_counter is 1023
Heartbeat CPU 0 instructions: 80000000 cycles: 105394795 heartbeat IPC: 0.730195 cumulative IPC: 0.7306 (Simulation time: 0 hr 47 min 59 sec) 
select_counter is 1023
Heartbeat CPU 0 instructions: 81000002 cycles: 106788424 heartbeat IPC: 0.717553 cumulative IPC: 0.730413 (Simulation time: 0 hr 48 min 28 sec) 
select_counter is 1022
Heartbeat CPU 0 instructions: 82000000 cycles: 108180619 heartbeat IPC: 0.718289 cumulative IPC: 0.730242 (Simulation time: 0 hr 48 min 55 sec) 
select_counter is 1023
Heartbeat CPU 0 instructions: 83000003 cycles: 109533280 heartbeat IPC: 0.739286 cumulative IPC: 0.730364 (Simulation time: 0 hr 49 min 22 sec) 
select_counter is 1022
Heartbeat CPU 0 instructions: 84000000 cycles: 110899862 heartbeat IPC: 0.73175 cumulative IPC: 0.730383 (Simulation time: 0 hr 49 min 46 sec) 
select_counter is 1020
Heartbeat CPU 0 instructions: 85000002 cycles: 112233416 heartbeat IPC: 0.749877 cumulative IPC: 0.730636 (Simulation time: 0 hr 50 min 11 sec) 
select_counter is 1019
Heartbeat CPU 0 instructions: 86000003 cycles: 113557202 heartbeat IPC: 0.75541 cumulative IPC: 0.730952 (Simulation time: 0 hr 50 min 31 sec) 
select_counter is 1017
Heartbeat CPU 0 instructions: 87000000 cycles: 114957055 heartbeat IPC: 0.714359 cumulative IPC: 0.730731 (Simulation time: 0 hr 50 min 50 sec) 
select_counter is 1023
Heartbeat CPU 0 instructions: 88000000 cycles: 116327006 heartbeat IPC: 0.729953 cumulative IPC: 0.730721 (Simulation time: 0 hr 51 min 7 sec) 
select_counter is 1023
Heartbeat CPU 0 instructions: 89000000 cycles: 117706802 heartbeat IPC: 0.724745 cumulative IPC: 0.730645 (Simulation time: 0 hr 51 min 25 sec) 
select_counter is 1021
Heartbeat CPU 0 instructions: 90000000 cycles: 119044497 heartbeat IPC: 0.747555 cumulative IPC: 0.730852 (Simulation time: 0 hr 51 min 41 sec) 
select_counter is 1021
Heartbeat CPU 0 instructions: 91000001 cycles: 120374123 heartbeat IPC: 0.752092 cumulative IPC: 0.731107 (Simulation time: 0 hr 51 min 56 sec) 
select_counter is 1022
Heartbeat CPU 0 instructions: 92000000 cycles: 121715952 heartbeat IPC: 0.745251 cumulative IPC: 0.731276 (Simulation time: 0 hr 52 min 11 sec) 
select_counter is 1021
Heartbeat CPU 0 instructions: 93000003 cycles: 123115794 heartbeat IPC: 0.714368 cumulative IPC: 0.731067 (Simulation time: 0 hr 52 min 26 sec) 
select_counter is 1019
Heartbeat CPU 0 instructions: 94000000 cycles: 124480693 heartbeat IPC: 0.732653 cumulative IPC: 0.731086 (Simulation time: 0 hr 52 min 40 sec) 
select_counter is 1023
Heartbeat CPU 0 instructions: 95000000 cycles: 125856726 heartbeat IPC: 0.726727 cumulative IPC: 0.731035 (Simulation time: 0 hr 52 min 56 sec) 
select_counter is 1022
Heartbeat CPU 0 instructions: 96000000 cycles: 127208964 heartbeat IPC: 0.739515 cumulative IPC: 0.731132 (Simulation time: 0 hr 53 min 10 sec) 
select_counter is 1023
Heartbeat CPU 0 instructions: 97000000 cycles: 128536801 heartbeat IPC: 0.753105 cumulative IPC: 0.731377 (Simulation time: 0 hr 53 min 25 sec) 
select_counter is 1023
Heartbeat CPU 0 instructions: 98000003 cycles: 129867947 heartbeat IPC: 0.751235 cumulative IPC: 0.731597 (Simulation time: 0 hr 53 min 40 sec) 
select_counter is 1022
Heartbeat CPU 0 instructions: 99000000 cycles: 131270125 heartbeat IPC: 0.713174 cumulative IPC: 0.731385 (Simulation time: 0 hr 53 min 53 sec) 
select_counter is 1017
Heartbeat CPU 0 instructions: 100000000 cycles: 132628872 heartbeat IPC: 0.735972 cumulative IPC: 0.731436 (Simulation time: 0 hr 54 min 6 sec) 
select_counter is 1021
Heartbeat CPU 0 instructions: 101000000 cycles: 133991606 heartbeat IPC: 0.733819 cumulative IPC: 0.731462 (Simulation time: 0 hr 54 min 19 sec) 
select_counter is 1022
Heartbeat CPU 0 instructions: 102000001 cycles: 135324318 heartbeat IPC: 0.75035 cumulative IPC: 0.731662 (Simulation time: 0 hr 54 min 32 sec) 
select_counter is 1023
Heartbeat CPU 0 instructions: 103000001 cycles: 136642590 heartbeat IPC: 0.758569 cumulative IPC: 0.731941 (Simulation time: 0 hr 54 min 44 sec) 
select_counter is 1023
Heartbeat CPU 0 instructions: 104000000 cycles: 137964650 heartbeat IPC: 0.756395 cumulative IPC: 0.732193 (Simulation time: 0 hr 54 min 54 sec) 
select_counter is 1023
Heartbeat CPU 0 instructions: 105000002 cycles: 139362516 heartbeat IPC: 0.715378 cumulative IPC: 0.732012 (Simulation time: 0 hr 55 min 5 sec) 
select_counter is 1023
Heartbeat CPU 0 instructions: 106000000 cycles: 140788629 heartbeat IPC: 0.701205 cumulative IPC: 0.731677 (Simulation time: 0 hr 55 min 15 sec) 
select_counter is 1020
Heartbeat CPU 0 instructions: 107000002 cycles: 142198870 heartbeat IPC: 0.7091 cumulative IPC: 0.731437 (Simulation time: 0 hr 55 min 26 sec) 
select_counter is 1022
Heartbeat CPU 0 instructions: 108000000 cycles: 143580821 heartbeat IPC: 0.723613 cumulative IPC: 0.731356 (Simulation time: 0 hr 55 min 36 sec) 
select_counter is 1020
Heartbeat CPU 0 instructions: 109000000 cycles: 144942789 heartbeat IPC: 0.734232 cumulative IPC: 0.731385 (Simulation time: 0 hr 55 min 46 sec) 
select_counter is 1022
Heartbeat CPU 0 instructions: 110000000 cycles: 146297970 heartbeat IPC: 0.737909 cumulative IPC: 0.73145 (Simulation time: 0 hr 55 min 54 sec) 
select_counter is 1014
Finished CPU 0 instructions: 100000003 cycles: 136714802 cummulative IPC: 0.73145 (Simulation time: 0 hr 55 min 54 sec) 

ChampSim completed all CPUs

Region of Interest Statistics

CPU 0 cummulative IPC: 0.73145 instructions: 100000003 cycles: 136714802
LLC TOTAL     ACCESS:   21346119  HIT:   21108585  MISS:     237534
LLC LOAD      ACCESS:     165905  HIT:     121295  MISS:      44610
LLC RFO       ACCESS:   10463422  HIT:   10456062  MISS:       7360
LLC PREFETCH  ACCESS:     183304  HIT:      28740  MISS:     154564
LLC WRITEBACK ACCESS:   10533488  HIT:   10502488  MISS:      31000
Ship samples: 
27, 54, 75, 97, 136, 170, 216, 228, 278, 298, 340, 358, 399, 447, 470, 504, 528, 562, 591, 637, 647, 678, 705, 767, 781, 813, 837, 892, 913, 951, 977, 1020, 1041, 1071, 1102, 1136, 1178, 1215, 1242, 1269, 1309, 1332, 1364, 1379, 1417, 1457, 1485, 1515, 1544, 1580, 1630, 1632, 1665, 1711, 1745, 1789, 1802, 1832, 1859, 1891, 1951, 1976, 2007, 2027, 
Lime duel samples: 
26, 100, 207, 311, 388, 506, 597, 701, 793, 882, 971, 1073, 1173, 1278, 1346, 1467, 1566, 1634, 1759, 1855, 1950, 
Lime samples: 
26, 100, 207, 311, 388, 506, 597, 701, 793, 882, 971, 1073, 1173, 1278, 1346, 1467, 1566, 1634, 1759, 1855, 1950, 
Insertion Distribution: 
	LOAD 124 0 0 0 0 0 573 499 
	RFO 0 0 0 0 0 0 340 103 
	PREF 0 123 0 0 0 0 410 649 
	WRITEBACK 0 0 0 0 0 0 0 7 
Total Prefetch Downgrades: 166
