
*** ChampSim Multicore Out-of-Order Simulator ***

Warmup Instructions: 10000000
Simulation Instructions: 100000000
Configuration: 2
Number of CPUs: 1
LLC sets: 2048
LLC ways: 16
Off-chip DRAM Channels: 1 Width: 64-bit Data Rate: 1600 MT/s

CPU 0 runs /datasets/cs240c-wi22-a00-public/data/Assignment2-gz/bzip2_259B.trace.gz
CPU 0 L1D next line prefetcher
CPU 0 L2C IP-based stride prefetcher
Heartbeat CPU 0 instructions: 1000002 cycles: 428875 heartbeat IPC: 2.33169 cumulative IPC: 2.33169 (Simulation time: 0 hr 0 min 27 sec) 
select_counter is 536
Heartbeat CPU 0 instructions: 2000003 cycles: 861057 heartbeat IPC: 2.31384 cumulative IPC: 2.32273 (Simulation time: 0 hr 0 min 56 sec) 
select_counter is 563
Heartbeat CPU 0 instructions: 3000001 cycles: 1286790 heartbeat IPC: 2.34889 cumulative IPC: 2.33138 (Simulation time: 0 hr 1 min 25 sec) 
select_counter is 592
Heartbeat CPU 0 instructions: 4000000 cycles: 1685064 heartbeat IPC: 2.51083 cumulative IPC: 2.3738 (Simulation time: 0 hr 1 min 52 sec) 
select_counter is 685
Heartbeat CPU 0 instructions: 5000001 cycles: 2103497 heartbeat IPC: 2.38987 cumulative IPC: 2.37699 (Simulation time: 0 hr 2 min 20 sec) 
select_counter is 718
Heartbeat CPU 0 instructions: 6000001 cycles: 2532860 heartbeat IPC: 2.32903 cumulative IPC: 2.36886 (Simulation time: 0 hr 2 min 49 sec) 
select_counter is 727
Heartbeat CPU 0 instructions: 7000003 cycles: 2961908 heartbeat IPC: 2.33075 cumulative IPC: 2.36334 (Simulation time: 0 hr 3 min 17 sec) 
select_counter is 735
Heartbeat CPU 0 instructions: 8000000 cycles: 3391721 heartbeat IPC: 2.32659 cumulative IPC: 2.35868 (Simulation time: 0 hr 3 min 46 sec) 
select_counter is 747
Heartbeat CPU 0 instructions: 9000000 cycles: 3819847 heartbeat IPC: 2.33576 cumulative IPC: 2.35612 (Simulation time: 0 hr 4 min 18 sec) 
select_counter is 757
Heartbeat CPU 0 instructions: 10000002 cycles: 4193920 heartbeat IPC: 2.67328 cumulative IPC: 2.3844 (Simulation time: 0 hr 4 min 42 sec) 
select_counter is 866

Warmup complete CPU 0 instructions: 10000002 cycles: 4193920 (Simulation time: 0 hr 4 min 42 sec) 

Heartbeat CPU 0 instructions: 11000002 cycles: 5026032 heartbeat IPC: 1.20176 cumulative IPC: 1.20176 (Simulation time: 0 hr 5 min 9 sec) 
select_counter is 1023
Heartbeat CPU 0 instructions: 12000000 cycles: 6123747 heartbeat IPC: 0.910981 cumulative IPC: 1.03636 (Simulation time: 0 hr 5 min 44 sec) 
select_counter is 1001
Heartbeat CPU 0 instructions: 13000002 cycles: 7047162 heartbeat IPC: 1.08294 cumulative IPC: 1.05144 (Simulation time: 0 hr 6 min 19 sec) 
select_counter is 1023
Heartbeat CPU 0 instructions: 14000003 cycles: 8019888 heartbeat IPC: 1.02804 cumulative IPC: 1.04549 (Simulation time: 0 hr 6 min 54 sec) 
select_counter is 1011
Heartbeat CPU 0 instructions: 15000002 cycles: 9048456 heartbeat IPC: 0.972224 cumulative IPC: 1.02996 (Simulation time: 0 hr 7 min 27 sec) 
select_counter is 1023
Heartbeat CPU 0 instructions: 16000000 cycles: 10012143 heartbeat IPC: 1.03768 cumulative IPC: 1.03124 (Simulation time: 0 hr 8 min 0 sec) 
select_counter is 1023
Heartbeat CPU 0 instructions: 17000002 cycles: 11110394 heartbeat IPC: 0.91054 cumulative IPC: 1.01208 (Simulation time: 0 hr 8 min 38 sec) 
select_counter is 1023
Heartbeat CPU 0 instructions: 18000001 cycles: 12217792 heartbeat IPC: 0.903017 cumulative IPC: 0.997025 (Simulation time: 0 hr 9 min 11 sec) 
select_counter is 1021
Heartbeat CPU 0 instructions: 19000003 cycles: 13217063 heartbeat IPC: 1.00073 cumulative IPC: 0.997435 (Simulation time: 0 hr 9 min 38 sec) 
select_counter is 1023
Heartbeat CPU 0 instructions: 20000000 cycles: 14239692 heartbeat IPC: 0.977869 cumulative IPC: 0.995443 (Simulation time: 0 hr 10 min 8 sec) 
select_counter is 1023
Heartbeat CPU 0 instructions: 21000001 cycles: 15162314 heartbeat IPC: 1.08387 cumulative IPC: 1.00288 (Simulation time: 0 hr 10 min 36 sec) 
select_counter is 1022
Heartbeat CPU 0 instructions: 22000001 cycles: 16080169 heartbeat IPC: 1.0895 cumulative IPC: 1.00957 (Simulation time: 0 hr 11 min 6 sec) 
select_counter is 1022
Heartbeat CPU 0 instructions: 23000002 cycles: 16993865 heartbeat IPC: 1.09446 cumulative IPC: 1.01563 (Simulation time: 0 hr 11 min 34 sec) 
select_counter is 1023
Heartbeat CPU 0 instructions: 24000000 cycles: 17903506 heartbeat IPC: 1.09933 cumulative IPC: 1.02118 (Simulation time: 0 hr 12 min 3 sec) 
select_counter is 1023
Heartbeat CPU 0 instructions: 25000000 cycles: 18806506 heartbeat IPC: 1.10742 cumulative IPC: 1.02651 (Simulation time: 0 hr 12 min 30 sec) 
select_counter is 1023
Heartbeat CPU 0 instructions: 26000000 cycles: 19766896 heartbeat IPC: 1.04124 cumulative IPC: 1.02742 (Simulation time: 0 hr 12 min 59 sec) 
select_counter is 1022
Heartbeat CPU 0 instructions: 27000003 cycles: 20732532 heartbeat IPC: 1.03559 cumulative IPC: 1.0279 (Simulation time: 0 hr 13 min 29 sec) 
select_counter is 1019
Heartbeat CPU 0 instructions: 28000000 cycles: 21656492 heartbeat IPC: 1.08229 cumulative IPC: 1.03078 (Simulation time: 0 hr 13 min 58 sec) 
select_counter is 1023
Heartbeat CPU 0 instructions: 29000000 cycles: 22570608 heartbeat IPC: 1.09395 cumulative IPC: 1.03392 (Simulation time: 0 hr 14 min 23 sec) 
select_counter is 1021
Heartbeat CPU 0 instructions: 30000001 cycles: 23548083 heartbeat IPC: 1.02305 cumulative IPC: 1.03337 (Simulation time: 0 hr 14 min 51 sec) 
select_counter is 1021
Heartbeat CPU 0 instructions: 31000001 cycles: 24456869 heartbeat IPC: 1.10037 cumulative IPC: 1.03637 (Simulation time: 0 hr 15 min 21 sec) 
select_counter is 1023
Heartbeat CPU 0 instructions: 32000000 cycles: 25350805 heartbeat IPC: 1.11865 cumulative IPC: 1.03985 (Simulation time: 0 hr 15 min 49 sec) 
select_counter is 1022
Heartbeat CPU 0 instructions: 33000002 cycles: 26546849 heartbeat IPC: 0.836091 cumulative IPC: 1.02895 (Simulation time: 0 hr 16 min 21 sec) 
select_counter is 1023
Heartbeat CPU 0 instructions: 34000003 cycles: 27933607 heartbeat IPC: 0.721107 cumulative IPC: 1.01097 (Simulation time: 0 hr 16 min 52 sec) 
select_counter is 1021
Heartbeat CPU 0 instructions: 35000001 cycles: 29040339 heartbeat IPC: 0.903559 cumulative IPC: 1.00618 (Simulation time: 0 hr 17 min 24 sec) 
select_counter is 1023
Heartbeat CPU 0 instructions: 36000000 cycles: 30220143 heartbeat IPC: 0.847598 cumulative IPC: 0.998992 (Simulation time: 0 hr 17 min 53 sec) 
select_counter is 1023
Heartbeat CPU 0 instructions: 37000002 cycles: 31263161 heartbeat IPC: 0.958758 cumulative IPC: 0.997442 (Simulation time: 0 hr 18 min 17 sec) 
select_counter is 1022
Heartbeat CPU 0 instructions: 38000003 cycles: 32378100 heartbeat IPC: 0.896911 cumulative IPC: 0.993465 (Simulation time: 0 hr 18 min 43 sec) 
select_counter is 1022
Heartbeat CPU 0 instructions: 39000001 cycles: 33522072 heartbeat IPC: 0.874146 cumulative IPC: 0.988811 (Simulation time: 0 hr 19 min 9 sec) 
select_counter is 1023
Heartbeat CPU 0 instructions: 40000000 cycles: 34590619 heartbeat IPC: 0.935849 cumulative IPC: 0.986949 (Simulation time: 0 hr 19 min 37 sec) 
select_counter is 1023
Heartbeat CPU 0 instructions: 41000001 cycles: 35780261 heartbeat IPC: 0.84059 cumulative IPC: 0.981437 (Simulation time: 0 hr 20 min 4 sec) 
select_counter is 1023
Heartbeat CPU 0 instructions: 42000000 cycles: 36988598 heartbeat IPC: 0.827583 cumulative IPC: 0.975768 (Simulation time: 0 hr 20 min 29 sec) 
select_counter is 1023
Heartbeat CPU 0 instructions: 43000003 cycles: 38205106 heartbeat IPC: 0.822028 cumulative IPC: 0.970269 (Simulation time: 0 hr 20 min 54 sec) 
select_counter is 1023
Heartbeat CPU 0 instructions: 44000000 cycles: 39417677 heartbeat IPC: 0.824691 cumulative IPC: 0.965258 (Simulation time: 0 hr 21 min 21 sec) 
select_counter is 1023
Heartbeat CPU 0 instructions: 45000000 cycles: 40639425 heartbeat IPC: 0.818499 cumulative IPC: 0.960338 (Simulation time: 0 hr 21 min 46 sec) 
select_counter is 1023
Heartbeat CPU 0 instructions: 46000002 cycles: 41878220 heartbeat IPC: 0.807238 cumulative IPC: 0.955305 (Simulation time: 0 hr 22 min 12 sec) 
select_counter is 1022
Heartbeat CPU 0 instructions: 47000000 cycles: 43108312 heartbeat IPC: 0.812946 cumulative IPC: 0.950805 (Simulation time: 0 hr 22 min 39 sec) 
select_counter is 1022
Heartbeat CPU 0 instructions: 48000000 cycles: 44346302 heartbeat IPC: 0.807761 cumulative IPC: 0.946395 (Simulation time: 0 hr 23 min 4 sec) 
select_counter is 1023
Heartbeat CPU 0 instructions: 49000003 cycles: 45614878 heartbeat IPC: 0.788288 cumulative IPC: 0.941552 (Simulation time: 0 hr 23 min 30 sec) 
select_counter is 1023
Heartbeat CPU 0 instructions: 50000001 cycles: 46653626 heartbeat IPC: 0.962695 cumulative IPC: 0.94207 (Simulation time: 0 hr 23 min 56 sec) 
select_counter is 1023
Heartbeat CPU 0 instructions: 51000002 cycles: 47817212 heartbeat IPC: 0.859413 cumulative IPC: 0.939865 (Simulation time: 0 hr 24 min 20 sec) 
select_counter is 1023
Heartbeat CPU 0 instructions: 52000000 cycles: 48935373 heartbeat IPC: 0.894324 cumulative IPC: 0.938727 (Simulation time: 0 hr 24 min 44 sec) 
select_counter is 1022
Heartbeat CPU 0 instructions: 53000001 cycles: 50130337 heartbeat IPC: 0.836846 cumulative IPC: 0.936076 (Simulation time: 0 hr 25 min 11 sec) 
select_counter is 1023
Heartbeat CPU 0 instructions: 54000000 cycles: 51354853 heartbeat IPC: 0.816648 cumulative IPC: 0.932976 (Simulation time: 0 hr 25 min 35 sec) 
select_counter is 1022
Heartbeat CPU 0 instructions: 55000000 cycles: 52506461 heartbeat IPC: 0.868351 cumulative IPC: 0.931435 (Simulation time: 0 hr 26 min 0 sec) 
select_counter is 1023
Heartbeat CPU 0 instructions: 56000000 cycles: 53730078 heartbeat IPC: 0.817249 cumulative IPC: 0.928615 (Simulation time: 0 hr 26 min 24 sec) 
select_counter is 1023
Heartbeat CPU 0 instructions: 57000000 cycles: 54951134 heartbeat IPC: 0.818963 cumulative IPC: 0.925977 (Simulation time: 0 hr 26 min 50 sec) 
select_counter is 1023
Heartbeat CPU 0 instructions: 58000002 cycles: 55981657 heartbeat IPC: 0.970383 cumulative IPC: 0.92686 (Simulation time: 0 hr 27 min 16 sec) 
select_counter is 1023
Heartbeat CPU 0 instructions: 59000000 cycles: 57083135 heartbeat IPC: 0.907869 cumulative IPC: 0.926465 (Simulation time: 0 hr 27 min 38 sec) 
select_counter is 1023
Heartbeat CPU 0 instructions: 60000000 cycles: 58261797 heartbeat IPC: 0.84842 cumulative IPC: 0.924764 (Simulation time: 0 hr 28 min 1 sec) 
select_counter is 1023
Heartbeat CPU 0 instructions: 61000000 cycles: 59406338 heartbeat IPC: 0.873713 cumulative IPC: 0.923705 (Simulation time: 0 hr 28 min 25 sec) 
select_counter is 1023
Heartbeat CPU 0 instructions: 62000002 cycles: 60250335 heartbeat IPC: 1.18484 cumulative IPC: 0.927637 (Simulation time: 0 hr 28 min 52 sec) 
select_counter is 1021
Heartbeat CPU 0 instructions: 63000003 cycles: 61148515 heartbeat IPC: 1.11336 cumulative IPC: 0.930566 (Simulation time: 0 hr 29 min 21 sec) 
select_counter is 1023
Heartbeat CPU 0 instructions: 64000000 cycles: 62192253 heartbeat IPC: 0.958092 cumulative IPC: 0.931061 (Simulation time: 0 hr 29 min 54 sec) 
select_counter is 1017
Heartbeat CPU 0 instructions: 65000003 cycles: 63163726 heartbeat IPC: 1.02937 cumulative IPC: 0.932681 (Simulation time: 0 hr 30 min 27 sec) 
select_counter is 1023
Heartbeat CPU 0 instructions: 66000003 cycles: 64108784 heartbeat IPC: 1.05814 cumulative IPC: 0.93466 (Simulation time: 0 hr 31 min 0 sec) 
select_counter is 1023
Heartbeat CPU 0 instructions: 67000003 cycles: 65147857 heartbeat IPC: 0.962396 cumulative IPC: 0.935132 (Simulation time: 0 hr 31 min 31 sec) 
select_counter is 1023
Heartbeat CPU 0 instructions: 68000000 cycles: 66203430 heartbeat IPC: 0.94735 cumulative IPC: 0.93534 (Simulation time: 0 hr 32 min 4 sec) 
select_counter is 1023
Heartbeat CPU 0 instructions: 69000003 cycles: 67312155 heartbeat IPC: 0.90194 cumulative IPC: 0.934754 (Simulation time: 0 hr 32 min 33 sec) 
select_counter is 1022
Heartbeat CPU 0 instructions: 70000003 cycles: 68577262 heartbeat IPC: 0.790447 cumulative IPC: 0.931918 (Simulation time: 0 hr 33 min 4 sec) 
select_counter is 1023
Heartbeat CPU 0 instructions: 71000000 cycles: 69994055 heartbeat IPC: 0.705817 cumulative IPC: 0.92705 (Simulation time: 0 hr 33 min 31 sec) 
select_counter is 1023
Heartbeat CPU 0 instructions: 72000000 cycles: 71190921 heartbeat IPC: 0.835515 cumulative IPC: 0.925415 (Simulation time: 0 hr 33 min 57 sec) 
select_counter is 1023
Heartbeat CPU 0 instructions: 73000003 cycles: 72494460 heartbeat IPC: 0.767145 cumulative IPC: 0.922394 (Simulation time: 0 hr 34 min 25 sec) 
select_counter is 1023
Heartbeat CPU 0 instructions: 74000001 cycles: 73773334 heartbeat IPC: 0.781936 cumulative IPC: 0.919812 (Simulation time: 0 hr 34 min 55 sec) 
select_counter is 1023
Heartbeat CPU 0 instructions: 75000000 cycles: 74952327 heartbeat IPC: 0.848181 cumulative IPC: 0.918619 (Simulation time: 0 hr 35 min 26 sec) 
select_counter is 1023
Heartbeat CPU 0 instructions: 76000000 cycles: 76060653 heartbeat IPC: 0.902262 cumulative IPC: 0.918366 (Simulation time: 0 hr 35 min 57 sec) 
select_counter is 1023
Heartbeat CPU 0 instructions: 77000003 cycles: 77035959 heartbeat IPC: 1.02532 cumulative IPC: 0.919799 (Simulation time: 0 hr 36 min 23 sec) 
select_counter is 1023
Heartbeat CPU 0 instructions: 78000000 cycles: 77999010 heartbeat IPC: 1.03836 cumulative IPC: 0.921346 (Simulation time: 0 hr 36 min 47 sec) 
select_counter is 1023
Heartbeat CPU 0 instructions: 79000003 cycles: 79068494 heartbeat IPC: 0.935033 cumulative IPC: 0.921541 (Simulation time: 0 hr 37 min 15 sec) 
select_counter is 1022
Heartbeat CPU 0 instructions: 80000000 cycles: 80313635 heartbeat IPC: 0.803119 cumulative IPC: 0.919604 (Simulation time: 0 hr 37 min 45 sec) 
select_counter is 1023
Heartbeat CPU 0 instructions: 81000001 cycles: 81505487 heartbeat IPC: 0.839031 cumulative IPC: 0.918362 (Simulation time: 0 hr 38 min 11 sec) 
select_counter is 1023
Heartbeat CPU 0 instructions: 82000000 cycles: 82634022 heartbeat IPC: 0.886104 cumulative IPC: 0.917898 (Simulation time: 0 hr 38 min 40 sec) 
select_counter is 1023
Heartbeat CPU 0 instructions: 83000002 cycles: 83700301 heartbeat IPC: 0.937843 cumulative IPC: 0.918165 (Simulation time: 0 hr 39 min 6 sec) 
select_counter is 1022
Heartbeat CPU 0 instructions: 84000000 cycles: 84645943 heartbeat IPC: 1.05748 cumulative IPC: 0.919803 (Simulation time: 0 hr 39 min 32 sec) 
select_counter is 1023
Heartbeat CPU 0 instructions: 85000003 cycles: 85588057 heartbeat IPC: 1.06145 cumulative IPC: 0.921442 (Simulation time: 0 hr 40 min 1 sec) 
select_counter is 1022
Heartbeat CPU 0 instructions: 86000003 cycles: 86631631 heartbeat IPC: 0.958245 cumulative IPC: 0.921908 (Simulation time: 0 hr 40 min 27 sec) 
select_counter is 1022
Heartbeat CPU 0 instructions: 87000002 cycles: 87708238 heartbeat IPC: 0.928843 cumulative IPC: 0.921998 (Simulation time: 0 hr 40 min 53 sec) 
select_counter is 1023
Heartbeat CPU 0 instructions: 88000000 cycles: 88810759 heartbeat IPC: 0.90701 cumulative IPC: 0.921802 (Simulation time: 0 hr 41 min 19 sec) 
select_counter is 1023
Heartbeat CPU 0 instructions: 89000002 cycles: 89817132 heartbeat IPC: 0.993669 cumulative IPC: 0.922647 (Simulation time: 0 hr 41 min 41 sec) 
select_counter is 1023
Heartbeat CPU 0 instructions: 90000001 cycles: 90940517 heartbeat IPC: 0.890166 cumulative IPC: 0.922226 (Simulation time: 0 hr 42 min 3 sec) 
select_counter is 1023
Heartbeat CPU 0 instructions: 91000002 cycles: 92053566 heartbeat IPC: 0.898434 cumulative IPC: 0.921925 (Simulation time: 0 hr 42 min 26 sec) 
select_counter is 1022
Heartbeat CPU 0 instructions: 92000000 cycles: 93092567 heartbeat IPC: 0.962461 cumulative IPC: 0.922399 (Simulation time: 0 hr 42 min 49 sec) 
select_counter is 1022
Heartbeat CPU 0 instructions: 93000000 cycles: 94280294 heartbeat IPC: 0.841944 cumulative IPC: 0.921338 (Simulation time: 0 hr 43 min 11 sec) 
select_counter is 1023
Heartbeat CPU 0 instructions: 94000003 cycles: 95456494 heartbeat IPC: 0.850198 cumulative IPC: 0.920421 (Simulation time: 0 hr 43 min 33 sec) 
select_counter is 1023
Heartbeat CPU 0 instructions: 95000002 cycles: 96640908 heartbeat IPC: 0.844299 cumulative IPC: 0.919446 (Simulation time: 0 hr 43 min 54 sec) 
select_counter is 1023
Heartbeat CPU 0 instructions: 96000000 cycles: 97810024 heartbeat IPC: 0.855345 cumulative IPC: 0.918645 (Simulation time: 0 hr 44 min 17 sec) 
select_counter is 1022
Heartbeat CPU 0 instructions: 97000002 cycles: 99026949 heartbeat IPC: 0.821745 cumulative IPC: 0.917402 (Simulation time: 0 hr 44 min 40 sec) 
select_counter is 1023
Heartbeat CPU 0 instructions: 98000000 cycles: 100258863 heartbeat IPC: 0.811743 cumulative IPC: 0.916047 (Simulation time: 0 hr 44 min 59 sec) 
select_counter is 1023
Heartbeat CPU 0 instructions: 99000000 cycles: 101498211 heartbeat IPC: 0.806876 cumulative IPC: 0.914656 (Simulation time: 0 hr 45 min 21 sec) 
select_counter is 1023
Heartbeat CPU 0 instructions: 100000000 cycles: 102740272 heartbeat IPC: 0.805113 cumulative IPC: 0.913276 (Simulation time: 0 hr 45 min 43 sec) 
select_counter is 1022
Heartbeat CPU 0 instructions: 101000003 cycles: 103887233 heartbeat IPC: 0.871872 cumulative IPC: 0.912799 (Simulation time: 0 hr 46 min 5 sec) 
select_counter is 1023
Heartbeat CPU 0 instructions: 102000000 cycles: 105005812 heartbeat IPC: 0.893989 cumulative IPC: 0.912591 (Simulation time: 0 hr 46 min 24 sec) 
select_counter is 1022
Heartbeat CPU 0 instructions: 103000000 cycles: 106107169 heartbeat IPC: 0.907971 cumulative IPC: 0.912541 (Simulation time: 0 hr 46 min 45 sec) 
select_counter is 1023
Heartbeat CPU 0 instructions: 104000000 cycles: 107259607 heartbeat IPC: 0.867726 cumulative IPC: 0.91204 (Simulation time: 0 hr 47 min 3 sec) 
select_counter is 1022
Heartbeat CPU 0 instructions: 105000002 cycles: 108470918 heartbeat IPC: 0.825553 cumulative IPC: 0.911035 (Simulation time: 0 hr 47 min 24 sec) 
select_counter is 1022
Heartbeat CPU 0 instructions: 106000001 cycles: 109604479 heartbeat IPC: 0.882175 cumulative IPC: 0.910725 (Simulation time: 0 hr 47 min 43 sec) 
select_counter is 1022
Heartbeat CPU 0 instructions: 107000000 cycles: 110807789 heartbeat IPC: 0.83104 cumulative IPC: 0.909825 (Simulation time: 0 hr 48 min 3 sec) 
select_counter is 1023
Heartbeat CPU 0 instructions: 108000000 cycles: 112006124 heartbeat IPC: 0.834491 cumulative IPC: 0.908988 (Simulation time: 0 hr 48 min 23 sec) 
select_counter is 1023
Heartbeat CPU 0 instructions: 109000000 cycles: 113018473 heartbeat IPC: 0.987802 cumulative IPC: 0.909721 (Simulation time: 0 hr 48 min 42 sec) 
select_counter is 1023
Heartbeat CPU 0 instructions: 110000000 cycles: 114178807 heartbeat IPC: 0.861821 cumulative IPC: 0.909216 (Simulation time: 0 hr 49 min 0 sec) 
select_counter is 1023
Finished CPU 0 instructions: 100000002 cycles: 109984889 cummulative IPC: 0.909216 (Simulation time: 0 hr 49 min 0 sec) 

ChampSim completed all CPUs

Region of Interest Statistics

CPU 0 cummulative IPC: 0.909216 instructions: 100000002 cycles: 109984889
LLC TOTAL     ACCESS:    1373510  HIT:     998089  MISS:     375421
LLC LOAD      ACCESS:     396199  HIT:     339198  MISS:      57001
LLC RFO       ACCESS:     104382  HIT:      37284  MISS:      67098
LLC PREFETCH  ACCESS:     675948  HIT:     482429  MISS:     193519
LLC WRITEBACK ACCESS:     196981  HIT:     139178  MISS:      57803
Ship samples: 
18, 41, 64, 122, 145, 166, 216, 228, 275, 318, 331, 355, 408, 430, 473, 498, 541, 565, 593, 620, 645, 672, 725, 743, 792, 816, 855, 890, 899, 943, 962, 1018, 1030, 1067, 1090, 1130, 1172, 1192, 1221, 1253, 1309, 1319, 1347, 1395, 1414, 1448, 1473, 1505, 1559, 1581, 1600, 1644, 1686, 1697, 1730, 1771, 1807, 1839, 1865, 1918, 1939, 1975, 1992, 2044, 
Lime duel samples: 
6, 126, 196, 303, 407, 500, 603, 689, 772, 883, 988, 1077, 1171, 1261, 1360, 1456, 1544, 1656, 1755, 1843, 1935, 
Lime samples: 
6, 126, 196, 303, 407, 500, 603, 689, 772, 883, 988, 1077, 1171, 1261, 1360, 1456, 1544, 1656, 1755, 1843, 1935, 
Insertion Distribution: 
	LOAD 1045 0 0 0 0 0 362 10 
	RFO 273 0 0 0 0 0 986 1158 
	PREF 0 323 0 0 0 0 1573 3285 
	WRITEBACK 0 0 0 0 0 0 0 1359 
Total Prefetch Downgrades: 712
