
*** ChampSim Multicore Out-of-Order Simulator ***

Warmup Instructions: 10000000
Simulation Instructions: 100000000
Configuration: 2
Number of CPUs: 1
LLC sets: 2048
LLC ways: 16
Off-chip DRAM Channels: 1 Width: 64-bit Data Rate: 1600 MT/s

CPU 0 runs /datasets/cs240c-wi22-a00-public/data/Assignment2-gz/GemsFDTD_109B.trace.gz
CPU 0 L1D next line prefetcher
CPU 0 L2C IP-based stride prefetcher
Heartbeat CPU 0 instructions: 1000002 cycles: 579772 heartbeat IPC: 1.72482 cumulative IPC: 1.72482 (Simulation time: 0 hr 0 min 36 sec) 
select_counter is 917
Heartbeat CPU 0 instructions: 2000001 cycles: 1159546 heartbeat IPC: 1.72481 cumulative IPC: 1.72481 (Simulation time: 0 hr 1 min 10 sec) 
select_counter is 1023
Heartbeat CPU 0 instructions: 3000000 cycles: 1738733 heartbeat IPC: 1.72656 cumulative IPC: 1.72539 (Simulation time: 0 hr 1 min 45 sec) 
select_counter is 1023
Heartbeat CPU 0 instructions: 4000000 cycles: 2317739 heartbeat IPC: 1.7271 cumulative IPC: 1.72582 (Simulation time: 0 hr 2 min 20 sec) 
select_counter is 1021
Heartbeat CPU 0 instructions: 5000000 cycles: 2897588 heartbeat IPC: 1.72459 cumulative IPC: 1.72557 (Simulation time: 0 hr 2 min 57 sec) 
select_counter is 1023
Heartbeat CPU 0 instructions: 6000002 cycles: 3478308 heartbeat IPC: 1.722 cumulative IPC: 1.72498 (Simulation time: 0 hr 3 min 31 sec) 
select_counter is 1023
Heartbeat CPU 0 instructions: 7000001 cycles: 4058975 heartbeat IPC: 1.72216 cumulative IPC: 1.72457 (Simulation time: 0 hr 4 min 6 sec) 
select_counter is 1023
Heartbeat CPU 0 instructions: 8000000 cycles: 4639151 heartbeat IPC: 1.72361 cumulative IPC: 1.72445 (Simulation time: 0 hr 4 min 41 sec) 
select_counter is 1020
Heartbeat CPU 0 instructions: 9000002 cycles: 5219308 heartbeat IPC: 1.72367 cumulative IPC: 1.72437 (Simulation time: 0 hr 5 min 17 sec) 
select_counter is 1023
Heartbeat CPU 0 instructions: 10000001 cycles: 5799479 heartbeat IPC: 1.72363 cumulative IPC: 1.72429 (Simulation time: 0 hr 5 min 52 sec) 
select_counter is 1023

Warmup complete CPU 0 instructions: 10000001 cycles: 5799479 (Simulation time: 0 hr 5 min 52 sec) 

Heartbeat CPU 0 instructions: 11000002 cycles: 6848096 heartbeat IPC: 0.953638 cumulative IPC: 0.953638 (Simulation time: 0 hr 6 min 32 sec) 
select_counter is 1023
Heartbeat CPU 0 instructions: 12000000 cycles: 7901867 heartbeat IPC: 0.948971 cumulative IPC: 0.951299 (Simulation time: 0 hr 7 min 12 sec) 
select_counter is 1023
Heartbeat CPU 0 instructions: 13000001 cycles: 8985260 heartbeat IPC: 0.923027 cumulative IPC: 0.941684 (Simulation time: 0 hr 7 min 49 sec) 
select_counter is 1023
Heartbeat CPU 0 instructions: 14000001 cycles: 10048483 heartbeat IPC: 0.940536 cumulative IPC: 0.941397 (Simulation time: 0 hr 8 min 28 sec) 
select_counter is 1023
Heartbeat CPU 0 instructions: 15000000 cycles: 11115876 heartbeat IPC: 0.936861 cumulative IPC: 0.940486 (Simulation time: 0 hr 9 min 9 sec) 
select_counter is 1023
Heartbeat CPU 0 instructions: 16000000 cycles: 12181041 heartbeat IPC: 0.938822 cumulative IPC: 0.940209 (Simulation time: 0 hr 9 min 47 sec) 
select_counter is 1023
Heartbeat CPU 0 instructions: 17000000 cycles: 13266218 heartbeat IPC: 0.921509 cumulative IPC: 0.937491 (Simulation time: 0 hr 10 min 27 sec) 
select_counter is 1023
Heartbeat CPU 0 instructions: 18000003 cycles: 14318852 heartbeat IPC: 0.950001 cumulative IPC: 0.939036 (Simulation time: 0 hr 11 min 5 sec) 
select_counter is 1023
Heartbeat CPU 0 instructions: 19000001 cycles: 15389735 heartbeat IPC: 0.933807 cumulative IPC: 0.938453 (Simulation time: 0 hr 11 min 47 sec) 
select_counter is 1021
Heartbeat CPU 0 instructions: 20000000 cycles: 16552758 heartbeat IPC: 0.859827 cumulative IPC: 0.929949 (Simulation time: 0 hr 12 min 21 sec) 
select_counter is 1023
Heartbeat CPU 0 instructions: 21000001 cycles: 17832471 heartbeat IPC: 0.781426 cumulative IPC: 0.914153 (Simulation time: 0 hr 12 min 59 sec) 
select_counter is 1023
Heartbeat CPU 0 instructions: 22000001 cycles: 21360333 heartbeat IPC: 0.283458 cumulative IPC: 0.771166 (Simulation time: 0 hr 13 min 40 sec) 
select_counter is 989
Heartbeat CPU 0 instructions: 23000001 cycles: 22627098 heartbeat IPC: 0.789412 cumulative IPC: 0.772539 (Simulation time: 0 hr 14 min 14 sec) 
select_counter is 1008
Heartbeat CPU 0 instructions: 24000000 cycles: 26310251 heartbeat IPC: 0.271506 cumulative IPC: 0.682568 (Simulation time: 0 hr 14 min 56 sec) 
select_counter is 1023
Heartbeat CPU 0 instructions: 25000003 cycles: 27558355 heartbeat IPC: 0.801218 cumulative IPC: 0.689374 (Simulation time: 0 hr 15 min 34 sec) 
select_counter is 1023
Heartbeat CPU 0 instructions: 26000000 cycles: 31257356 heartbeat IPC: 0.270342 cumulative IPC: 0.628489 (Simulation time: 0 hr 16 min 17 sec) 
select_counter is 1023
Heartbeat CPU 0 instructions: 27000000 cycles: 32472296 heartbeat IPC: 0.823086 cumulative IPC: 0.637353 (Simulation time: 0 hr 16 min 53 sec) 
select_counter is 1023
Heartbeat CPU 0 instructions: 28000000 cycles: 36025563 heartbeat IPC: 0.281431 cumulative IPC: 0.595512 (Simulation time: 0 hr 17 min 36 sec) 
select_counter is 1023
Heartbeat CPU 0 instructions: 29000000 cycles: 37246168 heartbeat IPC: 0.819266 cumulative IPC: 0.604197 (Simulation time: 0 hr 18 min 14 sec) 
select_counter is 1023
Heartbeat CPU 0 instructions: 30000003 cycles: 38595717 heartbeat IPC: 0.740991 cumulative IPC: 0.609826 (Simulation time: 0 hr 18 min 45 sec) 
select_counter is 1020
Heartbeat CPU 0 instructions: 31000002 cycles: 39762230 heartbeat IPC: 0.857255 cumulative IPC: 0.618325 (Simulation time: 0 hr 19 min 17 sec) 
select_counter is 1019
Heartbeat CPU 0 instructions: 32000000 cycles: 41075214 heartbeat IPC: 0.761622 cumulative IPC: 0.623658 (Simulation time: 0 hr 19 min 48 sec) 
select_counter is 1023
Heartbeat CPU 0 instructions: 33000003 cycles: 42237116 heartbeat IPC: 0.86066 cumulative IPC: 0.631216 (Simulation time: 0 hr 20 min 23 sec) 
select_counter is 1022
Heartbeat CPU 0 instructions: 34000002 cycles: 43552670 heartbeat IPC: 0.760135 cumulative IPC: 0.635708 (Simulation time: 0 hr 20 min 53 sec) 
select_counter is 1021
Heartbeat CPU 0 instructions: 35000003 cycles: 44734233 heartbeat IPC: 0.846337 cumulative IPC: 0.6421 (Simulation time: 0 hr 21 min 27 sec) 
select_counter is 1023
Heartbeat CPU 0 instructions: 36000000 cycles: 46102151 heartbeat IPC: 0.731036 cumulative IPC: 0.645118 (Simulation time: 0 hr 21 min 59 sec) 
select_counter is 1023
Heartbeat CPU 0 instructions: 37000000 cycles: 47431647 heartbeat IPC: 0.752165 cumulative IPC: 0.648537 (Simulation time: 0 hr 22 min 37 sec) 
select_counter is 1023
Heartbeat CPU 0 instructions: 38000001 cycles: 48761185 heartbeat IPC: 0.752142 cumulative IPC: 0.651743 (Simulation time: 0 hr 23 min 12 sec) 
select_counter is 1023
Heartbeat CPU 0 instructions: 39000000 cycles: 50090574 heartbeat IPC: 0.752225 cumulative IPC: 0.654759 (Simulation time: 0 hr 23 min 47 sec) 
select_counter is 1023
Heartbeat CPU 0 instructions: 40000000 cycles: 51420114 heartbeat IPC: 0.75214 cumulative IPC: 0.657597 (Simulation time: 0 hr 24 min 24 sec) 
select_counter is 1023
Heartbeat CPU 0 instructions: 41000000 cycles: 52688410 heartbeat IPC: 0.788459 cumulative IPC: 0.661137 (Simulation time: 0 hr 24 min 56 sec) 
select_counter is 1023
Heartbeat CPU 0 instructions: 42000000 cycles: 54017891 heartbeat IPC: 0.752173 cumulative IPC: 0.663647 (Simulation time: 0 hr 25 min 31 sec) 
select_counter is 1023
Heartbeat CPU 0 instructions: 43000002 cycles: 55347560 heartbeat IPC: 0.752068 cumulative IPC: 0.66602 (Simulation time: 0 hr 26 min 7 sec) 
select_counter is 1023
Heartbeat CPU 0 instructions: 44000000 cycles: 56677061 heartbeat IPC: 0.75216 cumulative IPC: 0.668271 (Simulation time: 0 hr 26 min 40 sec) 
select_counter is 1023
Heartbeat CPU 0 instructions: 45000001 cycles: 58006386 heartbeat IPC: 0.752262 cumulative IPC: 0.670409 (Simulation time: 0 hr 27 min 18 sec) 
select_counter is 1023
Heartbeat CPU 0 instructions: 46000003 cycles: 59378904 heartbeat IPC: 0.728589 cumulative IPC: 0.6719 (Simulation time: 0 hr 27 min 52 sec) 
select_counter is 1023
Heartbeat CPU 0 instructions: 47000001 cycles: 60507833 heartbeat IPC: 0.885794 cumulative IPC: 0.676314 (Simulation time: 0 hr 28 min 17 sec) 
select_counter is 1022
Heartbeat CPU 0 instructions: 48000000 cycles: 61885189 heartbeat IPC: 0.726028 cumulative IPC: 0.677534 (Simulation time: 0 hr 28 min 43 sec) 
select_counter is 1021
Heartbeat CPU 0 instructions: 49000003 cycles: 71498369 heartbeat IPC: 0.104024 cumulative IPC: 0.593617 (Simulation time: 0 hr 29 min 46 sec) 
select_counter is 1021
Heartbeat CPU 0 instructions: 50000001 cycles: 73332774 heartbeat IPC: 0.545135 cumulative IPC: 0.5923 (Simulation time: 0 hr 30 min 21 sec) 
select_counter is 1022
Heartbeat CPU 0 instructions: 51000001 cycles: 74976984 heartbeat IPC: 0.608195 cumulative IPC: 0.592678 (Simulation time: 0 hr 31 min 1 sec) 
select_counter is 1023
Heartbeat CPU 0 instructions: 52000000 cycles: 76599948 heartbeat IPC: 0.616156 cumulative IPC: 0.593216 (Simulation time: 0 hr 31 min 41 sec) 
select_counter is 1021
Heartbeat CPU 0 instructions: 53000000 cycles: 78207113 heartbeat IPC: 0.622214 cumulative IPC: 0.59386 (Simulation time: 0 hr 32 min 16 sec) 
select_counter is 1023
Heartbeat CPU 0 instructions: 54000000 cycles: 79814600 heartbeat IPC: 0.622089 cumulative IPC: 0.594473 (Simulation time: 0 hr 32 min 56 sec) 
select_counter is 1023
Heartbeat CPU 0 instructions: 55000003 cycles: 81393046 heartbeat IPC: 0.633536 cumulative IPC: 0.595289 (Simulation time: 0 hr 33 min 30 sec) 
select_counter is 1023
Heartbeat CPU 0 instructions: 56000000 cycles: 82995965 heartbeat IPC: 0.62386 cumulative IPC: 0.595882 (Simulation time: 0 hr 34 min 10 sec) 
select_counter is 1022
Heartbeat CPU 0 instructions: 57000002 cycles: 84637211 heartbeat IPC: 0.609294 cumulative IPC: 0.596161 (Simulation time: 0 hr 34 min 47 sec) 
select_counter is 1023
Heartbeat CPU 0 instructions: 58000002 cycles: 86240234 heartbeat IPC: 0.623821 cumulative IPC: 0.596712 (Simulation time: 0 hr 35 min 26 sec) 
select_counter is 1023
Heartbeat CPU 0 instructions: 59000001 cycles: 87854915 heartbeat IPC: 0.619317 cumulative IPC: 0.597157 (Simulation time: 0 hr 36 min 2 sec) 
select_counter is 1023
Heartbeat CPU 0 instructions: 60000000 cycles: 89467372 heartbeat IPC: 0.620171 cumulative IPC: 0.597601 (Simulation time: 0 hr 36 min 37 sec) 
select_counter is 1023
Heartbeat CPU 0 instructions: 61000000 cycles: 91060702 heartbeat IPC: 0.627616 cumulative IPC: 0.598162 (Simulation time: 0 hr 37 min 12 sec) 
select_counter is 1023
Heartbeat CPU 0 instructions: 62000003 cycles: 92646363 heartbeat IPC: 0.630654 cumulative IPC: 0.598755 (Simulation time: 0 hr 37 min 51 sec) 
select_counter is 1022
Heartbeat CPU 0 instructions: 63000001 cycles: 94248029 heartbeat IPC: 0.624349 cumulative IPC: 0.599218 (Simulation time: 0 hr 38 min 28 sec) 
select_counter is 1023
Heartbeat CPU 0 instructions: 64000000 cycles: 95866076 heartbeat IPC: 0.618028 cumulative IPC: 0.599556 (Simulation time: 0 hr 39 min 8 sec) 
select_counter is 1023
Heartbeat CPU 0 instructions: 65000001 cycles: 97496595 heartbeat IPC: 0.613302 cumulative IPC: 0.599801 (Simulation time: 0 hr 39 min 45 sec) 
select_counter is 1023
Heartbeat CPU 0 instructions: 66000001 cycles: 99129736 heartbeat IPC: 0.612317 cumulative IPC: 0.60002 (Simulation time: 0 hr 40 min 24 sec) 
select_counter is 1023
Heartbeat CPU 0 instructions: 67000000 cycles: 100738607 heartbeat IPC: 0.621553 cumulative IPC: 0.600385 (Simulation time: 0 hr 41 min 2 sec) 
select_counter is 1023
Heartbeat CPU 0 instructions: 68000000 cycles: 102361827 heartbeat IPC: 0.616059 cumulative IPC: 0.600648 (Simulation time: 0 hr 41 min 39 sec) 
select_counter is 1023
Heartbeat CPU 0 instructions: 69000000 cycles: 103972682 heartbeat IPC: 0.620788 cumulative IPC: 0.600979 (Simulation time: 0 hr 42 min 13 sec) 
select_counter is 1023
Heartbeat CPU 0 instructions: 70000003 cycles: 105553638 heartbeat IPC: 0.632531 cumulative IPC: 0.601479 (Simulation time: 0 hr 42 min 49 sec) 
select_counter is 1023
Heartbeat CPU 0 instructions: 71000003 cycles: 107172345 heartbeat IPC: 0.617777 cumulative IPC: 0.601739 (Simulation time: 0 hr 43 min 21 sec) 
select_counter is 1019
Heartbeat CPU 0 instructions: 72000000 cycles: 108760037 heartbeat IPC: 0.629843 cumulative IPC: 0.602172 (Simulation time: 0 hr 43 min 55 sec) 
select_counter is 1023
Heartbeat CPU 0 instructions: 73000002 cycles: 110381912 heartbeat IPC: 0.616572 cumulative IPC: 0.602396 (Simulation time: 0 hr 44 min 30 sec) 
select_counter is 1022
Heartbeat CPU 0 instructions: 74000000 cycles: 112016889 heartbeat IPC: 0.611628 cumulative IPC: 0.602538 (Simulation time: 0 hr 45 min 7 sec) 
select_counter is 1023
Heartbeat CPU 0 instructions: 75000001 cycles: 113652500 heartbeat IPC: 0.611393 cumulative IPC: 0.602672 (Simulation time: 0 hr 45 min 36 sec) 
select_counter is 1023
Heartbeat CPU 0 instructions: 76000000 cycles: 115245932 heartbeat IPC: 0.627576 cumulative IPC: 0.603035 (Simulation time: 0 hr 46 min 5 sec) 
select_counter is 1023
Heartbeat CPU 0 instructions: 77000003 cycles: 116879222 heartbeat IPC: 0.612263 cumulative IPC: 0.60317 (Simulation time: 0 hr 46 min 42 sec) 
select_counter is 1021
Heartbeat CPU 0 instructions: 78000001 cycles: 118486042 heartbeat IPC: 0.622346 cumulative IPC: 0.603444 (Simulation time: 0 hr 47 min 15 sec) 
select_counter is 1023
Heartbeat CPU 0 instructions: 79000001 cycles: 120088271 heartbeat IPC: 0.62413 cumulative IPC: 0.603734 (Simulation time: 0 hr 47 min 47 sec) 
select_counter is 1023
Heartbeat CPU 0 instructions: 80000000 cycles: 121693273 heartbeat IPC: 0.623052 cumulative IPC: 0.604001 (Simulation time: 0 hr 48 min 21 sec) 
select_counter is 1023
Heartbeat CPU 0 instructions: 81000001 cycles: 123303831 heartbeat IPC: 0.620903 cumulative IPC: 0.604233 (Simulation time: 0 hr 48 min 49 sec) 
select_counter is 1021
Heartbeat CPU 0 instructions: 82000000 cycles: 124917005 heartbeat IPC: 0.619895 cumulative IPC: 0.604445 (Simulation time: 0 hr 49 min 20 sec) 
select_counter is 1023
Heartbeat CPU 0 instructions: 83000003 cycles: 126518808 heartbeat IPC: 0.624298 cumulative IPC: 0.604708 (Simulation time: 0 hr 49 min 48 sec) 
select_counter is 1023
Heartbeat CPU 0 instructions: 84000000 cycles: 128120415 heartbeat IPC: 0.624371 cumulative IPC: 0.604966 (Simulation time: 0 hr 50 min 13 sec) 
select_counter is 1023
Heartbeat CPU 0 instructions: 85000001 cycles: 129746964 heartbeat IPC: 0.614799 cumulative IPC: 0.605095 (Simulation time: 0 hr 50 min 36 sec) 
select_counter is 1023
Heartbeat CPU 0 instructions: 86000000 cycles: 131364615 heartbeat IPC: 0.61818 cumulative IPC: 0.605264 (Simulation time: 0 hr 50 min 56 sec) 
select_counter is 1023
Heartbeat CPU 0 instructions: 87000002 cycles: 132968848 heartbeat IPC: 0.623352 cumulative IPC: 0.605492 (Simulation time: 0 hr 51 min 15 sec) 
select_counter is 1023
Heartbeat CPU 0 instructions: 88000000 cycles: 134594757 heartbeat IPC: 0.615039 cumulative IPC: 0.605612 (Simulation time: 0 hr 51 min 34 sec) 
select_counter is 1023
Heartbeat CPU 0 instructions: 89000003 cycles: 136230976 heartbeat IPC: 0.611167 cumulative IPC: 0.605682 (Simulation time: 0 hr 51 min 52 sec) 
select_counter is 1023
Heartbeat CPU 0 instructions: 90000000 cycles: 137874787 heartbeat IPC: 0.608341 cumulative IPC: 0.605715 (Simulation time: 0 hr 52 min 9 sec) 
select_counter is 1022
Heartbeat CPU 0 instructions: 91000002 cycles: 139515766 heartbeat IPC: 0.609394 cumulative IPC: 0.60576 (Simulation time: 0 hr 52 min 26 sec) 
select_counter is 1023
Heartbeat CPU 0 instructions: 92000000 cycles: 141135980 heartbeat IPC: 0.617201 cumulative IPC: 0.605897 (Simulation time: 0 hr 52 min 42 sec) 
select_counter is 1023
Heartbeat CPU 0 instructions: 93000001 cycles: 142765211 heartbeat IPC: 0.613787 cumulative IPC: 0.605991 (Simulation time: 0 hr 52 min 58 sec) 
select_counter is 1022
Heartbeat CPU 0 instructions: 94000003 cycles: 144370724 heartbeat IPC: 0.622855 cumulative IPC: 0.606186 (Simulation time: 0 hr 53 min 14 sec) 
select_counter is 1023
Heartbeat CPU 0 instructions: 95000000 cycles: 145967797 heartbeat IPC: 0.626144 cumulative IPC: 0.606414 (Simulation time: 0 hr 53 min 31 sec) 
select_counter is 1023
Heartbeat CPU 0 instructions: 96000000 cycles: 147581679 heartbeat IPC: 0.619624 cumulative IPC: 0.606564 (Simulation time: 0 hr 53 min 47 sec) 
select_counter is 1023
Heartbeat CPU 0 instructions: 97000002 cycles: 149197351 heartbeat IPC: 0.618939 cumulative IPC: 0.606704 (Simulation time: 0 hr 54 min 1 sec) 
select_counter is 1023
Heartbeat CPU 0 instructions: 98000000 cycles: 150823022 heartbeat IPC: 0.615129 cumulative IPC: 0.606798 (Simulation time: 0 hr 54 min 16 sec) 
select_counter is 1023
Heartbeat CPU 0 instructions: 99000000 cycles: 152400223 heartbeat IPC: 0.634035 cumulative IPC: 0.607091 (Simulation time: 0 hr 54 min 30 sec) 
select_counter is 1023
Heartbeat CPU 0 instructions: 100000000 cycles: 154027991 heartbeat IPC: 0.614338 cumulative IPC: 0.607171 (Simulation time: 0 hr 54 min 42 sec) 
select_counter is 1019
Heartbeat CPU 0 instructions: 101000000 cycles: 155665538 heartbeat IPC: 0.610669 cumulative IPC: 0.607209 (Simulation time: 0 hr 54 min 54 sec) 
select_counter is 1022
Heartbeat CPU 0 instructions: 102000000 cycles: 157290659 heartbeat IPC: 0.615339 cumulative IPC: 0.607296 (Simulation time: 0 hr 55 min 7 sec) 
select_counter is 1023
Heartbeat CPU 0 instructions: 103000000 cycles: 158898702 heartbeat IPC: 0.621874 cumulative IPC: 0.607449 (Simulation time: 0 hr 55 min 20 sec) 
select_counter is 1023
Heartbeat CPU 0 instructions: 104000000 cycles: 160520741 heartbeat IPC: 0.616508 cumulative IPC: 0.607544 (Simulation time: 0 hr 55 min 31 sec) 
select_counter is 1022
Heartbeat CPU 0 instructions: 105000000 cycles: 162156906 heartbeat IPC: 0.611185 cumulative IPC: 0.607582 (Simulation time: 0 hr 55 min 41 sec) 
select_counter is 1023
Heartbeat CPU 0 instructions: 106000001 cycles: 163782182 heartbeat IPC: 0.615281 cumulative IPC: 0.607661 (Simulation time: 0 hr 55 min 51 sec) 
select_counter is 1020
Heartbeat CPU 0 instructions: 107000001 cycles: 165408189 heartbeat IPC: 0.615004 cumulative IPC: 0.607736 (Simulation time: 0 hr 55 min 58 sec) 
select_counter is 1022
Heartbeat CPU 0 instructions: 108000000 cycles: 167034746 heartbeat IPC: 0.614795 cumulative IPC: 0.607807 (Simulation time: 0 hr 56 min 3 sec) 
select_counter is 1022
Heartbeat CPU 0 instructions: 109000003 cycles: 168616962 heartbeat IPC: 0.632027 cumulative IPC: 0.608043 (Simulation time: 0 hr 56 min 8 sec) 
select_counter is 1023
Heartbeat CPU 0 instructions: 110000002 cycles: 170220253 heartbeat IPC: 0.623716 cumulative IPC: 0.608196 (Simulation time: 0 hr 56 min 13 sec) 
select_counter is 1023
Finished CPU 0 instructions: 100000001 cycles: 164420774 cummulative IPC: 0.608196 (Simulation time: 0 hr 56 min 13 sec) 

ChampSim completed all CPUs

Region of Interest Statistics

CPU 0 cummulative IPC: 0.608196 instructions: 100000001 cycles: 164420774
LLC TOTAL     ACCESS:    4812950  HIT:     611859  MISS:    4201091
LLC LOAD      ACCESS:     462157  HIT:      34674  MISS:     427483
LLC RFO       ACCESS:     126471  HIT:      97299  MISS:      29172
LLC PREFETCH  ACCESS:    2860031  HIT:     108161  MISS:    2751870
LLC WRITEBACK ACCESS:    1364291  HIT:     371725  MISS:     992566
Ship samples: 
7, 56, 82, 125, 142, 187, 193, 254, 280, 305, 324, 361, 400, 442, 473, 510, 543, 555, 594, 615, 663, 680, 709, 764, 774, 824, 851, 869, 913, 955, 966, 995, 1038, 1086, 1098, 1134, 1159, 1209, 1244, 1257, 1283, 1324, 1348, 1402, 1425, 1440, 1486, 1533, 1554, 1598, 1600, 1661, 1666, 1716, 1740, 1760, 1823, 1830, 1886, 1913, 1941, 1958, 2013, 2016, 
Lime duel samples: 
12, 121, 219, 288, 410, 487, 600, 674, 797, 866, 971, 1070, 1153, 1269, 1366, 1461, 1565, 1644, 1758, 1836, 1935, 
Lime samples: 
12, 121, 219, 288, 410, 487, 600, 674, 797, 866, 971, 1070, 1153, 1269, 1366, 1461, 1565, 1644, 1758, 1836, 1935, 
Insertion Distribution: 
	LOAD 1054 0 0 0 0 0 2200 10098 
	RFO 0 0 0 0 0 0 94 237 
	PREF 0 219 0 0 0 0 5822 87632 
	WRITEBACK 0 0 0 0 0 0 0 38377 
Total Prefetch Downgrades: 605
