
*** ChampSim Multicore Out-of-Order Simulator ***

Warmup Instructions: 10000000
Simulation Instructions: 100000000
Configuration: 2
Number of CPUs: 1
LLC sets: 2048
LLC ways: 16
Off-chip DRAM Channels: 1 Width: 64-bit Data Rate: 1600 MT/s

CPU 0 runs /datasets/cs240c-wi22-a00-public/data/Assignment2-gz/sphinx3_2520B.trace.gz
CPU 0 L1D next line prefetcher
CPU 0 L2C IP-based stride prefetcher
Heartbeat CPU 0 instructions: 1000003 cycles: 338965 heartbeat IPC: 2.95017 cumulative IPC: 2.95017 (Simulation time: 0 hr 0 min 26 sec) 
select_counter is 784
Heartbeat CPU 0 instructions: 2000000 cycles: 737247 heartbeat IPC: 2.51078 cumulative IPC: 2.7128 (Simulation time: 0 hr 0 min 53 sec) 
select_counter is 1023
Heartbeat CPU 0 instructions: 3000003 cycles: 1185264 heartbeat IPC: 2.23206 cumulative IPC: 2.53108 (Simulation time: 0 hr 1 min 17 sec) 
select_counter is 1023
Heartbeat CPU 0 instructions: 4000000 cycles: 1524296 heartbeat IPC: 2.94957 cumulative IPC: 2.62416 (Simulation time: 0 hr 1 min 43 sec) 
select_counter is 1023
Heartbeat CPU 0 instructions: 5000001 cycles: 1902458 heartbeat IPC: 2.64437 cumulative IPC: 2.62818 (Simulation time: 0 hr 2 min 11 sec) 
select_counter is 1002
Heartbeat CPU 0 instructions: 6000001 cycles: 2368234 heartbeat IPC: 2.14695 cumulative IPC: 2.53353 (Simulation time: 0 hr 2 min 36 sec) 
select_counter is 948
Heartbeat CPU 0 instructions: 7000001 cycles: 2707174 heartbeat IPC: 2.95037 cumulative IPC: 2.58572 (Simulation time: 0 hr 3 min 2 sec) 
select_counter is 1023
Heartbeat CPU 0 instructions: 8000000 cycles: 3056179 heartbeat IPC: 2.86529 cumulative IPC: 2.61765 (Simulation time: 0 hr 3 min 29 sec) 
select_counter is 1005
Heartbeat CPU 0 instructions: 9000000 cycles: 3509816 heartbeat IPC: 2.20441 cumulative IPC: 2.56424 (Simulation time: 0 hr 3 min 54 sec) 
select_counter is 954
Heartbeat CPU 0 instructions: 10000000 cycles: 3859972 heartbeat IPC: 2.85587 cumulative IPC: 2.59069 (Simulation time: 0 hr 4 min 19 sec) 
select_counter is 1022

Warmup complete CPU 0 instructions: 10000004 cycles: 3859973 (Simulation time: 0 hr 4 min 19 sec) 

Heartbeat CPU 0 instructions: 11000000 cycles: 4737110 heartbeat IPC: 1.14007 cumulative IPC: 1.14007 (Simulation time: 0 hr 4 min 50 sec) 
select_counter is 1020
Heartbeat CPU 0 instructions: 12000000 cycles: 5680274 heartbeat IPC: 1.06026 cumulative IPC: 1.09872 (Simulation time: 0 hr 5 min 18 sec) 
select_counter is 957
Heartbeat CPU 0 instructions: 13000002 cycles: 6544094 heartbeat IPC: 1.15765 cumulative IPC: 1.11768 (Simulation time: 0 hr 5 min 46 sec) 
select_counter is 1023
Heartbeat CPU 0 instructions: 14000002 cycles: 7388705 heartbeat IPC: 1.18398 cumulative IPC: 1.13355 (Simulation time: 0 hr 6 min 12 sec) 
select_counter is 1021
Heartbeat CPU 0 instructions: 15000003 cycles: 8323593 heartbeat IPC: 1.06965 cumulative IPC: 1.12017 (Simulation time: 0 hr 6 min 42 sec) 
select_counter is 965
Heartbeat CPU 0 instructions: 16000000 cycles: 9168196 heartbeat IPC: 1.18398 cumulative IPC: 1.13032 (Simulation time: 0 hr 7 min 11 sec) 
select_counter is 1022
Heartbeat CPU 0 instructions: 17000000 cycles: 9994771 heartbeat IPC: 1.20981 cumulative IPC: 1.14103 (Simulation time: 0 hr 7 min 41 sec) 
select_counter is 1020
Heartbeat CPU 0 instructions: 18000002 cycles: 10910324 heartbeat IPC: 1.09224 cumulative IPC: 1.1347 (Simulation time: 0 hr 8 min 9 sec) 
select_counter is 956
Heartbeat CPU 0 instructions: 19000001 cycles: 11745726 heartbeat IPC: 1.19703 cumulative IPC: 1.1413 (Simulation time: 0 hr 8 min 39 sec) 
select_counter is 1021
Heartbeat CPU 0 instructions: 20000000 cycles: 12566648 heartbeat IPC: 1.21814 cumulative IPC: 1.14854 (Simulation time: 0 hr 9 min 7 sec) 
select_counter is 1022
Heartbeat CPU 0 instructions: 21000001 cycles: 13748980 heartbeat IPC: 0.845787 cumulative IPC: 1.11235 (Simulation time: 0 hr 9 min 38 sec) 
select_counter is 1022
Heartbeat CPU 0 instructions: 22000002 cycles: 14736117 heartbeat IPC: 1.01303 cumulative IPC: 1.10333 (Simulation time: 0 hr 10 min 8 sec) 
select_counter is 985
Heartbeat CPU 0 instructions: 23000001 cycles: 15563061 heartbeat IPC: 1.20927 cumulative IPC: 1.11082 (Simulation time: 0 hr 10 min 36 sec) 
select_counter is 1023
Heartbeat CPU 0 instructions: 24000000 cycles: 16390241 heartbeat IPC: 1.20893 cumulative IPC: 1.11729 (Simulation time: 0 hr 11 min 5 sec) 
select_counter is 1021
Heartbeat CPU 0 instructions: 25000003 cycles: 17258772 heartbeat IPC: 1.15137 cumulative IPC: 1.1195 (Simulation time: 0 hr 11 min 34 sec) 
select_counter is 971
Heartbeat CPU 0 instructions: 26000001 cycles: 18073866 heartbeat IPC: 1.22685 cumulative IPC: 1.12566 (Simulation time: 0 hr 12 min 1 sec) 
select_counter is 1023
Heartbeat CPU 0 instructions: 27000002 cycles: 18905734 heartbeat IPC: 1.20211 cumulative IPC: 1.12989 (Simulation time: 0 hr 12 min 29 sec) 
select_counter is 1018
Heartbeat CPU 0 instructions: 28000000 cycles: 19777630 heartbeat IPC: 1.14692 cumulative IPC: 1.13082 (Simulation time: 0 hr 13 min 0 sec) 
select_counter is 970
Heartbeat CPU 0 instructions: 29000003 cycles: 20602306 heartbeat IPC: 1.2126 cumulative IPC: 1.13485 (Simulation time: 0 hr 13 min 28 sec) 
select_counter is 1023
Heartbeat CPU 0 instructions: 30000003 cycles: 21430313 heartbeat IPC: 1.20772 cumulative IPC: 1.13828 (Simulation time: 0 hr 13 min 55 sec) 
select_counter is 1021
Heartbeat CPU 0 instructions: 31000001 cycles: 22288195 heartbeat IPC: 1.16566 cumulative IPC: 1.13956 (Simulation time: 0 hr 14 min 23 sec) 
select_counter is 977
Heartbeat CPU 0 instructions: 32000000 cycles: 23102105 heartbeat IPC: 1.22864 cumulative IPC: 1.14332 (Simulation time: 0 hr 14 min 54 sec) 
select_counter is 1023
Heartbeat CPU 0 instructions: 33000000 cycles: 23930193 heartbeat IPC: 1.2076 cumulative IPC: 1.14598 (Simulation time: 0 hr 15 min 23 sec) 
select_counter is 1022
Heartbeat CPU 0 instructions: 34000000 cycles: 24780437 heartbeat IPC: 1.17613 cumulative IPC: 1.1472 (Simulation time: 0 hr 15 min 51 sec) 
select_counter is 973
Heartbeat CPU 0 instructions: 35000002 cycles: 25599132 heartbeat IPC: 1.22146 cumulative IPC: 1.15 (Simulation time: 0 hr 16 min 21 sec) 
select_counter is 1023
Heartbeat CPU 0 instructions: 36000000 cycles: 26407203 heartbeat IPC: 1.23751 cumulative IPC: 1.15313 (Simulation time: 0 hr 16 min 51 sec) 
select_counter is 1023
Heartbeat CPU 0 instructions: 37000000 cycles: 27266893 heartbeat IPC: 1.16321 cumulative IPC: 1.1535 (Simulation time: 0 hr 17 min 23 sec) 
select_counter is 973
Heartbeat CPU 0 instructions: 38000002 cycles: 28094696 heartbeat IPC: 1.20802 cumulative IPC: 1.15537 (Simulation time: 0 hr 17 min 51 sec) 
select_counter is 1021
Heartbeat CPU 0 instructions: 39000000 cycles: 28945565 heartbeat IPC: 1.17527 cumulative IPC: 1.15604 (Simulation time: 0 hr 18 min 18 sec) 
select_counter is 1022
Heartbeat CPU 0 instructions: 40000000 cycles: 29809690 heartbeat IPC: 1.15724 cumulative IPC: 1.15608 (Simulation time: 0 hr 18 min 46 sec) 
select_counter is 974
Heartbeat CPU 0 instructions: 41000001 cycles: 30620158 heartbeat IPC: 1.23386 cumulative IPC: 1.15844 (Simulation time: 0 hr 19 min 14 sec) 
select_counter is 1023
Heartbeat CPU 0 instructions: 42000002 cycles: 31455969 heartbeat IPC: 1.19644 cumulative IPC: 1.15959 (Simulation time: 0 hr 19 min 41 sec) 
select_counter is 1023
Heartbeat CPU 0 instructions: 43000001 cycles: 32291198 heartbeat IPC: 1.19728 cumulative IPC: 1.1607 (Simulation time: 0 hr 20 min 7 sec) 
select_counter is 983
Heartbeat CPU 0 instructions: 44000000 cycles: 33101166 heartbeat IPC: 1.23462 cumulative IPC: 1.16274 (Simulation time: 0 hr 20 min 35 sec) 
select_counter is 1022
Heartbeat CPU 0 instructions: 45000001 cycles: 33930238 heartbeat IPC: 1.20617 cumulative IPC: 1.16394 (Simulation time: 0 hr 21 min 2 sec) 
select_counter is 1023
Heartbeat CPU 0 instructions: 46000001 cycles: 34792168 heartbeat IPC: 1.16019 cumulative IPC: 1.16384 (Simulation time: 0 hr 21 min 30 sec) 
select_counter is 1000
Heartbeat CPU 0 instructions: 47000003 cycles: 35598866 heartbeat IPC: 1.23962 cumulative IPC: 1.16576 (Simulation time: 0 hr 21 min 58 sec) 
select_counter is 1023
Heartbeat CPU 0 instructions: 48000000 cycles: 36439662 heartbeat IPC: 1.18935 cumulative IPC: 1.16637 (Simulation time: 0 hr 22 min 27 sec) 
select_counter is 1021
Heartbeat CPU 0 instructions: 49000002 cycles: 37267690 heartbeat IPC: 1.20769 cumulative IPC: 1.16739 (Simulation time: 0 hr 22 min 57 sec) 
select_counter is 1007
Heartbeat CPU 0 instructions: 50000003 cycles: 38070078 heartbeat IPC: 1.24628 cumulative IPC: 1.16925 (Simulation time: 0 hr 23 min 21 sec) 
select_counter is 1023
Heartbeat CPU 0 instructions: 51000001 cycles: 38908343 heartbeat IPC: 1.19294 cumulative IPC: 1.16981 (Simulation time: 0 hr 23 min 49 sec) 
select_counter is 1019
Heartbeat CPU 0 instructions: 52000000 cycles: 39724585 heartbeat IPC: 1.22513 cumulative IPC: 1.17107 (Simulation time: 0 hr 24 min 19 sec) 
select_counter is 1014
Heartbeat CPU 0 instructions: 53000001 cycles: 40535015 heartbeat IPC: 1.23391 cumulative IPC: 1.17246 (Simulation time: 0 hr 24 min 45 sec) 
select_counter is 1021
Heartbeat CPU 0 instructions: 54000001 cycles: 41353938 heartbeat IPC: 1.22112 cumulative IPC: 1.17352 (Simulation time: 0 hr 25 min 13 sec) 
select_counter is 1011
Heartbeat CPU 0 instructions: 55000000 cycles: 42150387 heartbeat IPC: 1.25557 cumulative IPC: 1.17523 (Simulation time: 0 hr 25 min 38 sec) 
select_counter is 1022
Heartbeat CPU 0 instructions: 56000000 cycles: 42952862 heartbeat IPC: 1.24614 cumulative IPC: 1.17668 (Simulation time: 0 hr 26 min 8 sec) 
select_counter is 1023
Heartbeat CPU 0 instructions: 57000000 cycles: 43864805 heartbeat IPC: 1.09656 cumulative IPC: 1.17486 (Simulation time: 0 hr 26 min 43 sec) 
select_counter is 1018
Heartbeat CPU 0 instructions: 58000002 cycles: 44993939 heartbeat IPC: 0.885636 cumulative IPC: 1.16692 (Simulation time: 0 hr 27 min 9 sec) 
select_counter is 1017
Heartbeat CPU 0 instructions: 59000001 cycles: 45831689 heartbeat IPC: 1.19367 cumulative IPC: 1.16745 (Simulation time: 0 hr 27 min 35 sec) 
select_counter is 989
Heartbeat CPU 0 instructions: 60000000 cycles: 46634829 heartbeat IPC: 1.24511 cumulative IPC: 1.16891 (Simulation time: 0 hr 28 min 2 sec) 
select_counter is 1022
Heartbeat CPU 0 instructions: 61000001 cycles: 47435819 heartbeat IPC: 1.24846 cumulative IPC: 1.17037 (Simulation time: 0 hr 28 min 33 sec) 
select_counter is 1020
Heartbeat CPU 0 instructions: 62000000 cycles: 48251202 heartbeat IPC: 1.22642 cumulative IPC: 1.1714 (Simulation time: 0 hr 29 min 3 sec) 
select_counter is 1010
Heartbeat CPU 0 instructions: 63000002 cycles: 49048486 heartbeat IPC: 1.25426 cumulative IPC: 1.17286 (Simulation time: 0 hr 29 min 35 sec) 
select_counter is 1023
Heartbeat CPU 0 instructions: 64000000 cycles: 49870253 heartbeat IPC: 1.21689 cumulative IPC: 1.17365 (Simulation time: 0 hr 30 min 5 sec) 
select_counter is 1013
Heartbeat CPU 0 instructions: 65000003 cycles: 50674282 heartbeat IPC: 1.24374 cumulative IPC: 1.17485 (Simulation time: 0 hr 30 min 35 sec) 
select_counter is 1022
Heartbeat CPU 0 instructions: 66000000 cycles: 51479440 heartbeat IPC: 1.24199 cumulative IPC: 1.17599 (Simulation time: 0 hr 31 min 2 sec) 
select_counter is 1023
Heartbeat CPU 0 instructions: 67000003 cycles: 52339429 heartbeat IPC: 1.16281 cumulative IPC: 1.17576 (Simulation time: 0 hr 31 min 28 sec) 
select_counter is 1011
Heartbeat CPU 0 instructions: 68000000 cycles: 53148209 heartbeat IPC: 1.23643 cumulative IPC: 1.17675 (Simulation time: 0 hr 31 min 56 sec) 
select_counter is 1023
Heartbeat CPU 0 instructions: 69000003 cycles: 53954599 heartbeat IPC: 1.2401 cumulative IPC: 1.17777 (Simulation time: 0 hr 32 min 24 sec) 
select_counter is 1023
Heartbeat CPU 0 instructions: 70000000 cycles: 54797703 heartbeat IPC: 1.18609 cumulative IPC: 1.17791 (Simulation time: 0 hr 32 min 51 sec) 
select_counter is 1004
Heartbeat CPU 0 instructions: 71000002 cycles: 55607717 heartbeat IPC: 1.23455 cumulative IPC: 1.1788 (Simulation time: 0 hr 33 min 18 sec) 
select_counter is 1023
Heartbeat CPU 0 instructions: 72000000 cycles: 56410140 heartbeat IPC: 1.24622 cumulative IPC: 1.17982 (Simulation time: 0 hr 33 min 46 sec) 
select_counter is 1022
Heartbeat CPU 0 instructions: 73000003 cycles: 57241461 heartbeat IPC: 1.20291 cumulative IPC: 1.18018 (Simulation time: 0 hr 34 min 16 sec) 
select_counter is 1001
Heartbeat CPU 0 instructions: 74000003 cycles: 58046795 heartbeat IPC: 1.24172 cumulative IPC: 1.1811 (Simulation time: 0 hr 34 min 46 sec) 
select_counter is 1022
Heartbeat CPU 0 instructions: 75000002 cycles: 58856886 heartbeat IPC: 1.23443 cumulative IPC: 1.18188 (Simulation time: 0 hr 35 min 11 sec) 
select_counter is 1023
Heartbeat CPU 0 instructions: 76000000 cycles: 59684401 heartbeat IPC: 1.20843 cumulative IPC: 1.18228 (Simulation time: 0 hr 35 min 36 sec) 
select_counter is 994
Heartbeat CPU 0 instructions: 77000003 cycles: 60513028 heartbeat IPC: 1.20682 cumulative IPC: 1.18264 (Simulation time: 0 hr 36 min 3 sec) 
select_counter is 1022
Heartbeat CPU 0 instructions: 78000003 cycles: 61315563 heartbeat IPC: 1.24605 cumulative IPC: 1.18352 (Simulation time: 0 hr 36 min 31 sec) 
select_counter is 1022
Heartbeat CPU 0 instructions: 79000003 cycles: 62145976 heartbeat IPC: 1.20422 cumulative IPC: 1.18382 (Simulation time: 0 hr 36 min 58 sec) 
select_counter is 984
Heartbeat CPU 0 instructions: 80000000 cycles: 62961330 heartbeat IPC: 1.22646 cumulative IPC: 1.18441 (Simulation time: 0 hr 37 min 27 sec) 
select_counter is 1021
Heartbeat CPU 0 instructions: 81000001 cycles: 63768806 heartbeat IPC: 1.23843 cumulative IPC: 1.18513 (Simulation time: 0 hr 37 min 56 sec) 
select_counter is 1019
Heartbeat CPU 0 instructions: 82000002 cycles: 64599569 heartbeat IPC: 1.20371 cumulative IPC: 1.18539 (Simulation time: 0 hr 38 min 23 sec) 
select_counter is 978
Heartbeat CPU 0 instructions: 83000003 cycles: 65425422 heartbeat IPC: 1.21087 cumulative IPC: 1.18573 (Simulation time: 0 hr 38 min 52 sec) 
select_counter is 1023
Heartbeat CPU 0 instructions: 84000000 cycles: 66229535 heartbeat IPC: 1.2436 cumulative IPC: 1.18648 (Simulation time: 0 hr 39 min 19 sec) 
select_counter is 1023
Heartbeat CPU 0 instructions: 85000001 cycles: 67057507 heartbeat IPC: 1.20777 cumulative IPC: 1.18676 (Simulation time: 0 hr 39 min 48 sec) 
select_counter is 971
Heartbeat CPU 0 instructions: 86000000 cycles: 67856258 heartbeat IPC: 1.25195 cumulative IPC: 1.18757 (Simulation time: 0 hr 40 min 15 sec) 
select_counter is 1023
Heartbeat CPU 0 instructions: 87000003 cycles: 68667212 heartbeat IPC: 1.23312 cumulative IPC: 1.18814 (Simulation time: 0 hr 40 min 40 sec) 
select_counter is 1017
Heartbeat CPU 0 instructions: 88000000 cycles: 69494512 heartbeat IPC: 1.20875 cumulative IPC: 1.1884 (Simulation time: 0 hr 41 min 6 sec) 
select_counter is 973
Heartbeat CPU 0 instructions: 89000000 cycles: 70286290 heartbeat IPC: 1.26298 cumulative IPC: 1.18929 (Simulation time: 0 hr 41 min 32 sec) 
select_counter is 1023
Heartbeat CPU 0 instructions: 90000000 cycles: 71075633 heartbeat IPC: 1.26688 cumulative IPC: 1.1902 (Simulation time: 0 hr 41 min 56 sec) 
select_counter is 1023
Heartbeat CPU 0 instructions: 91000001 cycles: 71899889 heartbeat IPC: 1.21322 cumulative IPC: 1.19048 (Simulation time: 0 hr 42 min 19 sec) 
select_counter is 971
Heartbeat CPU 0 instructions: 92000000 cycles: 72700891 heartbeat IPC: 1.24844 cumulative IPC: 1.19115 (Simulation time: 0 hr 42 min 42 sec) 
select_counter is 1023
Heartbeat CPU 0 instructions: 93000002 cycles: 73479744 heartbeat IPC: 1.28394 cumulative IPC: 1.19219 (Simulation time: 0 hr 43 min 7 sec) 
select_counter is 1023
Heartbeat CPU 0 instructions: 94000000 cycles: 74322548 heartbeat IPC: 1.18651 cumulative IPC: 1.19212 (Simulation time: 0 hr 43 min 36 sec) 
select_counter is 971
Heartbeat CPU 0 instructions: 95000000 cycles: 75119618 heartbeat IPC: 1.25459 cumulative IPC: 1.19282 (Simulation time: 0 hr 43 min 59 sec) 
select_counter is 1023
Heartbeat CPU 0 instructions: 96000000 cycles: 75916462 heartbeat IPC: 1.25495 cumulative IPC: 1.19351 (Simulation time: 0 hr 44 min 23 sec) 
select_counter is 1023
Heartbeat CPU 0 instructions: 97000002 cycles: 77093418 heartbeat IPC: 0.849651 cumulative IPC: 1.18798 (Simulation time: 0 hr 44 min 50 sec) 
select_counter is 1022
Heartbeat CPU 0 instructions: 98000003 cycles: 78056099 heartbeat IPC: 1.03877 cumulative IPC: 1.18605 (Simulation time: 0 hr 45 min 17 sec) 
select_counter is 976
Heartbeat CPU 0 instructions: 99000000 cycles: 78876306 heartbeat IPC: 1.2192 cumulative IPC: 1.18641 (Simulation time: 0 hr 45 min 43 sec) 
select_counter is 1023
Heartbeat CPU 0 instructions: 100000000 cycles: 79679628 heartbeat IPC: 1.24483 cumulative IPC: 1.18703 (Simulation time: 0 hr 46 min 8 sec) 
select_counter is 1022
Heartbeat CPU 0 instructions: 101000001 cycles: 81033746 heartbeat IPC: 0.738489 cumulative IPC: 1.17916 (Simulation time: 0 hr 46 min 38 sec) 
select_counter is 1014
Heartbeat CPU 0 instructions: 102000002 cycles: 81880141 heartbeat IPC: 1.18148 cumulative IPC: 1.17918 (Simulation time: 0 hr 47 min 2 sec) 
select_counter is 1022
Heartbeat CPU 0 instructions: 103000001 cycles: 82701035 heartbeat IPC: 1.21818 cumulative IPC: 1.17959 (Simulation time: 0 hr 47 min 25 sec) 
select_counter is 1022
Heartbeat CPU 0 instructions: 104000000 cycles: 83920673 heartbeat IPC: 0.819915 cumulative IPC: 1.17411 (Simulation time: 0 hr 47 min 46 sec) 
select_counter is 1022
Heartbeat CPU 0 instructions: 105000002 cycles: 84775569 heartbeat IPC: 1.16974 cumulative IPC: 1.17406 (Simulation time: 0 hr 48 min 6 sec) 
select_counter is 1021
Heartbeat CPU 0 instructions: 106000000 cycles: 85587376 heartbeat IPC: 1.23182 cumulative IPC: 1.17464 (Simulation time: 0 hr 48 min 29 sec) 
select_counter is 1023
Heartbeat CPU 0 instructions: 107000000 cycles: 86659295 heartbeat IPC: 0.932906 cumulative IPC: 1.17151 (Simulation time: 0 hr 48 min 49 sec) 
select_counter is 1022
Heartbeat CPU 0 instructions: 108000000 cycles: 87654366 heartbeat IPC: 1.00495 cumulative IPC: 1.16953 (Simulation time: 0 hr 49 min 9 sec) 
select_counter is 1001
Heartbeat CPU 0 instructions: 109000003 cycles: 88471847 heartbeat IPC: 1.22327 cumulative IPC: 1.17005 (Simulation time: 0 hr 49 min 26 sec) 
select_counter is 1022
Heartbeat CPU 0 instructions: 110000000 cycles: 89339117 heartbeat IPC: 1.15304 cumulative IPC: 1.16988 (Simulation time: 0 hr 49 min 44 sec) 
select_counter is 1022
Finished CPU 0 instructions: 100000003 cycles: 85479148 cummulative IPC: 1.16988 (Simulation time: 0 hr 49 min 44 sec) 

ChampSim completed all CPUs

Region of Interest Statistics

CPU 0 cummulative IPC: 1.16988 instructions: 100000003 cycles: 85479148
LLC TOTAL     ACCESS:    1445982  HIT:     488283  MISS:     957699
LLC LOAD      ACCESS:     118924  HIT:     102345  MISS:      16579
LLC RFO       ACCESS:     121976  HIT:     120773  MISS:       1203
LLC PREFETCH  ACCESS:    1076688  HIT:     136906  MISS:     939782
LLC WRITEBACK ACCESS:     128394  HIT:     128259  MISS:        135
Ship samples: 
20, 37, 64, 100, 146, 170, 215, 246, 266, 295, 344, 369, 393, 420, 476, 508, 516, 573, 605, 610, 670, 677, 731, 765, 784, 823, 858, 875, 903, 939, 974, 992, 1025, 1075, 1116, 1133, 1154, 1200, 1231, 1250, 1298, 1320, 1345, 1391, 1410, 1452, 1474, 1506, 1546, 1569, 1610, 1632, 1666, 1705, 1758, 1776, 1796, 1852, 1867, 1902, 1926, 1981, 1990, 2028, 
Lime duel samples: 
27, 125, 214, 308, 386, 511, 577, 684, 773, 872, 963, 1085, 1178, 1261, 1356, 1466, 1539, 1647, 1745, 1848, 1933, 
Lime samples: 
27, 125, 214, 308, 386, 511, 577, 684, 773, 872, 963, 1085, 1178, 1261, 1356, 1466, 1539, 1647, 1745, 1848, 1933, 
Insertion Distribution: 
	LOAD 99 0 0 0 0 0 340 739 
	RFO 22 0 0 0 0 0 105 0 
	PREF 0 256 0 0 0 0 1900 18820 
	WRITEBACK 0 0 0 0 0 0 0 3 
Total Prefetch Downgrades: 238
