
*** ChampSim Multicore Out-of-Order Simulator ***

Warmup Instructions: 10000000
Simulation Instructions: 100000000
Configuration: 2
Number of CPUs: 1
LLC sets: 2048
LLC ways: 16
Off-chip DRAM Channels: 1 Width: 64-bit Data Rate: 1600 MT/s

CPU 0 runs /datasets/cs240c-wi22-a00-public/data/Assignment2-gz/cactusADM_1039B.trace.gz
CPU 0 L1D next line prefetcher
CPU 0 L2C IP-based stride prefetcher
Heartbeat CPU 0 instructions: 1000000 cycles: 595518 heartbeat IPC: 1.67921 cumulative IPC: 1.67921 (Simulation time: 0 hr 0 min 34 sec) 
select_counter is 633
Heartbeat CPU 0 instructions: 2000002 cycles: 1190937 heartbeat IPC: 1.67949 cumulative IPC: 1.67935 (Simulation time: 0 hr 1 min 10 sec) 
select_counter is 738
Heartbeat CPU 0 instructions: 3000003 cycles: 1786622 heartbeat IPC: 1.67874 cumulative IPC: 1.67915 (Simulation time: 0 hr 1 min 46 sec) 
select_counter is 857
Heartbeat CPU 0 instructions: 4000000 cycles: 2382046 heartbeat IPC: 1.67947 cumulative IPC: 1.67923 (Simulation time: 0 hr 2 min 23 sec) 
select_counter is 978
Heartbeat CPU 0 instructions: 5000001 cycles: 2977457 heartbeat IPC: 1.67951 cumulative IPC: 1.67929 (Simulation time: 0 hr 2 min 57 sec) 
select_counter is 1023
Heartbeat CPU 0 instructions: 6000002 cycles: 3572930 heartbeat IPC: 1.67934 cumulative IPC: 1.67929 (Simulation time: 0 hr 3 min 31 sec) 
select_counter is 1023
Heartbeat CPU 0 instructions: 7000000 cycles: 4168306 heartbeat IPC: 1.67961 cumulative IPC: 1.67934 (Simulation time: 0 hr 4 min 6 sec) 
select_counter is 1023
Heartbeat CPU 0 instructions: 8000000 cycles: 4763681 heartbeat IPC: 1.67961 cumulative IPC: 1.67937 (Simulation time: 0 hr 4 min 39 sec) 
select_counter is 1021
Heartbeat CPU 0 instructions: 9000002 cycles: 5359336 heartbeat IPC: 1.67883 cumulative IPC: 1.67931 (Simulation time: 0 hr 5 min 14 sec) 
select_counter is 1022
Heartbeat CPU 0 instructions: 10000003 cycles: 5974113 heartbeat IPC: 1.62661 cumulative IPC: 1.67389 (Simulation time: 0 hr 5 min 47 sec) 
select_counter is 1023

Warmup complete CPU 0 instructions: 10000003 cycles: 5974113 (Simulation time: 0 hr 5 min 47 sec) 

Heartbeat CPU 0 instructions: 11000003 cycles: 12125213 heartbeat IPC: 0.162573 cumulative IPC: 0.162573 (Simulation time: 0 hr 6 min 27 sec) 
select_counter is 1023
Heartbeat CPU 0 instructions: 12000000 cycles: 13867645 heartbeat IPC: 0.573909 cumulative IPC: 0.253372 (Simulation time: 0 hr 7 min 5 sec) 
select_counter is 1022
Heartbeat CPU 0 instructions: 13000002 cycles: 15535904 heartbeat IPC: 0.599429 cumulative IPC: 0.313749 (Simulation time: 0 hr 7 min 40 sec) 
select_counter is 1022
Heartbeat CPU 0 instructions: 14000001 cycles: 17243839 heartbeat IPC: 0.585502 cumulative IPC: 0.354933 (Simulation time: 0 hr 8 min 17 sec) 
select_counter is 1023
Heartbeat CPU 0 instructions: 15000002 cycles: 18987569 heartbeat IPC: 0.573484 cumulative IPC: 0.384218 (Simulation time: 0 hr 8 min 55 sec) 
select_counter is 1023
Heartbeat CPU 0 instructions: 16000000 cycles: 20734125 heartbeat IPC: 0.572554 cumulative IPC: 0.406504 (Simulation time: 0 hr 9 min 32 sec) 
select_counter is 1023
Heartbeat CPU 0 instructions: 17000003 cycles: 22458178 heartbeat IPC: 0.58003 cumulative IPC: 0.424653 (Simulation time: 0 hr 10 min 9 sec) 
select_counter is 1023
Heartbeat CPU 0 instructions: 18000002 cycles: 24112707 heartbeat IPC: 0.604401 cumulative IPC: 0.441048 (Simulation time: 0 hr 10 min 46 sec) 
select_counter is 1023
Heartbeat CPU 0 instructions: 19000003 cycles: 25849116 heartbeat IPC: 0.575902 cumulative IPC: 0.45283 (Simulation time: 0 hr 11 min 23 sec) 
select_counter is 1023
Heartbeat CPU 0 instructions: 20000000 cycles: 27592709 heartbeat IPC: 0.573527 cumulative IPC: 0.462565 (Simulation time: 0 hr 12 min 1 sec) 
select_counter is 1022
Heartbeat CPU 0 instructions: 21000002 cycles: 29336323 heartbeat IPC: 0.573523 cumulative IPC: 0.470846 (Simulation time: 0 hr 12 min 37 sec) 
select_counter is 1023
Heartbeat CPU 0 instructions: 22000003 cycles: 31026785 heartbeat IPC: 0.591555 cumulative IPC: 0.478991 (Simulation time: 0 hr 13 min 13 sec) 
select_counter is 1023
Heartbeat CPU 0 instructions: 23000001 cycles: 32711762 heartbeat IPC: 0.593479 cumulative IPC: 0.486206 (Simulation time: 0 hr 13 min 48 sec) 
select_counter is 1023
Heartbeat CPU 0 instructions: 24000000 cycles: 39502282 heartbeat IPC: 0.147264 cumulative IPC: 0.417559 (Simulation time: 0 hr 14 min 36 sec) 
select_counter is 1022
Heartbeat CPU 0 instructions: 25000002 cycles: 41243159 heartbeat IPC: 0.574424 cumulative IPC: 0.425302 (Simulation time: 0 hr 15 min 12 sec) 
select_counter is 1021
Heartbeat CPU 0 instructions: 26000002 cycles: 42970835 heartbeat IPC: 0.578812 cumulative IPC: 0.432471 (Simulation time: 0 hr 15 min 48 sec) 
select_counter is 1023
Heartbeat CPU 0 instructions: 27000002 cycles: 44639020 heartbeat IPC: 0.599454 cumulative IPC: 0.439675 (Simulation time: 0 hr 16 min 27 sec) 
select_counter is 1022
Heartbeat CPU 0 instructions: 28000000 cycles: 46372483 heartbeat IPC: 0.576879 cumulative IPC: 0.445562 (Simulation time: 0 hr 17 min 5 sec) 
select_counter is 1022
Heartbeat CPU 0 instructions: 29000000 cycles: 48115967 heartbeat IPC: 0.573564 cumulative IPC: 0.450858 (Simulation time: 0 hr 17 min 41 sec) 
select_counter is 1023
Heartbeat CPU 0 instructions: 30000003 cycles: 49856839 heartbeat IPC: 0.574426 cumulative IPC: 0.45576 (Simulation time: 0 hr 18 min 17 sec) 
select_counter is 1022
Heartbeat CPU 0 instructions: 31000001 cycles: 51555054 heartbeat IPC: 0.588852 cumulative IPC: 0.460719 (Simulation time: 0 hr 18 min 52 sec) 
select_counter is 1021
Heartbeat CPU 0 instructions: 32000000 cycles: 53232898 heartbeat IPC: 0.596002 cumulative IPC: 0.465522 (Simulation time: 0 hr 19 min 31 sec) 
select_counter is 1023
Heartbeat CPU 0 instructions: 33000001 cycles: 54972750 heartbeat IPC: 0.574762 cumulative IPC: 0.469401 (Simulation time: 0 hr 20 min 6 sec) 
select_counter is 1021
Heartbeat CPU 0 instructions: 34000000 cycles: 56714780 heartbeat IPC: 0.574042 cumulative IPC: 0.472993 (Simulation time: 0 hr 20 min 41 sec) 
select_counter is 1021
Heartbeat CPU 0 instructions: 35000001 cycles: 58452108 heartbeat IPC: 0.575597 cumulative IPC: 0.47639 (Simulation time: 0 hr 21 min 15 sec) 
select_counter is 1023
Heartbeat CPU 0 instructions: 36000000 cycles: 60117353 heartbeat IPC: 0.600512 cumulative IPC: 0.480208 (Simulation time: 0 hr 21 min 49 sec) 
select_counter is 1023
Heartbeat CPU 0 instructions: 37000002 cycles: 66840187 heartbeat IPC: 0.148747 cumulative IPC: 0.443597 (Simulation time: 0 hr 22 min 34 sec) 
select_counter is 1023
Heartbeat CPU 0 instructions: 38000001 cycles: 68583437 heartbeat IPC: 0.573641 cumulative IPC: 0.447218 (Simulation time: 0 hr 23 min 9 sec) 
select_counter is 1022
Heartbeat CPU 0 instructions: 39000002 cycles: 70328026 heartbeat IPC: 0.573201 cumulative IPC: 0.450633 (Simulation time: 0 hr 23 min 46 sec) 
select_counter is 1023
Heartbeat CPU 0 instructions: 40000000 cycles: 72029116 heartbeat IPC: 0.587857 cumulative IPC: 0.454167 (Simulation time: 0 hr 24 min 21 sec) 
select_counter is 1023
Heartbeat CPU 0 instructions: 41000003 cycles: 73703037 heartbeat IPC: 0.597402 cumulative IPC: 0.457707 (Simulation time: 0 hr 24 min 59 sec) 
select_counter is 1023
Heartbeat CPU 0 instructions: 42000000 cycles: 75443391 heartbeat IPC: 0.574594 cumulative IPC: 0.460635 (Simulation time: 0 hr 25 min 33 sec) 
select_counter is 1020
Heartbeat CPU 0 instructions: 43000000 cycles: 77188186 heartbeat IPC: 0.573133 cumulative IPC: 0.463392 (Simulation time: 0 hr 26 min 9 sec) 
select_counter is 1022
Heartbeat CPU 0 instructions: 44000000 cycles: 78928323 heartbeat IPC: 0.574667 cumulative IPC: 0.466046 (Simulation time: 0 hr 26 min 43 sec) 
select_counter is 1022
Heartbeat CPU 0 instructions: 45000000 cycles: 80599758 heartbeat IPC: 0.598288 cumulative IPC: 0.469008 (Simulation time: 0 hr 27 min 15 sec) 
select_counter is 1023
Heartbeat CPU 0 instructions: 46000003 cycles: 82307119 heartbeat IPC: 0.585701 cumulative IPC: 0.471618 (Simulation time: 0 hr 27 min 49 sec) 
select_counter is 1023
Heartbeat CPU 0 instructions: 47000001 cycles: 84049698 heartbeat IPC: 0.573861 cumulative IPC: 0.4739 (Simulation time: 0 hr 28 min 22 sec) 
select_counter is 1023
Heartbeat CPU 0 instructions: 48000000 cycles: 85792575 heartbeat IPC: 0.573763 cumulative IPC: 0.47608 (Simulation time: 0 hr 28 min 55 sec) 
select_counter is 1023
Heartbeat CPU 0 instructions: 49000001 cycles: 87518982 heartbeat IPC: 0.579238 cumulative IPC: 0.478264 (Simulation time: 0 hr 29 min 29 sec) 
select_counter is 1023
Heartbeat CPU 0 instructions: 50000000 cycles: 94288439 heartbeat IPC: 0.147722 cumulative IPC: 0.452928 (Simulation time: 0 hr 30 min 13 sec) 
select_counter is 1022
Heartbeat CPU 0 instructions: 51000003 cycles: 96054820 heartbeat IPC: 0.566131 cumulative IPC: 0.455147 (Simulation time: 0 hr 30 min 45 sec) 
select_counter is 1023
Heartbeat CPU 0 instructions: 52000000 cycles: 97828549 heartbeat IPC: 0.563782 cumulative IPC: 0.457245 (Simulation time: 0 hr 31 min 21 sec) 
select_counter is 1023
Heartbeat CPU 0 instructions: 53000003 cycles: 99600793 heartbeat IPC: 0.564258 cumulative IPC: 0.459271 (Simulation time: 0 hr 31 min 58 sec) 
select_counter is 1023
Heartbeat CPU 0 instructions: 54000002 cycles: 101318305 heartbeat IPC: 0.582237 cumulative IPC: 0.461486 (Simulation time: 0 hr 32 min 35 sec) 
select_counter is 1023
Heartbeat CPU 0 instructions: 55000001 cycles: 103045575 heartbeat IPC: 0.578948 cumulative IPC: 0.463576 (Simulation time: 0 hr 33 min 10 sec) 
select_counter is 1023
Heartbeat CPU 0 instructions: 56000000 cycles: 104816788 heartbeat IPC: 0.564584 cumulative IPC: 0.465386 (Simulation time: 0 hr 33 min 44 sec) 
select_counter is 1023
Heartbeat CPU 0 instructions: 57000000 cycles: 106591541 heartbeat IPC: 0.563459 cumulative IPC: 0.467116 (Simulation time: 0 hr 34 min 18 sec) 
select_counter is 1021
Heartbeat CPU 0 instructions: 58000000 cycles: 108357020 heartbeat IPC: 0.566419 cumulative IPC: 0.468828 (Simulation time: 0 hr 34 min 55 sec) 
select_counter is 1022
Heartbeat CPU 0 instructions: 59000002 cycles: 110045186 heartbeat IPC: 0.59236 cumulative IPC: 0.470832 (Simulation time: 0 hr 35 min 32 sec) 
select_counter is 1023
Heartbeat CPU 0 instructions: 60000000 cycles: 111804337 heartbeat IPC: 0.568455 cumulative IPC: 0.472455 (Simulation time: 0 hr 36 min 9 sec) 
select_counter is 1023
Heartbeat CPU 0 instructions: 61000001 cycles: 113579114 heartbeat IPC: 0.563452 cumulative IPC: 0.473956 (Simulation time: 0 hr 36 min 46 sec) 
select_counter is 1021
Heartbeat CPU 0 instructions: 62000000 cycles: 115351713 heartbeat IPC: 0.564143 cumulative IPC: 0.475417 (Simulation time: 0 hr 37 min 25 sec) 
select_counter is 1023
Heartbeat CPU 0 instructions: 63000001 cycles: 121683007 heartbeat IPC: 0.157946 cumulative IPC: 0.458046 (Simulation time: 0 hr 38 min 9 sec) 
select_counter is 1022
Heartbeat CPU 0 instructions: 64000000 cycles: 123963501 heartbeat IPC: 0.438501 cumulative IPC: 0.457668 (Simulation time: 0 hr 38 min 45 sec) 
select_counter is 1022
Heartbeat CPU 0 instructions: 65000002 cycles: 125735633 heartbeat IPC: 0.564293 cumulative IPC: 0.459246 (Simulation time: 0 hr 39 min 22 sec) 
select_counter is 1023
Heartbeat CPU 0 instructions: 66000001 cycles: 127508473 heartbeat IPC: 0.564066 cumulative IPC: 0.460775 (Simulation time: 0 hr 39 min 53 sec) 
select_counter is 1023
Heartbeat CPU 0 instructions: 67000003 cycles: 129275013 heartbeat IPC: 0.566079 cumulative IPC: 0.462284 (Simulation time: 0 hr 40 min 25 sec) 
select_counter is 1023
Heartbeat CPU 0 instructions: 68000000 cycles: 131003273 heartbeat IPC: 0.578615 cumulative IPC: 0.463892 (Simulation time: 0 hr 40 min 57 sec) 
select_counter is 1023
Heartbeat CPU 0 instructions: 69000003 cycles: 132781797 heartbeat IPC: 0.562266 cumulative IPC: 0.465272 (Simulation time: 0 hr 41 min 30 sec) 
select_counter is 1023
Heartbeat CPU 0 instructions: 70000002 cycles: 134554245 heartbeat IPC: 0.564191 cumulative IPC: 0.466635 (Simulation time: 0 hr 42 min 4 sec) 
select_counter is 1023
Heartbeat CPU 0 instructions: 71000000 cycles: 136326984 heartbeat IPC: 0.564098 cumulative IPC: 0.467961 (Simulation time: 0 hr 42 min 37 sec) 
select_counter is 1023
Heartbeat CPU 0 instructions: 72000000 cycles: 138074286 heartbeat IPC: 0.572311 cumulative IPC: 0.469341 (Simulation time: 0 hr 43 min 13 sec) 
select_counter is 1023
Heartbeat CPU 0 instructions: 73000001 cycles: 139774733 heartbeat IPC: 0.588081 cumulative IPC: 0.47085 (Simulation time: 0 hr 43 min 44 sec) 
select_counter is 1023
Heartbeat CPU 0 instructions: 74000003 cycles: 141542770 heartbeat IPC: 0.5656 cumulative IPC: 0.472086 (Simulation time: 0 hr 44 min 14 sec) 
select_counter is 1023
Heartbeat CPU 0 instructions: 75000002 cycles: 143316291 heartbeat IPC: 0.56385 cumulative IPC: 0.47327 (Simulation time: 0 hr 44 min 46 sec) 
select_counter is 1023
Heartbeat CPU 0 instructions: 76000000 cycles: 148673583 heartbeat IPC: 0.186661 cumulative IPC: 0.46251 (Simulation time: 0 hr 45 min 23 sec) 
select_counter is 1018
Heartbeat CPU 0 instructions: 77000001 cycles: 151882303 heartbeat IPC: 0.311651 cumulative IPC: 0.459193 (Simulation time: 0 hr 45 min 57 sec) 
select_counter is 1023
Heartbeat CPU 0 instructions: 78000000 cycles: 153633205 heartbeat IPC: 0.571134 cumulative IPC: 0.46052 (Simulation time: 0 hr 46 min 28 sec) 
select_counter is 1023
Heartbeat CPU 0 instructions: 79000002 cycles: 155404954 heartbeat IPC: 0.564415 cumulative IPC: 0.461752 (Simulation time: 0 hr 46 min 58 sec) 
select_counter is 1023
Heartbeat CPU 0 instructions: 80000000 cycles: 157176873 heartbeat IPC: 0.564359 cumulative IPC: 0.462954 (Simulation time: 0 hr 47 min 27 sec) 
select_counter is 1023
Heartbeat CPU 0 instructions: 81000002 cycles: 158927098 heartbeat IPC: 0.571356 cumulative IPC: 0.464195 (Simulation time: 0 hr 47 min 57 sec) 
select_counter is 1023
Heartbeat CPU 0 instructions: 82000002 cycles: 160623932 heartbeat IPC: 0.589333 cumulative IPC: 0.465568 (Simulation time: 0 hr 48 min 22 sec) 
select_counter is 1023
Heartbeat CPU 0 instructions: 83000003 cycles: 162392126 heartbeat IPC: 0.565549 cumulative IPC: 0.466698 (Simulation time: 0 hr 48 min 47 sec) 
select_counter is 1019
Heartbeat CPU 0 instructions: 84000000 cycles: 164164925 heartbeat IPC: 0.564078 cumulative IPC: 0.467789 (Simulation time: 0 hr 49 min 14 sec) 
select_counter is 1023
Heartbeat CPU 0 instructions: 85000002 cycles: 165937766 heartbeat IPC: 0.564067 cumulative IPC: 0.468857 (Simulation time: 0 hr 49 min 38 sec) 
select_counter is 1020
Heartbeat CPU 0 instructions: 86000003 cycles: 167654007 heartbeat IPC: 0.582669 cumulative IPC: 0.470065 (Simulation time: 0 hr 50 min 2 sec) 
select_counter is 1023
Heartbeat CPU 0 instructions: 87000000 cycles: 169397908 heartbeat IPC: 0.573425 cumulative IPC: 0.471168 (Simulation time: 0 hr 50 min 26 sec) 
select_counter is 1021
Heartbeat CPU 0 instructions: 88000000 cycles: 171168148 heartbeat IPC: 0.564895 cumulative IPC: 0.472172 (Simulation time: 0 hr 50 min 48 sec) 
select_counter is 1023
Heartbeat CPU 0 instructions: 89000001 cycles: 175579851 heartbeat IPC: 0.22667 cumulative IPC: 0.465786 (Simulation time: 0 hr 51 min 8 sec) 
select_counter is 1022
Heartbeat CPU 0 instructions: 90000002 cycles: 179774250 heartbeat IPC: 0.238413 cumulative IPC: 0.460299 (Simulation time: 0 hr 51 min 26 sec) 
select_counter is 1023
Heartbeat CPU 0 instructions: 91000000 cycles: 181469139 heartbeat IPC: 0.590008 cumulative IPC: 0.461552 (Simulation time: 0 hr 51 min 42 sec) 
select_counter is 1022
Heartbeat CPU 0 instructions: 92000000 cycles: 183235266 heartbeat IPC: 0.566211 cumulative IPC: 0.462594 (Simulation time: 0 hr 51 min 58 sec) 
select_counter is 1022
Heartbeat CPU 0 instructions: 93000001 cycles: 185008223 heartbeat IPC: 0.56403 cumulative IPC: 0.463599 (Simulation time: 0 hr 52 min 14 sec) 
select_counter is 1023
Heartbeat CPU 0 instructions: 94000003 cycles: 186783710 heartbeat IPC: 0.563227 cumulative IPC: 0.464577 (Simulation time: 0 hr 52 min 30 sec) 
select_counter is 1023
Heartbeat CPU 0 instructions: 95000001 cycles: 188505370 heartbeat IPC: 0.580834 cumulative IPC: 0.465674 (Simulation time: 0 hr 52 min 45 sec) 
select_counter is 1023
Heartbeat CPU 0 instructions: 96000000 cycles: 190226393 heartbeat IPC: 0.581049 cumulative IPC: 0.466751 (Simulation time: 0 hr 52 min 59 sec) 
select_counter is 1023
Heartbeat CPU 0 instructions: 97000002 cycles: 191995948 heartbeat IPC: 0.565115 cumulative IPC: 0.467687 (Simulation time: 0 hr 53 min 13 sec) 
select_counter is 1023
Heartbeat CPU 0 instructions: 98000000 cycles: 193771315 heartbeat IPC: 0.563263 cumulative IPC: 0.468591 (Simulation time: 0 hr 53 min 27 sec) 
select_counter is 1022
Heartbeat CPU 0 instructions: 99000002 cycles: 195539668 heartbeat IPC: 0.565499 cumulative IPC: 0.469495 (Simulation time: 0 hr 53 min 42 sec) 
select_counter is 1022
Heartbeat CPU 0 instructions: 100000000 cycles: 197231234 heartbeat IPC: 0.591167 cumulative IPC: 0.470571 (Simulation time: 0 hr 53 min 55 sec) 
select_counter is 1022
Heartbeat CPU 0 instructions: 101000002 cycles: 198986638 heartbeat IPC: 0.569671 cumulative IPC: 0.471472 (Simulation time: 0 hr 54 min 8 sec) 
select_counter is 1021
Heartbeat CPU 0 instructions: 102000000 cycles: 202374439 heartbeat IPC: 0.295176 cumulative IPC: 0.468431 (Simulation time: 0 hr 54 min 22 sec) 
select_counter is 1017
Heartbeat CPU 0 instructions: 103000002 cycles: 207561153 heartbeat IPC: 0.192801 cumulative IPC: 0.461339 (Simulation time: 0 hr 54 min 36 sec) 
select_counter is 1023
Heartbeat CPU 0 instructions: 104000000 cycles: 209287562 heartbeat IPC: 0.579236 cumulative IPC: 0.46234 (Simulation time: 0 hr 54 min 48 sec) 
select_counter is 1023
Heartbeat CPU 0 instructions: 105000002 cycles: 211004085 heartbeat IPC: 0.582574 cumulative IPC: 0.463347 (Simulation time: 0 hr 54 min 58 sec) 
select_counter is 1023
Heartbeat CPU 0 instructions: 106000001 cycles: 212776841 heartbeat IPC: 0.564093 cumulative IPC: 0.464211 (Simulation time: 0 hr 55 min 10 sec) 
select_counter is 1023
Heartbeat CPU 0 instructions: 107000003 cycles: 214548056 heartbeat IPC: 0.564585 cumulative IPC: 0.465063 (Simulation time: 0 hr 55 min 21 sec) 
select_counter is 1022
Heartbeat CPU 0 instructions: 108000000 cycles: 216316979 heartbeat IPC: 0.565314 cumulative IPC: 0.465906 (Simulation time: 0 hr 55 min 31 sec) 
select_counter is 1023
Heartbeat CPU 0 instructions: 109000003 cycles: 218014392 heartbeat IPC: 0.589134 cumulative IPC: 0.466892 (Simulation time: 0 hr 55 min 41 sec) 
select_counter is 1023
Heartbeat CPU 0 instructions: 110000002 cycles: 219764945 heartbeat IPC: 0.571247 cumulative IPC: 0.467747 (Simulation time: 0 hr 55 min 51 sec) 
select_counter is 1019
Finished CPU 0 instructions: 100000003 cycles: 213790833 cummulative IPC: 0.467747 (Simulation time: 0 hr 55 min 51 sec) 

ChampSim completed all CPUs

Region of Interest Statistics

CPU 0 cummulative IPC: 0.467747 instructions: 100000003 cycles: 213790833
LLC TOTAL     ACCESS:    1174907  HIT:     346527  MISS:     828380
LLC LOAD      ACCESS:      31324  HIT:       1201  MISS:      30123
LLC RFO       ACCESS:     265309  HIT:       3958  MISS:     261351
LLC PREFETCH  ACCESS:     610929  HIT:     114230  MISS:     496699
LLC WRITEBACK ACCESS:     267345  HIT:     227138  MISS:      40207
Ship samples: 
24, 48, 79, 124, 129, 187, 207, 242, 271, 294, 347, 373, 391, 433, 461, 494, 514, 566, 606, 611, 662, 672, 708, 755, 797, 821, 859, 882, 897, 953, 981, 1013, 1034, 1082, 1115, 1132, 1181, 1206, 1247, 1268, 1282, 1333, 1363, 1377, 1419, 1442, 1474, 1529, 1540, 1588, 1617, 1649, 1671, 1709, 1731, 1779, 1792, 1824, 1874, 1907, 1943, 1967, 1997, 2035, 
Lime duel samples: 
1, 96, 220, 299, 410, 498, 578, 703, 787, 874, 974, 1068, 1169, 1257, 1374, 1466, 1548, 1633, 1745, 1841, 1933, 
Lime samples: 
1, 96, 220, 299, 410, 498, 578, 703, 787, 874, 974, 1068, 1169, 1257, 1374, 1466, 1548, 1633, 1745, 1841, 1933, 
Insertion Distribution: 
	LOAD 0 0 0 0 0 0 229 697 
	RFO 425 0 0 0 0 0 579 5254 
	PREF 0 1482 0 0 0 0 2509 12113 
	WRITEBACK 0 0 0 0 0 0 0 4870 
Total Prefetch Downgrades: 1640
