
*** ChampSim Multicore Out-of-Order Simulator ***

Warmup Instructions: 10000000
Simulation Instructions: 100000000
Configuration: 2
Number of CPUs: 1
LLC sets: 2048
LLC ways: 16
Off-chip DRAM Channels: 1 Width: 64-bit Data Rate: 1600 MT/s

CPU 0 runs /datasets/cs240c-wi22-a00-public/data/Assignment2-gz/bzip2_183B.trace.gz
CPU 0 L1D next line prefetcher
CPU 0 L2C IP-based stride prefetcher
Heartbeat CPU 0 instructions: 1000000 cycles: 447986 heartbeat IPC: 2.23221 cumulative IPC: 2.23221 (Simulation time: 0 hr 0 min 31 sec) 
select_counter is 708
Heartbeat CPU 0 instructions: 2000001 cycles: 951257 heartbeat IPC: 1.987 cumulative IPC: 2.10248 (Simulation time: 0 hr 1 min 2 sec) 
select_counter is 778
Heartbeat CPU 0 instructions: 3000001 cycles: 1457940 heartbeat IPC: 1.97362 cumulative IPC: 2.0577 (Simulation time: 0 hr 1 min 31 sec) 
select_counter is 801
Heartbeat CPU 0 instructions: 4000000 cycles: 1928590 heartbeat IPC: 2.12472 cumulative IPC: 2.07405 (Simulation time: 0 hr 2 min 0 sec) 
select_counter is 896
Heartbeat CPU 0 instructions: 5000000 cycles: 2425911 heartbeat IPC: 2.01077 cumulative IPC: 2.06108 (Simulation time: 0 hr 2 min 30 sec) 
select_counter is 965
Heartbeat CPU 0 instructions: 6000001 cycles: 2887527 heartbeat IPC: 2.1663 cumulative IPC: 2.0779 (Simulation time: 0 hr 3 min 1 sec) 
select_counter is 1023
Heartbeat CPU 0 instructions: 7000002 cycles: 3343383 heartbeat IPC: 2.19368 cumulative IPC: 2.09369 (Simulation time: 0 hr 3 min 30 sec) 
select_counter is 1021
Heartbeat CPU 0 instructions: 8000000 cycles: 3812980 heartbeat IPC: 2.12948 cumulative IPC: 2.0981 (Simulation time: 0 hr 3 min 57 sec) 
select_counter is 1019
Heartbeat CPU 0 instructions: 9000003 cycles: 4278213 heartbeat IPC: 2.14947 cumulative IPC: 2.10368 (Simulation time: 0 hr 4 min 25 sec) 
select_counter is 1022
Heartbeat CPU 0 instructions: 10000000 cycles: 4746630 heartbeat IPC: 2.13484 cumulative IPC: 2.10676 (Simulation time: 0 hr 4 min 54 sec) 
select_counter is 1020

Warmup complete CPU 0 instructions: 10000001 cycles: 4746631 (Simulation time: 0 hr 4 min 54 sec) 

Heartbeat CPU 0 instructions: 11000000 cycles: 6288599 heartbeat IPC: 0.648521 cumulative IPC: 0.648521 (Simulation time: 0 hr 5 min 22 sec) 
select_counter is 1021
Heartbeat CPU 0 instructions: 12000000 cycles: 7775162 heartbeat IPC: 0.672693 cumulative IPC: 0.660386 (Simulation time: 0 hr 5 min 48 sec) 
select_counter is 1022
Heartbeat CPU 0 instructions: 13000000 cycles: 9000222 heartbeat IPC: 0.816287 cumulative IPC: 0.705286 (Simulation time: 0 hr 6 min 15 sec) 
select_counter is 1023
Heartbeat CPU 0 instructions: 14000003 cycles: 10063971 heartbeat IPC: 0.940074 cumulative IPC: 0.752256 (Simulation time: 0 hr 6 min 43 sec) 
select_counter is 1023
Heartbeat CPU 0 instructions: 15000000 cycles: 11469333 heartbeat IPC: 0.711558 cumulative IPC: 0.743748 (Simulation time: 0 hr 7 min 8 sec) 
select_counter is 1019
Heartbeat CPU 0 instructions: 16000000 cycles: 12451271 heartbeat IPC: 1.01839 cumulative IPC: 0.778751 (Simulation time: 0 hr 7 min 34 sec) 
select_counter is 1021
Heartbeat CPU 0 instructions: 17000003 cycles: 13353130 heartbeat IPC: 1.10882 cumulative IPC: 0.813339 (Simulation time: 0 hr 8 min 1 sec) 
select_counter is 1022
Heartbeat CPU 0 instructions: 18000001 cycles: 14275795 heartbeat IPC: 1.08381 cumulative IPC: 0.839528 (Simulation time: 0 hr 8 min 27 sec) 
select_counter is 1023
Heartbeat CPU 0 instructions: 19000002 cycles: 15238715 heartbeat IPC: 1.03851 cumulative IPC: 0.85779 (Simulation time: 0 hr 8 min 54 sec) 
select_counter is 1023
Heartbeat CPU 0 instructions: 20000000 cycles: 16444050 heartbeat IPC: 0.829643 cumulative IPC: 0.854889 (Simulation time: 0 hr 9 min 19 sec) 
select_counter is 1023
Heartbeat CPU 0 instructions: 21000000 cycles: 17960530 heartbeat IPC: 0.659422 cumulative IPC: 0.832457 (Simulation time: 0 hr 9 min 47 sec) 
select_counter is 1023
Heartbeat CPU 0 instructions: 22000000 cycles: 19385792 heartbeat IPC: 0.701625 cumulative IPC: 0.819719 (Simulation time: 0 hr 10 min 13 sec) 
select_counter is 1022
Heartbeat CPU 0 instructions: 23000000 cycles: 20542211 heartbeat IPC: 0.864738 cumulative IPC: 0.823015 (Simulation time: 0 hr 10 min 43 sec) 
select_counter is 1022
Heartbeat CPU 0 instructions: 24000000 cycles: 21805991 heartbeat IPC: 0.791277 cumulative IPC: 0.820664 (Simulation time: 0 hr 11 min 12 sec) 
select_counter is 1019
Heartbeat CPU 0 instructions: 25000001 cycles: 23155261 heartbeat IPC: 0.741142 cumulative IPC: 0.814835 (Simulation time: 0 hr 11 min 42 sec) 
select_counter is 1023
Heartbeat CPU 0 instructions: 26000002 cycles: 24138877 heartbeat IPC: 1.01666 cumulative IPC: 0.825072 (Simulation time: 0 hr 12 min 8 sec) 
select_counter is 1023
Heartbeat CPU 0 instructions: 27000000 cycles: 25144417 heartbeat IPC: 0.994489 cumulative IPC: 0.833424 (Simulation time: 0 hr 12 min 35 sec) 
select_counter is 1023
Heartbeat CPU 0 instructions: 28000000 cycles: 26454020 heartbeat IPC: 0.76359 cumulative IPC: 0.829211 (Simulation time: 0 hr 13 min 4 sec) 
select_counter is 1020
Heartbeat CPU 0 instructions: 29000003 cycles: 27528960 heartbeat IPC: 0.930287 cumulative IPC: 0.83398 (Simulation time: 0 hr 13 min 30 sec) 
select_counter is 1019
Heartbeat CPU 0 instructions: 30000000 cycles: 28865839 heartbeat IPC: 0.748009 cumulative IPC: 0.829215 (Simulation time: 0 hr 13 min 56 sec) 
select_counter is 1023
Heartbeat CPU 0 instructions: 31000000 cycles: 30178816 heartbeat IPC: 0.761628 cumulative IPC: 0.825725 (Simulation time: 0 hr 14 min 21 sec) 
select_counter is 1021
Heartbeat CPU 0 instructions: 32000000 cycles: 31814360 heartbeat IPC: 0.611417 cumulative IPC: 0.812776 (Simulation time: 0 hr 14 min 46 sec) 
select_counter is 1023
Heartbeat CPU 0 instructions: 33000000 cycles: 32884442 heartbeat IPC: 0.934508 cumulative IPC: 0.817405 (Simulation time: 0 hr 15 min 14 sec) 
select_counter is 1022
Heartbeat CPU 0 instructions: 34000001 cycles: 33892125 heartbeat IPC: 0.992377 cumulative IPC: 0.823455 (Simulation time: 0 hr 15 min 39 sec) 
select_counter is 1022
Heartbeat CPU 0 instructions: 35000003 cycles: 34911431 heartbeat IPC: 0.981062 cumulative IPC: 0.828781 (Simulation time: 0 hr 16 min 7 sec) 
select_counter is 1023
Heartbeat CPU 0 instructions: 36000000 cycles: 35927824 heartbeat IPC: 0.983868 cumulative IPC: 0.833836 (Simulation time: 0 hr 16 min 35 sec) 
select_counter is 1023
Heartbeat CPU 0 instructions: 37000003 cycles: 37188548 heartbeat IPC: 0.793197 cumulative IPC: 0.832257 (Simulation time: 0 hr 17 min 1 sec) 
select_counter is 1023
Heartbeat CPU 0 instructions: 38000001 cycles: 38732679 heartbeat IPC: 0.647612 cumulative IPC: 0.823867 (Simulation time: 0 hr 17 min 27 sec) 
select_counter is 1023
Heartbeat CPU 0 instructions: 39000002 cycles: 39862931 heartbeat IPC: 0.884759 cumulative IPC: 0.825827 (Simulation time: 0 hr 17 min 52 sec) 
select_counter is 1023
Heartbeat CPU 0 instructions: 40000000 cycles: 40913864 heartbeat IPC: 0.951534 cumulative IPC: 0.82948 (Simulation time: 0 hr 18 min 20 sec) 
select_counter is 1023
Heartbeat CPU 0 instructions: 41000002 cycles: 42404257 heartbeat IPC: 0.670965 cumulative IPC: 0.823206 (Simulation time: 0 hr 18 min 44 sec) 
select_counter is 1023
Heartbeat CPU 0 instructions: 42000000 cycles: 43703795 heartbeat IPC: 0.769503 cumulative IPC: 0.821415 (Simulation time: 0 hr 19 min 10 sec) 
select_counter is 1023
Heartbeat CPU 0 instructions: 43000001 cycles: 44869838 heartbeat IPC: 0.857602 cumulative IPC: 0.822467 (Simulation time: 0 hr 19 min 35 sec) 
select_counter is 1022
Heartbeat CPU 0 instructions: 44000000 cycles: 46030807 heartbeat IPC: 0.861349 cumulative IPC: 0.82356 (Simulation time: 0 hr 19 min 59 sec) 
select_counter is 1022
Heartbeat CPU 0 instructions: 45000000 cycles: 47116343 heartbeat IPC: 0.921204 cumulative IPC: 0.826062 (Simulation time: 0 hr 20 min 24 sec) 
select_counter is 1023
Heartbeat CPU 0 instructions: 46000000 cycles: 48244698 heartbeat IPC: 0.886246 cumulative IPC: 0.827623 (Simulation time: 0 hr 20 min 47 sec) 
select_counter is 1023
Heartbeat CPU 0 instructions: 47000003 cycles: 49253005 heartbeat IPC: 0.991764 cumulative IPC: 0.831342 (Simulation time: 0 hr 21 min 15 sec) 
select_counter is 1023
Heartbeat CPU 0 instructions: 48000000 cycles: 50847426 heartbeat IPC: 0.627185 cumulative IPC: 0.824281 (Simulation time: 0 hr 21 min 41 sec) 
select_counter is 1023
Heartbeat CPU 0 instructions: 49000003 cycles: 52461949 heartbeat IPC: 0.61938 cumulative IPC: 0.817348 (Simulation time: 0 hr 22 min 5 sec) 
select_counter is 1023
Heartbeat CPU 0 instructions: 50000000 cycles: 53611167 heartbeat IPC: 0.870154 cumulative IPC: 0.81859 (Simulation time: 0 hr 22 min 34 sec) 
select_counter is 1022
Heartbeat CPU 0 instructions: 51000000 cycles: 54642646 heartbeat IPC: 0.969482 cumulative IPC: 0.821709 (Simulation time: 0 hr 23 min 0 sec) 
select_counter is 1021
Heartbeat CPU 0 instructions: 52000000 cycles: 55666457 heartbeat IPC: 0.976743 cumulative IPC: 0.824826 (Simulation time: 0 hr 23 min 27 sec) 
select_counter is 1018
Heartbeat CPU 0 instructions: 53000001 cycles: 56648963 heartbeat IPC: 1.01781 cumulative IPC: 0.828479 (Simulation time: 0 hr 23 min 57 sec) 
select_counter is 1021
Heartbeat CPU 0 instructions: 54000001 cycles: 57663611 heartbeat IPC: 0.985563 cumulative IPC: 0.831491 (Simulation time: 0 hr 24 min 24 sec) 
select_counter is 1020
Heartbeat CPU 0 instructions: 55000001 cycles: 58901304 heartbeat IPC: 0.807955 cumulative IPC: 0.830953 (Simulation time: 0 hr 24 min 51 sec) 
select_counter is 1023
Heartbeat CPU 0 instructions: 56000000 cycles: 60099531 heartbeat IPC: 0.834566 cumulative IPC: 0.831031 (Simulation time: 0 hr 25 min 15 sec) 
select_counter is 1023
Heartbeat CPU 0 instructions: 57000003 cycles: 61492763 heartbeat IPC: 0.717758 cumulative IPC: 0.82825 (Simulation time: 0 hr 25 min 38 sec) 
select_counter is 1023
Heartbeat CPU 0 instructions: 58000001 cycles: 63080448 heartbeat IPC: 0.629847 cumulative IPC: 0.82285 (Simulation time: 0 hr 26 min 2 sec) 
select_counter is 1021
Heartbeat CPU 0 instructions: 59000003 cycles: 64393031 heartbeat IPC: 0.761858 cumulative IPC: 0.821508 (Simulation time: 0 hr 26 min 25 sec) 
select_counter is 1021
Heartbeat CPU 0 instructions: 60000000 cycles: 65991652 heartbeat IPC: 0.625537 cumulative IPC: 0.816393 (Simulation time: 0 hr 26 min 51 sec) 
select_counter is 1021
Heartbeat CPU 0 instructions: 61000003 cycles: 67736462 heartbeat IPC: 0.57313 cumulative IPC: 0.809655 (Simulation time: 0 hr 27 min 13 sec) 
select_counter is 1023
Heartbeat CPU 0 instructions: 62000002 cycles: 69290716 heartbeat IPC: 0.643395 cumulative IPC: 0.805651 (Simulation time: 0 hr 27 min 35 sec) 
select_counter is 1023
Heartbeat CPU 0 instructions: 63000003 cycles: 70685765 heartbeat IPC: 0.716821 cumulative IPC: 0.803772 (Simulation time: 0 hr 27 min 57 sec) 
select_counter is 1022
Heartbeat CPU 0 instructions: 64000000 cycles: 72261368 heartbeat IPC: 0.634676 cumulative IPC: 0.799825 (Simulation time: 0 hr 28 min 21 sec) 
select_counter is 1023
Heartbeat CPU 0 instructions: 65000003 cycles: 73519343 heartbeat IPC: 0.794931 cumulative IPC: 0.799736 (Simulation time: 0 hr 28 min 47 sec) 
select_counter is 1022
Heartbeat CPU 0 instructions: 66000000 cycles: 74856274 heartbeat IPC: 0.74798 cumulative IPC: 0.798749 (Simulation time: 0 hr 29 min 18 sec) 
select_counter is 1023
Heartbeat CPU 0 instructions: 67000000 cycles: 75807818 heartbeat IPC: 1.05092 cumulative IPC: 0.802126 (Simulation time: 0 hr 29 min 41 sec) 
select_counter is 1023
Heartbeat CPU 0 instructions: 68000000 cycles: 77214226 heartbeat IPC: 0.711031 cumulative IPC: 0.800358 (Simulation time: 0 hr 30 min 3 sec) 
select_counter is 1021
Heartbeat CPU 0 instructions: 69000000 cycles: 78790772 heartbeat IPC: 0.634298 cumulative IPC: 0.796822 (Simulation time: 0 hr 30 min 26 sec) 
select_counter is 1023
Heartbeat CPU 0 instructions: 70000002 cycles: 80277993 heartbeat IPC: 0.672396 cumulative IPC: 0.794372 (Simulation time: 0 hr 30 min 52 sec) 
select_counter is 1020
Heartbeat CPU 0 instructions: 71000000 cycles: 81859011 heartbeat IPC: 0.632503 cumulative IPC: 0.791053 (Simulation time: 0 hr 31 min 18 sec) 
select_counter is 1022
Heartbeat CPU 0 instructions: 72000000 cycles: 83228641 heartbeat IPC: 0.730124 cumulative IPC: 0.78999 (Simulation time: 0 hr 31 min 44 sec) 
select_counter is 1023
Heartbeat CPU 0 instructions: 73000001 cycles: 84522256 heartbeat IPC: 0.773028 cumulative IPC: 0.789715 (Simulation time: 0 hr 32 min 10 sec) 
select_counter is 1023
Heartbeat CPU 0 instructions: 74000000 cycles: 85693953 heartbeat IPC: 0.853462 cumulative IPC: 0.790638 (Simulation time: 0 hr 32 min 36 sec) 
select_counter is 1021
Heartbeat CPU 0 instructions: 75000001 cycles: 87112583 heartbeat IPC: 0.704906 cumulative IPC: 0.789161 (Simulation time: 0 hr 33 min 0 sec) 
select_counter is 1023
Heartbeat CPU 0 instructions: 76000000 cycles: 88257758 heartbeat IPC: 0.873228 cumulative IPC: 0.790314 (Simulation time: 0 hr 33 min 24 sec) 
select_counter is 1023
Heartbeat CPU 0 instructions: 77000003 cycles: 89433770 heartbeat IPC: 0.850334 cumulative IPC: 0.791147 (Simulation time: 0 hr 33 min 48 sec) 
select_counter is 1022
Heartbeat CPU 0 instructions: 78000000 cycles: 90778178 heartbeat IPC: 0.74382 cumulative IPC: 0.790408 (Simulation time: 0 hr 34 min 9 sec) 
select_counter is 1023
Heartbeat CPU 0 instructions: 79000000 cycles: 92125605 heartbeat IPC: 0.742155 cumulative IPC: 0.789664 (Simulation time: 0 hr 34 min 34 sec) 
select_counter is 1021
Heartbeat CPU 0 instructions: 80000000 cycles: 93515739 heartbeat IPC: 0.719355 cumulative IPC: 0.788563 (Simulation time: 0 hr 35 min 1 sec) 
select_counter is 1022
Heartbeat CPU 0 instructions: 81000000 cycles: 95213262 heartbeat IPC: 0.589094 cumulative IPC: 0.78482 (Simulation time: 0 hr 35 min 26 sec) 
select_counter is 1023
Heartbeat CPU 0 instructions: 82000002 cycles: 96767875 heartbeat IPC: 0.643248 cumulative IPC: 0.782428 (Simulation time: 0 hr 35 min 49 sec) 
select_counter is 1016
Heartbeat CPU 0 instructions: 83000000 cycles: 97921282 heartbeat IPC: 0.866995 cumulative IPC: 0.783475 (Simulation time: 0 hr 36 min 17 sec) 
select_counter is 1023
Heartbeat CPU 0 instructions: 84000000 cycles: 98873525 heartbeat IPC: 1.05015 cumulative IPC: 0.786173 (Simulation time: 0 hr 36 min 40 sec) 
select_counter is 1023
Heartbeat CPU 0 instructions: 85000002 cycles: 99918611 heartbeat IPC: 0.956861 cumulative IPC: 0.788047 (Simulation time: 0 hr 37 min 3 sec) 
select_counter is 1023
Heartbeat CPU 0 instructions: 86000002 cycles: 100897138 heartbeat IPC: 1.02194 cumulative IPC: 0.790427 (Simulation time: 0 hr 37 min 30 sec) 
select_counter is 1023
Heartbeat CPU 0 instructions: 87000001 cycles: 101919677 heartbeat IPC: 0.977957 cumulative IPC: 0.792401 (Simulation time: 0 hr 37 min 59 sec) 
select_counter is 1023
Heartbeat CPU 0 instructions: 88000000 cycles: 103214673 heartbeat IPC: 0.772202 cumulative IPC: 0.792135 (Simulation time: 0 hr 38 min 24 sec) 
select_counter is 1023
Heartbeat CPU 0 instructions: 89000000 cycles: 104731087 heartbeat IPC: 0.659451 cumulative IPC: 0.790123 (Simulation time: 0 hr 38 min 51 sec) 
select_counter is 1022
Heartbeat CPU 0 instructions: 90000002 cycles: 106230625 heartbeat IPC: 0.666873 cumulative IPC: 0.788302 (Simulation time: 0 hr 39 min 16 sec) 
select_counter is 1022
Heartbeat CPU 0 instructions: 91000000 cycles: 107939470 heartbeat IPC: 0.585189 cumulative IPC: 0.784938 (Simulation time: 0 hr 39 min 43 sec) 
select_counter is 1020
Heartbeat CPU 0 instructions: 92000000 cycles: 109440210 heartbeat IPC: 0.666338 cumulative IPC: 0.783238 (Simulation time: 0 hr 40 min 9 sec) 
select_counter is 1022
Heartbeat CPU 0 instructions: 93000001 cycles: 110705252 heartbeat IPC: 0.790488 cumulative IPC: 0.783325 (Simulation time: 0 hr 40 min 39 sec) 
select_counter is 1023
Heartbeat CPU 0 instructions: 94000000 cycles: 112458540 heartbeat IPC: 0.570356 cumulative IPC: 0.779858 (Simulation time: 0 hr 41 min 3 sec) 
select_counter is 1018
Heartbeat CPU 0 instructions: 95000002 cycles: 114071564 heartbeat IPC: 0.619955 cumulative IPC: 0.777499 (Simulation time: 0 hr 41 min 30 sec) 
select_counter is 1023
Heartbeat CPU 0 instructions: 96000000 cycles: 115680307 heartbeat IPC: 0.621602 cumulative IPC: 0.775238 (Simulation time: 0 hr 41 min 56 sec) 
select_counter is 1022
Heartbeat CPU 0 instructions: 97000000 cycles: 117088270 heartbeat IPC: 0.710246 cumulative IPC: 0.774423 (Simulation time: 0 hr 42 min 19 sec) 
select_counter is 1023
Heartbeat CPU 0 instructions: 98000000 cycles: 118366632 heartbeat IPC: 0.782251 cumulative IPC: 0.774512 (Simulation time: 0 hr 42 min 42 sec) 
select_counter is 1023
Heartbeat CPU 0 instructions: 99000003 cycles: 119496221 heartbeat IPC: 0.88528 cumulative IPC: 0.775602 (Simulation time: 0 hr 43 min 10 sec) 
select_counter is 1023
Heartbeat CPU 0 instructions: 100000000 cycles: 120991750 heartbeat IPC: 0.668658 cumulative IPC: 0.774226 (Simulation time: 0 hr 43 min 31 sec) 
select_counter is 1021
Heartbeat CPU 0 instructions: 101000000 cycles: 122501217 heartbeat IPC: 0.662485 cumulative IPC: 0.772794 (Simulation time: 0 hr 43 min 53 sec) 
select_counter is 1023
Heartbeat CPU 0 instructions: 102000001 cycles: 124199278 heartbeat IPC: 0.588908 cumulative IPC: 0.77018 (Simulation time: 0 hr 44 min 13 sec) 
select_counter is 1022
Heartbeat CPU 0 instructions: 103000002 cycles: 125524777 heartbeat IPC: 0.754434 cumulative IPC: 0.770007 (Simulation time: 0 hr 44 min 38 sec) 
select_counter is 1022
Heartbeat CPU 0 instructions: 104000000 cycles: 127243021 heartbeat IPC: 0.581988 cumulative IPC: 0.76737 (Simulation time: 0 hr 45 min 1 sec) 
select_counter is 1019
Heartbeat CPU 0 instructions: 105000002 cycles: 128216411 heartbeat IPC: 1.02734 cumulative IPC: 0.769419 (Simulation time: 0 hr 45 min 25 sec) 
select_counter is 1020
Heartbeat CPU 0 instructions: 106000000 cycles: 129750931 heartbeat IPC: 0.651668 cumulative IPC: 0.767974 (Simulation time: 0 hr 45 min 46 sec) 
select_counter is 1023
Heartbeat CPU 0 instructions: 107000002 cycles: 131316073 heartbeat IPC: 0.638921 cumulative IPC: 0.766378 (Simulation time: 0 hr 46 min 8 sec) 
select_counter is 1022
Heartbeat CPU 0 instructions: 108000000 cycles: 132639440 heartbeat IPC: 0.755647 cumulative IPC: 0.766267 (Simulation time: 0 hr 46 min 33 sec) 
select_counter is 1021
Heartbeat CPU 0 instructions: 109000002 cycles: 134345655 heartbeat IPC: 0.586094 cumulative IPC: 0.763895 (Simulation time: 0 hr 46 min 55 sec) 
select_counter is 1023
Heartbeat CPU 0 instructions: 110000000 cycles: 135577285 heartbeat IPC: 0.811931 cumulative IPC: 0.764347 (Simulation time: 0 hr 47 min 17 sec) 
select_counter is 1021
Finished CPU 0 instructions: 100000003 cycles: 130830655 cummulative IPC: 0.764347 (Simulation time: 0 hr 47 min 17 sec) 

ChampSim completed all CPUs

Region of Interest Statistics

CPU 0 cummulative IPC: 0.764347 instructions: 100000003 cycles: 130830655
LLC TOTAL     ACCESS:    1570643  HIT:    1378009  MISS:     192634
LLC LOAD      ACCESS:     429855  HIT:     397668  MISS:      32187
LLC RFO       ACCESS:     294161  HIT:     239942  MISS:      54219
LLC PREFETCH  ACCESS:     520655  HIT:     440559  MISS:      80096
LLC WRITEBACK ACCESS:     325972  HIT:     299840  MISS:      26132
Ship samples: 
8, 47, 67, 123, 134, 164, 222, 227, 266, 297, 329, 358, 403, 434, 455, 480, 536, 553, 607, 619, 669, 694, 716, 748, 775, 823, 860, 883, 900, 935, 974, 1009, 1032, 1085, 1118, 1132, 1176, 1206, 1245, 1274, 1304, 1333, 1359, 1380, 1421, 1470, 1491, 1505, 1545, 1570, 1608, 1634, 1682, 1701, 1755, 1779, 1809, 1831, 1873, 1907, 1943, 1978, 1984, 2022, 
Lime duel samples: 
23, 127, 209, 301, 386, 489, 599, 687, 790, 893, 971, 1082, 1179, 1250, 1364, 1451, 1563, 1647, 1743, 1833, 1951, 
Lime samples: 
23, 127, 209, 301, 386, 489, 599, 687, 790, 893, 971, 1082, 1179, 1250, 1364, 1451, 1563, 1647, 1743, 1833, 1951, 
Insertion Distribution: 
	LOAD 693 0 0 0 0 0 251 25 
	RFO 1184 0 0 0 0 0 835 296 
	PREF 0 492 0 0 0 0 657 1095 
	WRITEBACK 0 0 0 0 0 0 0 318 
Total Prefetch Downgrades: 631
