
*** ChampSim Multicore Out-of-Order Simulator ***

Warmup Instructions: 10000000
Simulation Instructions: 100000000
Configuration: 2
Number of CPUs: 1
LLC sets: 2048
LLC ways: 16
Off-chip DRAM Channels: 1 Width: 64-bit Data Rate: 1600 MT/s

CPU 0 runs /datasets/cs240c-wi22-a00-public/data/Assignment2-gz/zeusmp_300B.trace.gz
CPU 0 L1D next line prefetcher
CPU 0 L2C IP-based stride prefetcher
Heartbeat CPU 0 instructions: 1000003 cycles: 509548 heartbeat IPC: 1.96253 cumulative IPC: 1.96253 (Simulation time: 0 hr 0 min 24 sec) 
select_counter is 652
Heartbeat CPU 0 instructions: 2000003 cycles: 1061749 heartbeat IPC: 1.81093 cumulative IPC: 1.88369 (Simulation time: 0 hr 0 min 50 sec) 
select_counter is 724
Heartbeat CPU 0 instructions: 3000002 cycles: 1605661 heartbeat IPC: 1.83853 cumulative IPC: 1.86839 (Simulation time: 0 hr 1 min 16 sec) 
select_counter is 822
Heartbeat CPU 0 instructions: 4000000 cycles: 2092449 heartbeat IPC: 2.05428 cumulative IPC: 1.91164 (Simulation time: 0 hr 1 min 39 sec) 
select_counter is 868
Heartbeat CPU 0 instructions: 5000001 cycles: 2575136 heartbeat IPC: 2.07174 cumulative IPC: 1.94165 (Simulation time: 0 hr 2 min 5 sec) 
select_counter is 918
Heartbeat CPU 0 instructions: 6000000 cycles: 3061837 heartbeat IPC: 2.05465 cumulative IPC: 1.95961 (Simulation time: 0 hr 2 min 31 sec) 
select_counter is 984
Heartbeat CPU 0 instructions: 7000001 cycles: 3589989 heartbeat IPC: 1.8934 cumulative IPC: 1.94987 (Simulation time: 0 hr 2 min 59 sec) 
select_counter is 1023
Heartbeat CPU 0 instructions: 8000000 cycles: 4144006 heartbeat IPC: 1.805 cumulative IPC: 1.9305 (Simulation time: 0 hr 3 min 26 sec) 
select_counter is 1023
Heartbeat CPU 0 instructions: 9000000 cycles: 4671910 heartbeat IPC: 1.89428 cumulative IPC: 1.92641 (Simulation time: 0 hr 3 min 51 sec) 
select_counter is 1023
Heartbeat CPU 0 instructions: 10000002 cycles: 5158236 heartbeat IPC: 2.05624 cumulative IPC: 1.93865 (Simulation time: 0 hr 4 min 18 sec) 
select_counter is 1023

Warmup complete CPU 0 instructions: 10000002 cycles: 5158236 (Simulation time: 0 hr 4 min 18 sec) 

Heartbeat CPU 0 instructions: 11000003 cycles: 5864404 heartbeat IPC: 1.4161 cumulative IPC: 1.4161 (Simulation time: 0 hr 4 min 48 sec) 
select_counter is 1023
Heartbeat CPU 0 instructions: 12000000 cycles: 6566136 heartbeat IPC: 1.42504 cumulative IPC: 1.42055 (Simulation time: 0 hr 5 min 13 sec) 
select_counter is 1021
Heartbeat CPU 0 instructions: 13000000 cycles: 7370011 heartbeat IPC: 1.24397 cumulative IPC: 1.35638 (Simulation time: 0 hr 5 min 43 sec) 
select_counter is 1023
Heartbeat CPU 0 instructions: 14000000 cycles: 8181997 heartbeat IPC: 1.23155 cumulative IPC: 1.32286 (Simulation time: 0 hr 6 min 12 sec) 
select_counter is 1023
Heartbeat CPU 0 instructions: 15000002 cycles: 8920112 heartbeat IPC: 1.35481 cumulative IPC: 1.32912 (Simulation time: 0 hr 6 min 41 sec) 
select_counter is 1023
Heartbeat CPU 0 instructions: 16000000 cycles: 9621626 heartbeat IPC: 1.42549 cumulative IPC: 1.34427 (Simulation time: 0 hr 7 min 9 sec) 
select_counter is 1023
Heartbeat CPU 0 instructions: 17000003 cycles: 10327339 heartbeat IPC: 1.41701 cumulative IPC: 1.3542 (Simulation time: 0 hr 7 min 36 sec) 
select_counter is 1023
Heartbeat CPU 0 instructions: 18000000 cycles: 11044278 heartbeat IPC: 1.39481 cumulative IPC: 1.35915 (Simulation time: 0 hr 8 min 3 sec) 
select_counter is 1023
Heartbeat CPU 0 instructions: 19000003 cycles: 11859345 heartbeat IPC: 1.2269 cumulative IPC: 1.34306 (Simulation time: 0 hr 8 min 30 sec) 
select_counter is 1023
Heartbeat CPU 0 instructions: 20000000 cycles: 12670373 heartbeat IPC: 1.233 cumulative IPC: 1.33118 (Simulation time: 0 hr 9 min 0 sec) 
select_counter is 1023
Heartbeat CPU 0 instructions: 21000001 cycles: 13380933 heartbeat IPC: 1.40734 cumulative IPC: 1.33776 (Simulation time: 0 hr 9 min 27 sec) 
select_counter is 1023
Heartbeat CPU 0 instructions: 22000000 cycles: 14085752 heartbeat IPC: 1.4188 cumulative IPC: 1.34416 (Simulation time: 0 hr 9 min 54 sec) 
select_counter is 1023
Heartbeat CPU 0 instructions: 23000001 cycles: 14788560 heartbeat IPC: 1.42287 cumulative IPC: 1.3499 (Simulation time: 0 hr 10 min 21 sec) 
select_counter is 1023
Heartbeat CPU 0 instructions: 24000000 cycles: 15537511 heartbeat IPC: 1.3352 cumulative IPC: 1.34884 (Simulation time: 0 hr 10 min 47 sec) 
select_counter is 1023
Heartbeat CPU 0 instructions: 25000000 cycles: 16348578 heartbeat IPC: 1.23294 cumulative IPC: 1.34044 (Simulation time: 0 hr 11 min 16 sec) 
select_counter is 1023
Heartbeat CPU 0 instructions: 26000000 cycles: 17150761 heartbeat IPC: 1.2466 cumulative IPC: 1.33416 (Simulation time: 0 hr 11 min 43 sec) 
select_counter is 1022
Heartbeat CPU 0 instructions: 27000002 cycles: 17852818 heartbeat IPC: 1.42439 cumulative IPC: 1.33915 (Simulation time: 0 hr 12 min 9 sec) 
select_counter is 1022
Heartbeat CPU 0 instructions: 28000000 cycles: 18557886 heartbeat IPC: 1.4183 cumulative IPC: 1.34332 (Simulation time: 0 hr 12 min 35 sec) 
select_counter is 1023
Heartbeat CPU 0 instructions: 29000003 cycles: 19261124 heartbeat IPC: 1.422 cumulative IPC: 1.34724 (Simulation time: 0 hr 13 min 3 sec) 
select_counter is 1023
Heartbeat CPU 0 instructions: 30000002 cycles: 20033491 heartbeat IPC: 1.29472 cumulative IPC: 1.34451 (Simulation time: 0 hr 13 min 29 sec) 
select_counter is 1023
Heartbeat CPU 0 instructions: 31000001 cycles: 20848751 heartbeat IPC: 1.2266 cumulative IPC: 1.33839 (Simulation time: 0 hr 13 min 58 sec) 
select_counter is 1023
Heartbeat CPU 0 instructions: 32000000 cycles: 21622742 heartbeat IPC: 1.292 cumulative IPC: 1.33621 (Simulation time: 0 hr 14 min 26 sec) 
select_counter is 1023
Heartbeat CPU 0 instructions: 33000000 cycles: 22324546 heartbeat IPC: 1.4249 cumulative IPC: 1.33983 (Simulation time: 0 hr 14 min 53 sec) 
select_counter is 1023
Heartbeat CPU 0 instructions: 34000000 cycles: 23033979 heartbeat IPC: 1.40958 cumulative IPC: 1.3426 (Simulation time: 0 hr 15 min 21 sec) 
select_counter is 1023
Heartbeat CPU 0 instructions: 35000000 cycles: 23735870 heartbeat IPC: 1.42472 cumulative IPC: 1.3457 (Simulation time: 0 hr 15 min 48 sec) 
select_counter is 1023
Heartbeat CPU 0 instructions: 36000000 cycles: 24533029 heartbeat IPC: 1.25445 cumulative IPC: 1.34195 (Simulation time: 0 hr 16 min 18 sec) 
select_counter is 1023
Heartbeat CPU 0 instructions: 37000003 cycles: 25348177 heartbeat IPC: 1.22677 cumulative IPC: 1.3373 (Simulation time: 0 hr 16 min 47 sec) 
select_counter is 1022
Heartbeat CPU 0 instructions: 38000001 cycles: 26103047 heartbeat IPC: 1.32473 cumulative IPC: 1.33685 (Simulation time: 0 hr 17 min 15 sec) 
select_counter is 1023
Heartbeat CPU 0 instructions: 39000002 cycles: 26804951 heartbeat IPC: 1.4247 cumulative IPC: 1.3397 (Simulation time: 0 hr 17 min 44 sec) 
select_counter is 1023
Heartbeat CPU 0 instructions: 40000000 cycles: 27514528 heartbeat IPC: 1.40929 cumulative IPC: 1.3419 (Simulation time: 0 hr 18 min 8 sec) 
select_counter is 1022
Heartbeat CPU 0 instructions: 41000001 cycles: 28215478 heartbeat IPC: 1.42664 cumulative IPC: 1.34448 (Simulation time: 0 hr 18 min 33 sec) 
select_counter is 1022
Heartbeat CPU 0 instructions: 42000001 cycles: 29041909 heartbeat IPC: 1.21002 cumulative IPC: 1.33983 (Simulation time: 0 hr 19 min 1 sec) 
select_counter is 1022
Heartbeat CPU 0 instructions: 43000000 cycles: 29852144 heartbeat IPC: 1.23421 cumulative IPC: 1.33636 (Simulation time: 0 hr 19 min 26 sec) 
select_counter is 1022
Heartbeat CPU 0 instructions: 44000000 cycles: 30575767 heartbeat IPC: 1.38194 cumulative IPC: 1.33766 (Simulation time: 0 hr 19 min 53 sec) 
select_counter is 1022
Heartbeat CPU 0 instructions: 45000002 cycles: 31281147 heartbeat IPC: 1.41768 cumulative IPC: 1.33982 (Simulation time: 0 hr 20 min 20 sec) 
select_counter is 1022
Heartbeat CPU 0 instructions: 46000002 cycles: 31985656 heartbeat IPC: 1.41943 cumulative IPC: 1.34191 (Simulation time: 0 hr 20 min 47 sec) 
select_counter is 1023
Heartbeat CPU 0 instructions: 47000001 cycles: 32723646 heartbeat IPC: 1.35503 cumulative IPC: 1.34226 (Simulation time: 0 hr 21 min 15 sec) 
select_counter is 1023
Heartbeat CPU 0 instructions: 48000000 cycles: 33534402 heartbeat IPC: 1.23342 cumulative IPC: 1.33915 (Simulation time: 0 hr 21 min 41 sec) 
select_counter is 1023
Heartbeat CPU 0 instructions: 49000003 cycles: 34340730 heartbeat IPC: 1.24019 cumulative IPC: 1.33642 (Simulation time: 0 hr 22 min 10 sec) 
select_counter is 1021
Heartbeat CPU 0 instructions: 50000001 cycles: 35042233 heartbeat IPC: 1.42551 cumulative IPC: 1.33851 (Simulation time: 0 hr 22 min 39 sec) 
select_counter is 1022
Heartbeat CPU 0 instructions: 51000002 cycles: 35746120 heartbeat IPC: 1.42068 cumulative IPC: 1.3404 (Simulation time: 0 hr 23 min 7 sec) 
select_counter is 1023
Heartbeat CPU 0 instructions: 52000000 cycles: 36450744 heartbeat IPC: 1.41919 cumulative IPC: 1.34217 (Simulation time: 0 hr 23 min 34 sec) 
select_counter is 1023
Heartbeat CPU 0 instructions: 53000000 cycles: 37214840 heartbeat IPC: 1.30874 cumulative IPC: 1.34138 (Simulation time: 0 hr 24 min 3 sec) 
select_counter is 1023
Heartbeat CPU 0 instructions: 54000002 cycles: 38024677 heartbeat IPC: 1.23482 cumulative IPC: 1.33875 (Simulation time: 0 hr 24 min 27 sec) 
select_counter is 1023
Heartbeat CPU 0 instructions: 55000001 cycles: 38807312 heartbeat IPC: 1.27773 cumulative IPC: 1.33733 (Simulation time: 0 hr 24 min 54 sec) 
select_counter is 1023
Heartbeat CPU 0 instructions: 56000000 cycles: 39511601 heartbeat IPC: 1.41987 cumulative IPC: 1.33902 (Simulation time: 0 hr 25 min 22 sec) 
select_counter is 1023
Heartbeat CPU 0 instructions: 57000000 cycles: 40216735 heartbeat IPC: 1.41817 cumulative IPC: 1.34062 (Simulation time: 0 hr 25 min 48 sec) 
select_counter is 1023
Heartbeat CPU 0 instructions: 58000000 cycles: 40922821 heartbeat IPC: 1.41626 cumulative IPC: 1.34211 (Simulation time: 0 hr 26 min 15 sec) 
select_counter is 1023
Heartbeat CPU 0 instructions: 59000003 cycles: 41708162 heartbeat IPC: 1.27334 cumulative IPC: 1.34063 (Simulation time: 0 hr 26 min 39 sec) 
select_counter is 1023
Heartbeat CPU 0 instructions: 60000000 cycles: 42519824 heartbeat IPC: 1.23204 cumulative IPC: 1.33827 (Simulation time: 0 hr 27 min 8 sec) 
select_counter is 1022
Heartbeat CPU 0 instructions: 61000000 cycles: 43277964 heartbeat IPC: 1.31902 cumulative IPC: 1.33789 (Simulation time: 0 hr 27 min 33 sec) 
select_counter is 1022
Heartbeat CPU 0 instructions: 62000002 cycles: 43981964 heartbeat IPC: 1.42046 cumulative IPC: 1.33939 (Simulation time: 0 hr 28 min 1 sec) 
select_counter is 1021
Heartbeat CPU 0 instructions: 63000003 cycles: 44685939 heartbeat IPC: 1.42051 cumulative IPC: 1.34083 (Simulation time: 0 hr 28 min 27 sec) 
select_counter is 1023
Heartbeat CPU 0 instructions: 64000000 cycles: 45388245 heartbeat IPC: 1.42388 cumulative IPC: 1.34228 (Simulation time: 0 hr 28 min 54 sec) 
select_counter is 1023
Heartbeat CPU 0 instructions: 65000003 cycles: 46202947 heartbeat IPC: 1.22745 cumulative IPC: 1.34 (Simulation time: 0 hr 29 min 24 sec) 
select_counter is 1022
Heartbeat CPU 0 instructions: 66000003 cycles: 47014954 heartbeat IPC: 1.23152 cumulative IPC: 1.3379 (Simulation time: 0 hr 29 min 50 sec) 
select_counter is 1023
Heartbeat CPU 0 instructions: 67000002 cycles: 47749109 heartbeat IPC: 1.36211 cumulative IPC: 1.33831 (Simulation time: 0 hr 30 min 15 sec) 
select_counter is 1023
Heartbeat CPU 0 instructions: 68000000 cycles: 48455727 heartbeat IPC: 1.41519 cumulative IPC: 1.33957 (Simulation time: 0 hr 30 min 44 sec) 
select_counter is 1022
Heartbeat CPU 0 instructions: 69000000 cycles: 49165317 heartbeat IPC: 1.40926 cumulative IPC: 1.34069 (Simulation time: 0 hr 31 min 12 sec) 
select_counter is 1023
Heartbeat CPU 0 instructions: 70000001 cycles: 49900684 heartbeat IPC: 1.35987 cumulative IPC: 1.34101 (Simulation time: 0 hr 31 min 37 sec) 
select_counter is 1023
Heartbeat CPU 0 instructions: 71000001 cycles: 50708395 heartbeat IPC: 1.23807 cumulative IPC: 1.33918 (Simulation time: 0 hr 32 min 4 sec) 
select_counter is 1023
Heartbeat CPU 0 instructions: 72000000 cycles: 51518496 heartbeat IPC: 1.23441 cumulative IPC: 1.33735 (Simulation time: 0 hr 32 min 34 sec) 
select_counter is 1023
Heartbeat CPU 0 instructions: 73000003 cycles: 52230216 heartbeat IPC: 1.40505 cumulative IPC: 1.33838 (Simulation time: 0 hr 33 min 0 sec) 
select_counter is 1023
Heartbeat CPU 0 instructions: 74000001 cycles: 52936610 heartbeat IPC: 1.41564 cumulative IPC: 1.33952 (Simulation time: 0 hr 33 min 26 sec) 
select_counter is 1023
Heartbeat CPU 0 instructions: 75000003 cycles: 53644923 heartbeat IPC: 1.41181 cumulative IPC: 1.34057 (Simulation time: 0 hr 33 min 48 sec) 
select_counter is 1022
Heartbeat CPU 0 instructions: 76000000 cycles: 54402767 heartbeat IPC: 1.31953 cumulative IPC: 1.34025 (Simulation time: 0 hr 34 min 14 sec) 
select_counter is 1023
Heartbeat CPU 0 instructions: 77000001 cycles: 55213032 heartbeat IPC: 1.23417 cumulative IPC: 1.33853 (Simulation time: 0 hr 34 min 41 sec) 
select_counter is 1022
Heartbeat CPU 0 instructions: 78000003 cycles: 56002182 heartbeat IPC: 1.26719 cumulative IPC: 1.33743 (Simulation time: 0 hr 35 min 9 sec) 
select_counter is 1023
Heartbeat CPU 0 instructions: 79000001 cycles: 56705662 heartbeat IPC: 1.4215 cumulative IPC: 1.33857 (Simulation time: 0 hr 35 min 33 sec) 
select_counter is 1022
Heartbeat CPU 0 instructions: 80000000 cycles: 57410355 heartbeat IPC: 1.41906 cumulative IPC: 1.33966 (Simulation time: 0 hr 35 min 59 sec) 
select_counter is 1021
Heartbeat CPU 0 instructions: 81000000 cycles: 58111110 heartbeat IPC: 1.42703 cumulative IPC: 1.34081 (Simulation time: 0 hr 36 min 23 sec) 
select_counter is 1023
Heartbeat CPU 0 instructions: 82000002 cycles: 58889578 heartbeat IPC: 1.28458 cumulative IPC: 1.34 (Simulation time: 0 hr 36 min 50 sec) 
select_counter is 1023
Heartbeat CPU 0 instructions: 83000001 cycles: 59699098 heartbeat IPC: 1.2353 cumulative IPC: 1.33845 (Simulation time: 0 hr 37 min 16 sec) 
select_counter is 1023
Heartbeat CPU 0 instructions: 84000000 cycles: 60462289 heartbeat IPC: 1.31029 cumulative IPC: 1.33806 (Simulation time: 0 hr 37 min 43 sec) 
select_counter is 1023
Heartbeat CPU 0 instructions: 85000001 cycles: 61165757 heartbeat IPC: 1.42153 cumulative IPC: 1.33911 (Simulation time: 0 hr 38 min 9 sec) 
select_counter is 1023
Heartbeat CPU 0 instructions: 86000002 cycles: 61870989 heartbeat IPC: 1.41797 cumulative IPC: 1.34009 (Simulation time: 0 hr 38 min 36 sec) 
select_counter is 1023
Heartbeat CPU 0 instructions: 87000000 cycles: 62576575 heartbeat IPC: 1.41726 cumulative IPC: 1.34103 (Simulation time: 0 hr 39 min 0 sec) 
select_counter is 1022
Heartbeat CPU 0 instructions: 88000000 cycles: 63381838 heartbeat IPC: 1.24183 cumulative IPC: 1.33966 (Simulation time: 0 hr 39 min 28 sec) 
select_counter is 1023
Heartbeat CPU 0 instructions: 89000000 cycles: 64193528 heartbeat IPC: 1.232 cumulative IPC: 1.33818 (Simulation time: 0 hr 40 min 0 sec) 
select_counter is 1023
Heartbeat CPU 0 instructions: 90000002 cycles: 64935388 heartbeat IPC: 1.34797 cumulative IPC: 1.3383 (Simulation time: 0 hr 40 min 26 sec) 
select_counter is 1023
Heartbeat CPU 0 instructions: 91000002 cycles: 65643239 heartbeat IPC: 1.41273 cumulative IPC: 1.33917 (Simulation time: 0 hr 40 min 50 sec) 
select_counter is 1023
Heartbeat CPU 0 instructions: 92000000 cycles: 66350819 heartbeat IPC: 1.41326 cumulative IPC: 1.34003 (Simulation time: 0 hr 41 min 15 sec) 
select_counter is 1020
Heartbeat CPU 0 instructions: 93000001 cycles: 67052101 heartbeat IPC: 1.42596 cumulative IPC: 1.34101 (Simulation time: 0 hr 41 min 40 sec) 
select_counter is 1023
Heartbeat CPU 0 instructions: 94000000 cycles: 67878803 heartbeat IPC: 1.20962 cumulative IPC: 1.33927 (Simulation time: 0 hr 42 min 6 sec) 
select_counter is 1023
Heartbeat CPU 0 instructions: 95000003 cycles: 68690279 heartbeat IPC: 1.23233 cumulative IPC: 1.33791 (Simulation time: 0 hr 42 min 32 sec) 
select_counter is 1023
Heartbeat CPU 0 instructions: 96000000 cycles: 69408813 heartbeat IPC: 1.39172 cumulative IPC: 1.33851 (Simulation time: 0 hr 42 min 55 sec) 
select_counter is 1023
Heartbeat CPU 0 instructions: 97000001 cycles: 70116501 heartbeat IPC: 1.41305 cumulative IPC: 1.33932 (Simulation time: 0 hr 43 min 19 sec) 
select_counter is 1022
Heartbeat CPU 0 instructions: 98000000 cycles: 70825497 heartbeat IPC: 1.41044 cumulative IPC: 1.34009 (Simulation time: 0 hr 43 min 47 sec) 
select_counter is 1023
Heartbeat CPU 0 instructions: 99000001 cycles: 71572995 heartbeat IPC: 1.3378 cumulative IPC: 1.34006 (Simulation time: 0 hr 44 min 10 sec) 
select_counter is 1023
Heartbeat CPU 0 instructions: 100000000 cycles: 72384265 heartbeat IPC: 1.23263 cumulative IPC: 1.33877 (Simulation time: 0 hr 44 min 33 sec) 
select_counter is 1021
Heartbeat CPU 0 instructions: 101000001 cycles: 73188141 heartbeat IPC: 1.24397 cumulative IPC: 1.33765 (Simulation time: 0 hr 45 min 0 sec) 
select_counter is 1023
Heartbeat CPU 0 instructions: 102000003 cycles: 73892864 heartbeat IPC: 1.419 cumulative IPC: 1.33848 (Simulation time: 0 hr 45 min 23 sec) 
select_counter is 1023
Heartbeat CPU 0 instructions: 103000003 cycles: 74602173 heartbeat IPC: 1.40982 cumulative IPC: 1.33921 (Simulation time: 0 hr 45 min 45 sec) 
select_counter is 1022
Heartbeat CPU 0 instructions: 104000000 cycles: 75305782 heartbeat IPC: 1.42124 cumulative IPC: 1.34003 (Simulation time: 0 hr 46 min 9 sec) 
select_counter is 1021
Heartbeat CPU 0 instructions: 105000001 cycles: 76082084 heartbeat IPC: 1.28816 cumulative IPC: 1.33946 (Simulation time: 0 hr 46 min 31 sec) 
select_counter is 1022
Heartbeat CPU 0 instructions: 106000002 cycles: 76889243 heartbeat IPC: 1.23891 cumulative IPC: 1.33833 (Simulation time: 0 hr 46 min 54 sec) 
select_counter is 1023
Heartbeat CPU 0 instructions: 107000003 cycles: 77665936 heartbeat IPC: 1.28751 cumulative IPC: 1.33779 (Simulation time: 0 hr 47 min 18 sec) 
select_counter is 1023
Heartbeat CPU 0 instructions: 108000000 cycles: 78370736 heartbeat IPC: 1.41884 cumulative IPC: 1.33857 (Simulation time: 0 hr 47 min 41 sec) 
select_counter is 1021
Heartbeat CPU 0 instructions: 109000001 cycles: 79077524 heartbeat IPC: 1.41485 cumulative IPC: 1.3393 (Simulation time: 0 hr 48 min 1 sec) 
select_counter is 1023
Heartbeat CPU 0 instructions: 110000000 cycles: 79782211 heartbeat IPC: 1.41907 cumulative IPC: 1.34005 (Simulation time: 0 hr 48 min 23 sec) 
select_counter is 1023
Finished CPU 0 instructions: 100000002 cycles: 74623976 cummulative IPC: 1.34005 (Simulation time: 0 hr 48 min 23 sec) 

ChampSim completed all CPUs

Region of Interest Statistics

CPU 0 cummulative IPC: 1.34005 instructions: 100000002 cycles: 74623976
LLC TOTAL     ACCESS:     631662  HIT:     285531  MISS:     346131
LLC LOAD      ACCESS:      35210  HIT:       8041  MISS:      27169
LLC RFO       ACCESS:     152068  HIT:      75545  MISS:      76523
LLC PREFETCH  ACCESS:     288583  HIT:      72791  MISS:     215792
LLC WRITEBACK ACCESS:     155801  HIT:     129154  MISS:      26647
Ship samples: 
17, 59, 78, 105, 147, 177, 211, 252, 259, 303, 351, 355, 392, 433, 468, 505, 522, 559, 587, 637, 651, 692, 722, 744, 793, 806, 859, 877, 925, 957, 985, 996, 1029, 1079, 1114, 1128, 1162, 1211, 1230, 1268, 1304, 1313, 1369, 1407, 1410, 1464, 1492, 1516, 1563, 1579, 1618, 1658, 1679, 1703, 1737, 1785, 1806, 1838, 1881, 1909, 1942, 1969, 2001, 2043, 
Lime duel samples: 
0, 118, 214, 296, 405, 507, 600, 687, 790, 873, 977, 1084, 1161, 1265, 1345, 1456, 1553, 1652, 1729, 1850, 1930, 
Lime samples: 
0, 118, 214, 296, 405, 507, 600, 687, 790, 873, 977, 1084, 1161, 1265, 1345, 1456, 1553, 1652, 1729, 1850, 1930, 
Insertion Distribution: 
	LOAD 45 0 0 0 0 0 112 302 
	RFO 10 0 0 0 0 0 298 2423 
	PREF 0 603 0 0 0 0 1436 5018 
	WRITEBACK 0 0 0 0 0 0 0 1920 
Total Prefetch Downgrades: 592
