
*** ChampSim Multicore Out-of-Order Simulator ***

Warmup Instructions: 10000000
Simulation Instructions: 100000000
Configuration: 2
Number of CPUs: 1
LLC sets: 2048
LLC ways: 16
Off-chip DRAM Channels: 1 Width: 64-bit Data Rate: 1600 MT/s

CPU 0 runs /datasets/cs240c-wi22-a00-public/data/Assignment2-gz/cactusADM_734B.trace.gz
CPU 0 L1D next line prefetcher
CPU 0 L2C IP-based stride prefetcher
Heartbeat CPU 0 instructions: 1000003 cycles: 592726 heartbeat IPC: 1.68713 cumulative IPC: 1.68713 (Simulation time: 0 hr 0 min 33 sec) 
select_counter is 645
Heartbeat CPU 0 instructions: 2000001 cycles: 1185927 heartbeat IPC: 1.68577 cumulative IPC: 1.68645 (Simulation time: 0 hr 1 min 8 sec) 
select_counter is 769
Heartbeat CPU 0 instructions: 3000003 cycles: 1778979 heartbeat IPC: 1.6862 cumulative IPC: 1.68636 (Simulation time: 0 hr 1 min 43 sec) 
select_counter is 879
Heartbeat CPU 0 instructions: 4000000 cycles: 2371929 heartbeat IPC: 1.68648 cumulative IPC: 1.68639 (Simulation time: 0 hr 2 min 16 sec) 
select_counter is 990
Heartbeat CPU 0 instructions: 5000000 cycles: 2965279 heartbeat IPC: 1.68535 cumulative IPC: 1.68618 (Simulation time: 0 hr 2 min 51 sec) 
select_counter is 1023
Heartbeat CPU 0 instructions: 6000002 cycles: 3558551 heartbeat IPC: 1.68557 cumulative IPC: 1.68608 (Simulation time: 0 hr 3 min 27 sec) 
select_counter is 1022
Heartbeat CPU 0 instructions: 7000000 cycles: 4151394 heartbeat IPC: 1.68678 cumulative IPC: 1.68618 (Simulation time: 0 hr 4 min 2 sec) 
select_counter is 1022
Heartbeat CPU 0 instructions: 8000000 cycles: 4744343 heartbeat IPC: 1.68649 cumulative IPC: 1.68622 (Simulation time: 0 hr 4 min 37 sec) 
select_counter is 1023
Heartbeat CPU 0 instructions: 9000001 cycles: 5337493 heartbeat IPC: 1.68592 cumulative IPC: 1.68619 (Simulation time: 0 hr 5 min 13 sec) 
select_counter is 1023
Heartbeat CPU 0 instructions: 10000003 cycles: 5958967 heartbeat IPC: 1.60908 cumulative IPC: 1.67814 (Simulation time: 0 hr 5 min 49 sec) 
select_counter is 1022

Warmup complete CPU 0 instructions: 10000003 cycles: 5958967 (Simulation time: 0 hr 5 min 49 sec) 

Heartbeat CPU 0 instructions: 11000002 cycles: 12559882 heartbeat IPC: 0.151494 cumulative IPC: 0.151494 (Simulation time: 0 hr 6 min 34 sec) 
select_counter is 1023
Heartbeat CPU 0 instructions: 12000000 cycles: 14302155 heartbeat IPC: 0.573962 cumulative IPC: 0.239716 (Simulation time: 0 hr 7 min 10 sec) 
select_counter is 1023
Heartbeat CPU 0 instructions: 13000002 cycles: 15989910 heartbeat IPC: 0.592504 cumulative IPC: 0.299074 (Simulation time: 0 hr 7 min 49 sec) 
select_counter is 1022
Heartbeat CPU 0 instructions: 14000000 cycles: 17675449 heartbeat IPC: 0.593281 cumulative IPC: 0.341399 (Simulation time: 0 hr 8 min 24 sec) 
select_counter is 1023
Heartbeat CPU 0 instructions: 15000003 cycles: 19415112 heartbeat IPC: 0.574826 cumulative IPC: 0.371577 (Simulation time: 0 hr 9 min 2 sec) 
select_counter is 1023
Heartbeat CPU 0 instructions: 16000000 cycles: 21157677 heartbeat IPC: 0.573865 cumulative IPC: 0.39477 (Simulation time: 0 hr 9 min 41 sec) 
select_counter is 1023
Heartbeat CPU 0 instructions: 17000002 cycles: 22891779 heartbeat IPC: 0.576669 cumulative IPC: 0.413399 (Simulation time: 0 hr 10 min 19 sec) 
select_counter is 1023
Heartbeat CPU 0 instructions: 18000001 cycles: 24549846 heartbeat IPC: 0.603111 cumulative IPC: 0.430318 (Simulation time: 0 hr 10 min 58 sec) 
select_counter is 1023
Heartbeat CPU 0 instructions: 19000000 cycles: 26266790 heartbeat IPC: 0.58243 cumulative IPC: 0.443179 (Simulation time: 0 hr 11 min 37 sec) 
select_counter is 1023
Heartbeat CPU 0 instructions: 20000000 cycles: 28009658 heartbeat IPC: 0.573767 cumulative IPC: 0.4535 (Simulation time: 0 hr 12 min 13 sec) 
select_counter is 1023
Heartbeat CPU 0 instructions: 21000002 cycles: 29753141 heartbeat IPC: 0.573566 cumulative IPC: 0.462298 (Simulation time: 0 hr 12 min 47 sec) 
select_counter is 1023
Heartbeat CPU 0 instructions: 22000000 cycles: 31462391 heartbeat IPC: 0.585051 cumulative IPC: 0.470525 (Simulation time: 0 hr 13 min 26 sec) 
select_counter is 1023
Heartbeat CPU 0 instructions: 23000001 cycles: 33126683 heartbeat IPC: 0.600857 cumulative IPC: 0.478509 (Simulation time: 0 hr 14 min 6 sec) 
select_counter is 1023
Heartbeat CPU 0 instructions: 24000000 cycles: 40796462 heartbeat IPC: 0.130382 cumulative IPC: 0.401866 (Simulation time: 0 hr 14 min 53 sec) 
select_counter is 1023
Heartbeat CPU 0 instructions: 25000000 cycles: 42537846 heartbeat IPC: 0.574256 cumulative IPC: 0.410073 (Simulation time: 0 hr 15 min 29 sec) 
select_counter is 1022
Heartbeat CPU 0 instructions: 26000002 cycles: 44272504 heartbeat IPC: 0.576484 cumulative IPC: 0.417607 (Simulation time: 0 hr 16 min 9 sec) 
select_counter is 1023
Heartbeat CPU 0 instructions: 27000002 cycles: 45936031 heartbeat IPC: 0.601132 cumulative IPC: 0.425244 (Simulation time: 0 hr 16 min 48 sec) 
select_counter is 1023
Heartbeat CPU 0 instructions: 28000000 cycles: 47661908 heartbeat IPC: 0.579414 cumulative IPC: 0.431624 (Simulation time: 0 hr 17 min 24 sec) 
select_counter is 1020
Heartbeat CPU 0 instructions: 29000001 cycles: 49421247 heartbeat IPC: 0.568396 cumulative IPC: 0.437161 (Simulation time: 0 hr 18 min 1 sec) 
select_counter is 1022
Heartbeat CPU 0 instructions: 30000001 cycles: 51163667 heartbeat IPC: 0.573914 cumulative IPC: 0.442432 (Simulation time: 0 hr 18 min 38 sec) 
select_counter is 1023
Heartbeat CPU 0 instructions: 31000003 cycles: 52876505 heartbeat IPC: 0.583828 cumulative IPC: 0.447594 (Simulation time: 0 hr 19 min 16 sec) 
select_counter is 1023
Heartbeat CPU 0 instructions: 32000000 cycles: 54535100 heartbeat IPC: 0.602918 cumulative IPC: 0.452897 (Simulation time: 0 hr 19 min 54 sec) 
select_counter is 1023
Heartbeat CPU 0 instructions: 33000000 cycles: 56270355 heartbeat IPC: 0.576284 cumulative IPC: 0.457153 (Simulation time: 0 hr 20 min 32 sec) 
select_counter is 1022
Heartbeat CPU 0 instructions: 34000001 cycles: 58014593 heartbeat IPC: 0.573317 cumulative IPC: 0.461045 (Simulation time: 0 hr 21 min 8 sec) 
select_counter is 1023
Heartbeat CPU 0 instructions: 35000000 cycles: 59752843 heartbeat IPC: 0.575291 cumulative IPC: 0.464737 (Simulation time: 0 hr 21 min 45 sec) 
select_counter is 1023
Heartbeat CPU 0 instructions: 36000000 cycles: 61435837 heartbeat IPC: 0.594179 cumulative IPC: 0.468664 (Simulation time: 0 hr 22 min 21 sec) 
select_counter is 1023
Heartbeat CPU 0 instructions: 37000003 cycles: 69048520 heartbeat IPC: 0.13136 cumulative IPC: 0.427963 (Simulation time: 0 hr 23 min 5 sec) 
select_counter is 1023
Heartbeat CPU 0 instructions: 38000001 cycles: 70789545 heartbeat IPC: 0.574373 cumulative IPC: 0.431895 (Simulation time: 0 hr 23 min 43 sec) 
select_counter is 1023
Heartbeat CPU 0 instructions: 39000001 cycles: 72530419 heartbeat IPC: 0.574424 cumulative IPC: 0.435622 (Simulation time: 0 hr 24 min 20 sec) 
select_counter is 1023
Heartbeat CPU 0 instructions: 40000000 cycles: 74248110 heartbeat IPC: 0.582176 cumulative IPC: 0.439308 (Simulation time: 0 hr 24 min 54 sec) 
select_counter is 1023
Heartbeat CPU 0 instructions: 41000001 cycles: 75903556 heartbeat IPC: 0.604067 cumulative IPC: 0.443208 (Simulation time: 0 hr 25 min 27 sec) 
select_counter is 1022
Heartbeat CPU 0 instructions: 42000002 cycles: 77639567 heartbeat IPC: 0.576034 cumulative IPC: 0.446425 (Simulation time: 0 hr 26 min 2 sec) 
select_counter is 1023
Heartbeat CPU 0 instructions: 43000000 cycles: 79380934 heartbeat IPC: 0.57426 cumulative IPC: 0.449457 (Simulation time: 0 hr 26 min 36 sec) 
select_counter is 1022
Heartbeat CPU 0 instructions: 44000000 cycles: 81121341 heartbeat IPC: 0.574578 cumulative IPC: 0.452354 (Simulation time: 0 hr 27 min 9 sec) 
select_counter is 1023
Heartbeat CPU 0 instructions: 45000000 cycles: 82806930 heartbeat IPC: 0.593264 cumulative IPC: 0.455445 (Simulation time: 0 hr 27 min 42 sec) 
select_counter is 1022
Heartbeat CPU 0 instructions: 46000003 cycles: 84490406 heartbeat IPC: 0.594011 cumulative IPC: 0.458415 (Simulation time: 0 hr 28 min 21 sec) 
select_counter is 1023
Heartbeat CPU 0 instructions: 47000001 cycles: 86229010 heartbeat IPC: 0.575173 cumulative IPC: 0.460944 (Simulation time: 0 hr 28 min 57 sec) 
select_counter is 1020
Heartbeat CPU 0 instructions: 48000000 cycles: 87970820 heartbeat IPC: 0.574115 cumulative IPC: 0.463348 (Simulation time: 0 hr 29 min 33 sec) 
select_counter is 1022
Heartbeat CPU 0 instructions: 49000000 cycles: 89707098 heartbeat IPC: 0.575945 cumulative IPC: 0.465682 (Simulation time: 0 hr 30 min 9 sec) 
select_counter is 1023
Heartbeat CPU 0 instructions: 50000001 cycles: 97232172 heartbeat IPC: 0.132889 cumulative IPC: 0.438245 (Simulation time: 0 hr 30 min 52 sec) 
select_counter is 1023
Heartbeat CPU 0 instructions: 51000000 cycles: 98961400 heartbeat IPC: 0.578292 cumulative IPC: 0.440849 (Simulation time: 0 hr 31 min 28 sec) 
select_counter is 1023
Heartbeat CPU 0 instructions: 52000000 cycles: 100700281 heartbeat IPC: 0.575082 cumulative IPC: 0.443312 (Simulation time: 0 hr 32 min 3 sec) 
select_counter is 1022
Heartbeat CPU 0 instructions: 53000003 cycles: 102438448 heartbeat IPC: 0.57532 cumulative IPC: 0.445691 (Simulation time: 0 hr 32 min 38 sec) 
select_counter is 1023
Heartbeat CPU 0 instructions: 54000000 cycles: 104125695 heartbeat IPC: 0.59268 cumulative IPC: 0.448217 (Simulation time: 0 hr 33 min 12 sec) 
select_counter is 1021
Heartbeat CPU 0 instructions: 55000001 cycles: 105802131 heartbeat IPC: 0.596504 cumulative IPC: 0.450707 (Simulation time: 0 hr 33 min 46 sec) 
select_counter is 1022
Heartbeat CPU 0 instructions: 56000000 cycles: 107553791 heartbeat IPC: 0.570886 cumulative IPC: 0.452779 (Simulation time: 0 hr 34 min 18 sec) 
select_counter is 1023
Heartbeat CPU 0 instructions: 57000000 cycles: 109302842 heartbeat IPC: 0.571739 cumulative IPC: 0.454792 (Simulation time: 0 hr 34 min 54 sec) 
select_counter is 1023
Heartbeat CPU 0 instructions: 58000001 cycles: 111036625 heartbeat IPC: 0.576774 cumulative IPC: 0.456805 (Simulation time: 0 hr 35 min 27 sec) 
select_counter is 1023
Heartbeat CPU 0 instructions: 59000000 cycles: 112694773 heartbeat IPC: 0.603082 cumulative IPC: 0.459077 (Simulation time: 0 hr 36 min 1 sec) 
select_counter is 1022
Heartbeat CPU 0 instructions: 60000000 cycles: 114401316 heartbeat IPC: 0.58598 cumulative IPC: 0.461074 (Simulation time: 0 hr 36 min 35 sec) 
select_counter is 1022
Heartbeat CPU 0 instructions: 61000002 cycles: 116140629 heartbeat IPC: 0.574941 cumulative IPC: 0.462872 (Simulation time: 0 hr 37 min 14 sec) 
select_counter is 1023
Heartbeat CPU 0 instructions: 62000002 cycles: 117880555 heartbeat IPC: 0.574737 cumulative IPC: 0.464611 (Simulation time: 0 hr 37 min 48 sec) 
select_counter is 1023
Heartbeat CPU 0 instructions: 63000002 cycles: 125326323 heartbeat IPC: 0.134304 cumulative IPC: 0.444007 (Simulation time: 0 hr 38 min 27 sec) 
select_counter is 1023
Heartbeat CPU 0 instructions: 64000000 cycles: 127278778 heartbeat IPC: 0.512175 cumulative IPC: 0.445105 (Simulation time: 0 hr 39 min 4 sec) 
select_counter is 1022
Heartbeat CPU 0 instructions: 65000003 cycles: 129015318 heartbeat IPC: 0.575859 cumulative IPC: 0.44695 (Simulation time: 0 hr 39 min 37 sec) 
select_counter is 1023
Heartbeat CPU 0 instructions: 66000001 cycles: 130756806 heartbeat IPC: 0.57422 cumulative IPC: 0.448726 (Simulation time: 0 hr 40 min 13 sec) 
select_counter is 1023
Heartbeat CPU 0 instructions: 67000000 cycles: 132493355 heartbeat IPC: 0.575854 cumulative IPC: 0.45047 (Simulation time: 0 hr 40 min 49 sec) 
select_counter is 1023
Heartbeat CPU 0 instructions: 68000000 cycles: 134156682 heartbeat IPC: 0.601205 cumulative IPC: 0.452426 (Simulation time: 0 hr 41 min 23 sec) 
select_counter is 1023
Heartbeat CPU 0 instructions: 69000000 cycles: 135858064 heartbeat IPC: 0.587757 cumulative IPC: 0.454199 (Simulation time: 0 hr 41 min 59 sec) 
select_counter is 1022
Heartbeat CPU 0 instructions: 70000001 cycles: 137599303 heartbeat IPC: 0.574304 cumulative IPC: 0.455787 (Simulation time: 0 hr 42 min 32 sec) 
select_counter is 1022
Heartbeat CPU 0 instructions: 71000001 cycles: 139341295 heartbeat IPC: 0.574055 cumulative IPC: 0.457332 (Simulation time: 0 hr 43 min 3 sec) 
select_counter is 1023
Heartbeat CPU 0 instructions: 72000000 cycles: 141062696 heartbeat IPC: 0.580922 cumulative IPC: 0.458907 (Simulation time: 0 hr 43 min 35 sec) 
select_counter is 1023
Heartbeat CPU 0 instructions: 73000003 cycles: 142712473 heartbeat IPC: 0.606144 cumulative IPC: 0.460683 (Simulation time: 0 hr 44 min 10 sec) 
select_counter is 1023
Heartbeat CPU 0 instructions: 74000002 cycles: 144444807 heartbeat IPC: 0.577255 cumulative IPC: 0.462141 (Simulation time: 0 hr 44 min 42 sec) 
select_counter is 1023
Heartbeat CPU 0 instructions: 75000002 cycles: 146185220 heartbeat IPC: 0.574576 cumulative IPC: 0.463537 (Simulation time: 0 hr 45 min 13 sec) 
select_counter is 1023
Heartbeat CPU 0 instructions: 76000000 cycles: 152419028 heartbeat IPC: 0.160415 cumulative IPC: 0.450635 (Simulation time: 0 hr 45 min 50 sec) 
select_counter is 1022
Heartbeat CPU 0 instructions: 77000000 cycles: 155617455 heartbeat IPC: 0.312654 cumulative IPC: 0.447686 (Simulation time: 0 hr 46 min 24 sec) 
select_counter is 1023
Heartbeat CPU 0 instructions: 78000002 cycles: 157315088 heartbeat IPC: 0.589057 cumulative IPC: 0.449272 (Simulation time: 0 hr 46 min 55 sec) 
select_counter is 1022
Heartbeat CPU 0 instructions: 79000002 cycles: 159057249 heartbeat IPC: 0.574 cumulative IPC: 0.450691 (Simulation time: 0 hr 47 min 27 sec) 
select_counter is 1023
Heartbeat CPU 0 instructions: 80000000 cycles: 160796569 heartbeat IPC: 0.574936 cumulative IPC: 0.452087 (Simulation time: 0 hr 47 min 55 sec) 
select_counter is 1023
Heartbeat CPU 0 instructions: 81000000 cycles: 162524938 heartbeat IPC: 0.57858 cumulative IPC: 0.453483 (Simulation time: 0 hr 48 min 22 sec) 
select_counter is 1020
Heartbeat CPU 0 instructions: 82000003 cycles: 164170865 heartbeat IPC: 0.607562 cumulative IPC: 0.455086 (Simulation time: 0 hr 48 min 49 sec) 
select_counter is 1023
Heartbeat CPU 0 instructions: 83000003 cycles: 165902189 heartbeat IPC: 0.577593 cumulative IPC: 0.456412 (Simulation time: 0 hr 49 min 16 sec) 
select_counter is 1023
Heartbeat CPU 0 instructions: 84000000 cycles: 167642462 heartbeat IPC: 0.574621 cumulative IPC: 0.457684 (Simulation time: 0 hr 49 min 40 sec) 
select_counter is 1023
Heartbeat CPU 0 instructions: 85000003 cycles: 169384275 heartbeat IPC: 0.574116 cumulative IPC: 0.458925 (Simulation time: 0 hr 50 min 4 sec) 
select_counter is 1023
Heartbeat CPU 0 instructions: 86000000 cycles: 171080407 heartbeat IPC: 0.589575 cumulative IPC: 0.460267 (Simulation time: 0 hr 50 min 28 sec) 
select_counter is 1023
Heartbeat CPU 0 instructions: 87000000 cycles: 172755823 heartbeat IPC: 0.596867 cumulative IPC: 0.461639 (Simulation time: 0 hr 50 min 47 sec) 
select_counter is 1023
Heartbeat CPU 0 instructions: 88000000 cycles: 174524111 heartbeat IPC: 0.565519 cumulative IPC: 0.462729 (Simulation time: 0 hr 51 min 7 sec) 
select_counter is 1023
Heartbeat CPU 0 instructions: 89000002 cycles: 179676895 heartbeat IPC: 0.19407 cumulative IPC: 0.45476 (Simulation time: 0 hr 51 min 25 sec) 
select_counter is 1023
Heartbeat CPU 0 instructions: 90000002 cycles: 183972030 heartbeat IPC: 0.232822 cumulative IPC: 0.449405 (Simulation time: 0 hr 51 min 44 sec) 
select_counter is 1020
Heartbeat CPU 0 instructions: 91000003 cycles: 185621431 heartbeat IPC: 0.606281 cumulative IPC: 0.450845 (Simulation time: 0 hr 52 min 0 sec) 
select_counter is 1023
Heartbeat CPU 0 instructions: 92000000 cycles: 187350276 heartbeat IPC: 0.578419 cumulative IPC: 0.452061 (Simulation time: 0 hr 52 min 17 sec) 
select_counter is 1023
Heartbeat CPU 0 instructions: 93000000 cycles: 189090369 heartbeat IPC: 0.574682 cumulative IPC: 0.453226 (Simulation time: 0 hr 52 min 32 sec) 
select_counter is 1023
Heartbeat CPU 0 instructions: 94000003 cycles: 190833623 heartbeat IPC: 0.573642 cumulative IPC: 0.454362 (Simulation time: 0 hr 52 min 47 sec) 
select_counter is 1023
Heartbeat CPU 0 instructions: 95000000 cycles: 192534994 heartbeat IPC: 0.587759 cumulative IPC: 0.455578 (Simulation time: 0 hr 53 min 1 sec) 
select_counter is 1021
Heartbeat CPU 0 instructions: 96000000 cycles: 194205736 heartbeat IPC: 0.598536 cumulative IPC: 0.456847 (Simulation time: 0 hr 53 min 15 sec) 
select_counter is 1022
Heartbeat CPU 0 instructions: 97000001 cycles: 195942753 heartbeat IPC: 0.5757 cumulative IPC: 0.457934 (Simulation time: 0 hr 53 min 30 sec) 
select_counter is 1023
Heartbeat CPU 0 instructions: 98000000 cycles: 197684512 heartbeat IPC: 0.574132 cumulative IPC: 0.458989 (Simulation time: 0 hr 53 min 44 sec) 
select_counter is 1023
Heartbeat CPU 0 instructions: 99000001 cycles: 199424323 heartbeat IPC: 0.574776 cumulative IPC: 0.460031 (Simulation time: 0 hr 53 min 58 sec) 
select_counter is 1022
Heartbeat CPU 0 instructions: 100000000 cycles: 201094463 heartbeat IPC: 0.598752 cumulative IPC: 0.461218 (Simulation time: 0 hr 54 min 12 sec) 
select_counter is 1022
Heartbeat CPU 0 instructions: 101000000 cycles: 202796678 heartbeat IPC: 0.58747 cumulative IPC: 0.46231 (Simulation time: 0 hr 54 min 25 sec) 
select_counter is 1021
Heartbeat CPU 0 instructions: 102000002 cycles: 206835940 heartbeat IPC: 0.24757 cumulative IPC: 0.457992 (Simulation time: 0 hr 54 min 38 sec) 
select_counter is 1021
Heartbeat CPU 0 instructions: 103000000 cycles: 212206793 heartbeat IPC: 0.18619 cumulative IPC: 0.450914 (Simulation time: 0 hr 54 min 51 sec) 
select_counter is 1023
Heartbeat CPU 0 instructions: 104000000 cycles: 213911006 heartbeat IPC: 0.586781 cumulative IPC: 0.452027 (Simulation time: 0 hr 55 min 1 sec) 
select_counter is 1022
Heartbeat CPU 0 instructions: 105000000 cycles: 215574667 heartbeat IPC: 0.601084 cumulative IPC: 0.45321 (Simulation time: 0 hr 55 min 12 sec) 
select_counter is 1023
Heartbeat CPU 0 instructions: 106000002 cycles: 217307955 heartbeat IPC: 0.576939 cumulative IPC: 0.454225 (Simulation time: 0 hr 55 min 24 sec) 
select_counter is 1023
Heartbeat CPU 0 instructions: 107000001 cycles: 219048650 heartbeat IPC: 0.574483 cumulative IPC: 0.455207 (Simulation time: 0 hr 55 min 34 sec) 
select_counter is 1023
Heartbeat CPU 0 instructions: 108000000 cycles: 220784838 heartbeat IPC: 0.575974 cumulative IPC: 0.456183 (Simulation time: 0 hr 55 min 44 sec) 
select_counter is 1023
Heartbeat CPU 0 instructions: 109000001 cycles: 222459145 heartbeat IPC: 0.597263 cumulative IPC: 0.457274 (Simulation time: 0 hr 55 min 52 sec) 
select_counter is 1023
Heartbeat CPU 0 instructions: 110000003 cycles: 224153115 heartbeat IPC: 0.59033 cumulative IPC: 0.458307 (Simulation time: 0 hr 55 min 59 sec) 
select_counter is 1023
Finished CPU 0 instructions: 100000000 cycles: 218194148 cummulative IPC: 0.458307 (Simulation time: 0 hr 55 min 59 sec) 

ChampSim completed all CPUs

Region of Interest Statistics

CPU 0 cummulative IPC: 0.458307 instructions: 100000000 cycles: 218194148
LLC TOTAL     ACCESS:    1167180  HIT:     338418  MISS:     828762
LLC LOAD      ACCESS:      25693  HIT:       1209  MISS:      24484
LLC RFO       ACCESS:     264086  HIT:       6295  MISS:     257791
LLC PREFETCH  ACCESS:     611293  HIT:     117523  MISS:     493770
LLC WRITEBACK ACCESS:     266108  HIT:     213391  MISS:      52717
Ship samples: 
18, 45, 95, 111, 142, 171, 199, 244, 280, 315, 351, 358, 410, 433, 475, 501, 515, 558, 596, 621, 642, 677, 713, 767, 795, 803, 836, 895, 900, 954, 984, 1022, 1046, 1073, 1099, 1135, 1153, 1205, 1233, 1262, 1298, 1334, 1361, 1385, 1422, 1452, 1474, 1517, 1562, 1578, 1610, 1633, 1670, 1712, 1753, 1772, 1807, 1840, 1879, 1908, 1950, 1980, 1993, 2047, 
Lime duel samples: 
4, 124, 205, 303, 399, 502, 607, 699, 772, 883, 986, 1085, 1158, 1268, 1349, 1444, 1567, 1648, 1754, 1826, 1925, 
Lime samples: 
4, 124, 205, 303, 399, 502, 607, 699, 772, 883, 986, 1085, 1158, 1268, 1349, 1444, 1567, 1648, 1754, 1826, 1925, 
Insertion Distribution: 
	LOAD 4 0 0 0 0 0 174 336 
	RFO 286 0 0 0 0 0 666 5221 
	PREF 0 1581 0 0 0 0 2070 12857 
	WRITEBACK 0 0 0 0 0 0 0 4833 
Total Prefetch Downgrades: 1619
