
*** ChampSim Multicore Out-of-Order Simulator ***

Warmup Instructions: 10000000
Simulation Instructions: 100000000
Configuration: 2
Number of CPUs: 1
LLC sets: 2048
LLC ways: 16
Off-chip DRAM Channels: 1 Width: 64-bit Data Rate: 1600 MT/s

CPU 0 runs /datasets/cs240c-wi22-a00-public/data/Assignment2-gz/calculix_2655B.trace.gz
CPU 0 L1D next line prefetcher
CPU 0 L2C IP-based stride prefetcher
Initialize SRRIP state
Heartbeat CPU 0 instructions: 1000003 cycles: 392383 heartbeat IPC: 2.54854 cumulative IPC: 2.54854 (Simulation time: 0 hr 0 min 21 sec) 
Heartbeat CPU 0 instructions: 2000001 cycles: 785148 heartbeat IPC: 2.54605 cumulative IPC: 2.54729 (Simulation time: 0 hr 0 min 42 sec) 
Heartbeat CPU 0 instructions: 3000002 cycles: 1177684 heartbeat IPC: 2.54754 cumulative IPC: 2.54737 (Simulation time: 0 hr 1 min 4 sec) 
Heartbeat CPU 0 instructions: 4000000 cycles: 1569447 heartbeat IPC: 2.55256 cumulative IPC: 2.54867 (Simulation time: 0 hr 1 min 24 sec) 
Heartbeat CPU 0 instructions: 5000003 cycles: 1961684 heartbeat IPC: 2.54949 cumulative IPC: 2.54883 (Simulation time: 0 hr 1 min 45 sec) 
Heartbeat CPU 0 instructions: 6000003 cycles: 2353797 heartbeat IPC: 2.55029 cumulative IPC: 2.54907 (Simulation time: 0 hr 2 min 6 sec) 
Heartbeat CPU 0 instructions: 7000002 cycles: 2745952 heartbeat IPC: 2.55001 cumulative IPC: 2.54921 (Simulation time: 0 hr 2 min 28 sec) 
Heartbeat CPU 0 instructions: 8000000 cycles: 3137922 heartbeat IPC: 2.55121 cumulative IPC: 2.54946 (Simulation time: 0 hr 2 min 49 sec) 
Heartbeat CPU 0 instructions: 9000001 cycles: 3530092 heartbeat IPC: 2.54992 cumulative IPC: 2.54951 (Simulation time: 0 hr 3 min 10 sec) 
Heartbeat CPU 0 instructions: 10000000 cycles: 3921565 heartbeat IPC: 2.55445 cumulative IPC: 2.55 (Simulation time: 0 hr 3 min 31 sec) 

Warmup complete CPU 0 instructions: 10000004 cycles: 3921566 (Simulation time: 0 hr 3 min 31 sec) 

Heartbeat CPU 0 instructions: 11000001 cycles: 4355673 heartbeat IPC: 2.30358 cumulative IPC: 2.30357 (Simulation time: 0 hr 3 min 57 sec) 
Heartbeat CPU 0 instructions: 12000000 cycles: 4785374 heartbeat IPC: 2.3272 cumulative IPC: 2.31532 (Simulation time: 0 hr 4 min 21 sec) 
Heartbeat CPU 0 instructions: 13000000 cycles: 5213962 heartbeat IPC: 2.33324 cumulative IPC: 2.32127 (Simulation time: 0 hr 4 min 46 sec) 
Heartbeat CPU 0 instructions: 14000002 cycles: 5641955 heartbeat IPC: 2.33649 cumulative IPC: 2.32505 (Simulation time: 0 hr 5 min 9 sec) 
Heartbeat CPU 0 instructions: 15000001 cycles: 6065644 heartbeat IPC: 2.36022 cumulative IPC: 2.332 (Simulation time: 0 hr 5 min 33 sec) 
Heartbeat CPU 0 instructions: 16000000 cycles: 6650232 heartbeat IPC: 1.7106 cumulative IPC: 2.19888 (Simulation time: 0 hr 6 min 0 sec) 
Heartbeat CPU 0 instructions: 17000000 cycles: 7080021 heartbeat IPC: 2.32672 cumulative IPC: 2.21627 (Simulation time: 0 hr 6 min 25 sec) 
Heartbeat CPU 0 instructions: 18000000 cycles: 7508740 heartbeat IPC: 2.33253 cumulative IPC: 2.23017 (Simulation time: 0 hr 6 min 50 sec) 
Heartbeat CPU 0 instructions: 19000000 cycles: 7935905 heartbeat IPC: 2.34102 cumulative IPC: 2.24196 (Simulation time: 0 hr 7 min 13 sec) 
Heartbeat CPU 0 instructions: 20000000 cycles: 8363181 heartbeat IPC: 2.34041 cumulative IPC: 2.25143 (Simulation time: 0 hr 7 min 37 sec) 
Heartbeat CPU 0 instructions: 21000002 cycles: 8789227 heartbeat IPC: 2.34717 cumulative IPC: 2.25981 (Simulation time: 0 hr 8 min 1 sec) 
Heartbeat CPU 0 instructions: 22000001 cycles: 9390304 heartbeat IPC: 1.66368 cumulative IPC: 2.19429 (Simulation time: 0 hr 8 min 25 sec) 
Heartbeat CPU 0 instructions: 23000000 cycles: 9817859 heartbeat IPC: 2.33888 cumulative IPC: 2.20477 (Simulation time: 0 hr 8 min 49 sec) 
Heartbeat CPU 0 instructions: 24000000 cycles: 10244675 heartbeat IPC: 2.34293 cumulative IPC: 2.2141 (Simulation time: 0 hr 9 min 14 sec) 
Heartbeat CPU 0 instructions: 25000003 cycles: 10671047 heartbeat IPC: 2.34538 cumulative IPC: 2.22239 (Simulation time: 0 hr 9 min 38 sec) 
Heartbeat CPU 0 instructions: 26000003 cycles: 11096383 heartbeat IPC: 2.35108 cumulative IPC: 2.23002 (Simulation time: 0 hr 10 min 4 sec) 
Heartbeat CPU 0 instructions: 27000000 cycles: 11547790 heartbeat IPC: 2.21529 cumulative IPC: 2.22915 (Simulation time: 0 hr 10 min 28 sec) 
Heartbeat CPU 0 instructions: 28000000 cycles: 12166051 heartbeat IPC: 1.61744 cumulative IPC: 2.18328 (Simulation time: 0 hr 10 min 53 sec) 
Heartbeat CPU 0 instructions: 29000003 cycles: 12693010 heartbeat IPC: 1.89769 cumulative IPC: 2.16612 (Simulation time: 0 hr 11 min 16 sec) 
Heartbeat CPU 0 instructions: 30000003 cycles: 13232313 heartbeat IPC: 1.85425 cumulative IPC: 2.14806 (Simulation time: 0 hr 11 min 39 sec) 
Heartbeat CPU 0 instructions: 31000002 cycles: 13758774 heartbeat IPC: 1.89947 cumulative IPC: 2.13475 (Simulation time: 0 hr 12 min 5 sec) 
Heartbeat CPU 0 instructions: 32000000 cycles: 14270509 heartbeat IPC: 1.95413 cumulative IPC: 2.12582 (Simulation time: 0 hr 12 min 32 sec) 
Heartbeat CPU 0 instructions: 33000003 cycles: 14835750 heartbeat IPC: 1.76916 cumulative IPC: 2.10735 (Simulation time: 0 hr 12 min 57 sec) 
Heartbeat CPU 0 instructions: 34000002 cycles: 15483227 heartbeat IPC: 1.54445 cumulative IPC: 2.07583 (Simulation time: 0 hr 13 min 23 sec) 
Heartbeat CPU 0 instructions: 35000001 cycles: 16072021 heartbeat IPC: 1.69839 cumulative IPC: 2.05754 (Simulation time: 0 hr 13 min 47 sec) 
Heartbeat CPU 0 instructions: 36000000 cycles: 16643120 heartbeat IPC: 1.75101 cumulative IPC: 2.04378 (Simulation time: 0 hr 14 min 13 sec) 
Heartbeat CPU 0 instructions: 37000002 cycles: 17212724 heartbeat IPC: 1.75561 cumulative IPC: 2.03143 (Simulation time: 0 hr 14 min 39 sec) 
Heartbeat CPU 0 instructions: 38000002 cycles: 17768771 heartbeat IPC: 1.79841 cumulative IPC: 2.02207 (Simulation time: 0 hr 15 min 5 sec) 
Heartbeat CPU 0 instructions: 39000002 cycles: 18425436 heartbeat IPC: 1.52285 cumulative IPC: 1.99947 (Simulation time: 0 hr 15 min 31 sec) 
Heartbeat CPU 0 instructions: 40000000 cycles: 18929357 heartbeat IPC: 1.98443 cumulative IPC: 1.99896 (Simulation time: 0 hr 15 min 55 sec) 
Heartbeat CPU 0 instructions: 41000003 cycles: 19418436 heartbeat IPC: 2.04467 cumulative IPC: 2.0004 (Simulation time: 0 hr 16 min 21 sec) 
Heartbeat CPU 0 instructions: 42000001 cycles: 19935780 heartbeat IPC: 1.93295 cumulative IPC: 1.99822 (Simulation time: 0 hr 16 min 47 sec) 
Heartbeat CPU 0 instructions: 43000001 cycles: 20464962 heartbeat IPC: 1.88971 cumulative IPC: 1.99475 (Simulation time: 0 hr 17 min 11 sec) 
Heartbeat CPU 0 instructions: 44000000 cycles: 21177169 heartbeat IPC: 1.40408 cumulative IPC: 1.97037 (Simulation time: 0 hr 17 min 37 sec) 
Heartbeat CPU 0 instructions: 45000002 cycles: 21637243 heartbeat IPC: 2.17357 cumulative IPC: 1.97565 (Simulation time: 0 hr 18 min 2 sec) 
Heartbeat CPU 0 instructions: 46000003 cycles: 22151816 heartbeat IPC: 1.94336 cumulative IPC: 1.97474 (Simulation time: 0 hr 18 min 27 sec) 
Heartbeat CPU 0 instructions: 47000000 cycles: 22654904 heartbeat IPC: 1.98772 cumulative IPC: 1.97509 (Simulation time: 0 hr 18 min 52 sec) 
Heartbeat CPU 0 instructions: 48000000 cycles: 23194077 heartbeat IPC: 1.85469 cumulative IPC: 1.97172 (Simulation time: 0 hr 19 min 19 sec) 
Heartbeat CPU 0 instructions: 49000000 cycles: 23637570 heartbeat IPC: 2.25483 cumulative IPC: 1.97809 (Simulation time: 0 hr 19 min 45 sec) 
Heartbeat CPU 0 instructions: 50000002 cycles: 24119423 heartbeat IPC: 2.07533 cumulative IPC: 1.98041 (Simulation time: 0 hr 20 min 10 sec) 
Heartbeat CPU 0 instructions: 51000001 cycles: 24598949 heartbeat IPC: 2.08539 cumulative IPC: 1.98284 (Simulation time: 0 hr 20 min 34 sec) 
Heartbeat CPU 0 instructions: 52000000 cycles: 25034305 heartbeat IPC: 2.29697 cumulative IPC: 1.98932 (Simulation time: 0 hr 20 min 58 sec) 
Heartbeat CPU 0 instructions: 53000002 cycles: 25564931 heartbeat IPC: 1.88457 cumulative IPC: 1.98675 (Simulation time: 0 hr 21 min 23 sec) 
Heartbeat CPU 0 instructions: 54000002 cycles: 26361276 heartbeat IPC: 1.25574 cumulative IPC: 1.96081 (Simulation time: 0 hr 21 min 51 sec) 
Heartbeat CPU 0 instructions: 55000002 cycles: 26878468 heartbeat IPC: 1.93352 cumulative IPC: 1.96019 (Simulation time: 0 hr 22 min 15 sec) 
Heartbeat CPU 0 instructions: 56000000 cycles: 27339544 heartbeat IPC: 2.16884 cumulative IPC: 1.9643 (Simulation time: 0 hr 22 min 41 sec) 
Heartbeat CPU 0 instructions: 57000000 cycles: 27866912 heartbeat IPC: 1.89621 cumulative IPC: 1.9628 (Simulation time: 0 hr 23 min 8 sec) 
Heartbeat CPU 0 instructions: 58000003 cycles: 28313696 heartbeat IPC: 2.23822 cumulative IPC: 1.96785 (Simulation time: 0 hr 23 min 33 sec) 
Heartbeat CPU 0 instructions: 59000001 cycles: 28839263 heartbeat IPC: 1.9027 cumulative IPC: 1.96647 (Simulation time: 0 hr 23 min 57 sec) 
Heartbeat CPU 0 instructions: 60000000 cycles: 29314771 heartbeat IPC: 2.10301 cumulative IPC: 1.96903 (Simulation time: 0 hr 24 min 21 sec) 
Heartbeat CPU 0 instructions: 61000002 cycles: 29817679 heartbeat IPC: 1.98844 cumulative IPC: 1.96941 (Simulation time: 0 hr 24 min 48 sec) 
Heartbeat CPU 0 instructions: 62000003 cycles: 30336621 heartbeat IPC: 1.927 cumulative IPC: 1.96857 (Simulation time: 0 hr 25 min 13 sec) 
Heartbeat CPU 0 instructions: 63000003 cycles: 31013343 heartbeat IPC: 1.47771 cumulative IPC: 1.95631 (Simulation time: 0 hr 25 min 40 sec) 
Heartbeat CPU 0 instructions: 64000000 cycles: 31502634 heartbeat IPC: 2.04377 cumulative IPC: 1.95786 (Simulation time: 0 hr 26 min 3 sec) 
Heartbeat CPU 0 instructions: 65000001 cycles: 32030922 heartbeat IPC: 1.89291 cumulative IPC: 1.95664 (Simulation time: 0 hr 26 min 28 sec) 
Heartbeat CPU 0 instructions: 66000001 cycles: 32685224 heartbeat IPC: 1.52835 cumulative IPC: 1.9469 (Simulation time: 0 hr 26 min 53 sec) 
Heartbeat CPU 0 instructions: 67000003 cycles: 33261413 heartbeat IPC: 1.73555 cumulative IPC: 1.94275 (Simulation time: 0 hr 27 min 18 sec) 
Heartbeat CPU 0 instructions: 68000000 cycles: 33825353 heartbeat IPC: 1.77323 cumulative IPC: 1.93955 (Simulation time: 0 hr 27 min 42 sec) 
Heartbeat CPU 0 instructions: 69000001 cycles: 34377929 heartbeat IPC: 1.80971 cumulative IPC: 1.9372 (Simulation time: 0 hr 28 min 7 sec) 
Heartbeat CPU 0 instructions: 70000002 cycles: 34932240 heartbeat IPC: 1.80404 cumulative IPC: 1.93482 (Simulation time: 0 hr 28 min 32 sec) 
Heartbeat CPU 0 instructions: 71000003 cycles: 35483361 heartbeat IPC: 1.81449 cumulative IPC: 1.93272 (Simulation time: 0 hr 28 min 55 sec) 
Heartbeat CPU 0 instructions: 72000000 cycles: 36032540 heartbeat IPC: 1.82089 cumulative IPC: 1.9308 (Simulation time: 0 hr 29 min 19 sec) 
Heartbeat CPU 0 instructions: 73000000 cycles: 36576532 heartbeat IPC: 1.83826 cumulative IPC: 1.92926 (Simulation time: 0 hr 29 min 45 sec) 
Heartbeat CPU 0 instructions: 74000000 cycles: 37108545 heartbeat IPC: 1.87965 cumulative IPC: 1.92847 (Simulation time: 0 hr 30 min 9 sec) 
Heartbeat CPU 0 instructions: 75000000 cycles: 37717366 heartbeat IPC: 1.64252 cumulative IPC: 1.92332 (Simulation time: 0 hr 30 min 33 sec) 
Heartbeat CPU 0 instructions: 76000000 cycles: 38303074 heartbeat IPC: 1.70734 cumulative IPC: 1.91964 (Simulation time: 0 hr 30 min 58 sec) 
Heartbeat CPU 0 instructions: 77000003 cycles: 38881523 heartbeat IPC: 1.72877 cumulative IPC: 1.91648 (Simulation time: 0 hr 31 min 25 sec) 
Heartbeat CPU 0 instructions: 78000002 cycles: 39461669 heartbeat IPC: 1.7237 cumulative IPC: 1.91333 (Simulation time: 0 hr 31 min 51 sec) 
Heartbeat CPU 0 instructions: 79000001 cycles: 40030652 heartbeat IPC: 1.75752 cumulative IPC: 1.91088 (Simulation time: 0 hr 32 min 17 sec) 
Heartbeat CPU 0 instructions: 80000000 cycles: 40602982 heartbeat IPC: 1.74724 cumulative IPC: 1.90832 (Simulation time: 0 hr 32 min 42 sec) 
Heartbeat CPU 0 instructions: 81000001 cycles: 41177432 heartbeat IPC: 1.7408 cumulative IPC: 1.90574 (Simulation time: 0 hr 33 min 11 sec) 
Heartbeat CPU 0 instructions: 82000003 cycles: 41741557 heartbeat IPC: 1.77266 cumulative IPC: 1.90376 (Simulation time: 0 hr 33 min 38 sec) 
Heartbeat CPU 0 instructions: 83000003 cycles: 42311950 heartbeat IPC: 1.75318 cumulative IPC: 1.90152 (Simulation time: 0 hr 34 min 2 sec) 
Heartbeat CPU 0 instructions: 84000000 cycles: 42915893 heartbeat IPC: 1.65578 cumulative IPC: 1.89771 (Simulation time: 0 hr 34 min 25 sec) 
Heartbeat CPU 0 instructions: 85000002 cycles: 43456115 heartbeat IPC: 1.85109 cumulative IPC: 1.89707 (Simulation time: 0 hr 34 min 50 sec) 
Heartbeat CPU 0 instructions: 86000001 cycles: 44158130 heartbeat IPC: 1.42447 cumulative IPC: 1.88883 (Simulation time: 0 hr 35 min 19 sec) 
Heartbeat CPU 0 instructions: 87000003 cycles: 44737522 heartbeat IPC: 1.72595 cumulative IPC: 1.88652 (Simulation time: 0 hr 35 min 47 sec) 
Heartbeat CPU 0 instructions: 88000000 cycles: 45204212 heartbeat IPC: 2.14274 cumulative IPC: 1.88941 (Simulation time: 0 hr 36 min 14 sec) 
Heartbeat CPU 0 instructions: 89000000 cycles: 45668276 heartbeat IPC: 2.15488 cumulative IPC: 1.89236 (Simulation time: 0 hr 36 min 39 sec) 
Heartbeat CPU 0 instructions: 90000001 cycles: 46136109 heartbeat IPC: 2.13752 cumulative IPC: 1.89508 (Simulation time: 0 hr 37 min 4 sec) 
Heartbeat CPU 0 instructions: 91000002 cycles: 46674958 heartbeat IPC: 1.85581 cumulative IPC: 1.89459 (Simulation time: 0 hr 37 min 30 sec) 
Heartbeat CPU 0 instructions: 92000000 cycles: 47191710 heartbeat IPC: 1.93516 cumulative IPC: 1.89507 (Simulation time: 0 hr 37 min 56 sec) 
Heartbeat CPU 0 instructions: 93000000 cycles: 47710251 heartbeat IPC: 1.92849 cumulative IPC: 1.89547 (Simulation time: 0 hr 38 min 22 sec) 
Heartbeat CPU 0 instructions: 94000001 cycles: 48212324 heartbeat IPC: 1.99174 cumulative IPC: 1.89656 (Simulation time: 0 hr 38 min 49 sec) 
Heartbeat CPU 0 instructions: 95000003 cycles: 48753295 heartbeat IPC: 1.84853 cumulative IPC: 1.89598 (Simulation time: 0 hr 39 min 13 sec) 
Heartbeat CPU 0 instructions: 96000000 cycles: 49228294 heartbeat IPC: 2.10526 cumulative IPC: 1.89817 (Simulation time: 0 hr 39 min 38 sec) 
Heartbeat CPU 0 instructions: 97000002 cycles: 49714469 heartbeat IPC: 2.05688 cumulative IPC: 1.89986 (Simulation time: 0 hr 40 min 2 sec) 
Heartbeat CPU 0 instructions: 98000001 cycles: 50185214 heartbeat IPC: 2.12429 cumulative IPC: 1.90214 (Simulation time: 0 hr 40 min 27 sec) 
Heartbeat CPU 0 instructions: 99000001 cycles: 50723502 heartbeat IPC: 1.85774 cumulative IPC: 1.90163 (Simulation time: 0 hr 40 min 52 sec) 
Heartbeat CPU 0 instructions: 100000000 cycles: 51199454 heartbeat IPC: 2.10105 cumulative IPC: 1.90364 (Simulation time: 0 hr 41 min 16 sec) 
Heartbeat CPU 0 instructions: 101000001 cycles: 51671363 heartbeat IPC: 2.11905 cumulative IPC: 1.90577 (Simulation time: 0 hr 41 min 44 sec) 
Heartbeat CPU 0 instructions: 102000003 cycles: 52130969 heartbeat IPC: 2.17578 cumulative IPC: 1.90834 (Simulation time: 0 hr 42 min 9 sec) 
Heartbeat CPU 0 instructions: 103000003 cycles: 52651001 heartbeat IPC: 1.92296 cumulative IPC: 1.9085 (Simulation time: 0 hr 42 min 33 sec) 
Heartbeat CPU 0 instructions: 104000000 cycles: 53199031 heartbeat IPC: 1.82471 cumulative IPC: 1.90757 (Simulation time: 0 hr 42 min 57 sec) 
Heartbeat CPU 0 instructions: 105000001 cycles: 53621482 heartbeat IPC: 2.36714 cumulative IPC: 1.91147 (Simulation time: 0 hr 43 min 19 sec) 
Heartbeat CPU 0 instructions: 106000002 cycles: 54066650 heartbeat IPC: 2.24635 cumulative IPC: 1.91444 (Simulation time: 0 hr 43 min 43 sec) 
Heartbeat CPU 0 instructions: 107000001 cycles: 54517655 heartbeat IPC: 2.21727 cumulative IPC: 1.91714 (Simulation time: 0 hr 44 min 9 sec) 
Heartbeat CPU 0 instructions: 108000000 cycles: 54936644 heartbeat IPC: 2.3867 cumulative IPC: 1.921 (Simulation time: 0 hr 44 min 33 sec) 
Heartbeat CPU 0 instructions: 109000000 cycles: 55409988 heartbeat IPC: 2.11263 cumulative IPC: 1.92276 (Simulation time: 0 hr 44 min 57 sec) 
Heartbeat CPU 0 instructions: 110000000 cycles: 55828699 heartbeat IPC: 2.38828 cumulative IPC: 1.92652 (Simulation time: 0 hr 45 min 23 sec) 
Finished CPU 0 instructions: 100000000 cycles: 51907134 cummulative IPC: 1.92652 (Simulation time: 0 hr 45 min 23 sec) 

ChampSim completed all CPUs

Region of Interest Statistics

CPU 0 cummulative IPC: 1.92652 instructions: 100000000 cycles: 51907134
LLC TOTAL     ACCESS:     865122  HIT:     540470  MISS:     324652
LLC LOAD      ACCESS:     110526  HIT:      92776  MISS:      17750
LLC RFO       ACCESS:        416  HIT:        406  MISS:         10
LLC PREFETCH  ACCESS:     655868  HIT:     354901  MISS:     300967
LLC WRITEBACK ACCESS:      98312  HIT:      92387  MISS:       5925
Insertion Distribution: 
	LOAD 9533 0 10545 396 
	RFO 0 0 17 0 
	PREF 0 11386 40148 267650 
	WRITEBACK 0 0 0 5944 
Total Prefetch Downgrades: 2638
