
*** ChampSim Multicore Out-of-Order Simulator ***

Warmup Instructions: 10000000
Simulation Instructions: 100000000
Configuration: 2
Number of CPUs: 1
LLC sets: 2048
LLC ways: 16
Off-chip DRAM Channels: 1 Width: 64-bit Data Rate: 1600 MT/s

CPU 0 runs /datasets/cs240c-wi22-a00-public/data/Assignment2-gz/perlbench_53B.trace.gz
CPU 0 L1D next line prefetcher
CPU 0 L2C IP-based stride prefetcher
Initialize SRRIP state
Heartbeat CPU 0 instructions: 1000000 cycles: 615802 heartbeat IPC: 1.6239 cumulative IPC: 1.6239 (Simulation time: 0 hr 0 min 37 sec) 
Heartbeat CPU 0 instructions: 2000001 cycles: 1252973 heartbeat IPC: 1.56944 cumulative IPC: 1.5962 (Simulation time: 0 hr 1 min 12 sec) 
Heartbeat CPU 0 instructions: 3000002 cycles: 1908459 heartbeat IPC: 1.52559 cumulative IPC: 1.57195 (Simulation time: 0 hr 1 min 47 sec) 
Heartbeat CPU 0 instructions: 4000000 cycles: 2523972 heartbeat IPC: 1.62466 cumulative IPC: 1.5848 (Simulation time: 0 hr 2 min 19 sec) 
Heartbeat CPU 0 instructions: 5000001 cycles: 3151982 heartbeat IPC: 1.59233 cumulative IPC: 1.5863 (Simulation time: 0 hr 2 min 53 sec) 
Heartbeat CPU 0 instructions: 6000001 cycles: 3767489 heartbeat IPC: 1.62468 cumulative IPC: 1.59257 (Simulation time: 0 hr 3 min 26 sec) 
Heartbeat CPU 0 instructions: 7000002 cycles: 4390289 heartbeat IPC: 1.60565 cumulative IPC: 1.59443 (Simulation time: 0 hr 4 min 2 sec) 
Heartbeat CPU 0 instructions: 8000000 cycles: 5000668 heartbeat IPC: 1.63832 cumulative IPC: 1.59979 (Simulation time: 0 hr 4 min 35 sec) 
Heartbeat CPU 0 instructions: 9000000 cycles: 5652373 heartbeat IPC: 1.53444 cumulative IPC: 1.59225 (Simulation time: 0 hr 5 min 11 sec) 
Heartbeat CPU 0 instructions: 10000001 cycles: 6287599 heartbeat IPC: 1.57424 cumulative IPC: 1.59043 (Simulation time: 0 hr 5 min 45 sec) 

Warmup complete CPU 0 instructions: 10000001 cycles: 6287599 (Simulation time: 0 hr 5 min 45 sec) 

Heartbeat CPU 0 instructions: 11000000 cycles: 9157164 heartbeat IPC: 0.348485 cumulative IPC: 0.348485 (Simulation time: 0 hr 6 min 24 sec) 
Heartbeat CPU 0 instructions: 12000000 cycles: 12018961 heartbeat IPC: 0.349431 cumulative IPC: 0.348957 (Simulation time: 0 hr 7 min 6 sec) 
Heartbeat CPU 0 instructions: 13000000 cycles: 14372012 heartbeat IPC: 0.42498 cumulative IPC: 0.371084 (Simulation time: 0 hr 7 min 43 sec) 
Heartbeat CPU 0 instructions: 14000000 cycles: 16880650 heartbeat IPC: 0.398623 cumulative IPC: 0.377606 (Simulation time: 0 hr 8 min 21 sec) 
Heartbeat CPU 0 instructions: 15000001 cycles: 19638136 heartbeat IPC: 0.36265 cumulative IPC: 0.374517 (Simulation time: 0 hr 8 min 58 sec) 
Heartbeat CPU 0 instructions: 16000000 cycles: 22302830 heartbeat IPC: 0.375277 cumulative IPC: 0.374643 (Simulation time: 0 hr 9 min 42 sec) 
Heartbeat CPU 0 instructions: 17000001 cycles: 24977689 heartbeat IPC: 0.373852 cumulative IPC: 0.37453 (Simulation time: 0 hr 10 min 23 sec) 
Heartbeat CPU 0 instructions: 18000002 cycles: 27832234 heartbeat IPC: 0.350319 cumulative IPC: 0.371322 (Simulation time: 0 hr 11 min 4 sec) 
Heartbeat CPU 0 instructions: 19000000 cycles: 30655219 heartbeat IPC: 0.354234 cumulative IPC: 0.369343 (Simulation time: 0 hr 11 min 44 sec) 
Heartbeat CPU 0 instructions: 20000000 cycles: 33510055 heartbeat IPC: 0.350283 cumulative IPC: 0.367344 (Simulation time: 0 hr 12 min 29 sec) 
Heartbeat CPU 0 instructions: 21000000 cycles: 35869353 heartbeat IPC: 0.423855 cumulative IPC: 0.371851 (Simulation time: 0 hr 13 min 18 sec) 
Heartbeat CPU 0 instructions: 22000000 cycles: 37946374 heartbeat IPC: 0.481459 cumulative IPC: 0.379042 (Simulation time: 0 hr 13 min 57 sec) 
Heartbeat CPU 0 instructions: 23000001 cycles: 39875758 heartbeat IPC: 0.518301 cumulative IPC: 0.387041 (Simulation time: 0 hr 14 min 39 sec) 
Heartbeat CPU 0 instructions: 24000000 cycles: 42273556 heartbeat IPC: 0.417049 cumulative IPC: 0.389041 (Simulation time: 0 hr 15 min 22 sec) 
Heartbeat CPU 0 instructions: 25000000 cycles: 44284522 heartbeat IPC: 0.497273 cumulative IPC: 0.394769 (Simulation time: 0 hr 16 min 0 sec) 
Heartbeat CPU 0 instructions: 26000001 cycles: 46269479 heartbeat IPC: 0.50379 cumulative IPC: 0.400181 (Simulation time: 0 hr 16 min 37 sec) 
Heartbeat CPU 0 instructions: 27000002 cycles: 48562989 heartbeat IPC: 0.436013 cumulative IPC: 0.402125 (Simulation time: 0 hr 17 min 16 sec) 
Heartbeat CPU 0 instructions: 28000000 cycles: 51134265 heartbeat IPC: 0.388911 cumulative IPC: 0.401368 (Simulation time: 0 hr 18 min 1 sec) 
Heartbeat CPU 0 instructions: 29000000 cycles: 53453293 heartbeat IPC: 0.431215 cumulative IPC: 0.402835 (Simulation time: 0 hr 18 min 46 sec) 
Heartbeat CPU 0 instructions: 30000000 cycles: 55495962 heartbeat IPC: 0.489556 cumulative IPC: 0.406435 (Simulation time: 0 hr 19 min 33 sec) 
Heartbeat CPU 0 instructions: 31000001 cycles: 57482829 heartbeat IPC: 0.503305 cumulative IPC: 0.410194 (Simulation time: 0 hr 20 min 12 sec) 
Heartbeat CPU 0 instructions: 32000000 cycles: 59480206 heartbeat IPC: 0.500656 cumulative IPC: 0.413591 (Simulation time: 0 hr 20 min 51 sec) 
Heartbeat CPU 0 instructions: 33000003 cycles: 61937209 heartbeat IPC: 0.407001 cumulative IPC: 0.4133 (Simulation time: 0 hr 21 min 30 sec) 
Heartbeat CPU 0 instructions: 34000000 cycles: 64636936 heartbeat IPC: 0.370407 cumulative IPC: 0.411316 (Simulation time: 0 hr 22 min 9 sec) 
Heartbeat CPU 0 instructions: 35000000 cycles: 67187254 heartbeat IPC: 0.392108 cumulative IPC: 0.410511 (Simulation time: 0 hr 22 min 47 sec) 
Heartbeat CPU 0 instructions: 36000000 cycles: 69977467 heartbeat IPC: 0.358396 cumulative IPC: 0.408228 (Simulation time: 0 hr 23 min 25 sec) 
Heartbeat CPU 0 instructions: 37000002 cycles: 72819857 heartbeat IPC: 0.351817 cumulative IPC: 0.405818 (Simulation time: 0 hr 24 min 5 sec) 
Heartbeat CPU 0 instructions: 38000000 cycles: 75688759 heartbeat IPC: 0.348565 cumulative IPC: 0.403451 (Simulation time: 0 hr 24 min 46 sec) 
Heartbeat CPU 0 instructions: 39000001 cycles: 78359382 heartbeat IPC: 0.374445 cumulative IPC: 0.402377 (Simulation time: 0 hr 25 min 27 sec) 
Heartbeat CPU 0 instructions: 40000000 cycles: 80959246 heartbeat IPC: 0.384635 cumulative IPC: 0.401759 (Simulation time: 0 hr 26 min 6 sec) 
Heartbeat CPU 0 instructions: 41000002 cycles: 83832184 heartbeat IPC: 0.348076 cumulative IPC: 0.39977 (Simulation time: 0 hr 26 min 41 sec) 
Heartbeat CPU 0 instructions: 42000000 cycles: 86436000 heartbeat IPC: 0.384051 cumulative IPC: 0.399259 (Simulation time: 0 hr 27 min 21 sec) 
Heartbeat CPU 0 instructions: 43000002 cycles: 89272726 heartbeat IPC: 0.35252 cumulative IPC: 0.397662 (Simulation time: 0 hr 28 min 1 sec) 
Heartbeat CPU 0 instructions: 44000000 cycles: 91935874 heartbeat IPC: 0.375495 cumulative IPC: 0.396972 (Simulation time: 0 hr 28 min 42 sec) 
Heartbeat CPU 0 instructions: 45000001 cycles: 93395735 heartbeat IPC: 0.684997 cumulative IPC: 0.401799 (Simulation time: 0 hr 29 min 14 sec) 
Heartbeat CPU 0 instructions: 46000000 cycles: 95420567 heartbeat IPC: 0.493868 cumulative IPC: 0.403891 (Simulation time: 0 hr 29 min 48 sec) 
Heartbeat CPU 0 instructions: 47000002 cycles: 97335970 heartbeat IPC: 0.522084 cumulative IPC: 0.406377 (Simulation time: 0 hr 30 min 21 sec) 
Heartbeat CPU 0 instructions: 48000000 cycles: 99256185 heartbeat IPC: 0.520774 cumulative IPC: 0.40874 (Simulation time: 0 hr 30 min 54 sec) 
Heartbeat CPU 0 instructions: 49000000 cycles: 101605950 heartbeat IPC: 0.425574 cumulative IPC: 0.409155 (Simulation time: 0 hr 31 min 34 sec) 
Heartbeat CPU 0 instructions: 50000002 cycles: 103469015 heartbeat IPC: 0.536751 cumulative IPC: 0.411601 (Simulation time: 0 hr 32 min 10 sec) 
Heartbeat CPU 0 instructions: 51000000 cycles: 105399557 heartbeat IPC: 0.517988 cumulative IPC: 0.413674 (Simulation time: 0 hr 32 min 44 sec) 
Heartbeat CPU 0 instructions: 52000000 cycles: 107314562 heartbeat IPC: 0.522192 cumulative IPC: 0.415731 (Simulation time: 0 hr 33 min 28 sec) 
Heartbeat CPU 0 instructions: 53000002 cycles: 109265388 heartbeat IPC: 0.512604 cumulative IPC: 0.417566 (Simulation time: 0 hr 34 min 1 sec) 
Heartbeat CPU 0 instructions: 54000000 cycles: 112157485 heartbeat IPC: 0.345769 cumulative IPC: 0.415604 (Simulation time: 0 hr 34 min 38 sec) 
Heartbeat CPU 0 instructions: 55000000 cycles: 114645564 heartbeat IPC: 0.401917 cumulative IPC: 0.41529 (Simulation time: 0 hr 35 min 20 sec) 
Heartbeat CPU 0 instructions: 56000000 cycles: 117448491 heartbeat IPC: 0.35677 cumulative IPC: 0.413815 (Simulation time: 0 hr 36 min 2 sec) 
Heartbeat CPU 0 instructions: 57000001 cycles: 120439434 heartbeat IPC: 0.334343 cumulative IPC: 0.411732 (Simulation time: 0 hr 36 min 45 sec) 
Heartbeat CPU 0 instructions: 58000003 cycles: 123408911 heartbeat IPC: 0.33676 cumulative IPC: 0.409831 (Simulation time: 0 hr 37 min 35 sec) 
Heartbeat CPU 0 instructions: 59000002 cycles: 126224382 heartbeat IPC: 0.35518 cumulative IPC: 0.408549 (Simulation time: 0 hr 38 min 11 sec) 
Heartbeat CPU 0 instructions: 60000000 cycles: 128984872 heartbeat IPC: 0.362254 cumulative IPC: 0.407507 (Simulation time: 0 hr 38 min 54 sec) 
Heartbeat CPU 0 instructions: 61000002 cycles: 131615055 heartbeat IPC: 0.380202 cumulative IPC: 0.406934 (Simulation time: 0 hr 39 min 36 sec) 
Heartbeat CPU 0 instructions: 62000002 cycles: 134294927 heartbeat IPC: 0.373152 cumulative IPC: 0.406227 (Simulation time: 0 hr 40 min 14 sec) 
Heartbeat CPU 0 instructions: 63000001 cycles: 136962469 heartbeat IPC: 0.374877 cumulative IPC: 0.405587 (Simulation time: 0 hr 40 min 56 sec) 
Heartbeat CPU 0 instructions: 64000000 cycles: 139619338 heartbeat IPC: 0.376382 cumulative IPC: 0.405005 (Simulation time: 0 hr 41 min 39 sec) 
Heartbeat CPU 0 instructions: 65000003 cycles: 142256829 heartbeat IPC: 0.379149 cumulative IPC: 0.404503 (Simulation time: 0 hr 42 min 19 sec) 
Heartbeat CPU 0 instructions: 66000001 cycles: 144885117 heartbeat IPC: 0.380475 cumulative IPC: 0.404048 (Simulation time: 0 hr 43 min 1 sec) 
Heartbeat CPU 0 instructions: 67000001 cycles: 147498136 heartbeat IPC: 0.382699 cumulative IPC: 0.403653 (Simulation time: 0 hr 43 min 41 sec) 
Heartbeat CPU 0 instructions: 68000000 cycles: 150165787 heartbeat IPC: 0.374861 cumulative IPC: 0.403119 (Simulation time: 0 hr 44 min 20 sec) 
Heartbeat CPU 0 instructions: 69000001 cycles: 152803708 heartbeat IPC: 0.379087 cumulative IPC: 0.402686 (Simulation time: 0 hr 45 min 3 sec) 
Heartbeat CPU 0 instructions: 70000001 cycles: 155414976 heartbeat IPC: 0.382956 cumulative IPC: 0.402341 (Simulation time: 0 hr 45 min 42 sec) 
Heartbeat CPU 0 instructions: 71000001 cycles: 158132498 heartbeat IPC: 0.367982 cumulative IPC: 0.401726 (Simulation time: 0 hr 46 min 24 sec) 
Heartbeat CPU 0 instructions: 72000000 cycles: 160739283 heartbeat IPC: 0.383614 cumulative IPC: 0.40142 (Simulation time: 0 hr 47 min 6 sec) 
Heartbeat CPU 0 instructions: 73000002 cycles: 163390223 heartbeat IPC: 0.377225 cumulative IPC: 0.401012 (Simulation time: 0 hr 47 min 45 sec) 
Heartbeat CPU 0 instructions: 74000001 cycles: 166070736 heartbeat IPC: 0.373063 cumulative IPC: 0.400543 (Simulation time: 0 hr 48 min 22 sec) 
Heartbeat CPU 0 instructions: 75000001 cycles: 168730413 heartbeat IPC: 0.375986 cumulative IPC: 0.400141 (Simulation time: 0 hr 49 min 0 sec) 
Heartbeat CPU 0 instructions: 76000000 cycles: 171371888 heartbeat IPC: 0.378576 cumulative IPC: 0.399796 (Simulation time: 0 hr 49 min 36 sec) 
Heartbeat CPU 0 instructions: 77000002 cycles: 174044490 heartbeat IPC: 0.374168 cumulative IPC: 0.399387 (Simulation time: 0 hr 50 min 12 sec) 
Heartbeat CPU 0 instructions: 78000000 cycles: 176698110 heartbeat IPC: 0.376843 cumulative IPC: 0.399036 (Simulation time: 0 hr 50 min 50 sec) 
Heartbeat CPU 0 instructions: 79000002 cycles: 179359220 heartbeat IPC: 0.375784 cumulative IPC: 0.398679 (Simulation time: 0 hr 51 min 26 sec) 
Heartbeat CPU 0 instructions: 80000000 cycles: 181993947 heartbeat IPC: 0.379545 cumulative IPC: 0.398392 (Simulation time: 0 hr 52 min 1 sec) 
Heartbeat CPU 0 instructions: 81000000 cycles: 184608503 heartbeat IPC: 0.382474 cumulative IPC: 0.398159 (Simulation time: 0 hr 52 min 37 sec) 
Heartbeat CPU 0 instructions: 82000002 cycles: 187285312 heartbeat IPC: 0.37358 cumulative IPC: 0.397795 (Simulation time: 0 hr 53 min 14 sec) 
Heartbeat CPU 0 instructions: 83000000 cycles: 189930862 heartbeat IPC: 0.377992 cumulative IPC: 0.39751 (Simulation time: 0 hr 53 min 48 sec) 
Heartbeat CPU 0 instructions: 84000000 cycles: 192586820 heartbeat IPC: 0.376512 cumulative IPC: 0.39721 (Simulation time: 0 hr 54 min 19 sec) 
Heartbeat CPU 0 instructions: 85000001 cycles: 195263238 heartbeat IPC: 0.373634 cumulative IPC: 0.396877 (Simulation time: 0 hr 54 min 50 sec) 
Heartbeat CPU 0 instructions: 86000000 cycles: 197758159 heartbeat IPC: 0.400814 cumulative IPC: 0.396928 (Simulation time: 0 hr 55 min 23 sec) 
Heartbeat CPU 0 instructions: 87000000 cycles: 199889894 heartbeat IPC: 0.469101 cumulative IPC: 0.397723 (Simulation time: 0 hr 55 min 48 sec) 
Heartbeat CPU 0 instructions: 88000000 cycles: 201887330 heartbeat IPC: 0.500642 cumulative IPC: 0.398774 (Simulation time: 0 hr 56 min 10 sec) 
Heartbeat CPU 0 instructions: 89000001 cycles: 203963267 heartbeat IPC: 0.481711 cumulative IPC: 0.399645 (Simulation time: 0 hr 56 min 33 sec) 
Heartbeat CPU 0 instructions: 90000000 cycles: 206628847 heartbeat IPC: 0.375152 cumulative IPC: 0.399319 (Simulation time: 0 hr 57 min 2 sec) 
Heartbeat CPU 0 instructions: 91000001 cycles: 209393308 heartbeat IPC: 0.361735 cumulative IPC: 0.398807 (Simulation time: 0 hr 57 min 30 sec) 
Heartbeat CPU 0 instructions: 92000000 cycles: 212077073 heartbeat IPC: 0.37261 cumulative IPC: 0.398465 (Simulation time: 0 hr 57 min 56 sec) 
Heartbeat CPU 0 instructions: 93000000 cycles: 214729301 heartbeat IPC: 0.377041 cumulative IPC: 0.398193 (Simulation time: 0 hr 58 min 20 sec) 
Heartbeat CPU 0 instructions: 94000002 cycles: 217376450 heartbeat IPC: 0.377766 cumulative IPC: 0.397937 (Simulation time: 0 hr 58 min 45 sec) 
Heartbeat CPU 0 instructions: 95000000 cycles: 219996198 heartbeat IPC: 0.381715 cumulative IPC: 0.397738 (Simulation time: 0 hr 59 min 9 sec) 
Heartbeat CPU 0 instructions: 96000000 cycles: 222660373 heartbeat IPC: 0.375351 cumulative IPC: 0.397462 (Simulation time: 0 hr 59 min 31 sec) 
Heartbeat CPU 0 instructions: 97000000 cycles: 225300515 heartbeat IPC: 0.378768 cumulative IPC: 0.397237 (Simulation time: 0 hr 59 min 50 sec) 
Heartbeat CPU 0 instructions: 98000000 cycles: 227923029 heartbeat IPC: 0.381314 cumulative IPC: 0.397048 (Simulation time: 1 hr 0 min 13 sec) 
Heartbeat CPU 0 instructions: 99000002 cycles: 230532263 heartbeat IPC: 0.383255 cumulative IPC: 0.396888 (Simulation time: 1 hr 0 min 35 sec) 
Heartbeat CPU 0 instructions: 100000000 cycles: 233158556 heartbeat IPC: 0.380764 cumulative IPC: 0.396701 (Simulation time: 1 hr 0 min 57 sec) 
Heartbeat CPU 0 instructions: 101000002 cycles: 235813012 heartbeat IPC: 0.376726 cumulative IPC: 0.39647 (Simulation time: 1 hr 1 min 16 sec) 
Heartbeat CPU 0 instructions: 102000000 cycles: 238442976 heartbeat IPC: 0.380233 cumulative IPC: 0.396286 (Simulation time: 1 hr 1 min 33 sec) 
Heartbeat CPU 0 instructions: 103000000 cycles: 241068654 heartbeat IPC: 0.380854 cumulative IPC: 0.396114 (Simulation time: 1 hr 1 min 50 sec) 
Heartbeat CPU 0 instructions: 104000000 cycles: 243730492 heartbeat IPC: 0.37568 cumulative IPC: 0.395885 (Simulation time: 1 hr 2 min 9 sec) 
Heartbeat CPU 0 instructions: 105000003 cycles: 245909870 heartbeat IPC: 0.458848 cumulative IPC: 0.396457 (Simulation time: 1 hr 2 min 24 sec) 
Heartbeat CPU 0 instructions: 106000000 cycles: 247886904 heartbeat IPC: 0.505807 cumulative IPC: 0.397352 (Simulation time: 1 hr 2 min 38 sec) 
Heartbeat CPU 0 instructions: 107000003 cycles: 249861833 heartbeat IPC: 0.506349 cumulative IPC: 0.398236 (Simulation time: 1 hr 2 min 52 sec) 
Heartbeat CPU 0 instructions: 108000000 cycles: 252605433 heartbeat IPC: 0.364484 cumulative IPC: 0.39786 (Simulation time: 1 hr 3 min 9 sec) 
Heartbeat CPU 0 instructions: 109000001 cycles: 255303523 heartbeat IPC: 0.370633 cumulative IPC: 0.397565 (Simulation time: 1 hr 3 min 26 sec) 
Heartbeat CPU 0 instructions: 110000000 cycles: 257815908 heartbeat IPC: 0.398028 cumulative IPC: 0.39757 (Simulation time: 1 hr 3 min 40 sec) 
Finished CPU 0 instructions: 100000000 cycles: 251528310 cummulative IPC: 0.39757 (Simulation time: 1 hr 3 min 40 sec) 

ChampSim completed all CPUs

Region of Interest Statistics

CPU 0 cummulative IPC: 0.39757 instructions: 100000000 cycles: 251528310
LLC TOTAL     ACCESS:     656703  HIT:     613949  MISS:      42754
LLC LOAD      ACCESS:     310909  HIT:     302843  MISS:       8066
LLC RFO       ACCESS:      30806  HIT:      26497  MISS:       4309
LLC PREFETCH  ACCESS:     212708  HIT:     182979  MISS:      29729
LLC WRITEBACK ACCESS:     102280  HIT:     101630  MISS:        650
Insertion Distribution: 
	LOAD 5504 0 15909 205 
	RFO 1091 0 4890 132 
	PREF 0 1705 25857 14541 
	WRITEBACK 0 0 0 918 
Total Prefetch Downgrades: 3383
