
*** ChampSim Multicore Out-of-Order Simulator ***

Warmup Instructions: 10000000
Simulation Instructions: 100000000
Configuration: 2
Number of CPUs: 1
LLC sets: 2048
LLC ways: 16
Off-chip DRAM Channels: 1 Width: 64-bit Data Rate: 1600 MT/s

CPU 0 runs /datasets/cs240c-wi22-a00-public/data/Assignment2-gz/astar_313B.trace.gz
CPU 0 L1D next line prefetcher
CPU 0 L2C IP-based stride prefetcher
Initialize SRRIP state
Heartbeat CPU 0 instructions: 1000001 cycles: 675696 heartbeat IPC: 1.47996 cumulative IPC: 1.47996 (Simulation time: 0 hr 1 min 4 sec) 
Heartbeat CPU 0 instructions: 2000003 cycles: 1263118 heartbeat IPC: 1.70236 cumulative IPC: 1.58339 (Simulation time: 0 hr 2 min 10 sec) 
Heartbeat CPU 0 instructions: 3000003 cycles: 1937098 heartbeat IPC: 1.48372 cumulative IPC: 1.54871 (Simulation time: 0 hr 3 min 15 sec) 
Heartbeat CPU 0 instructions: 4000000 cycles: 2610553 heartbeat IPC: 1.48488 cumulative IPC: 1.53224 (Simulation time: 0 hr 4 min 4 sec) 
Heartbeat CPU 0 instructions: 5000002 cycles: 3284133 heartbeat IPC: 1.48461 cumulative IPC: 1.52247 (Simulation time: 0 hr 5 min 3 sec) 
Heartbeat CPU 0 instructions: 6000001 cycles: 3870321 heartbeat IPC: 1.70594 cumulative IPC: 1.55026 (Simulation time: 0 hr 5 min 54 sec) 
Heartbeat CPU 0 instructions: 7000001 cycles: 4438788 heartbeat IPC: 1.75912 cumulative IPC: 1.57701 (Simulation time: 0 hr 6 min 37 sec) 
Heartbeat CPU 0 instructions: 8000000 cycles: 4990550 heartbeat IPC: 1.81237 cumulative IPC: 1.60303 (Simulation time: 0 hr 7 min 17 sec) 
Heartbeat CPU 0 instructions: 9000001 cycles: 5552093 heartbeat IPC: 1.78081 cumulative IPC: 1.62101 (Simulation time: 0 hr 8 min 1 sec) 
Heartbeat CPU 0 instructions: 10000002 cycles: 6226939 heartbeat IPC: 1.48182 cumulative IPC: 1.60593 (Simulation time: 0 hr 8 min 40 sec) 

Warmup complete CPU 0 instructions: 10000002 cycles: 6226939 (Simulation time: 0 hr 8 min 40 sec) 

Heartbeat CPU 0 instructions: 11000000 cycles: 12616941 heartbeat IPC: 0.156494 cumulative IPC: 0.156494 (Simulation time: 0 hr 9 min 25 sec) 
Heartbeat CPU 0 instructions: 12000000 cycles: 19522616 heartbeat IPC: 0.144808 cumulative IPC: 0.150425 (Simulation time: 0 hr 10 min 7 sec) 
Heartbeat CPU 0 instructions: 13000003 cycles: 28022917 heartbeat IPC: 0.117643 cumulative IPC: 0.13764 (Simulation time: 0 hr 10 min 56 sec) 
Heartbeat CPU 0 instructions: 14000002 cycles: 34533280 heartbeat IPC: 0.153601 cumulative IPC: 0.141311 (Simulation time: 0 hr 11 min 43 sec) 
Heartbeat CPU 0 instructions: 15000000 cycles: 41432127 heartbeat IPC: 0.144951 cumulative IPC: 0.142024 (Simulation time: 0 hr 12 min 30 sec) 
Heartbeat CPU 0 instructions: 16000000 cycles: 48208556 heartbeat IPC: 0.14757 cumulative IPC: 0.14292 (Simulation time: 0 hr 13 min 10 sec) 
Heartbeat CPU 0 instructions: 17000001 cycles: 54778010 heartbeat IPC: 0.15222 cumulative IPC: 0.144178 (Simulation time: 0 hr 13 min 49 sec) 
Heartbeat CPU 0 instructions: 18000000 cycles: 63913559 heartbeat IPC: 0.109462 cumulative IPC: 0.13868 (Simulation time: 0 hr 14 min 37 sec) 
Heartbeat CPU 0 instructions: 19000000 cycles: 70300672 heartbeat IPC: 0.156565 cumulative IPC: 0.140463 (Simulation time: 0 hr 15 min 15 sec) 
Heartbeat CPU 0 instructions: 20000000 cycles: 77331230 heartbeat IPC: 0.142236 cumulative IPC: 0.140638 (Simulation time: 0 hr 15 min 55 sec) 
Heartbeat CPU 0 instructions: 21000003 cycles: 86428874 heartbeat IPC: 0.109919 cumulative IPC: 0.137154 (Simulation time: 0 hr 16 min 36 sec) 
Heartbeat CPU 0 instructions: 22000002 cycles: 93610364 heartbeat IPC: 0.139247 cumulative IPC: 0.137326 (Simulation time: 0 hr 17 min 22 sec) 
Heartbeat CPU 0 instructions: 23000002 cycles: 99851906 heartbeat IPC: 0.160217 cumulative IPC: 0.138852 (Simulation time: 0 hr 18 min 3 sec) 
Heartbeat CPU 0 instructions: 24000000 cycles: 106701453 heartbeat IPC: 0.145995 cumulative IPC: 0.139339 (Simulation time: 0 hr 18 min 43 sec) 
Heartbeat CPU 0 instructions: 25000001 cycles: 115030510 heartbeat IPC: 0.120062 cumulative IPC: 0.137863 (Simulation time: 0 hr 19 min 29 sec) 
Heartbeat CPU 0 instructions: 26000002 cycles: 121864224 heartbeat IPC: 0.146333 cumulative IPC: 0.138364 (Simulation time: 0 hr 20 min 11 sec) 
Heartbeat CPU 0 instructions: 27000003 cycles: 131149408 heartbeat IPC: 0.107699 cumulative IPC: 0.136084 (Simulation time: 0 hr 20 min 55 sec) 
Heartbeat CPU 0 instructions: 28000000 cycles: 136840787 heartbeat IPC: 0.175704 cumulative IPC: 0.137811 (Simulation time: 0 hr 21 min 37 sec) 
Heartbeat CPU 0 instructions: 29000001 cycles: 145385945 heartbeat IPC: 0.117025 cumulative IPC: 0.136534 (Simulation time: 0 hr 22 min 24 sec) 
Heartbeat CPU 0 instructions: 30000001 cycles: 151374768 heartbeat IPC: 0.166978 cumulative IPC: 0.137791 (Simulation time: 0 hr 23 min 4 sec) 
Heartbeat CPU 0 instructions: 31000002 cycles: 157676715 heartbeat IPC: 0.158681 cumulative IPC: 0.13866 (Simulation time: 0 hr 23 min 42 sec) 
Heartbeat CPU 0 instructions: 32000000 cycles: 163859742 heartbeat IPC: 0.161733 cumulative IPC: 0.139565 (Simulation time: 0 hr 24 min 27 sec) 
Heartbeat CPU 0 instructions: 33000000 cycles: 169899127 heartbeat IPC: 0.16558 cumulative IPC: 0.140525 (Simulation time: 0 hr 25 min 15 sec) 
Heartbeat CPU 0 instructions: 34000000 cycles: 178782156 heartbeat IPC: 0.112574 cumulative IPC: 0.139086 (Simulation time: 0 hr 26 min 2 sec) 
Heartbeat CPU 0 instructions: 35000000 cycles: 184903198 heartbeat IPC: 0.163371 cumulative IPC: 0.139918 (Simulation time: 0 hr 26 min 42 sec) 
Heartbeat CPU 0 instructions: 36000000 cycles: 191487946 heartbeat IPC: 0.151866 cumulative IPC: 0.140343 (Simulation time: 0 hr 27 min 22 sec) 
Heartbeat CPU 0 instructions: 37000002 cycles: 200308682 heartbeat IPC: 0.113369 cumulative IPC: 0.139117 (Simulation time: 0 hr 28 min 11 sec) 
Heartbeat CPU 0 instructions: 38000000 cycles: 206130404 heartbeat IPC: 0.17177 cumulative IPC: 0.140068 (Simulation time: 0 hr 28 min 55 sec) 
Heartbeat CPU 0 instructions: 39000001 cycles: 214848507 heartbeat IPC: 0.114704 cumulative IPC: 0.139008 (Simulation time: 0 hr 29 min 44 sec) 
Heartbeat CPU 0 instructions: 40000000 cycles: 223641636 heartbeat IPC: 0.113725 cumulative IPC: 0.137985 (Simulation time: 0 hr 30 min 33 sec) 
Heartbeat CPU 0 instructions: 41000001 cycles: 229852973 heartbeat IPC: 0.160996 cumulative IPC: 0.138624 (Simulation time: 0 hr 31 min 18 sec) 
Heartbeat CPU 0 instructions: 42000003 cycles: 236970343 heartbeat IPC: 0.140502 cumulative IPC: 0.138682 (Simulation time: 0 hr 32 min 0 sec) 
Heartbeat CPU 0 instructions: 43000002 cycles: 246401516 heartbeat IPC: 0.106031 cumulative IPC: 0.1374 (Simulation time: 0 hr 32 min 45 sec) 
Heartbeat CPU 0 instructions: 44000000 cycles: 252125115 heartbeat IPC: 0.174715 cumulative IPC: 0.138269 (Simulation time: 0 hr 33 min 32 sec) 
Heartbeat CPU 0 instructions: 45000000 cycles: 258357337 heartbeat IPC: 0.160456 cumulative IPC: 0.138817 (Simulation time: 0 hr 34 min 11 sec) 
Heartbeat CPU 0 instructions: 46000002 cycles: 264816929 heartbeat IPC: 0.154809 cumulative IPC: 0.139217 (Simulation time: 0 hr 34 min 51 sec) 
Heartbeat CPU 0 instructions: 47000000 cycles: 271258004 heartbeat IPC: 0.155253 cumulative IPC: 0.139606 (Simulation time: 0 hr 35 min 31 sec) 
Heartbeat CPU 0 instructions: 48000000 cycles: 279646159 heartbeat IPC: 0.119216 cumulative IPC: 0.138981 (Simulation time: 0 hr 36 min 21 sec) 
Heartbeat CPU 0 instructions: 49000000 cycles: 285552887 heartbeat IPC: 0.169298 cumulative IPC: 0.139622 (Simulation time: 0 hr 37 min 2 sec) 
Heartbeat CPU 0 instructions: 50000000 cycles: 291825232 heartbeat IPC: 0.15943 cumulative IPC: 0.140057 (Simulation time: 0 hr 37 min 43 sec) 
Heartbeat CPU 0 instructions: 51000000 cycles: 298774153 heartbeat IPC: 0.143907 cumulative IPC: 0.140148 (Simulation time: 0 hr 38 min 24 sec) 
Heartbeat CPU 0 instructions: 52000000 cycles: 307035464 heartbeat IPC: 0.121046 cumulative IPC: 0.139624 (Simulation time: 0 hr 39 min 12 sec) 
Heartbeat CPU 0 instructions: 53000000 cycles: 313816058 heartbeat IPC: 0.14748 cumulative IPC: 0.139797 (Simulation time: 0 hr 39 min 56 sec) 
Heartbeat CPU 0 instructions: 54000000 cycles: 321590583 heartbeat IPC: 0.128625 cumulative IPC: 0.139521 (Simulation time: 0 hr 40 min 38 sec) 
Heartbeat CPU 0 instructions: 55000001 cycles: 329805993 heartbeat IPC: 0.121723 cumulative IPC: 0.13907 (Simulation time: 0 hr 41 min 22 sec) 
Heartbeat CPU 0 instructions: 56000000 cycles: 339644905 heartbeat IPC: 0.101637 cumulative IPC: 0.137965 (Simulation time: 0 hr 42 min 7 sec) 
Heartbeat CPU 0 instructions: 57000000 cycles: 345790335 heartbeat IPC: 0.162723 cumulative IPC: 0.138413 (Simulation time: 0 hr 42 min 48 sec) 
Heartbeat CPU 0 instructions: 58000001 cycles: 352166713 heartbeat IPC: 0.156829 cumulative IPC: 0.138752 (Simulation time: 0 hr 43 min 26 sec) 
Heartbeat CPU 0 instructions: 59000002 cycles: 360498070 heartbeat IPC: 0.120029 cumulative IPC: 0.138312 (Simulation time: 0 hr 44 min 10 sec) 
Heartbeat CPU 0 instructions: 60000000 cycles: 367969356 heartbeat IPC: 0.133845 cumulative IPC: 0.13822 (Simulation time: 0 hr 44 min 53 sec) 
Heartbeat CPU 0 instructions: 61000001 cycles: 374192310 heartbeat IPC: 0.160696 cumulative IPC: 0.1386 (Simulation time: 0 hr 45 min 33 sec) 
Heartbeat CPU 0 instructions: 62000001 cycles: 380838680 heartbeat IPC: 0.150458 cumulative IPC: 0.13881 (Simulation time: 0 hr 46 min 15 sec) 
Heartbeat CPU 0 instructions: 63000000 cycles: 387829365 heartbeat IPC: 0.143047 cumulative IPC: 0.138888 (Simulation time: 0 hr 46 min 54 sec) 
Heartbeat CPU 0 instructions: 64000000 cycles: 396805512 heartbeat IPC: 0.111406 cumulative IPC: 0.138256 (Simulation time: 0 hr 47 min 35 sec) 
Heartbeat CPU 0 instructions: 65000000 cycles: 403385633 heartbeat IPC: 0.151973 cumulative IPC: 0.138484 (Simulation time: 0 hr 48 min 15 sec) 
Heartbeat CPU 0 instructions: 66000001 cycles: 410099668 heartbeat IPC: 0.148942 cumulative IPC: 0.138658 (Simulation time: 0 hr 48 min 52 sec) 
Heartbeat CPU 0 instructions: 67000000 cycles: 417412329 heartbeat IPC: 0.136749 cumulative IPC: 0.138624 (Simulation time: 0 hr 49 min 33 sec) 
Heartbeat CPU 0 instructions: 68000000 cycles: 424932338 heartbeat IPC: 0.132979 cumulative IPC: 0.138522 (Simulation time: 0 hr 50 min 12 sec) 
Heartbeat CPU 0 instructions: 69000000 cycles: 436737847 heartbeat IPC: 0.0847062 cumulative IPC: 0.137046 (Simulation time: 0 hr 51 min 3 sec) 
Heartbeat CPU 0 instructions: 70000000 cycles: 443401721 heartbeat IPC: 0.150063 cumulative IPC: 0.137245 (Simulation time: 0 hr 51 min 41 sec) 
Heartbeat CPU 0 instructions: 71000002 cycles: 450363957 heartbeat IPC: 0.143632 cumulative IPC: 0.137345 (Simulation time: 0 hr 52 min 16 sec) 
Heartbeat CPU 0 instructions: 72000000 cycles: 457842114 heartbeat IPC: 0.133723 cumulative IPC: 0.137285 (Simulation time: 0 hr 52 min 50 sec) 
Heartbeat CPU 0 instructions: 73000003 cycles: 465398431 heartbeat IPC: 0.13234 cumulative IPC: 0.137204 (Simulation time: 0 hr 53 min 22 sec) 
Heartbeat CPU 0 instructions: 74000003 cycles: 474642381 heartbeat IPC: 0.108179 cumulative IPC: 0.136631 (Simulation time: 0 hr 53 min 57 sec) 
Heartbeat CPU 0 instructions: 75000000 cycles: 480961301 heartbeat IPC: 0.158254 cumulative IPC: 0.136919 (Simulation time: 0 hr 54 min 32 sec) 
Heartbeat CPU 0 instructions: 76000000 cycles: 487140535 heartbeat IPC: 0.161832 cumulative IPC: 0.137239 (Simulation time: 0 hr 55 min 3 sec) 
Heartbeat CPU 0 instructions: 77000000 cycles: 493626262 heartbeat IPC: 0.154185 cumulative IPC: 0.137464 (Simulation time: 0 hr 55 min 32 sec) 
Heartbeat CPU 0 instructions: 78000001 cycles: 500007711 heartbeat IPC: 0.156704 cumulative IPC: 0.137713 (Simulation time: 0 hr 56 min 1 sec) 
Heartbeat CPU 0 instructions: 79000000 cycles: 508978354 heartbeat IPC: 0.111475 cumulative IPC: 0.137245 (Simulation time: 0 hr 56 min 34 sec) 
Heartbeat CPU 0 instructions: 80000000 cycles: 515036834 heartbeat IPC: 0.165058 cumulative IPC: 0.137576 (Simulation time: 0 hr 57 min 1 sec) 
Heartbeat CPU 0 instructions: 81000001 cycles: 522449422 heartbeat IPC: 0.134906 cumulative IPC: 0.137538 (Simulation time: 0 hr 57 min 27 sec) 
Heartbeat CPU 0 instructions: 82000001 cycles: 529450447 heartbeat IPC: 0.142836 cumulative IPC: 0.137608 (Simulation time: 0 hr 57 min 54 sec) 
Heartbeat CPU 0 instructions: 83000002 cycles: 535179751 heartbeat IPC: 0.174541 cumulative IPC: 0.138009 (Simulation time: 0 hr 58 min 16 sec) 
Heartbeat CPU 0 instructions: 84000000 cycles: 541539603 heartbeat IPC: 0.157236 cumulative IPC: 0.138237 (Simulation time: 0 hr 58 min 39 sec) 
Heartbeat CPU 0 instructions: 85000000 cycles: 548736233 heartbeat IPC: 0.138954 cumulative IPC: 0.138246 (Simulation time: 0 hr 59 min 3 sec) 
Heartbeat CPU 0 instructions: 86000001 cycles: 556694685 heartbeat IPC: 0.125653 cumulative IPC: 0.138064 (Simulation time: 0 hr 59 min 29 sec) 
Heartbeat CPU 0 instructions: 87000000 cycles: 562366356 heartbeat IPC: 0.176315 cumulative IPC: 0.138454 (Simulation time: 0 hr 59 min 51 sec) 
Heartbeat CPU 0 instructions: 88000000 cycles: 568532547 heartbeat IPC: 0.162175 cumulative IPC: 0.138715 (Simulation time: 1 hr 0 min 13 sec) 
Heartbeat CPU 0 instructions: 89000002 cycles: 574996854 heartbeat IPC: 0.154696 cumulative IPC: 0.138896 (Simulation time: 1 hr 0 min 37 sec) 
Heartbeat CPU 0 instructions: 90000002 cycles: 581241104 heartbeat IPC: 0.160147 cumulative IPC: 0.139127 (Simulation time: 1 hr 1 min 0 sec) 
Heartbeat CPU 0 instructions: 91000001 cycles: 590065981 heartbeat IPC: 0.113316 cumulative IPC: 0.138737 (Simulation time: 1 hr 1 min 23 sec) 
Heartbeat CPU 0 instructions: 92000000 cycles: 596708333 heartbeat IPC: 0.150549 cumulative IPC: 0.13887 (Simulation time: 1 hr 1 min 42 sec) 
Heartbeat CPU 0 instructions: 93000003 cycles: 604015679 heartbeat IPC: 0.136849 cumulative IPC: 0.138845 (Simulation time: 1 hr 2 min 1 sec) 
Heartbeat CPU 0 instructions: 94000000 cycles: 611664366 heartbeat IPC: 0.130741 cumulative IPC: 0.138743 (Simulation time: 1 hr 2 min 21 sec) 
Heartbeat CPU 0 instructions: 95000000 cycles: 618265407 heartbeat IPC: 0.151491 cumulative IPC: 0.13888 (Simulation time: 1 hr 2 min 39 sec) 
Heartbeat CPU 0 instructions: 96000000 cycles: 627495747 heartbeat IPC: 0.108338 cumulative IPC: 0.138426 (Simulation time: 1 hr 2 min 59 sec) 
Heartbeat CPU 0 instructions: 97000000 cycles: 634275986 heartbeat IPC: 0.147487 cumulative IPC: 0.138524 (Simulation time: 1 hr 3 min 15 sec) 
Heartbeat CPU 0 instructions: 98000003 cycles: 642067614 heartbeat IPC: 0.128343 cumulative IPC: 0.138399 (Simulation time: 1 hr 3 min 31 sec) 
Heartbeat CPU 0 instructions: 99000001 cycles: 650133086 heartbeat IPC: 0.123985 cumulative IPC: 0.138219 (Simulation time: 1 hr 3 min 47 sec) 
Heartbeat CPU 0 instructions: 100000000 cycles: 657791317 heartbeat IPC: 0.130578 cumulative IPC: 0.138129 (Simulation time: 1 hr 4 min 3 sec) 
Heartbeat CPU 0 instructions: 101000000 cycles: 666725069 heartbeat IPC: 0.111935 cumulative IPC: 0.137775 (Simulation time: 1 hr 4 min 18 sec) 
Heartbeat CPU 0 instructions: 102000001 cycles: 672617322 heartbeat IPC: 0.169715 cumulative IPC: 0.138057 (Simulation time: 1 hr 4 min 28 sec) 
Heartbeat CPU 0 instructions: 103000000 cycles: 679215707 heartbeat IPC: 0.151552 cumulative IPC: 0.13819 (Simulation time: 1 hr 4 min 37 sec) 
Heartbeat CPU 0 instructions: 104000000 cycles: 685720215 heartbeat IPC: 0.15374 cumulative IPC: 0.138338 (Simulation time: 1 hr 4 min 48 sec) 
Heartbeat CPU 0 instructions: 105000000 cycles: 691863561 heartbeat IPC: 0.162778 cumulative IPC: 0.138557 (Simulation time: 1 hr 4 min 57 sec) 
Heartbeat CPU 0 instructions: 106000000 cycles: 700911007 heartbeat IPC: 0.110528 cumulative IPC: 0.138192 (Simulation time: 1 hr 5 min 8 sec) 
Heartbeat CPU 0 instructions: 107000002 cycles: 707682877 heartbeat IPC: 0.14767 cumulative IPC: 0.138284 (Simulation time: 1 hr 5 min 17 sec) 
Heartbeat CPU 0 instructions: 108000000 cycles: 717013598 heartbeat IPC: 0.107173 cumulative IPC: 0.137875 (Simulation time: 1 hr 5 min 26 sec) 
Heartbeat CPU 0 instructions: 109000003 cycles: 723657720 heartbeat IPC: 0.150509 cumulative IPC: 0.137992 (Simulation time: 1 hr 5 min 35 sec) 
Heartbeat CPU 0 instructions: 110000003 cycles: 730094031 heartbeat IPC: 0.155369 cumulative IPC: 0.138147 (Simulation time: 1 hr 5 min 43 sec) 
Finished CPU 0 instructions: 100000001 cycles: 723867092 cummulative IPC: 0.138147 (Simulation time: 1 hr 5 min 43 sec) 

ChampSim completed all CPUs

Region of Interest Statistics

CPU 0 cummulative IPC: 0.138147 instructions: 100000001 cycles: 723867092
LLC TOTAL     ACCESS:    8751866  HIT:    2692317  MISS:    6059549
LLC LOAD      ACCESS:    1887635  HIT:     480925  MISS:    1406710
LLC RFO       ACCESS:    1828634  HIT:     466956  MISS:    1361678
LLC PREFETCH  ACCESS:    2272791  HIT:     186286  MISS:    2086505
LLC WRITEBACK ACCESS:    2762806  HIT:    1558150  MISS:    1204656
Insertion Distribution: 
	LOAD 511525 0 337329 664063 
	RFO 193841 0 90051 1357085 
	PREF 0 75888 189462 2039372 
	WRITEBACK 0 0 0 1473766 
Total Prefetch Downgrades: 78896
