
*** ChampSim Multicore Out-of-Order Simulator ***

Warmup Instructions: 10000000
Simulation Instructions: 100000000
Configuration: 2
Number of CPUs: 1
LLC sets: 2048
LLC ways: 16
Off-chip DRAM Channels: 1 Width: 64-bit Data Rate: 1600 MT/s

CPU 0 runs /datasets/cs240c-wi22-a00-public/data/Assignment2-gz/omnetpp_17B.trace.gz
CPU 0 L1D next line prefetcher
CPU 0 L2C IP-based stride prefetcher
Initialize SRRIP state
Heartbeat CPU 0 instructions: 1000000 cycles: 559570 heartbeat IPC: 1.78709 cumulative IPC: 1.78709 (Simulation time: 0 hr 0 min 27 sec) 
Heartbeat CPU 0 instructions: 2000002 cycles: 1133730 heartbeat IPC: 1.74168 cumulative IPC: 1.76409 (Simulation time: 0 hr 0 min 54 sec) 
Heartbeat CPU 0 instructions: 3000001 cycles: 1769037 heartbeat IPC: 1.57404 cumulative IPC: 1.69584 (Simulation time: 0 hr 1 min 19 sec) 
Heartbeat CPU 0 instructions: 4000000 cycles: 2334056 heartbeat IPC: 1.76985 cumulative IPC: 1.71375 (Simulation time: 0 hr 1 min 46 sec) 
Heartbeat CPU 0 instructions: 5000002 cycles: 2893209 heartbeat IPC: 1.78842 cumulative IPC: 1.72819 (Simulation time: 0 hr 2 min 12 sec) 
Heartbeat CPU 0 instructions: 6000000 cycles: 3471837 heartbeat IPC: 1.72822 cumulative IPC: 1.72819 (Simulation time: 0 hr 2 min 37 sec) 
Heartbeat CPU 0 instructions: 7000000 cycles: 4036523 heartbeat IPC: 1.7709 cumulative IPC: 1.73417 (Simulation time: 0 hr 3 min 3 sec) 
Heartbeat CPU 0 instructions: 8000000 cycles: 4698257 heartbeat IPC: 1.51118 cumulative IPC: 1.70276 (Simulation time: 0 hr 3 min 27 sec) 
Heartbeat CPU 0 instructions: 9000000 cycles: 5360062 heartbeat IPC: 1.51102 cumulative IPC: 1.67909 (Simulation time: 0 hr 3 min 50 sec) 
Heartbeat CPU 0 instructions: 10000001 cycles: 6021631 heartbeat IPC: 1.51156 cumulative IPC: 1.66068 (Simulation time: 0 hr 4 min 13 sec) 

Warmup complete CPU 0 instructions: 10000001 cycles: 6021631 (Simulation time: 0 hr 4 min 13 sec) 

Heartbeat CPU 0 instructions: 11000001 cycles: 7066427 heartbeat IPC: 0.957125 cumulative IPC: 0.957125 (Simulation time: 0 hr 4 min 37 sec) 
Heartbeat CPU 0 instructions: 12000000 cycles: 8110970 heartbeat IPC: 0.957355 cumulative IPC: 0.95724 (Simulation time: 0 hr 5 min 1 sec) 
Heartbeat CPU 0 instructions: 13000000 cycles: 9180862 heartbeat IPC: 0.934674 cumulative IPC: 0.949598 (Simulation time: 0 hr 5 min 29 sec) 
Heartbeat CPU 0 instructions: 14000001 cycles: 10225113 heartbeat IPC: 0.957625 cumulative IPC: 0.951592 (Simulation time: 0 hr 5 min 53 sec) 
Heartbeat CPU 0 instructions: 15000000 cycles: 11269321 heartbeat IPC: 0.957663 cumulative IPC: 0.9528 (Simulation time: 0 hr 6 min 19 sec) 
Heartbeat CPU 0 instructions: 16000000 cycles: 12313358 heartbeat IPC: 0.95782 cumulative IPC: 0.953633 (Simulation time: 0 hr 6 min 44 sec) 
Heartbeat CPU 0 instructions: 17000000 cycles: 13358895 heartbeat IPC: 0.956446 cumulative IPC: 0.954034 (Simulation time: 0 hr 7 min 9 sec) 
Heartbeat CPU 0 instructions: 18000001 cycles: 14400219 heartbeat IPC: 0.960317 cumulative IPC: 0.954815 (Simulation time: 0 hr 7 min 36 sec) 
Heartbeat CPU 0 instructions: 19000002 cycles: 15434714 heartbeat IPC: 0.966656 cumulative IPC: 0.956116 (Simulation time: 0 hr 8 min 1 sec) 
Heartbeat CPU 0 instructions: 20000000 cycles: 18798030 heartbeat IPC: 0.297325 cumulative IPC: 0.782693 (Simulation time: 0 hr 8 min 34 sec) 
Heartbeat CPU 0 instructions: 21000000 cycles: 21259011 heartbeat IPC: 0.406342 cumulative IPC: 0.721909 (Simulation time: 0 hr 9 min 3 sec) 
Heartbeat CPU 0 instructions: 22000002 cycles: 23157370 heartbeat IPC: 0.526772 cumulative IPC: 0.700291 (Simulation time: 0 hr 9 min 29 sec) 
Heartbeat CPU 0 instructions: 23000000 cycles: 26478913 heartbeat IPC: 0.301064 cumulative IPC: 0.635471 (Simulation time: 0 hr 10 min 1 sec) 
Heartbeat CPU 0 instructions: 24000000 cycles: 29751006 heartbeat IPC: 0.305615 cumulative IPC: 0.589986 (Simulation time: 0 hr 10 min 34 sec) 
Heartbeat CPU 0 instructions: 25000001 cycles: 32312967 heartbeat IPC: 0.390326 cumulative IPC: 0.57053 (Simulation time: 0 hr 11 min 4 sec) 
Heartbeat CPU 0 instructions: 26000001 cycles: 34043225 heartbeat IPC: 0.577949 cumulative IPC: 0.570988 (Simulation time: 0 hr 11 min 32 sec) 
Heartbeat CPU 0 instructions: 27000000 cycles: 37294788 heartbeat IPC: 0.307544 cumulative IPC: 0.543597 (Simulation time: 0 hr 12 min 6 sec) 
Heartbeat CPU 0 instructions: 28000000 cycles: 40540560 heartbeat IPC: 0.308093 cumulative IPC: 0.521453 (Simulation time: 0 hr 12 min 39 sec) 
Heartbeat CPU 0 instructions: 29000000 cycles: 43270025 heartbeat IPC: 0.366372 cumulative IPC: 0.510089 (Simulation time: 0 hr 13 min 10 sec) 
Heartbeat CPU 0 instructions: 30000000 cycles: 44794686 heartbeat IPC: 0.655883 cumulative IPC: 0.515822 (Simulation time: 0 hr 13 min 35 sec) 
Heartbeat CPU 0 instructions: 31000000 cycles: 47999340 heartbeat IPC: 0.312046 cumulative IPC: 0.500265 (Simulation time: 0 hr 14 min 8 sec) 
Heartbeat CPU 0 instructions: 32000000 cycles: 51202557 heartbeat IPC: 0.312186 cumulative IPC: 0.486931 (Simulation time: 0 hr 14 min 40 sec) 
Heartbeat CPU 0 instructions: 33000001 cycles: 54116663 heartbeat IPC: 0.343159 cumulative IPC: 0.47822 (Simulation time: 0 hr 15 min 11 sec) 
Heartbeat CPU 0 instructions: 34000000 cycles: 55434071 heartbeat IPC: 0.759066 cumulative IPC: 0.485708 (Simulation time: 0 hr 15 min 38 sec) 
Heartbeat CPU 0 instructions: 35000003 cycles: 58630082 heartbeat IPC: 0.312891 cumulative IPC: 0.475209 (Simulation time: 0 hr 16 min 10 sec) 
Heartbeat CPU 0 instructions: 36000000 cycles: 61874696 heartbeat IPC: 0.308202 cumulative IPC: 0.465507 (Simulation time: 0 hr 16 min 42 sec) 
Heartbeat CPU 0 instructions: 37000001 cycles: 64690563 heartbeat IPC: 0.355131 cumulative IPC: 0.460209 (Simulation time: 0 hr 17 min 13 sec) 
Heartbeat CPU 0 instructions: 38000000 cycles: 66111064 heartbeat IPC: 0.703976 cumulative IPC: 0.465972 (Simulation time: 0 hr 17 min 40 sec) 
Heartbeat CPU 0 instructions: 39000000 cycles: 69302715 heartbeat IPC: 0.313317 cumulative IPC: 0.458273 (Simulation time: 0 hr 18 min 12 sec) 
Heartbeat CPU 0 instructions: 40000000 cycles: 72500681 heartbeat IPC: 0.312699 cumulative IPC: 0.45127 (Simulation time: 0 hr 18 min 43 sec) 
Heartbeat CPU 0 instructions: 41000002 cycles: 75220685 heartbeat IPC: 0.367647 cumulative IPC: 0.447983 (Simulation time: 0 hr 19 min 13 sec) 
Heartbeat CPU 0 instructions: 42000000 cycles: 76730343 heartbeat IPC: 0.6624 cumulative IPC: 0.452561 (Simulation time: 0 hr 19 min 41 sec) 
Heartbeat CPU 0 instructions: 43000003 cycles: 81983400 heartbeat IPC: 0.190366 cumulative IPC: 0.434429 (Simulation time: 0 hr 20 min 23 sec) 
Heartbeat CPU 0 instructions: 44000000 cycles: 83029949 heartbeat IPC: 0.955519 cumulative IPC: 0.441511 (Simulation time: 0 hr 20 min 49 sec) 
Heartbeat CPU 0 instructions: 45000003 cycles: 84072729 heartbeat IPC: 0.958978 cumulative IPC: 0.448424 (Simulation time: 0 hr 21 min 15 sec) 
Heartbeat CPU 0 instructions: 46000001 cycles: 85115796 heartbeat IPC: 0.958709 cumulative IPC: 0.455154 (Simulation time: 0 hr 21 min 39 sec) 
Heartbeat CPU 0 instructions: 47000001 cycles: 86160351 heartbeat IPC: 0.957345 cumulative IPC: 0.461699 (Simulation time: 0 hr 22 min 4 sec) 
Heartbeat CPU 0 instructions: 48000000 cycles: 87203529 heartbeat IPC: 0.958608 cumulative IPC: 0.468085 (Simulation time: 0 hr 22 min 30 sec) 
Heartbeat CPU 0 instructions: 49000000 cycles: 88245335 heartbeat IPC: 0.959872 cumulative IPC: 0.474316 (Simulation time: 0 hr 22 min 56 sec) 
Heartbeat CPU 0 instructions: 50000000 cycles: 89288123 heartbeat IPC: 0.958968 cumulative IPC: 0.480385 (Simulation time: 0 hr 23 min 19 sec) 
Heartbeat CPU 0 instructions: 51000002 cycles: 90331011 heartbeat IPC: 0.958878 cumulative IPC: 0.486304 (Simulation time: 0 hr 23 min 41 sec) 
Heartbeat CPU 0 instructions: 52000000 cycles: 91375250 heartbeat IPC: 0.957633 cumulative IPC: 0.492071 (Simulation time: 0 hr 24 min 4 sec) 
Heartbeat CPU 0 instructions: 53000001 cycles: 92418017 heartbeat IPC: 0.958988 cumulative IPC: 0.497706 (Simulation time: 0 hr 24 min 27 sec) 
Heartbeat CPU 0 instructions: 54000002 cycles: 93486232 heartbeat IPC: 0.936142 cumulative IPC: 0.503061 (Simulation time: 0 hr 24 min 50 sec) 
Heartbeat CPU 0 instructions: 55000003 cycles: 94526507 heartbeat IPC: 0.961285 cumulative IPC: 0.508447 (Simulation time: 0 hr 25 min 14 sec) 
Heartbeat CPU 0 instructions: 56000000 cycles: 96730397 heartbeat IPC: 0.453742 cumulative IPC: 0.507117 (Simulation time: 0 hr 25 min 39 sec) 
Heartbeat CPU 0 instructions: 57000003 cycles: 98738999 heartbeat IPC: 0.49786 cumulative IPC: 0.506917 (Simulation time: 0 hr 26 min 6 sec) 
Heartbeat CPU 0 instructions: 58000000 cycles: 101947113 heartbeat IPC: 0.311709 cumulative IPC: 0.500388 (Simulation time: 0 hr 26 min 37 sec) 
Heartbeat CPU 0 instructions: 59000003 cycles: 105149996 heartbeat IPC: 0.31222 cumulative IPC: 0.494309 (Simulation time: 0 hr 27 min 7 sec) 
Heartbeat CPU 0 instructions: 60000000 cycles: 107508020 heartbeat IPC: 0.424083 cumulative IPC: 0.492677 (Simulation time: 0 hr 27 min 32 sec) 
Heartbeat CPU 0 instructions: 61000001 cycles: 109374655 heartbeat IPC: 0.535724 cumulative IPC: 0.493454 (Simulation time: 0 hr 27 min 58 sec) 
Heartbeat CPU 0 instructions: 62000001 cycles: 112566349 heartbeat IPC: 0.313313 cumulative IPC: 0.488058 (Simulation time: 0 hr 28 min 30 sec) 
Heartbeat CPU 0 instructions: 63000000 cycles: 115774170 heartbeat IPC: 0.311738 cumulative IPC: 0.482905 (Simulation time: 0 hr 29 min 2 sec) 
Heartbeat CPU 0 instructions: 64000000 cycles: 118296338 heartbeat IPC: 0.396484 cumulative IPC: 0.480963 (Simulation time: 0 hr 29 min 33 sec) 
Heartbeat CPU 0 instructions: 65000000 cycles: 119997695 heartbeat IPC: 0.587766 cumulative IPC: 0.482557 (Simulation time: 0 hr 30 min 0 sec) 
Heartbeat CPU 0 instructions: 66000000 cycles: 123195238 heartbeat IPC: 0.31274 cumulative IPC: 0.477923 (Simulation time: 0 hr 30 min 34 sec) 
Heartbeat CPU 0 instructions: 67000001 cycles: 126398352 heartbeat IPC: 0.312196 cumulative IPC: 0.473513 (Simulation time: 0 hr 31 min 5 sec) 
Heartbeat CPU 0 instructions: 68000000 cycles: 129094243 heartbeat IPC: 0.370935 cumulative IPC: 0.471267 (Simulation time: 0 hr 31 min 34 sec) 
Heartbeat CPU 0 instructions: 69000001 cycles: 130622267 heartbeat IPC: 0.654441 cumulative IPC: 0.473513 (Simulation time: 0 hr 32 min 0 sec) 
Heartbeat CPU 0 instructions: 70000001 cycles: 133810046 heartbeat IPC: 0.313698 cumulative IPC: 0.469526 (Simulation time: 0 hr 32 min 30 sec) 
Heartbeat CPU 0 instructions: 71000001 cycles: 137004653 heartbeat IPC: 0.313028 cumulative IPC: 0.465709 (Simulation time: 0 hr 33 min 1 sec) 
Heartbeat CPU 0 instructions: 72000000 cycles: 139717640 heartbeat IPC: 0.368597 cumulative IPC: 0.463739 (Simulation time: 0 hr 33 min 33 sec) 
Heartbeat CPU 0 instructions: 73000000 cycles: 141253887 heartbeat IPC: 0.650937 cumulative IPC: 0.465865 (Simulation time: 0 hr 34 min 1 sec) 
Heartbeat CPU 0 instructions: 74000003 cycles: 144461185 heartbeat IPC: 0.31179 cumulative IPC: 0.462296 (Simulation time: 0 hr 34 min 33 sec) 
Heartbeat CPU 0 instructions: 75000001 cycles: 147666191 heartbeat IPC: 0.312011 cumulative IPC: 0.458895 (Simulation time: 0 hr 35 min 7 sec) 
Heartbeat CPU 0 instructions: 76000000 cycles: 150265973 heartbeat IPC: 0.384647 cumulative IPC: 0.457557 (Simulation time: 0 hr 35 min 37 sec) 
Heartbeat CPU 0 instructions: 77000001 cycles: 151895388 heartbeat IPC: 0.613718 cumulative IPC: 0.459301 (Simulation time: 0 hr 36 min 8 sec) 
Heartbeat CPU 0 instructions: 78000000 cycles: 155094284 heartbeat IPC: 0.312608 cumulative IPC: 0.456153 (Simulation time: 0 hr 36 min 40 sec) 
Heartbeat CPU 0 instructions: 79000000 cycles: 158456922 heartbeat IPC: 0.297386 cumulative IPC: 0.452651 (Simulation time: 0 hr 37 min 13 sec) 
Heartbeat CPU 0 instructions: 80000000 cycles: 160266634 heartbeat IPC: 0.552574 cumulative IPC: 0.453823 (Simulation time: 0 hr 37 min 38 sec) 
Heartbeat CPU 0 instructions: 81000001 cycles: 162679816 heartbeat IPC: 0.414391 cumulative IPC: 0.453216 (Simulation time: 0 hr 38 min 6 sec) 
Heartbeat CPU 0 instructions: 82000000 cycles: 165881567 heartbeat IPC: 0.312329 cumulative IPC: 0.450394 (Simulation time: 0 hr 38 min 42 sec) 
Heartbeat CPU 0 instructions: 83000000 cycles: 169081584 heartbeat IPC: 0.312498 cumulative IPC: 0.447688 (Simulation time: 0 hr 39 min 12 sec) 
Heartbeat CPU 0 instructions: 84000000 cycles: 170862164 heartbeat IPC: 0.561615 cumulative IPC: 0.448919 (Simulation time: 0 hr 39 min 38 sec) 
Heartbeat CPU 0 instructions: 85000003 cycles: 173301024 heartbeat IPC: 0.410029 cumulative IPC: 0.448352 (Simulation time: 0 hr 40 min 7 sec) 
Heartbeat CPU 0 instructions: 86000001 cycles: 176507586 heartbeat IPC: 0.31186 cumulative IPC: 0.445785 (Simulation time: 0 hr 40 min 38 sec) 
Heartbeat CPU 0 instructions: 87000000 cycles: 179705077 heartbeat IPC: 0.312745 cumulative IPC: 0.443335 (Simulation time: 0 hr 41 min 12 sec) 
Heartbeat CPU 0 instructions: 88000000 cycles: 181345024 heartbeat IPC: 0.609776 cumulative IPC: 0.444892 (Simulation time: 0 hr 41 min 41 sec) 
Heartbeat CPU 0 instructions: 89000000 cycles: 185980549 heartbeat IPC: 0.215725 cumulative IPC: 0.438989 (Simulation time: 0 hr 42 min 16 sec) 
Heartbeat CPU 0 instructions: 90000002 cycles: 187023993 heartbeat IPC: 0.958367 cumulative IPC: 0.441983 (Simulation time: 0 hr 42 min 40 sec) 
Heartbeat CPU 0 instructions: 91000001 cycles: 188068201 heartbeat IPC: 0.957663 cumulative IPC: 0.444941 (Simulation time: 0 hr 43 min 3 sec) 
Heartbeat CPU 0 instructions: 92000000 cycles: 189111772 heartbeat IPC: 0.958247 cumulative IPC: 0.447867 (Simulation time: 0 hr 43 min 28 sec) 
Heartbeat CPU 0 instructions: 93000002 cycles: 190156037 heartbeat IPC: 0.957613 cumulative IPC: 0.450758 (Simulation time: 0 hr 43 min 53 sec) 
Heartbeat CPU 0 instructions: 94000001 cycles: 191199865 heartbeat IPC: 0.958011 cumulative IPC: 0.453617 (Simulation time: 0 hr 44 min 18 sec) 
Heartbeat CPU 0 instructions: 95000000 cycles: 192244129 heartbeat IPC: 0.957611 cumulative IPC: 0.456443 (Simulation time: 0 hr 44 min 43 sec) 
Heartbeat CPU 0 instructions: 96000000 cycles: 193288924 heartbeat IPC: 0.957126 cumulative IPC: 0.459237 (Simulation time: 0 hr 45 min 8 sec) 
Heartbeat CPU 0 instructions: 97000002 cycles: 194359886 heartbeat IPC: 0.933742 cumulative IPC: 0.461935 (Simulation time: 0 hr 45 min 33 sec) 
Heartbeat CPU 0 instructions: 98000000 cycles: 195405699 heartbeat IPC: 0.956192 cumulative IPC: 0.464664 (Simulation time: 0 hr 46 min 0 sec) 
Heartbeat CPU 0 instructions: 99000003 cycles: 196444126 heartbeat IPC: 0.962998 cumulative IPC: 0.467382 (Simulation time: 0 hr 46 min 22 sec) 
Heartbeat CPU 0 instructions: 100000000 cycles: 197480580 heartbeat IPC: 0.964825 cumulative IPC: 0.470075 (Simulation time: 0 hr 46 min 47 sec) 
Heartbeat CPU 0 instructions: 101000001 cycles: 198521670 heartbeat IPC: 0.960533 cumulative IPC: 0.472727 (Simulation time: 0 hr 47 min 9 sec) 
Heartbeat CPU 0 instructions: 102000001 cycles: 201669911 heartbeat IPC: 0.317638 cumulative IPC: 0.470232 (Simulation time: 0 hr 47 min 34 sec) 
Heartbeat CPU 0 instructions: 103000001 cycles: 203053768 heartbeat IPC: 0.722618 cumulative IPC: 0.472004 (Simulation time: 0 hr 47 min 56 sec) 
Heartbeat CPU 0 instructions: 104000000 cycles: 205950155 heartbeat IPC: 0.345257 cumulative IPC: 0.470168 (Simulation time: 0 hr 48 min 21 sec) 
Heartbeat CPU 0 instructions: 105000000 cycles: 209150284 heartbeat IPC: 0.312487 cumulative IPC: 0.467684 (Simulation time: 0 hr 48 min 49 sec) 
Heartbeat CPU 0 instructions: 106000000 cycles: 212295842 heartbeat IPC: 0.317909 cumulative IPC: 0.4654 (Simulation time: 0 hr 49 min 16 sec) 
Heartbeat CPU 0 instructions: 107000001 cycles: 213828098 heartbeat IPC: 0.652633 cumulative IPC: 0.46678 (Simulation time: 0 hr 49 min 40 sec) 
Heartbeat CPU 0 instructions: 108000000 cycles: 216569068 heartbeat IPC: 0.364834 cumulative IPC: 0.465453 (Simulation time: 0 hr 50 min 8 sec) 
Heartbeat CPU 0 instructions: 109000000 cycles: 219769098 heartbeat IPC: 0.312497 cumulative IPC: 0.463163 (Simulation time: 0 hr 50 min 37 sec) 
Heartbeat CPU 0 instructions: 110000000 cycles: 222954666 heartbeat IPC: 0.313916 cumulative IPC: 0.460972 (Simulation time: 0 hr 51 min 7 sec) 
Finished CPU 0 instructions: 100000003 cycles: 216933040 cummulative IPC: 0.460972 (Simulation time: 0 hr 51 min 7 sec) 

ChampSim completed all CPUs

Region of Interest Statistics

CPU 0 cummulative IPC: 0.460972 instructions: 100000003 cycles: 216933040
LLC TOTAL     ACCESS:    3283322  HIT:    1529937  MISS:    1753385
LLC LOAD      ACCESS:    1564298  HIT:    1269157  MISS:     295141
LLC RFO       ACCESS:       5220  HIT:       2634  MISS:       2586
LLC PREFETCH  ACCESS:    1696956  HIT:     248099  MISS:    1448857
LLC WRITEBACK ACCESS:      16848  HIT:      10047  MISS:       6801
Insertion Distribution: 
	LOAD 8398 0 33701 372769 
	RFO 0 0 999 1886 
	PREF 0 1530 50368 1530070 
	WRITEBACK 0 0 0 6811 
Total Prefetch Downgrades: 2366
