
*** ChampSim Multicore Out-of-Order Simulator ***

Warmup Instructions: 10000000
Simulation Instructions: 100000000
Configuration: 2
Number of CPUs: 1
LLC sets: 2048
LLC ways: 16
Off-chip DRAM Channels: 1 Width: 64-bit Data Rate: 1600 MT/s

CPU 0 runs /datasets/cs240c-wi22-a00-public/data/Assignment2-gz/omnetpp_4B.trace.gz
CPU 0 L1D next line prefetcher
CPU 0 L2C IP-based stride prefetcher
Initialize SRRIP state
Heartbeat CPU 0 instructions: 1000001 cycles: 566985 heartbeat IPC: 1.76372 cumulative IPC: 1.76372 (Simulation time: 0 hr 0 min 31 sec) 
Heartbeat CPU 0 instructions: 2000001 cycles: 1135697 heartbeat IPC: 1.75836 cumulative IPC: 1.76103 (Simulation time: 0 hr 1 min 1 sec) 
Heartbeat CPU 0 instructions: 3000001 cycles: 1722937 heartbeat IPC: 1.70288 cumulative IPC: 1.74121 (Simulation time: 0 hr 1 min 29 sec) 
Heartbeat CPU 0 instructions: 4000000 cycles: 2292415 heartbeat IPC: 1.75599 cumulative IPC: 1.74488 (Simulation time: 0 hr 1 min 57 sec) 
Heartbeat CPU 0 instructions: 5000000 cycles: 2866682 heartbeat IPC: 1.74135 cumulative IPC: 1.74418 (Simulation time: 0 hr 2 min 25 sec) 
Heartbeat CPU 0 instructions: 6000000 cycles: 3442913 heartbeat IPC: 1.73542 cumulative IPC: 1.74271 (Simulation time: 0 hr 2 min 53 sec) 
Heartbeat CPU 0 instructions: 7000000 cycles: 4012220 heartbeat IPC: 1.75652 cumulative IPC: 1.74467 (Simulation time: 0 hr 3 min 24 sec) 
Heartbeat CPU 0 instructions: 8000000 cycles: 4565726 heartbeat IPC: 1.80667 cumulative IPC: 1.75219 (Simulation time: 0 hr 3 min 54 sec) 
Heartbeat CPU 0 instructions: 9000001 cycles: 5147831 heartbeat IPC: 1.7179 cumulative IPC: 1.74831 (Simulation time: 0 hr 4 min 22 sec) 
Heartbeat CPU 0 instructions: 10000000 cycles: 5701791 heartbeat IPC: 1.80518 cumulative IPC: 1.75383 (Simulation time: 0 hr 4 min 49 sec) 

Warmup complete CPU 0 instructions: 10000003 cycles: 5701792 (Simulation time: 0 hr 4 min 49 sec) 

Heartbeat CPU 0 instructions: 11000000 cycles: 8870958 heartbeat IPC: 0.31554 cumulative IPC: 0.315539 (Simulation time: 0 hr 5 min 26 sec) 
Heartbeat CPU 0 instructions: 12000000 cycles: 10025791 heartbeat IPC: 0.865926 cumulative IPC: 0.462534 (Simulation time: 0 hr 5 min 55 sec) 
Heartbeat CPU 0 instructions: 13000003 cycles: 11170740 heartbeat IPC: 0.873404 cumulative IPC: 0.548552 (Simulation time: 0 hr 6 min 19 sec) 
Heartbeat CPU 0 instructions: 14000000 cycles: 12291008 heartbeat IPC: 0.892641 cumulative IPC: 0.607052 (Simulation time: 0 hr 6 min 43 sec) 
Heartbeat CPU 0 instructions: 15000000 cycles: 13430184 heartbeat IPC: 0.877827 cumulative IPC: 0.646965 (Simulation time: 0 hr 7 min 7 sec) 
Heartbeat CPU 0 instructions: 16000000 cycles: 16280766 heartbeat IPC: 0.350806 cumulative IPC: 0.567162 (Simulation time: 0 hr 7 min 38 sec) 
Heartbeat CPU 0 instructions: 17000003 cycles: 19135362 heartbeat IPC: 0.350313 cumulative IPC: 0.521083 (Simulation time: 0 hr 8 min 9 sec) 
Heartbeat CPU 0 instructions: 18000002 cycles: 21944027 heartbeat IPC: 0.356041 cumulative IPC: 0.492543 (Simulation time: 0 hr 8 min 38 sec) 
Heartbeat CPU 0 instructions: 19000002 cycles: 24761732 heartbeat IPC: 0.354899 cumulative IPC: 0.472195 (Simulation time: 0 hr 9 min 8 sec) 
Heartbeat CPU 0 instructions: 20000000 cycles: 28086718 heartbeat IPC: 0.300753 cumulative IPC: 0.446729 (Simulation time: 0 hr 9 min 38 sec) 
Heartbeat CPU 0 instructions: 21000000 cycles: 31401547 heartbeat IPC: 0.301675 cumulative IPC: 0.42802 (Simulation time: 0 hr 10 min 10 sec) 
Heartbeat CPU 0 instructions: 22000001 cycles: 34595875 heartbeat IPC: 0.313055 cumulative IPC: 0.41531 (Simulation time: 0 hr 10 min 41 sec) 
Heartbeat CPU 0 instructions: 23000000 cycles: 37429552 heartbeat IPC: 0.352898 cumulative IPC: 0.409736 (Simulation time: 0 hr 11 min 15 sec) 
Heartbeat CPU 0 instructions: 24000000 cycles: 40218711 heartbeat IPC: 0.358531 cumulative IPC: 0.405598 (Simulation time: 0 hr 11 min 46 sec) 
Heartbeat CPU 0 instructions: 25000000 cycles: 43009552 heartbeat IPC: 0.358315 cumulative IPC: 0.402061 (Simulation time: 0 hr 12 min 18 sec) 
Heartbeat CPU 0 instructions: 26000002 cycles: 45772677 heartbeat IPC: 0.36191 cumulative IPC: 0.399292 (Simulation time: 0 hr 12 min 49 sec) 
Heartbeat CPU 0 instructions: 27000001 cycles: 48583708 heartbeat IPC: 0.355741 cumulative IPC: 0.396437 (Simulation time: 0 hr 13 min 20 sec) 
Heartbeat CPU 0 instructions: 28000000 cycles: 51340060 heartbeat IPC: 0.362798 cumulative IPC: 0.394406 (Simulation time: 0 hr 13 min 49 sec) 
Heartbeat CPU 0 instructions: 29000001 cycles: 54182280 heartbeat IPC: 0.351838 cumulative IPC: 0.39191 (Simulation time: 0 hr 14 min 21 sec) 
Heartbeat CPU 0 instructions: 30000000 cycles: 56986263 heartbeat IPC: 0.356635 cumulative IPC: 0.389982 (Simulation time: 0 hr 14 min 52 sec) 
Heartbeat CPU 0 instructions: 31000002 cycles: 59765185 heartbeat IPC: 0.359852 cumulative IPC: 0.388433 (Simulation time: 0 hr 15 min 21 sec) 
Heartbeat CPU 0 instructions: 32000000 cycles: 62576669 heartbeat IPC: 0.355683 cumulative IPC: 0.386814 (Simulation time: 0 hr 15 min 52 sec) 
Heartbeat CPU 0 instructions: 33000000 cycles: 65732953 heartbeat IPC: 0.316828 cumulative IPC: 0.383134 (Simulation time: 0 hr 16 min 23 sec) 
Heartbeat CPU 0 instructions: 34000001 cycles: 69042534 heartbeat IPC: 0.302153 cumulative IPC: 0.378903 (Simulation time: 0 hr 16 min 55 sec) 
Heartbeat CPU 0 instructions: 35000001 cycles: 72077875 heartbeat IPC: 0.329452 cumulative IPC: 0.376642 (Simulation time: 0 hr 17 min 29 sec) 
Heartbeat CPU 0 instructions: 36000000 cycles: 75370025 heartbeat IPC: 0.303753 cumulative IPC: 0.373197 (Simulation time: 0 hr 18 min 4 sec) 
Heartbeat CPU 0 instructions: 37000001 cycles: 78166110 heartbeat IPC: 0.357643 cumulative IPC: 0.372597 (Simulation time: 0 hr 18 min 36 sec) 
Heartbeat CPU 0 instructions: 38000001 cycles: 81348599 heartbeat IPC: 0.314219 cumulative IPC: 0.370141 (Simulation time: 0 hr 19 min 10 sec) 
Heartbeat CPU 0 instructions: 39000001 cycles: 83872287 heartbeat IPC: 0.396246 cumulative IPC: 0.370984 (Simulation time: 0 hr 19 min 39 sec) 
Heartbeat CPU 0 instructions: 40000000 cycles: 84994465 heartbeat IPC: 0.891123 cumulative IPC: 0.378345 (Simulation time: 0 hr 20 min 2 sec) 
Heartbeat CPU 0 instructions: 41000001 cycles: 86120732 heartbeat IPC: 0.88789 cumulative IPC: 0.385481 (Simulation time: 0 hr 20 min 27 sec) 
Heartbeat CPU 0 instructions: 42000001 cycles: 87254868 heartbeat IPC: 0.881728 cumulative IPC: 0.392382 (Simulation time: 0 hr 20 min 50 sec) 
Heartbeat CPU 0 instructions: 43000002 cycles: 88476251 heartbeat IPC: 0.818745 cumulative IPC: 0.398674 (Simulation time: 0 hr 21 min 17 sec) 
Heartbeat CPU 0 instructions: 44000000 cycles: 91391161 heartbeat IPC: 0.343063 cumulative IPC: 0.396782 (Simulation time: 0 hr 21 min 46 sec) 
Heartbeat CPU 0 instructions: 45000000 cycles: 94277005 heartbeat IPC: 0.346519 cumulative IPC: 0.395144 (Simulation time: 0 hr 22 min 15 sec) 
Heartbeat CPU 0 instructions: 46000000 cycles: 97624932 heartbeat IPC: 0.298692 cumulative IPC: 0.391631 (Simulation time: 0 hr 22 min 48 sec) 
Heartbeat CPU 0 instructions: 47000000 cycles: 100957587 heartbeat IPC: 0.300061 cumulative IPC: 0.388428 (Simulation time: 0 hr 23 min 19 sec) 
Heartbeat CPU 0 instructions: 48000000 cycles: 104118568 heartbeat IPC: 0.316357 cumulative IPC: 0.386113 (Simulation time: 0 hr 23 min 52 sec) 
Heartbeat CPU 0 instructions: 49000000 cycles: 107024281 heartbeat IPC: 0.34415 cumulative IPC: 0.38491 (Simulation time: 0 hr 24 min 24 sec) 
Heartbeat CPU 0 instructions: 50000001 cycles: 109824864 heartbeat IPC: 0.357069 cumulative IPC: 0.384161 (Simulation time: 0 hr 24 min 53 sec) 
Heartbeat CPU 0 instructions: 51000003 cycles: 112623049 heartbeat IPC: 0.357375 cumulative IPC: 0.38346 (Simulation time: 0 hr 25 min 26 sec) 
Heartbeat CPU 0 instructions: 52000000 cycles: 115400723 heartbeat IPC: 0.360012 cumulative IPC: 0.382866 (Simulation time: 0 hr 25 min 59 sec) 
Heartbeat CPU 0 instructions: 53000003 cycles: 118192655 heartbeat IPC: 0.358176 cumulative IPC: 0.382253 (Simulation time: 0 hr 26 min 29 sec) 
Heartbeat CPU 0 instructions: 54000001 cycles: 120958328 heartbeat IPC: 0.361575 cumulative IPC: 0.381757 (Simulation time: 0 hr 26 min 58 sec) 
Heartbeat CPU 0 instructions: 55000001 cycles: 123878856 heartbeat IPC: 0.342404 cumulative IPC: 0.380785 (Simulation time: 0 hr 27 min 30 sec) 
Heartbeat CPU 0 instructions: 56000000 cycles: 126685717 heartbeat IPC: 0.35627 cumulative IPC: 0.380216 (Simulation time: 0 hr 28 min 2 sec) 
Heartbeat CPU 0 instructions: 57000003 cycles: 129461616 heartbeat IPC: 0.360245 cumulative IPC: 0.379768 (Simulation time: 0 hr 28 min 36 sec) 
Heartbeat CPU 0 instructions: 58000001 cycles: 132443770 heartbeat IPC: 0.335327 cumulative IPC: 0.378722 (Simulation time: 0 hr 29 min 6 sec) 
Heartbeat CPU 0 instructions: 59000001 cycles: 135723461 heartbeat IPC: 0.304907 cumulative IPC: 0.37686 (Simulation time: 0 hr 29 min 37 sec) 
Heartbeat CPU 0 instructions: 60000000 cycles: 138702487 heartbeat IPC: 0.33568 cumulative IPC: 0.375938 (Simulation time: 0 hr 30 min 8 sec) 
Heartbeat CPU 0 instructions: 61000001 cycles: 141748862 heartbeat IPC: 0.328259 cumulative IPC: 0.37487 (Simulation time: 0 hr 30 min 43 sec) 
Heartbeat CPU 0 instructions: 62000000 cycles: 145094609 heartbeat IPC: 0.298887 cumulative IPC: 0.373046 (Simulation time: 0 hr 31 min 18 sec) 
Heartbeat CPU 0 instructions: 63000001 cycles: 147918477 heartbeat IPC: 0.354125 cumulative IPC: 0.372671 (Simulation time: 0 hr 31 min 48 sec) 
Heartbeat CPU 0 instructions: 64000000 cycles: 150721278 heartbeat IPC: 0.356786 cumulative IPC: 0.372364 (Simulation time: 0 hr 32 min 19 sec) 
Heartbeat CPU 0 instructions: 65000001 cycles: 153510394 heartbeat IPC: 0.358537 cumulative IPC: 0.372103 (Simulation time: 0 hr 32 min 50 sec) 
Heartbeat CPU 0 instructions: 66000002 cycles: 157636731 heartbeat IPC: 0.242346 cumulative IPC: 0.368579 (Simulation time: 0 hr 33 min 27 sec) 
Heartbeat CPU 0 instructions: 67000001 cycles: 159288687 heartbeat IPC: 0.605342 cumulative IPC: 0.371125 (Simulation time: 0 hr 33 min 57 sec) 
Heartbeat CPU 0 instructions: 68000000 cycles: 160413450 heartbeat IPC: 0.889075 cumulative IPC: 0.374891 (Simulation time: 0 hr 34 min 23 sec) 
Heartbeat CPU 0 instructions: 69000003 cycles: 161555523 heartbeat IPC: 0.875603 cumulative IPC: 0.37856 (Simulation time: 0 hr 34 min 48 sec) 
Heartbeat CPU 0 instructions: 70000000 cycles: 162675770 heartbeat IPC: 0.892658 cumulative IPC: 0.382229 (Simulation time: 0 hr 35 min 15 sec) 
Heartbeat CPU 0 instructions: 71000001 cycles: 163851161 heartbeat IPC: 0.850782 cumulative IPC: 0.385711 (Simulation time: 0 hr 35 min 40 sec) 
Heartbeat CPU 0 instructions: 72000000 cycles: 167191525 heartbeat IPC: 0.299368 cumulative IPC: 0.383925 (Simulation time: 0 hr 36 min 15 sec) 
Heartbeat CPU 0 instructions: 73000000 cycles: 170585759 heartbeat IPC: 0.294617 cumulative IPC: 0.382087 (Simulation time: 0 hr 36 min 48 sec) 
Heartbeat CPU 0 instructions: 74000001 cycles: 173935816 heartbeat IPC: 0.298503 cumulative IPC: 0.380422 (Simulation time: 0 hr 37 min 21 sec) 
Heartbeat CPU 0 instructions: 75000001 cycles: 176856251 heartbeat IPC: 0.342415 cumulative IPC: 0.379774 (Simulation time: 0 hr 37 min 52 sec) 
Heartbeat CPU 0 instructions: 76000000 cycles: 179642559 heartbeat IPC: 0.358898 cumulative IPC: 0.37944 (Simulation time: 0 hr 38 min 22 sec) 
Heartbeat CPU 0 instructions: 77000000 cycles: 182451781 heartbeat IPC: 0.35597 cumulative IPC: 0.379066 (Simulation time: 0 hr 38 min 51 sec) 
Heartbeat CPU 0 instructions: 78000001 cycles: 185254695 heartbeat IPC: 0.356772 cumulative IPC: 0.378718 (Simulation time: 0 hr 39 min 22 sec) 
Heartbeat CPU 0 instructions: 79000001 cycles: 188050540 heartbeat IPC: 0.357674 cumulative IPC: 0.378396 (Simulation time: 0 hr 39 min 52 sec) 
Heartbeat CPU 0 instructions: 80000000 cycles: 190828013 heartbeat IPC: 0.360039 cumulative IPC: 0.37812 (Simulation time: 0 hr 40 min 22 sec) 
Heartbeat CPU 0 instructions: 81000002 cycles: 193676246 heartbeat IPC: 0.351096 cumulative IPC: 0.377711 (Simulation time: 0 hr 40 min 54 sec) 
Heartbeat CPU 0 instructions: 82000001 cycles: 196501591 heartbeat IPC: 0.353939 cumulative IPC: 0.377359 (Simulation time: 0 hr 41 min 25 sec) 
Heartbeat CPU 0 instructions: 83000002 cycles: 199346960 heartbeat IPC: 0.351449 cumulative IPC: 0.376978 (Simulation time: 0 hr 41 min 56 sec) 
Heartbeat CPU 0 instructions: 84000000 cycles: 202199995 heartbeat IPC: 0.350503 cumulative IPC: 0.376594 (Simulation time: 0 hr 42 min 25 sec) 
Heartbeat CPU 0 instructions: 85000002 cycles: 205504655 heartbeat IPC: 0.302604 cumulative IPC: 0.37537 (Simulation time: 0 hr 42 min 59 sec) 
Heartbeat CPU 0 instructions: 86000002 cycles: 208819375 heartbeat IPC: 0.301685 cumulative IPC: 0.374168 (Simulation time: 0 hr 43 min 32 sec) 
Heartbeat CPU 0 instructions: 87000000 cycles: 211876489 heartbeat IPC: 0.327105 cumulative IPC: 0.37347 (Simulation time: 0 hr 44 min 6 sec) 
Heartbeat CPU 0 instructions: 88000000 cycles: 214894764 heartbeat IPC: 0.331315 cumulative IPC: 0.372861 (Simulation time: 0 hr 44 min 38 sec) 
Heartbeat CPU 0 instructions: 89000002 cycles: 217979916 heartbeat IPC: 0.324134 cumulative IPC: 0.372153 (Simulation time: 0 hr 45 min 9 sec) 
Heartbeat CPU 0 instructions: 90000001 cycles: 220760960 heartbeat IPC: 0.359577 cumulative IPC: 0.371991 (Simulation time: 0 hr 45 min 40 sec) 
Heartbeat CPU 0 instructions: 91000001 cycles: 223567229 heartbeat IPC: 0.356345 cumulative IPC: 0.371789 (Simulation time: 0 hr 46 min 11 sec) 
Heartbeat CPU 0 instructions: 92000000 cycles: 226463720 heartbeat IPC: 0.345245 cumulative IPC: 0.371441 (Simulation time: 0 hr 46 min 43 sec) 
Heartbeat CPU 0 instructions: 93000000 cycles: 229314588 heartbeat IPC: 0.35077 cumulative IPC: 0.371177 (Simulation time: 0 hr 47 min 10 sec) 
Heartbeat CPU 0 instructions: 94000000 cycles: 233840006 heartbeat IPC: 0.220974 cumulative IPC: 0.368198 (Simulation time: 0 hr 47 min 44 sec) 
Heartbeat CPU 0 instructions: 95000000 cycles: 235024883 heartbeat IPC: 0.843969 cumulative IPC: 0.370656 (Simulation time: 0 hr 48 min 7 sec) 
Heartbeat CPU 0 instructions: 96000000 cycles: 236167864 heartbeat IPC: 0.874905 cumulative IPC: 0.373157 (Simulation time: 0 hr 48 min 30 sec) 
Heartbeat CPU 0 instructions: 97000002 cycles: 237286538 heartbeat IPC: 0.893917 cumulative IPC: 0.375672 (Simulation time: 0 hr 48 min 54 sec) 
Heartbeat CPU 0 instructions: 98000001 cycles: 238428479 heartbeat IPC: 0.875701 cumulative IPC: 0.378126 (Simulation time: 0 hr 49 min 18 sec) 
Heartbeat CPU 0 instructions: 99000002 cycles: 240294555 heartbeat IPC: 0.535884 cumulative IPC: 0.379381 (Simulation time: 0 hr 49 min 44 sec) 
Heartbeat CPU 0 instructions: 100000000 cycles: 243679398 heartbeat IPC: 0.295434 cumulative IPC: 0.378187 (Simulation time: 0 hr 50 min 15 sec) 
Heartbeat CPU 0 instructions: 101000002 cycles: 246787712 heartbeat IPC: 0.321718 cumulative IPC: 0.377459 (Simulation time: 0 hr 50 min 44 sec) 
Heartbeat CPU 0 instructions: 102000001 cycles: 249800399 heartbeat IPC: 0.331929 cumulative IPC: 0.376897 (Simulation time: 0 hr 51 min 14 sec) 
Heartbeat CPU 0 instructions: 103000000 cycles: 252596853 heartbeat IPC: 0.357595 cumulative IPC: 0.376678 (Simulation time: 0 hr 51 min 42 sec) 
Heartbeat CPU 0 instructions: 104000000 cycles: 255411473 heartbeat IPC: 0.355288 cumulative IPC: 0.376437 (Simulation time: 0 hr 52 min 12 sec) 
Heartbeat CPU 0 instructions: 105000001 cycles: 258202980 heartbeat IPC: 0.35823 cumulative IPC: 0.376236 (Simulation time: 0 hr 52 min 39 sec) 
Heartbeat CPU 0 instructions: 106000000 cycles: 261102607 heartbeat IPC: 0.344872 cumulative IPC: 0.37588 (Simulation time: 0 hr 53 min 5 sec) 
Heartbeat CPU 0 instructions: 107000002 cycles: 263965961 heartbeat IPC: 0.349241 cumulative IPC: 0.375584 (Simulation time: 0 hr 53 min 31 sec) 
Heartbeat CPU 0 instructions: 108000000 cycles: 266775483 heartbeat IPC: 0.355932 cumulative IPC: 0.375373 (Simulation time: 0 hr 53 min 56 sec) 
Heartbeat CPU 0 instructions: 109000002 cycles: 269562062 heartbeat IPC: 0.358864 cumulative IPC: 0.375199 (Simulation time: 0 hr 54 min 22 sec) 
Heartbeat CPU 0 instructions: 110000001 cycles: 272389944 heartbeat IPC: 0.353621 cumulative IPC: 0.37497 (Simulation time: 0 hr 54 min 47 sec) 
Finished CPU 0 instructions: 100000001 cycles: 266688154 cummulative IPC: 0.37497 (Simulation time: 0 hr 54 min 47 sec) 

ChampSim completed all CPUs

Region of Interest Statistics

CPU 0 cummulative IPC: 0.37497 instructions: 100000001 cycles: 266688154
LLC TOTAL     ACCESS:    4665954  HIT:    2416854  MISS:    2249100
LLC LOAD      ACCESS:    2183998  HIT:    2042891  MISS:     141107
LLC RFO       ACCESS:      24958  HIT:      12304  MISS:      12654
LLC PREFETCH  ACCESS:    2376629  HIT:     302948  MISS:    2073681
LLC WRITEBACK ACCESS:      80369  HIT:      58711  MISS:      21658
Insertion Distribution: 
	LOAD 40439 0 75897 108711 
	RFO 3660 0 3985 6577 
	PREF 0 12234 63987 2204485 
	WRITEBACK 0 0 0 23172 
Total Prefetch Downgrades: 13709
