
*** ChampSim Multicore Out-of-Order Simulator ***

Warmup Instructions: 10000000
Simulation Instructions: 100000000
Configuration: 2
Number of CPUs: 1
LLC sets: 2048
LLC ways: 16
Off-chip DRAM Channels: 1 Width: 64-bit Data Rate: 1600 MT/s

CPU 0 runs /datasets/cs240c-wi22-a00-public/data/Assignment2-gz/perlbench_135B.trace.gz
CPU 0 L1D next line prefetcher
CPU 0 L2C IP-based stride prefetcher
Initialize SRRIP state
Heartbeat CPU 0 instructions: 1000000 cycles: 600033 heartbeat IPC: 1.66657 cumulative IPC: 1.66657 (Simulation time: 0 hr 0 min 36 sec) 
Heartbeat CPU 0 instructions: 2000000 cycles: 1209304 heartbeat IPC: 1.64131 cumulative IPC: 1.65384 (Simulation time: 0 hr 1 min 12 sec) 
Heartbeat CPU 0 instructions: 3000000 cycles: 1832837 heartbeat IPC: 1.60376 cumulative IPC: 1.63681 (Simulation time: 0 hr 1 min 46 sec) 
Heartbeat CPU 0 instructions: 4000000 cycles: 2492645 heartbeat IPC: 1.51559 cumulative IPC: 1.60472 (Simulation time: 0 hr 2 min 22 sec) 
Heartbeat CPU 0 instructions: 5000001 cycles: 3079308 heartbeat IPC: 1.70456 cumulative IPC: 1.62374 (Simulation time: 0 hr 2 min 54 sec) 
Heartbeat CPU 0 instructions: 6000002 cycles: 3681733 heartbeat IPC: 1.65996 cumulative IPC: 1.62967 (Simulation time: 0 hr 3 min 32 sec) 
Heartbeat CPU 0 instructions: 7000001 cycles: 4282494 heartbeat IPC: 1.66455 cumulative IPC: 1.63456 (Simulation time: 0 hr 4 min 6 sec) 
Heartbeat CPU 0 instructions: 8000000 cycles: 4892986 heartbeat IPC: 1.63802 cumulative IPC: 1.63499 (Simulation time: 0 hr 4 min 43 sec) 
Heartbeat CPU 0 instructions: 9000001 cycles: 5534101 heartbeat IPC: 1.55978 cumulative IPC: 1.62628 (Simulation time: 0 hr 5 min 19 sec) 
Heartbeat CPU 0 instructions: 10000000 cycles: 6192790 heartbeat IPC: 1.51817 cumulative IPC: 1.61478 (Simulation time: 0 hr 5 min 53 sec) 

Warmup complete CPU 0 instructions: 10000004 cycles: 6192791 (Simulation time: 0 hr 5 min 53 sec) 

Heartbeat CPU 0 instructions: 11000003 cycles: 8935306 heartbeat IPC: 0.36463 cumulative IPC: 0.364628 (Simulation time: 0 hr 6 min 42 sec) 
Heartbeat CPU 0 instructions: 12000000 cycles: 11272763 heartbeat IPC: 0.427814 cumulative IPC: 0.393702 (Simulation time: 0 hr 7 min 24 sec) 
Heartbeat CPU 0 instructions: 13000000 cycles: 13824691 heartbeat IPC: 0.391861 cumulative IPC: 0.393086 (Simulation time: 0 hr 8 min 8 sec) 
Heartbeat CPU 0 instructions: 14000000 cycles: 16834518 heartbeat IPC: 0.332245 cumulative IPC: 0.375878 (Simulation time: 0 hr 8 min 51 sec) 
Heartbeat CPU 0 instructions: 15000003 cycles: 19515435 heartbeat IPC: 0.373008 cumulative IPC: 0.375301 (Simulation time: 0 hr 9 min 36 sec) 
Heartbeat CPU 0 instructions: 16000000 cycles: 22149745 heartbeat IPC: 0.379605 cumulative IPC: 0.376011 (Simulation time: 0 hr 10 min 16 sec) 
Heartbeat CPU 0 instructions: 17000000 cycles: 24852682 heartbeat IPC: 0.369968 cumulative IPC: 0.375136 (Simulation time: 0 hr 10 min 53 sec) 
Heartbeat CPU 0 instructions: 18000000 cycles: 27534978 heartbeat IPC: 0.372815 cumulative IPC: 0.374844 (Simulation time: 0 hr 11 min 32 sec) 
Heartbeat CPU 0 instructions: 19000003 cycles: 30165367 heartbeat IPC: 0.380173 cumulative IPC: 0.375429 (Simulation time: 0 hr 12 min 13 sec) 
Heartbeat CPU 0 instructions: 20000000 cycles: 32802341 heartbeat IPC: 0.379221 cumulative IPC: 0.375805 (Simulation time: 0 hr 12 min 57 sec) 
Heartbeat CPU 0 instructions: 21000000 cycles: 35427841 heartbeat IPC: 0.38088 cumulative IPC: 0.376261 (Simulation time: 0 hr 13 min 37 sec) 
Heartbeat CPU 0 instructions: 22000002 cycles: 38054921 heartbeat IPC: 0.380652 cumulative IPC: 0.376623 (Simulation time: 0 hr 14 min 17 sec) 
Heartbeat CPU 0 instructions: 23000003 cycles: 40712538 heartbeat IPC: 0.376277 cumulative IPC: 0.376596 (Simulation time: 0 hr 15 min 2 sec) 
Heartbeat CPU 0 instructions: 24000000 cycles: 42811718 heartbeat IPC: 0.476375 cumulative IPC: 0.382316 (Simulation time: 0 hr 15 min 41 sec) 
Heartbeat CPU 0 instructions: 25000000 cycles: 45417656 heartbeat IPC: 0.383739 cumulative IPC: 0.38241 (Simulation time: 0 hr 16 min 31 sec) 
Heartbeat CPU 0 instructions: 26000001 cycles: 47974970 heartbeat IPC: 0.391036 cumulative IPC: 0.382938 (Simulation time: 0 hr 17 min 11 sec) 
Heartbeat CPU 0 instructions: 27000000 cycles: 50639268 heartbeat IPC: 0.375333 cumulative IPC: 0.382482 (Simulation time: 0 hr 17 min 50 sec) 
Heartbeat CPU 0 instructions: 28000000 cycles: 53279777 heartbeat IPC: 0.378715 cumulative IPC: 0.382271 (Simulation time: 0 hr 18 min 33 sec) 
Heartbeat CPU 0 instructions: 29000000 cycles: 55906350 heartbeat IPC: 0.380724 cumulative IPC: 0.382189 (Simulation time: 0 hr 19 min 13 sec) 
Heartbeat CPU 0 instructions: 30000000 cycles: 58621019 heartbeat IPC: 0.368369 cumulative IPC: 0.381474 (Simulation time: 0 hr 19 min 55 sec) 
Heartbeat CPU 0 instructions: 31000001 cycles: 61257978 heartbeat IPC: 0.379225 cumulative IPC: 0.381366 (Simulation time: 0 hr 20 min 37 sec) 
Heartbeat CPU 0 instructions: 32000000 cycles: 63909059 heartbeat IPC: 0.377204 cumulative IPC: 0.381175 (Simulation time: 0 hr 21 min 20 sec) 
Heartbeat CPU 0 instructions: 33000000 cycles: 66536151 heartbeat IPC: 0.380649 cumulative IPC: 0.381152 (Simulation time: 0 hr 22 min 0 sec) 
Heartbeat CPU 0 instructions: 34000001 cycles: 69145903 heartbeat IPC: 0.383179 cumulative IPC: 0.381236 (Simulation time: 0 hr 22 min 44 sec) 
Heartbeat CPU 0 instructions: 35000003 cycles: 71796739 heartbeat IPC: 0.37724 cumulative IPC: 0.381075 (Simulation time: 0 hr 23 min 27 sec) 
Heartbeat CPU 0 instructions: 36000000 cycles: 74100059 heartbeat IPC: 0.434155 cumulative IPC: 0.382875 (Simulation time: 0 hr 24 min 10 sec) 
Heartbeat CPU 0 instructions: 37000000 cycles: 76388439 heartbeat IPC: 0.43699 cumulative IPC: 0.384639 (Simulation time: 0 hr 24 min 57 sec) 
Heartbeat CPU 0 instructions: 38000000 cycles: 78476580 heartbeat IPC: 0.478895 cumulative IPC: 0.387362 (Simulation time: 0 hr 25 min 42 sec) 
Heartbeat CPU 0 instructions: 39000000 cycles: 80771746 heartbeat IPC: 0.435698 cumulative IPC: 0.38885 (Simulation time: 0 hr 26 min 23 sec) 
Heartbeat CPU 0 instructions: 40000000 cycles: 82725129 heartbeat IPC: 0.511932 cumulative IPC: 0.391991 (Simulation time: 0 hr 26 min 58 sec) 
Heartbeat CPU 0 instructions: 41000001 cycles: 84805828 heartbeat IPC: 0.480608 cumulative IPC: 0.394337 (Simulation time: 0 hr 27 min 36 sec) 
Heartbeat CPU 0 instructions: 42000003 cycles: 87424594 heartbeat IPC: 0.38186 cumulative IPC: 0.393934 (Simulation time: 0 hr 28 min 19 sec) 
Heartbeat CPU 0 instructions: 43000001 cycles: 89987546 heartbeat IPC: 0.390174 cumulative IPC: 0.393819 (Simulation time: 0 hr 29 min 4 sec) 
Heartbeat CPU 0 instructions: 44000000 cycles: 92281586 heartbeat IPC: 0.435912 cumulative IPC: 0.394941 (Simulation time: 0 hr 29 min 50 sec) 
Heartbeat CPU 0 instructions: 45000003 cycles: 94913480 heartbeat IPC: 0.379956 cumulative IPC: 0.394496 (Simulation time: 0 hr 30 min 34 sec) 
Heartbeat CPU 0 instructions: 46000003 cycles: 97584540 heartbeat IPC: 0.374383 cumulative IPC: 0.393909 (Simulation time: 0 hr 31 min 15 sec) 
Heartbeat CPU 0 instructions: 47000000 cycles: 100211633 heartbeat IPC: 0.380648 cumulative IPC: 0.393538 (Simulation time: 0 hr 32 min 0 sec) 
Heartbeat CPU 0 instructions: 48000000 cycles: 102824749 heartbeat IPC: 0.382685 cumulative IPC: 0.393245 (Simulation time: 0 hr 32 min 41 sec) 
Heartbeat CPU 0 instructions: 49000000 cycles: 105491970 heartbeat IPC: 0.374922 cumulative IPC: 0.392752 (Simulation time: 0 hr 33 min 22 sec) 
Heartbeat CPU 0 instructions: 50000001 cycles: 108117354 heartbeat IPC: 0.380897 cumulative IPC: 0.392447 (Simulation time: 0 hr 34 min 4 sec) 
Heartbeat CPU 0 instructions: 51000000 cycles: 110735814 heartbeat IPC: 0.381903 cumulative IPC: 0.392183 (Simulation time: 0 hr 34 min 46 sec) 
Heartbeat CPU 0 instructions: 52000000 cycles: 113346506 heartbeat IPC: 0.38304 cumulative IPC: 0.39196 (Simulation time: 0 hr 35 min 29 sec) 
Heartbeat CPU 0 instructions: 53000000 cycles: 115930907 heartbeat IPC: 0.386937 cumulative IPC: 0.391842 (Simulation time: 0 hr 36 min 12 sec) 
Heartbeat CPU 0 instructions: 54000001 cycles: 118570056 heartbeat IPC: 0.37891 cumulative IPC: 0.391538 (Simulation time: 0 hr 36 min 57 sec) 
Heartbeat CPU 0 instructions: 55000001 cycles: 121015625 heartbeat IPC: 0.408903 cumulative IPC: 0.391908 (Simulation time: 0 hr 37 min 43 sec) 
Heartbeat CPU 0 instructions: 56000000 cycles: 123142479 heartbeat IPC: 0.470178 cumulative IPC: 0.393331 (Simulation time: 0 hr 38 min 25 sec) 
Heartbeat CPU 0 instructions: 57000000 cycles: 125343570 heartbeat IPC: 0.45432 cumulative IPC: 0.394458 (Simulation time: 0 hr 39 min 7 sec) 
Heartbeat CPU 0 instructions: 58000002 cycles: 127291359 heartbeat IPC: 0.513404 cumulative IPC: 0.396371 (Simulation time: 0 hr 39 min 47 sec) 
Heartbeat CPU 0 instructions: 59000003 cycles: 129410615 heartbeat IPC: 0.471864 cumulative IPC: 0.39767 (Simulation time: 0 hr 40 min 23 sec) 
Heartbeat CPU 0 instructions: 60000000 cycles: 132362037 heartbeat IPC: 0.338819 cumulative IPC: 0.396293 (Simulation time: 0 hr 41 min 2 sec) 
Heartbeat CPU 0 instructions: 61000000 cycles: 134776646 heartbeat IPC: 0.414146 cumulative IPC: 0.396628 (Simulation time: 0 hr 41 min 45 sec) 
Heartbeat CPU 0 instructions: 62000001 cycles: 137561068 heartbeat IPC: 0.359141 cumulative IPC: 0.395834 (Simulation time: 0 hr 42 min 26 sec) 
Heartbeat CPU 0 instructions: 63000000 cycles: 140497645 heartbeat IPC: 0.340532 cumulative IPC: 0.394625 (Simulation time: 0 hr 43 min 9 sec) 
Heartbeat CPU 0 instructions: 64000000 cycles: 143408652 heartbeat IPC: 0.343524 cumulative IPC: 0.39354 (Simulation time: 0 hr 43 min 46 sec) 
Heartbeat CPU 0 instructions: 65000001 cycles: 146293711 heartbeat IPC: 0.346614 cumulative IPC: 0.392574 (Simulation time: 0 hr 44 min 24 sec) 
Heartbeat CPU 0 instructions: 66000001 cycles: 149157270 heartbeat IPC: 0.349216 cumulative IPC: 0.391706 (Simulation time: 0 hr 45 min 1 sec) 
Heartbeat CPU 0 instructions: 67000001 cycles: 151881563 heartbeat IPC: 0.367068 cumulative IPC: 0.391245 (Simulation time: 0 hr 45 min 40 sec) 
Heartbeat CPU 0 instructions: 68000000 cycles: 154611434 heartbeat IPC: 0.366317 cumulative IPC: 0.390786 (Simulation time: 0 hr 46 min 20 sec) 
Heartbeat CPU 0 instructions: 69000002 cycles: 157555929 heartbeat IPC: 0.339617 cumulative IPC: 0.389791 (Simulation time: 0 hr 47 min 2 sec) 
Heartbeat CPU 0 instructions: 70000003 cycles: 159359249 heartbeat IPC: 0.554533 cumulative IPC: 0.391731 (Simulation time: 0 hr 47 min 34 sec) 
Heartbeat CPU 0 instructions: 71000000 cycles: 161278994 heartbeat IPC: 0.520901 cumulative IPC: 0.39333 (Simulation time: 0 hr 48 min 7 sec) 
Heartbeat CPU 0 instructions: 72000000 cycles: 163265241 heartbeat IPC: 0.503462 cumulative IPC: 0.394722 (Simulation time: 0 hr 48 min 39 sec) 
Heartbeat CPU 0 instructions: 73000000 cycles: 165534932 heartbeat IPC: 0.440589 cumulative IPC: 0.395376 (Simulation time: 0 hr 49 min 18 sec) 
Heartbeat CPU 0 instructions: 74000000 cycles: 167453478 heartbeat IPC: 0.521228 cumulative IPC: 0.396873 (Simulation time: 0 hr 49 min 50 sec) 
Heartbeat CPU 0 instructions: 75000003 cycles: 169686914 heartbeat IPC: 0.447742 cumulative IPC: 0.397568 (Simulation time: 0 hr 50 min 25 sec) 
Heartbeat CPU 0 instructions: 76000000 cycles: 172425559 heartbeat IPC: 0.365143 cumulative IPC: 0.397034 (Simulation time: 0 hr 51 min 0 sec) 
Heartbeat CPU 0 instructions: 77000000 cycles: 175116450 heartbeat IPC: 0.371624 cumulative IPC: 0.396629 (Simulation time: 0 hr 51 min 37 sec) 
Heartbeat CPU 0 instructions: 78000000 cycles: 178062869 heartbeat IPC: 0.339395 cumulative IPC: 0.395648 (Simulation time: 0 hr 52 min 16 sec) 
Heartbeat CPU 0 instructions: 79000000 cycles: 179918090 heartbeat IPC: 0.539019 cumulative IPC: 0.397179 (Simulation time: 0 hr 52 min 49 sec) 
Heartbeat CPU 0 instructions: 80000000 cycles: 181702123 heartbeat IPC: 0.560528 cumulative IPC: 0.398839 (Simulation time: 0 hr 53 min 16 sec) 
Heartbeat CPU 0 instructions: 81000000 cycles: 183623519 heartbeat IPC: 0.520455 cumulative IPC: 0.400156 (Simulation time: 0 hr 53 min 45 sec) 
Heartbeat CPU 0 instructions: 82000000 cycles: 185541058 heartbeat IPC: 0.521502 cumulative IPC: 0.401454 (Simulation time: 0 hr 54 min 13 sec) 
Heartbeat CPU 0 instructions: 83000000 cycles: 187867371 heartbeat IPC: 0.429865 cumulative IPC: 0.401817 (Simulation time: 0 hr 54 min 43 sec) 
Heartbeat CPU 0 instructions: 84000000 cycles: 189819358 heartbeat IPC: 0.512298 cumulative IPC: 0.402992 (Simulation time: 0 hr 55 min 11 sec) 
Heartbeat CPU 0 instructions: 85000000 cycles: 191740482 heartbeat IPC: 0.520529 cumulative IPC: 0.404209 (Simulation time: 0 hr 55 min 35 sec) 
Heartbeat CPU 0 instructions: 86000002 cycles: 193659011 heartbeat IPC: 0.521234 cumulative IPC: 0.405406 (Simulation time: 0 hr 55 min 58 sec) 
Heartbeat CPU 0 instructions: 87000003 cycles: 195824456 heartbeat IPC: 0.461799 cumulative IPC: 0.40605 (Simulation time: 0 hr 56 min 22 sec) 
Heartbeat CPU 0 instructions: 88000000 cycles: 198593691 heartbeat IPC: 0.361109 cumulative IPC: 0.405403 (Simulation time: 0 hr 56 min 47 sec) 
Heartbeat CPU 0 instructions: 89000003 cycles: 201156149 heartbeat IPC: 0.390251 cumulative IPC: 0.405204 (Simulation time: 0 hr 57 min 12 sec) 
Heartbeat CPU 0 instructions: 90000001 cycles: 204031269 heartbeat IPC: 0.347811 cumulative IPC: 0.40437 (Simulation time: 0 hr 57 min 38 sec) 
Heartbeat CPU 0 instructions: 91000000 cycles: 206508018 heartbeat IPC: 0.403755 cumulative IPC: 0.404363 (Simulation time: 0 hr 58 min 1 sec) 
Heartbeat CPU 0 instructions: 92000000 cycles: 208961682 heartbeat IPC: 0.407554 cumulative IPC: 0.404401 (Simulation time: 0 hr 58 min 24 sec) 
Heartbeat CPU 0 instructions: 93000000 cycles: 211655592 heartbeat IPC: 0.371208 cumulative IPC: 0.403966 (Simulation time: 0 hr 58 min 47 sec) 
Heartbeat CPU 0 instructions: 94000001 cycles: 214315203 heartbeat IPC: 0.375995 cumulative IPC: 0.403609 (Simulation time: 0 hr 59 min 10 sec) 
Heartbeat CPU 0 instructions: 95000000 cycles: 217162089 heartbeat IPC: 0.351261 cumulative IPC: 0.402902 (Simulation time: 0 hr 59 min 32 sec) 
Heartbeat CPU 0 instructions: 96000000 cycles: 220195557 heartbeat IPC: 0.329656 cumulative IPC: 0.401864 (Simulation time: 0 hr 59 min 55 sec) 
Heartbeat CPU 0 instructions: 97000001 cycles: 223124980 heartbeat IPC: 0.341365 cumulative IPC: 0.401047 (Simulation time: 1 hr 0 min 20 sec) 
Heartbeat CPU 0 instructions: 98000000 cycles: 225780981 heartbeat IPC: 0.376505 cumulative IPC: 0.40075 (Simulation time: 1 hr 0 min 43 sec) 
Heartbeat CPU 0 instructions: 99000000 cycles: 228378678 heartbeat IPC: 0.384956 cumulative IPC: 0.400565 (Simulation time: 1 hr 1 min 3 sec) 
Heartbeat CPU 0 instructions: 100000000 cycles: 231000514 heartbeat IPC: 0.381412 cumulative IPC: 0.400342 (Simulation time: 1 hr 1 min 24 sec) 
Heartbeat CPU 0 instructions: 101000001 cycles: 233601322 heartbeat IPC: 0.384496 cumulative IPC: 0.400161 (Simulation time: 1 hr 1 min 43 sec) 
Heartbeat CPU 0 instructions: 102000000 cycles: 236228690 heartbeat IPC: 0.380609 cumulative IPC: 0.399938 (Simulation time: 1 hr 2 min 2 sec) 
Heartbeat CPU 0 instructions: 103000000 cycles: 238874777 heartbeat IPC: 0.377917 cumulative IPC: 0.399687 (Simulation time: 1 hr 2 min 21 sec) 
Heartbeat CPU 0 instructions: 104000000 cycles: 241603402 heartbeat IPC: 0.366485 cumulative IPC: 0.399302 (Simulation time: 1 hr 2 min 39 sec) 
Heartbeat CPU 0 instructions: 105000001 cycles: 244207443 heartbeat IPC: 0.384019 cumulative IPC: 0.399135 (Simulation time: 1 hr 2 min 56 sec) 
Heartbeat CPU 0 instructions: 106000001 cycles: 246825499 heartbeat IPC: 0.381963 cumulative IPC: 0.398948 (Simulation time: 1 hr 3 min 14 sec) 
Heartbeat CPU 0 instructions: 107000000 cycles: 249439904 heartbeat IPC: 0.382496 cumulative IPC: 0.398771 (Simulation time: 1 hr 3 min 31 sec) 
Heartbeat CPU 0 instructions: 108000000 cycles: 252050824 heartbeat IPC: 0.383007 cumulative IPC: 0.398604 (Simulation time: 1 hr 3 min 47 sec) 
Heartbeat CPU 0 instructions: 109000001 cycles: 254624821 heartbeat IPC: 0.388501 cumulative IPC: 0.398499 (Simulation time: 1 hr 4 min 3 sec) 
Heartbeat CPU 0 instructions: 110000003 cycles: 256778005 heartbeat IPC: 0.464429 cumulative IPC: 0.399066 (Simulation time: 1 hr 4 min 15 sec) 
Finished CPU 0 instructions: 100000003 cycles: 250585215 cummulative IPC: 0.399066 (Simulation time: 1 hr 4 min 15 sec) 

ChampSim completed all CPUs

Region of Interest Statistics

CPU 0 cummulative IPC: 0.399066 instructions: 100000003 cycles: 250585215
LLC TOTAL     ACCESS:     635541  HIT:     576616  MISS:      58925
LLC LOAD      ACCESS:     295067  HIT:     285449  MISS:       9618
LLC RFO       ACCESS:      30363  HIT:      25435  MISS:       4928
LLC PREFETCH  ACCESS:     206831  HIT:     164388  MISS:      42443
LLC WRITEBACK ACCESS:     103280  HIT:     101344  MISS:       1936
Insertion Distribution: 
	LOAD 5305 0 17835 655 
	RFO 236 0 4525 1930 
	PREF 0 2386 24056 28830 
	WRITEBACK 0 0 0 2248 
Total Prefetch Downgrades: 3344
