
*** ChampSim Multicore Out-of-Order Simulator ***

Warmup Instructions: 10000000
Simulation Instructions: 100000000
Configuration: 2
Number of CPUs: 1
LLC sets: 2048
LLC ways: 16
Off-chip DRAM Channels: 1 Width: 64-bit Data Rate: 1600 MT/s

CPU 0 runs /datasets/cs240c-wi22-a00-public/data/Assignment2-gz/sphinx3_2520B.trace.gz
CPU 0 L1D next line prefetcher
CPU 0 L2C IP-based stride prefetcher
Initialize SRRIP state
Heartbeat CPU 0 instructions: 1000003 cycles: 338965 heartbeat IPC: 2.95017 cumulative IPC: 2.95017 (Simulation time: 0 hr 0 min 26 sec) 
Heartbeat CPU 0 instructions: 2000000 cycles: 737243 heartbeat IPC: 2.5108 cumulative IPC: 2.71281 (Simulation time: 0 hr 0 min 55 sec) 
Heartbeat CPU 0 instructions: 3000003 cycles: 1185241 heartbeat IPC: 2.23216 cumulative IPC: 2.53113 (Simulation time: 0 hr 1 min 21 sec) 
Heartbeat CPU 0 instructions: 4000000 cycles: 1524269 heartbeat IPC: 2.9496 cumulative IPC: 2.62421 (Simulation time: 0 hr 1 min 49 sec) 
Heartbeat CPU 0 instructions: 5000001 cycles: 1902428 heartbeat IPC: 2.64439 cumulative IPC: 2.62822 (Simulation time: 0 hr 2 min 18 sec) 
Heartbeat CPU 0 instructions: 6000001 cycles: 2367861 heartbeat IPC: 2.14854 cumulative IPC: 2.53393 (Simulation time: 0 hr 2 min 46 sec) 
Heartbeat CPU 0 instructions: 7000001 cycles: 2706802 heartbeat IPC: 2.95037 cumulative IPC: 2.58608 (Simulation time: 0 hr 3 min 13 sec) 
Heartbeat CPU 0 instructions: 8000000 cycles: 3055837 heartbeat IPC: 2.86504 cumulative IPC: 2.61794 (Simulation time: 0 hr 3 min 40 sec) 
Heartbeat CPU 0 instructions: 9000000 cycles: 3509255 heartbeat IPC: 2.20547 cumulative IPC: 2.56465 (Simulation time: 0 hr 4 min 8 sec) 
Heartbeat CPU 0 instructions: 10000000 cycles: 3859412 heartbeat IPC: 2.85586 cumulative IPC: 2.59107 (Simulation time: 0 hr 4 min 33 sec) 

Warmup complete CPU 0 instructions: 10000004 cycles: 3859413 (Simulation time: 0 hr 4 min 33 sec) 

Heartbeat CPU 0 instructions: 11000001 cycles: 4663252 heartbeat IPC: 1.24403 cumulative IPC: 1.24403 (Simulation time: 0 hr 5 min 1 sec) 
Heartbeat CPU 0 instructions: 12000000 cycles: 5519358 heartbeat IPC: 1.16808 cumulative IPC: 1.20486 (Simulation time: 0 hr 5 min 30 sec) 
Heartbeat CPU 0 instructions: 13000002 cycles: 6371580 heartbeat IPC: 1.17341 cumulative IPC: 1.19419 (Simulation time: 0 hr 6 min 0 sec) 
Heartbeat CPU 0 instructions: 14000002 cycles: 7150246 heartbeat IPC: 1.28425 cumulative IPC: 1.2155 (Simulation time: 0 hr 6 min 31 sec) 
Heartbeat CPU 0 instructions: 15000003 cycles: 8018792 heartbeat IPC: 1.15135 cumulative IPC: 1.2021 (Simulation time: 0 hr 7 min 1 sec) 
Heartbeat CPU 0 instructions: 16000000 cycles: 8854606 heartbeat IPC: 1.19643 cumulative IPC: 1.20115 (Simulation time: 0 hr 7 min 31 sec) 
Heartbeat CPU 0 instructions: 17000000 cycles: 9619538 heartbeat IPC: 1.30731 cumulative IPC: 1.21525 (Simulation time: 0 hr 8 min 0 sec) 
Heartbeat CPU 0 instructions: 18000002 cycles: 10469371 heartbeat IPC: 1.1767 cumulative IPC: 1.21029 (Simulation time: 0 hr 8 min 27 sec) 
Heartbeat CPU 0 instructions: 19000001 cycles: 11292673 heartbeat IPC: 1.21462 cumulative IPC: 1.21077 (Simulation time: 0 hr 8 min 56 sec) 
Heartbeat CPU 0 instructions: 20000000 cycles: 12054858 heartbeat IPC: 1.31202 cumulative IPC: 1.22019 (Simulation time: 0 hr 9 min 26 sec) 
Heartbeat CPU 0 instructions: 21000001 cycles: 13218976 heartbeat IPC: 0.85902 cumulative IPC: 1.17527 (Simulation time: 0 hr 9 min 59 sec) 
Heartbeat CPU 0 instructions: 22000002 cycles: 14168815 heartbeat IPC: 1.05281 cumulative IPC: 1.16399 (Simulation time: 0 hr 10 min 28 sec) 
Heartbeat CPU 0 instructions: 23000001 cycles: 14985263 heartbeat IPC: 1.22482 cumulative IPC: 1.16845 (Simulation time: 0 hr 10 min 58 sec) 
Heartbeat CPU 0 instructions: 24000000 cycles: 15763596 heartbeat IPC: 1.2848 cumulative IPC: 1.17606 (Simulation time: 0 hr 11 min 27 sec) 
Heartbeat CPU 0 instructions: 25000003 cycles: 16575712 heartbeat IPC: 1.23135 cumulative IPC: 1.17959 (Simulation time: 0 hr 11 min 58 sec) 
Heartbeat CPU 0 instructions: 26000001 cycles: 17367763 heartbeat IPC: 1.26254 cumulative IPC: 1.18445 (Simulation time: 0 hr 12 min 27 sec) 
Heartbeat CPU 0 instructions: 27000000 cycles: 18133866 heartbeat IPC: 1.30531 cumulative IPC: 1.19094 (Simulation time: 0 hr 12 min 58 sec) 
Heartbeat CPU 0 instructions: 28000000 cycles: 18949824 heartbeat IPC: 1.22555 cumulative IPC: 1.19281 (Simulation time: 0 hr 13 min 27 sec) 
Heartbeat CPU 0 instructions: 29000003 cycles: 19750236 heartbeat IPC: 1.24936 cumulative IPC: 1.19566 (Simulation time: 0 hr 13 min 56 sec) 
Heartbeat CPU 0 instructions: 30000003 cycles: 20512188 heartbeat IPC: 1.31242 cumulative IPC: 1.201 (Simulation time: 0 hr 14 min 28 sec) 
Heartbeat CPU 0 instructions: 31000001 cycles: 21314244 heartbeat IPC: 1.24679 cumulative IPC: 1.20311 (Simulation time: 0 hr 15 min 0 sec) 
Heartbeat CPU 0 instructions: 32000000 cycles: 22107700 heartbeat IPC: 1.26031 cumulative IPC: 1.20559 (Simulation time: 0 hr 15 min 27 sec) 
Heartbeat CPU 0 instructions: 33000000 cycles: 22874509 heartbeat IPC: 1.30411 cumulative IPC: 1.20957 (Simulation time: 0 hr 15 min 55 sec) 
Heartbeat CPU 0 instructions: 34000000 cycles: 23673212 heartbeat IPC: 1.25203 cumulative IPC: 1.21128 (Simulation time: 0 hr 16 min 24 sec) 
Heartbeat CPU 0 instructions: 35000002 cycles: 24464624 heartbeat IPC: 1.26357 cumulative IPC: 1.21329 (Simulation time: 0 hr 16 min 55 sec) 
Heartbeat CPU 0 instructions: 36000000 cycles: 25213852 heartbeat IPC: 1.3347 cumulative IPC: 1.21755 (Simulation time: 0 hr 17 min 25 sec) 
Heartbeat CPU 0 instructions: 37000000 cycles: 26028127 heartbeat IPC: 1.22809 cumulative IPC: 1.21793 (Simulation time: 0 hr 17 min 53 sec) 
Heartbeat CPU 0 instructions: 38000002 cycles: 26825830 heartbeat IPC: 1.2536 cumulative IPC: 1.21917 (Simulation time: 0 hr 18 min 22 sec) 
Heartbeat CPU 0 instructions: 39000000 cycles: 27602950 heartbeat IPC: 1.2868 cumulative IPC: 1.22138 (Simulation time: 0 hr 18 min 52 sec) 
Heartbeat CPU 0 instructions: 40000000 cycles: 28427509 heartbeat IPC: 1.21277 cumulative IPC: 1.2211 (Simulation time: 0 hr 19 min 19 sec) 
Heartbeat CPU 0 instructions: 41000001 cycles: 29216531 heartbeat IPC: 1.26739 cumulative IPC: 1.22254 (Simulation time: 0 hr 19 min 48 sec) 
Heartbeat CPU 0 instructions: 42000002 cycles: 29997746 heartbeat IPC: 1.28006 cumulative IPC: 1.22426 (Simulation time: 0 hr 20 min 15 sec) 
Heartbeat CPU 0 instructions: 43000001 cycles: 30792452 heartbeat IPC: 1.25833 cumulative IPC: 1.22526 (Simulation time: 0 hr 20 min 45 sec) 
Heartbeat CPU 0 instructions: 44000000 cycles: 31575602 heartbeat IPC: 1.27689 cumulative IPC: 1.22672 (Simulation time: 0 hr 21 min 16 sec) 
Heartbeat CPU 0 instructions: 45000001 cycles: 32347491 heartbeat IPC: 1.29552 cumulative IPC: 1.22858 (Simulation time: 0 hr 21 min 44 sec) 
Heartbeat CPU 0 instructions: 46000001 cycles: 33163061 heartbeat IPC: 1.22614 cumulative IPC: 1.22852 (Simulation time: 0 hr 22 min 13 sec) 
Heartbeat CPU 0 instructions: 47000003 cycles: 33944164 heartbeat IPC: 1.28024 cumulative IPC: 1.22986 (Simulation time: 0 hr 22 min 42 sec) 
Heartbeat CPU 0 instructions: 48000000 cycles: 34729964 heartbeat IPC: 1.27258 cumulative IPC: 1.23095 (Simulation time: 0 hr 23 min 10 sec) 
Heartbeat CPU 0 instructions: 49000002 cycles: 35504744 heartbeat IPC: 1.29069 cumulative IPC: 1.23241 (Simulation time: 0 hr 23 min 40 sec) 
Heartbeat CPU 0 instructions: 50000003 cycles: 36281705 heartbeat IPC: 1.28707 cumulative IPC: 1.23372 (Simulation time: 0 hr 24 min 10 sec) 
Heartbeat CPU 0 instructions: 51000001 cycles: 37068599 heartbeat IPC: 1.27082 cumulative IPC: 1.2346 (Simulation time: 0 hr 24 min 42 sec) 
Heartbeat CPU 0 instructions: 52000000 cycles: 37834604 heartbeat IPC: 1.30547 cumulative IPC: 1.2362 (Simulation time: 0 hr 25 min 11 sec) 
Heartbeat CPU 0 instructions: 53000001 cycles: 38616211 heartbeat IPC: 1.27942 cumulative IPC: 1.23717 (Simulation time: 0 hr 25 min 42 sec) 
Heartbeat CPU 0 instructions: 54000001 cycles: 39381924 heartbeat IPC: 1.30597 cumulative IPC: 1.23865 (Simulation time: 0 hr 26 min 12 sec) 
Heartbeat CPU 0 instructions: 55000002 cycles: 40138012 heartbeat IPC: 1.3226 cumulative IPC: 1.2404 (Simulation time: 0 hr 26 min 41 sec) 
Heartbeat CPU 0 instructions: 56000000 cycles: 40910177 heartbeat IPC: 1.29506 cumulative IPC: 1.24154 (Simulation time: 0 hr 27 min 8 sec) 
Heartbeat CPU 0 instructions: 57000000 cycles: 41790031 heartbeat IPC: 1.13655 cumulative IPC: 1.2391 (Simulation time: 0 hr 27 min 41 sec) 
Heartbeat CPU 0 instructions: 58000002 cycles: 42918720 heartbeat IPC: 0.885985 cumulative IPC: 1.2289 (Simulation time: 0 hr 28 min 13 sec) 
Heartbeat CPU 0 instructions: 59000001 cycles: 43714259 heartbeat IPC: 1.25701 cumulative IPC: 1.22946 (Simulation time: 0 hr 28 min 42 sec) 
Heartbeat CPU 0 instructions: 60000000 cycles: 44491128 heartbeat IPC: 1.28722 cumulative IPC: 1.23057 (Simulation time: 0 hr 29 min 12 sec) 
Heartbeat CPU 0 instructions: 61000001 cycles: 45254421 heartbeat IPC: 1.31011 cumulative IPC: 1.23203 (Simulation time: 0 hr 29 min 42 sec) 
Heartbeat CPU 0 instructions: 62000000 cycles: 46024651 heartbeat IPC: 1.29831 cumulative IPC: 1.23324 (Simulation time: 0 hr 30 min 10 sec) 
Heartbeat CPU 0 instructions: 63000002 cycles: 46798021 heartbeat IPC: 1.29304 cumulative IPC: 1.23432 (Simulation time: 0 hr 30 min 40 sec) 
Heartbeat CPU 0 instructions: 64000000 cycles: 47571032 heartbeat IPC: 1.29364 cumulative IPC: 1.23537 (Simulation time: 0 hr 31 min 8 sec) 
Heartbeat CPU 0 instructions: 65000003 cycles: 48335222 heartbeat IPC: 1.30858 cumulative IPC: 1.23663 (Simulation time: 0 hr 31 min 35 sec) 
Heartbeat CPU 0 instructions: 66000003 cycles: 49108415 heartbeat IPC: 1.29334 cumulative IPC: 1.2376 (Simulation time: 0 hr 32 min 4 sec) 
Heartbeat CPU 0 instructions: 67000003 cycles: 49916923 heartbeat IPC: 1.23685 cumulative IPC: 1.23758 (Simulation time: 0 hr 32 min 33 sec) 
Heartbeat CPU 0 instructions: 68000000 cycles: 50691303 heartbeat IPC: 1.29135 cumulative IPC: 1.23847 (Simulation time: 0 hr 33 min 2 sec) 
Heartbeat CPU 0 instructions: 69000003 cycles: 51467898 heartbeat IPC: 1.28768 cumulative IPC: 1.23927 (Simulation time: 0 hr 33 min 29 sec) 
Heartbeat CPU 0 instructions: 70000000 cycles: 52256751 heartbeat IPC: 1.26766 cumulative IPC: 1.23974 (Simulation time: 0 hr 33 min 59 sec) 
Heartbeat CPU 0 instructions: 71000002 cycles: 53038169 heartbeat IPC: 1.27973 cumulative IPC: 1.24037 (Simulation time: 0 hr 34 min 29 sec) 
Heartbeat CPU 0 instructions: 72000000 cycles: 53802242 heartbeat IPC: 1.30877 cumulative IPC: 1.24142 (Simulation time: 0 hr 35 min 0 sec) 
Heartbeat CPU 0 instructions: 73000003 cycles: 54585264 heartbeat IPC: 1.27711 cumulative IPC: 1.24197 (Simulation time: 0 hr 35 min 26 sec) 
Heartbeat CPU 0 instructions: 74000003 cycles: 55360075 heartbeat IPC: 1.29064 cumulative IPC: 1.2427 (Simulation time: 0 hr 35 min 57 sec) 
Heartbeat CPU 0 instructions: 75000003 cycles: 56125643 heartbeat IPC: 1.30622 cumulative IPC: 1.24363 (Simulation time: 0 hr 36 min 27 sec) 
Heartbeat CPU 0 instructions: 76000000 cycles: 56908898 heartbeat IPC: 1.27672 cumulative IPC: 1.24412 (Simulation time: 0 hr 36 min 58 sec) 
Heartbeat CPU 0 instructions: 77000003 cycles: 57704450 heartbeat IPC: 1.25699 cumulative IPC: 1.24431 (Simulation time: 0 hr 37 min 28 sec) 
Heartbeat CPU 0 instructions: 78000003 cycles: 58464283 heartbeat IPC: 1.31608 cumulative IPC: 1.24531 (Simulation time: 0 hr 38 min 1 sec) 
Heartbeat CPU 0 instructions: 79000003 cycles: 59245002 heartbeat IPC: 1.28087 cumulative IPC: 1.24581 (Simulation time: 0 hr 38 min 29 sec) 
Heartbeat CPU 0 instructions: 80000000 cycles: 60032567 heartbeat IPC: 1.26973 cumulative IPC: 1.24615 (Simulation time: 0 hr 39 min 0 sec) 
Heartbeat CPU 0 instructions: 81000001 cycles: 60793137 heartbeat IPC: 1.3148 cumulative IPC: 1.24706 (Simulation time: 0 hr 39 min 31 sec) 
Heartbeat CPU 0 instructions: 82000002 cycles: 61574821 heartbeat IPC: 1.27929 cumulative IPC: 1.2475 (Simulation time: 0 hr 40 min 1 sec) 
Heartbeat CPU 0 instructions: 83000003 cycles: 62376364 heartbeat IPC: 1.24759 cumulative IPC: 1.2475 (Simulation time: 0 hr 40 min 31 sec) 
Heartbeat CPU 0 instructions: 84000000 cycles: 63133565 heartbeat IPC: 1.32065 cumulative IPC: 1.24844 (Simulation time: 0 hr 41 min 1 sec) 
Heartbeat CPU 0 instructions: 85000001 cycles: 63911815 heartbeat IPC: 1.28494 cumulative IPC: 1.24891 (Simulation time: 0 hr 41 min 29 sec) 
Heartbeat CPU 0 instructions: 86000000 cycles: 64683192 heartbeat IPC: 1.29638 cumulative IPC: 1.24951 (Simulation time: 0 hr 41 min 56 sec) 
Heartbeat CPU 0 instructions: 87000000 cycles: 65441635 heartbeat IPC: 1.31849 cumulative IPC: 1.25036 (Simulation time: 0 hr 42 min 27 sec) 
Heartbeat CPU 0 instructions: 88000000 cycles: 66224200 heartbeat IPC: 1.27785 cumulative IPC: 1.25071 (Simulation time: 0 hr 42 min 56 sec) 
Heartbeat CPU 0 instructions: 89000002 cycles: 66992467 heartbeat IPC: 1.30163 cumulative IPC: 1.25133 (Simulation time: 0 hr 43 min 26 sec) 
Heartbeat CPU 0 instructions: 90000001 cycles: 67738084 heartbeat IPC: 1.34117 cumulative IPC: 1.25237 (Simulation time: 0 hr 43 min 53 sec) 
Heartbeat CPU 0 instructions: 91000001 cycles: 68519846 heartbeat IPC: 1.27916 cumulative IPC: 1.2527 (Simulation time: 0 hr 44 min 22 sec) 
Heartbeat CPU 0 instructions: 92000000 cycles: 69285294 heartbeat IPC: 1.30642 cumulative IPC: 1.25333 (Simulation time: 0 hr 44 min 49 sec) 
Heartbeat CPU 0 instructions: 93000002 cycles: 70018592 heartbeat IPC: 1.3637 cumulative IPC: 1.25455 (Simulation time: 0 hr 45 min 19 sec) 
Heartbeat CPU 0 instructions: 94000000 cycles: 70818217 heartbeat IPC: 1.25058 cumulative IPC: 1.2545 (Simulation time: 0 hr 45 min 45 sec) 
Heartbeat CPU 0 instructions: 95000000 cycles: 71581085 heartbeat IPC: 1.31084 cumulative IPC: 1.25514 (Simulation time: 0 hr 46 min 15 sec) 
Heartbeat CPU 0 instructions: 96000000 cycles: 72336623 heartbeat IPC: 1.32356 cumulative IPC: 1.25589 (Simulation time: 0 hr 46 min 42 sec) 
Heartbeat CPU 0 instructions: 97000002 cycles: 73515066 heartbeat IPC: 0.848579 cumulative IPC: 1.249 (Simulation time: 0 hr 47 min 10 sec) 
Heartbeat CPU 0 instructions: 98000003 cycles: 74440191 heartbeat IPC: 1.08094 cumulative IPC: 1.2468 (Simulation time: 0 hr 47 min 37 sec) 
Heartbeat CPU 0 instructions: 99000000 cycles: 75230566 heartbeat IPC: 1.26522 cumulative IPC: 1.247 (Simulation time: 0 hr 48 min 3 sec) 
Heartbeat CPU 0 instructions: 100000000 cycles: 75985470 heartbeat IPC: 1.32467 cumulative IPC: 1.24782 (Simulation time: 0 hr 48 min 28 sec) 
Heartbeat CPU 0 instructions: 101000001 cycles: 77330122 heartbeat IPC: 0.743688 cumulative IPC: 1.23859 (Simulation time: 0 hr 48 min 56 sec) 
Heartbeat CPU 0 instructions: 102000001 cycles: 78152288 heartbeat IPC: 1.2163 cumulative IPC: 1.23834 (Simulation time: 0 hr 49 min 25 sec) 
Heartbeat CPU 0 instructions: 103000001 cycles: 78970526 heartbeat IPC: 1.22214 cumulative IPC: 1.23817 (Simulation time: 0 hr 49 min 50 sec) 
Heartbeat CPU 0 instructions: 104000000 cycles: 80225570 heartbeat IPC: 0.796784 cumulative IPC: 1.23091 (Simulation time: 0 hr 50 min 17 sec) 
Heartbeat CPU 0 instructions: 105000002 cycles: 81057726 heartbeat IPC: 1.2017 cumulative IPC: 1.2306 (Simulation time: 0 hr 50 min 42 sec) 
Heartbeat CPU 0 instructions: 106000000 cycles: 81790828 heartbeat IPC: 1.36406 cumulative IPC: 1.23185 (Simulation time: 0 hr 51 min 9 sec) 
Heartbeat CPU 0 instructions: 107000000 cycles: 82859896 heartbeat IPC: 0.935394 cumulative IPC: 1.22784 (Simulation time: 0 hr 51 min 37 sec) 
Heartbeat CPU 0 instructions: 108000000 cycles: 83843661 heartbeat IPC: 1.0165 cumulative IPC: 1.22524 (Simulation time: 0 hr 52 min 4 sec) 
Heartbeat CPU 0 instructions: 109000003 cycles: 84581099 heartbeat IPC: 1.35605 cumulative IPC: 1.22644 (Simulation time: 0 hr 52 min 31 sec) 
Heartbeat CPU 0 instructions: 110000000 cycles: 85438190 heartbeat IPC: 1.16673 cumulative IPC: 1.22581 (Simulation time: 0 hr 52 min 56 sec) 
Finished CPU 0 instructions: 100000003 cycles: 81578781 cummulative IPC: 1.22581 (Simulation time: 0 hr 52 min 56 sec) 

ChampSim completed all CPUs

Region of Interest Statistics

CPU 0 cummulative IPC: 1.22581 instructions: 100000003 cycles: 81578781
LLC TOTAL     ACCESS:    1445931  HIT:     830856  MISS:     615075
LLC LOAD      ACCESS:     118916  HIT:     100870  MISS:      18046
LLC RFO       ACCESS:     121984  HIT:     120535  MISS:       1449
LLC PREFETCH  ACCESS:    1076637  HIT:     481554  MISS:     595083
LLC WRITEBACK ACCESS:     128394  HIT:     127897  MISS:        497
Insertion Distribution: 
	LOAD 10646 0 13909 2207 
	RFO 1114 0 3509 0 
	PREF 0 9290 62465 604509 
	WRITEBACK 0 0 0 576 
Total Prefetch Downgrades: 5931
