
*** ChampSim Multicore Out-of-Order Simulator ***

Warmup Instructions: 10000000
Simulation Instructions: 100000000
Configuration: 2
Number of CPUs: 1
LLC sets: 2048
LLC ways: 16
Off-chip DRAM Channels: 1 Width: 64-bit Data Rate: 1600 MT/s

CPU 0 runs /datasets/cs240c-wi22-a00-public/data/Assignment2-gz/cactusADM_1039B.trace.gz
CPU 0 L1D next line prefetcher
CPU 0 L2C IP-based stride prefetcher
Initialize SRRIP state
Heartbeat CPU 0 instructions: 1000000 cycles: 595518 heartbeat IPC: 1.67921 cumulative IPC: 1.67921 (Simulation time: 0 hr 0 min 35 sec) 
Heartbeat CPU 0 instructions: 2000002 cycles: 1190937 heartbeat IPC: 1.67949 cumulative IPC: 1.67935 (Simulation time: 0 hr 1 min 13 sec) 
Heartbeat CPU 0 instructions: 3000003 cycles: 1786622 heartbeat IPC: 1.67874 cumulative IPC: 1.67915 (Simulation time: 0 hr 1 min 48 sec) 
Heartbeat CPU 0 instructions: 4000000 cycles: 2382046 heartbeat IPC: 1.67947 cumulative IPC: 1.67923 (Simulation time: 0 hr 2 min 21 sec) 
Heartbeat CPU 0 instructions: 5000001 cycles: 2977457 heartbeat IPC: 1.67951 cumulative IPC: 1.67929 (Simulation time: 0 hr 2 min 56 sec) 
Heartbeat CPU 0 instructions: 6000002 cycles: 3572930 heartbeat IPC: 1.67934 cumulative IPC: 1.67929 (Simulation time: 0 hr 3 min 30 sec) 
Heartbeat CPU 0 instructions: 7000000 cycles: 4168306 heartbeat IPC: 1.67961 cumulative IPC: 1.67934 (Simulation time: 0 hr 4 min 3 sec) 
Heartbeat CPU 0 instructions: 8000000 cycles: 4763681 heartbeat IPC: 1.67961 cumulative IPC: 1.67937 (Simulation time: 0 hr 4 min 35 sec) 
Heartbeat CPU 0 instructions: 9000002 cycles: 5359336 heartbeat IPC: 1.67883 cumulative IPC: 1.67931 (Simulation time: 0 hr 5 min 10 sec) 
Heartbeat CPU 0 instructions: 10000003 cycles: 5974113 heartbeat IPC: 1.62661 cumulative IPC: 1.67389 (Simulation time: 0 hr 5 min 47 sec) 

Warmup complete CPU 0 instructions: 10000003 cycles: 5974113 (Simulation time: 0 hr 5 min 47 sec) 

Heartbeat CPU 0 instructions: 11000003 cycles: 12123063 heartbeat IPC: 0.162629 cumulative IPC: 0.162629 (Simulation time: 0 hr 6 min 32 sec) 
Heartbeat CPU 0 instructions: 12000000 cycles: 13864412 heartbeat IPC: 0.574266 cumulative IPC: 0.253475 (Simulation time: 0 hr 7 min 11 sec) 
Heartbeat CPU 0 instructions: 13000002 cycles: 15531490 heartbeat IPC: 0.599853 cumulative IPC: 0.313894 (Simulation time: 0 hr 7 min 48 sec) 
Heartbeat CPU 0 instructions: 14000001 cycles: 17237875 heartbeat IPC: 0.586034 cumulative IPC: 0.355121 (Simulation time: 0 hr 8 min 24 sec) 
Heartbeat CPU 0 instructions: 15000002 cycles: 18978820 heartbeat IPC: 0.574401 cumulative IPC: 0.384476 (Simulation time: 0 hr 9 min 1 sec) 
Heartbeat CPU 0 instructions: 16000000 cycles: 20723509 heartbeat IPC: 0.573167 cumulative IPC: 0.406796 (Simulation time: 0 hr 9 min 40 sec) 
Heartbeat CPU 0 instructions: 17000003 cycles: 22447132 heartbeat IPC: 0.580175 cumulative IPC: 0.424937 (Simulation time: 0 hr 10 min 18 sec) 
Heartbeat CPU 0 instructions: 18000002 cycles: 24100654 heartbeat IPC: 0.604769 cumulative IPC: 0.441342 (Simulation time: 0 hr 10 min 54 sec) 
Heartbeat CPU 0 instructions: 19000003 cycles: 25836616 heartbeat IPC: 0.57605 cumulative IPC: 0.453115 (Simulation time: 0 hr 11 min 31 sec) 
Heartbeat CPU 0 instructions: 20000000 cycles: 27580067 heartbeat IPC: 0.573573 cumulative IPC: 0.462835 (Simulation time: 0 hr 12 min 8 sec) 
Heartbeat CPU 0 instructions: 21000002 cycles: 29323580 heartbeat IPC: 0.573556 cumulative IPC: 0.471103 (Simulation time: 0 hr 12 min 49 sec) 
Heartbeat CPU 0 instructions: 22000003 cycles: 31014051 heartbeat IPC: 0.591552 cumulative IPC: 0.479234 (Simulation time: 0 hr 13 min 30 sec) 
Heartbeat CPU 0 instructions: 23000001 cycles: 32697714 heartbeat IPC: 0.593942 cumulative IPC: 0.486461 (Simulation time: 0 hr 14 min 8 sec) 
Heartbeat CPU 0 instructions: 24000000 cycles: 39362739 heartbeat IPC: 0.150037 cumulative IPC: 0.419304 (Simulation time: 0 hr 14 min 54 sec) 
Heartbeat CPU 0 instructions: 25000002 cycles: 41099180 heartbeat IPC: 0.575892 cumulative IPC: 0.427045 (Simulation time: 0 hr 15 min 33 sec) 
Heartbeat CPU 0 instructions: 26000002 cycles: 42823371 heartbeat IPC: 0.579982 cumulative IPC: 0.434201 (Simulation time: 0 hr 16 min 13 sec) 
Heartbeat CPU 0 instructions: 27000002 cycles: 44486185 heartbeat IPC: 0.60139 cumulative IPC: 0.44142 (Simulation time: 0 hr 16 min 51 sec) 
Heartbeat CPU 0 instructions: 28000000 cycles: 46213101 heartbeat IPC: 0.579066 cumulative IPC: 0.447327 (Simulation time: 0 hr 17 min 30 sec) 
Heartbeat CPU 0 instructions: 29000000 cycles: 47951188 heartbeat IPC: 0.575345 cumulative IPC: 0.452628 (Simulation time: 0 hr 18 min 5 sec) 
Heartbeat CPU 0 instructions: 30000003 cycles: 49687637 heartbeat IPC: 0.57589 cumulative IPC: 0.457524 (Simulation time: 0 hr 18 min 41 sec) 
Heartbeat CPU 0 instructions: 31000001 cycles: 51380710 heartbeat IPC: 0.590641 cumulative IPC: 0.462488 (Simulation time: 0 hr 19 min 17 sec) 
Heartbeat CPU 0 instructions: 32000000 cycles: 53054637 heartbeat IPC: 0.597397 cumulative IPC: 0.467284 (Simulation time: 0 hr 19 min 55 sec) 
Heartbeat CPU 0 instructions: 33000001 cycles: 54790608 heartbeat IPC: 0.576047 cumulative IPC: 0.471152 (Simulation time: 0 hr 20 min 34 sec) 
Heartbeat CPU 0 instructions: 34000000 cycles: 56528581 heartbeat IPC: 0.575382 cumulative IPC: 0.474735 (Simulation time: 0 hr 21 min 15 sec) 
Heartbeat CPU 0 instructions: 35000001 cycles: 58262233 heartbeat IPC: 0.576818 cumulative IPC: 0.47812 (Simulation time: 0 hr 21 min 57 sec) 
Heartbeat CPU 0 instructions: 36000000 cycles: 59923393 heartbeat IPC: 0.601988 cumulative IPC: 0.481934 (Simulation time: 0 hr 22 min 36 sec) 
Heartbeat CPU 0 instructions: 37000002 cycles: 66516193 heartbeat IPC: 0.151681 cumulative IPC: 0.445971 (Simulation time: 0 hr 23 min 28 sec) 
Heartbeat CPU 0 instructions: 38000001 cycles: 68254283 heartbeat IPC: 0.575344 cumulative IPC: 0.449581 (Simulation time: 0 hr 24 min 9 sec) 
Heartbeat CPU 0 instructions: 39000002 cycles: 69993973 heartbeat IPC: 0.574816 cumulative IPC: 0.452984 (Simulation time: 0 hr 24 min 47 sec) 
Heartbeat CPU 0 instructions: 40000000 cycles: 71689528 heartbeat IPC: 0.589776 cumulative IPC: 0.456514 (Simulation time: 0 hr 25 min 24 sec) 
Heartbeat CPU 0 instructions: 41000003 cycles: 73357925 heartbeat IPC: 0.59938 cumulative IPC: 0.460051 (Simulation time: 0 hr 26 min 4 sec) 
Heartbeat CPU 0 instructions: 42000000 cycles: 75090995 heartbeat IPC: 0.577009 cumulative IPC: 0.462984 (Simulation time: 0 hr 26 min 43 sec) 
Heartbeat CPU 0 instructions: 43000000 cycles: 76830085 heartbeat IPC: 0.575013 cumulative IPC: 0.465733 (Simulation time: 0 hr 27 min 20 sec) 
Heartbeat CPU 0 instructions: 44000000 cycles: 78566718 heartbeat IPC: 0.575827 cumulative IPC: 0.468367 (Simulation time: 0 hr 27 min 58 sec) 
Heartbeat CPU 0 instructions: 45000000 cycles: 80234814 heartbeat IPC: 0.599486 cumulative IPC: 0.471312 (Simulation time: 0 hr 28 min 37 sec) 
Heartbeat CPU 0 instructions: 46000003 cycles: 81938498 heartbeat IPC: 0.586965 cumulative IPC: 0.473906 (Simulation time: 0 hr 29 min 14 sec) 
Heartbeat CPU 0 instructions: 47000001 cycles: 83676608 heartbeat IPC: 0.575336 cumulative IPC: 0.476175 (Simulation time: 0 hr 29 min 51 sec) 
Heartbeat CPU 0 instructions: 48000000 cycles: 85414922 heartbeat IPC: 0.575269 cumulative IPC: 0.478344 (Simulation time: 0 hr 30 min 30 sec) 
Heartbeat CPU 0 instructions: 49000001 cycles: 87137644 heartbeat IPC: 0.580477 cumulative IPC: 0.480511 (Simulation time: 0 hr 31 min 11 sec) 
Heartbeat CPU 0 instructions: 50000000 cycles: 93786961 heartbeat IPC: 0.150391 cumulative IPC: 0.455514 (Simulation time: 0 hr 31 min 58 sec) 
Heartbeat CPU 0 instructions: 51000003 cycles: 95549507 heartbeat IPC: 0.567363 cumulative IPC: 0.457715 (Simulation time: 0 hr 32 min 36 sec) 
Heartbeat CPU 0 instructions: 52000000 cycles: 97318055 heartbeat IPC: 0.565434 cumulative IPC: 0.459801 (Simulation time: 0 hr 33 min 16 sec) 
Heartbeat CPU 0 instructions: 53000003 cycles: 99085586 heartbeat IPC: 0.565763 cumulative IPC: 0.461812 (Simulation time: 0 hr 33 min 58 sec) 
Heartbeat CPU 0 instructions: 54000002 cycles: 100799469 heartbeat IPC: 0.58347 cumulative IPC: 0.464011 (Simulation time: 0 hr 34 min 38 sec) 
Heartbeat CPU 0 instructions: 55000001 cycles: 102522906 heartbeat IPC: 0.580235 cumulative IPC: 0.466086 (Simulation time: 0 hr 35 min 19 sec) 
Heartbeat CPU 0 instructions: 56000000 cycles: 104290286 heartbeat IPC: 0.565809 cumulative IPC: 0.467878 (Simulation time: 0 hr 36 min 0 sec) 
Heartbeat CPU 0 instructions: 57000000 cycles: 106062041 heartbeat IPC: 0.564412 cumulative IPC: 0.469587 (Simulation time: 0 hr 36 min 40 sec) 
Heartbeat CPU 0 instructions: 58000000 cycles: 107824364 heartbeat IPC: 0.567433 cumulative IPC: 0.47128 (Simulation time: 0 hr 37 min 21 sec) 
Heartbeat CPU 0 instructions: 59000002 cycles: 109509164 heartbeat IPC: 0.593543 cumulative IPC: 0.47327 (Simulation time: 0 hr 38 min 0 sec) 
Heartbeat CPU 0 instructions: 60000000 cycles: 111265737 heartbeat IPC: 0.569289 cumulative IPC: 0.474872 (Simulation time: 0 hr 38 min 44 sec) 
Heartbeat CPU 0 instructions: 61000001 cycles: 113036590 heartbeat IPC: 0.5647 cumulative IPC: 0.476357 (Simulation time: 0 hr 39 min 25 sec) 
Heartbeat CPU 0 instructions: 62000000 cycles: 114805891 heartbeat IPC: 0.565194 cumulative IPC: 0.477802 (Simulation time: 0 hr 40 min 3 sec) 
Heartbeat CPU 0 instructions: 63000001 cycles: 121021376 heartbeat IPC: 0.160889 cumulative IPC: 0.46068 (Simulation time: 0 hr 40 min 49 sec) 
Heartbeat CPU 0 instructions: 64000000 cycles: 123290685 heartbeat IPC: 0.440662 cumulative IPC: 0.460293 (Simulation time: 0 hr 41 min 26 sec) 
Heartbeat CPU 0 instructions: 65000002 cycles: 125059432 heartbeat IPC: 0.565373 cumulative IPC: 0.461854 (Simulation time: 0 hr 42 min 2 sec) 
Heartbeat CPU 0 instructions: 66000001 cycles: 126829256 heartbeat IPC: 0.565027 cumulative IPC: 0.463365 (Simulation time: 0 hr 42 min 40 sec) 
Heartbeat CPU 0 instructions: 67000003 cycles: 128592794 heartbeat IPC: 0.567043 cumulative IPC: 0.464856 (Simulation time: 0 hr 43 min 17 sec) 
Heartbeat CPU 0 instructions: 68000000 cycles: 130317198 heartbeat IPC: 0.579909 cumulative IPC: 0.466451 (Simulation time: 0 hr 44 min 0 sec) 
Heartbeat CPU 0 instructions: 69000003 cycles: 132092754 heartbeat IPC: 0.563206 cumulative IPC: 0.467813 (Simulation time: 0 hr 44 min 39 sec) 
Heartbeat CPU 0 instructions: 70000002 cycles: 133862526 heartbeat IPC: 0.565044 cumulative IPC: 0.469159 (Simulation time: 0 hr 45 min 20 sec) 
Heartbeat CPU 0 instructions: 71000000 cycles: 135632451 heartbeat IPC: 0.564995 cumulative IPC: 0.470467 (Simulation time: 0 hr 46 min 0 sec) 
Heartbeat CPU 0 instructions: 72000000 cycles: 137376818 heartbeat IPC: 0.573274 cumulative IPC: 0.471832 (Simulation time: 0 hr 46 min 37 sec) 
Heartbeat CPU 0 instructions: 73000001 cycles: 139075182 heartbeat IPC: 0.588803 cumulative IPC: 0.473325 (Simulation time: 0 hr 47 min 14 sec) 
Heartbeat CPU 0 instructions: 74000003 cycles: 140840294 heartbeat IPC: 0.566537 cumulative IPC: 0.474544 (Simulation time: 0 hr 47 min 51 sec) 
Heartbeat CPU 0 instructions: 75000002 cycles: 142611705 heartbeat IPC: 0.564521 cumulative IPC: 0.475711 (Simulation time: 0 hr 48 min 28 sec) 
Heartbeat CPU 0 instructions: 76000000 cycles: 147881528 heartbeat IPC: 0.189759 cumulative IPC: 0.465092 (Simulation time: 0 hr 49 min 13 sec) 
Heartbeat CPU 0 instructions: 77000001 cycles: 151050694 heartbeat IPC: 0.315541 cumulative IPC: 0.461825 (Simulation time: 0 hr 49 min 52 sec) 
Heartbeat CPU 0 instructions: 78000000 cycles: 152798398 heartbeat IPC: 0.572179 cumulative IPC: 0.463139 (Simulation time: 0 hr 50 min 30 sec) 
Heartbeat CPU 0 instructions: 79000002 cycles: 154564867 heartbeat IPC: 0.566102 cumulative IPC: 0.464363 (Simulation time: 0 hr 51 min 6 sec) 
Heartbeat CPU 0 instructions: 80000000 cycles: 156332033 heartbeat IPC: 0.565877 cumulative IPC: 0.465556 (Simulation time: 0 hr 51 min 41 sec) 
Heartbeat CPU 0 instructions: 81000002 cycles: 158077663 heartbeat IPC: 0.57286 cumulative IPC: 0.466787 (Simulation time: 0 hr 52 min 17 sec) 
Heartbeat CPU 0 instructions: 82000002 cycles: 159770633 heartbeat IPC: 0.590678 cumulative IPC: 0.468151 (Simulation time: 0 hr 52 min 50 sec) 
Heartbeat CPU 0 instructions: 83000003 cycles: 161534894 heartbeat IPC: 0.56681 cumulative IPC: 0.46927 (Simulation time: 0 hr 53 min 22 sec) 
Heartbeat CPU 0 instructions: 84000000 cycles: 163303714 heartbeat IPC: 0.565347 cumulative IPC: 0.47035 (Simulation time: 0 hr 53 min 53 sec) 
Heartbeat CPU 0 instructions: 85000002 cycles: 165072737 heartbeat IPC: 0.565285 cumulative IPC: 0.471406 (Simulation time: 0 hr 54 min 24 sec) 
Heartbeat CPU 0 instructions: 86000003 cycles: 166785085 heartbeat IPC: 0.583994 cumulative IPC: 0.472605 (Simulation time: 0 hr 54 min 53 sec) 
Heartbeat CPU 0 instructions: 87000000 cycles: 168525843 heartbeat IPC: 0.574461 cumulative IPC: 0.473695 (Simulation time: 0 hr 55 min 22 sec) 
Heartbeat CPU 0 instructions: 88000000 cycles: 170291817 heartbeat IPC: 0.56626 cumulative IPC: 0.47469 (Simulation time: 0 hr 55 min 51 sec) 
Heartbeat CPU 0 instructions: 89000001 cycles: 174627721 heartbeat IPC: 0.230633 cumulative IPC: 0.468416 (Simulation time: 0 hr 56 min 20 sec) 
Heartbeat CPU 0 instructions: 90000002 cycles: 178757424 heartbeat IPC: 0.242148 cumulative IPC: 0.463008 (Simulation time: 0 hr 56 min 49 sec) 
Heartbeat CPU 0 instructions: 91000000 cycles: 180450039 heartbeat IPC: 0.590801 cumulative IPC: 0.464247 (Simulation time: 0 hr 57 min 14 sec) 
Heartbeat CPU 0 instructions: 92000000 cycles: 182211237 heartbeat IPC: 0.567795 cumulative IPC: 0.465282 (Simulation time: 0 hr 57 min 37 sec) 
Heartbeat CPU 0 instructions: 93000001 cycles: 183980109 heartbeat IPC: 0.565333 cumulative IPC: 0.466276 (Simulation time: 0 hr 58 min 0 sec) 
Heartbeat CPU 0 instructions: 94000003 cycles: 185752088 heartbeat IPC: 0.564342 cumulative IPC: 0.467243 (Simulation time: 0 hr 58 min 24 sec) 
Heartbeat CPU 0 instructions: 95000001 cycles: 187471281 heartbeat IPC: 0.581667 cumulative IPC: 0.468327 (Simulation time: 0 hr 58 min 49 sec) 
Heartbeat CPU 0 instructions: 96000000 cycles: 189188599 heartbeat IPC: 0.582303 cumulative IPC: 0.469395 (Simulation time: 0 hr 59 min 13 sec) 
Heartbeat CPU 0 instructions: 97000002 cycles: 190955180 heartbeat IPC: 0.566066 cumulative IPC: 0.470318 (Simulation time: 0 hr 59 min 36 sec) 
Heartbeat CPU 0 instructions: 98000000 cycles: 192726972 heartbeat IPC: 0.564399 cumulative IPC: 0.471211 (Simulation time: 0 hr 59 min 57 sec) 
Heartbeat CPU 0 instructions: 99000002 cycles: 194492874 heartbeat IPC: 0.566284 cumulative IPC: 0.472102 (Simulation time: 1 hr 0 min 21 sec) 
Heartbeat CPU 0 instructions: 100000000 cycles: 196181095 heartbeat IPC: 0.592338 cumulative IPC: 0.473169 (Simulation time: 1 hr 0 min 43 sec) 
Heartbeat CPU 0 instructions: 101000002 cycles: 197933085 heartbeat IPC: 0.570781 cumulative IPC: 0.47406 (Simulation time: 1 hr 1 min 3 sec) 
Heartbeat CPU 0 instructions: 102000000 cycles: 201281634 heartbeat IPC: 0.298636 cumulative IPC: 0.471052 (Simulation time: 1 hr 1 min 24 sec) 
Heartbeat CPU 0 instructions: 103000002 cycles: 206409998 heartbeat IPC: 0.194994 cumulative IPC: 0.463989 (Simulation time: 1 hr 1 min 45 sec) 
Heartbeat CPU 0 instructions: 104000000 cycles: 208134229 heartbeat IPC: 0.579968 cumulative IPC: 0.464978 (Simulation time: 1 hr 2 min 3 sec) 
Heartbeat CPU 0 instructions: 105000002 cycles: 209847256 heartbeat IPC: 0.583763 cumulative IPC: 0.465976 (Simulation time: 1 hr 2 min 21 sec) 
Heartbeat CPU 0 instructions: 106000001 cycles: 211617069 heartbeat IPC: 0.565031 cumulative IPC: 0.466829 (Simulation time: 1 hr 2 min 37 sec) 
Heartbeat CPU 0 instructions: 107000003 cycles: 213384691 heartbeat IPC: 0.565733 cumulative IPC: 0.467671 (Simulation time: 1 hr 2 min 54 sec) 
Heartbeat CPU 0 instructions: 108000000 cycles: 215150398 heartbeat IPC: 0.566344 cumulative IPC: 0.468504 (Simulation time: 1 hr 3 min 11 sec) 
Heartbeat CPU 0 instructions: 109000003 cycles: 216846277 heartbeat IPC: 0.589666 cumulative IPC: 0.469479 (Simulation time: 1 hr 3 min 28 sec) 
Heartbeat CPU 0 instructions: 110000002 cycles: 218593449 heartbeat IPC: 0.572353 cumulative IPC: 0.470324 (Simulation time: 1 hr 3 min 42 sec) 
Finished CPU 0 instructions: 100000003 cycles: 212619337 cummulative IPC: 0.470324 (Simulation time: 1 hr 3 min 42 sec) 

ChampSim completed all CPUs

Region of Interest Statistics

CPU 0 cummulative IPC: 0.470324 instructions: 100000003 cycles: 212619337
LLC TOTAL     ACCESS:    1169020  HIT:     334772  MISS:     834248
LLC LOAD      ACCESS:      25398  HIT:       3890  MISS:      21508
LLC RFO       ACCESS:     265309  HIT:      74808  MISS:     190501
LLC PREFETCH  ACCESS:     610970  HIT:     140021  MISS:     470949
LLC WRITEBACK ACCESS:     267343  HIT:     116053  MISS:     151290
Insertion Distribution: 
	LOAD 458 0 5059 17152 
	RFO 15182 0 18549 168042 
	PREF 0 46313 68323 405279 
	WRITEBACK 0 0 0 154360 
Total Prefetch Downgrades: 49015
