
*** ChampSim Multicore Out-of-Order Simulator ***

Warmup Instructions: 10000000
Simulation Instructions: 100000000
Configuration: 2
Number of CPUs: 1
LLC sets: 2048
LLC ways: 16
Off-chip DRAM Channels: 1 Width: 64-bit Data Rate: 1600 MT/s

CPU 0 runs /datasets/cs240c-wi22-a00-public/data/Assignment2-gz/libquantum_964B.trace.gz
CPU 0 L1D next line prefetcher
CPU 0 L2C IP-based stride prefetcher
Initialize SRRIP state
Heartbeat CPU 0 instructions: 1000002 cycles: 333341 heartbeat IPC: 2.99994 cumulative IPC: 2.99994 (Simulation time: 0 hr 0 min 18 sec) 
Heartbeat CPU 0 instructions: 2000001 cycles: 666674 heartbeat IPC: 3 cumulative IPC: 2.99997 (Simulation time: 0 hr 0 min 36 sec) 
Heartbeat CPU 0 instructions: 3000000 cycles: 1000007 heartbeat IPC: 3 cumulative IPC: 2.99998 (Simulation time: 0 hr 0 min 53 sec) 
Heartbeat CPU 0 instructions: 4000000 cycles: 1333341 heartbeat IPC: 2.99999 cumulative IPC: 2.99998 (Simulation time: 0 hr 1 min 10 sec) 
Heartbeat CPU 0 instructions: 5000000 cycles: 1666674 heartbeat IPC: 3 cumulative IPC: 2.99999 (Simulation time: 0 hr 1 min 28 sec) 
Heartbeat CPU 0 instructions: 6000002 cycles: 2000008 heartbeat IPC: 3 cumulative IPC: 2.99999 (Simulation time: 0 hr 1 min 45 sec) 
Heartbeat CPU 0 instructions: 7000001 cycles: 2331518 heartbeat IPC: 3.0165 cumulative IPC: 3.00234 (Simulation time: 0 hr 2 min 3 sec) 
Heartbeat CPU 0 instructions: 8000000 cycles: 2662240 heartbeat IPC: 3.02368 cumulative IPC: 3.00499 (Simulation time: 0 hr 2 min 20 sec) 
Heartbeat CPU 0 instructions: 9000001 cycles: 2992962 heartbeat IPC: 3.02369 cumulative IPC: 3.00705 (Simulation time: 0 hr 2 min 37 sec) 
Heartbeat CPU 0 instructions: 10000001 cycles: 3323684 heartbeat IPC: 3.02369 cumulative IPC: 3.00871 (Simulation time: 0 hr 2 min 54 sec) 

Warmup complete CPU 0 instructions: 10000001 cycles: 3323684 (Simulation time: 0 hr 2 min 54 sec) 

Heartbeat CPU 0 instructions: 11000000 cycles: 5060059 heartbeat IPC: 0.575912 cumulative IPC: 0.575912 (Simulation time: 0 hr 3 min 21 sec) 
Heartbeat CPU 0 instructions: 12000000 cycles: 6808477 heartbeat IPC: 0.571946 cumulative IPC: 0.573922 (Simulation time: 0 hr 3 min 49 sec) 
Heartbeat CPU 0 instructions: 13000001 cycles: 8552271 heartbeat IPC: 0.573463 cumulative IPC: 0.573769 (Simulation time: 0 hr 4 min 15 sec) 
Heartbeat CPU 0 instructions: 14000000 cycles: 10294197 heartbeat IPC: 0.574077 cumulative IPC: 0.573846 (Simulation time: 0 hr 4 min 43 sec) 
Heartbeat CPU 0 instructions: 15000003 cycles: 12041297 heartbeat IPC: 0.572379 cumulative IPC: 0.573552 (Simulation time: 0 hr 5 min 11 sec) 
Heartbeat CPU 0 instructions: 16000000 cycles: 13781303 heartbeat IPC: 0.574709 cumulative IPC: 0.573744 (Simulation time: 0 hr 5 min 39 sec) 
Heartbeat CPU 0 instructions: 17000000 cycles: 15531627 heartbeat IPC: 0.571323 cumulative IPC: 0.573397 (Simulation time: 0 hr 6 min 9 sec) 
Heartbeat CPU 0 instructions: 18000003 cycles: 17268988 heartbeat IPC: 0.575587 cumulative IPC: 0.57367 (Simulation time: 0 hr 6 min 37 sec) 
Heartbeat CPU 0 instructions: 19000002 cycles: 19001322 heartbeat IPC: 0.577255 cumulative IPC: 0.574066 (Simulation time: 0 hr 7 min 5 sec) 
Heartbeat CPU 0 instructions: 20000000 cycles: 20195203 heartbeat IPC: 0.837603 cumulative IPC: 0.592715 (Simulation time: 0 hr 7 min 30 sec) 
Heartbeat CPU 0 instructions: 21000003 cycles: 21930922 heartbeat IPC: 0.576132 cumulative IPC: 0.591168 (Simulation time: 0 hr 7 min 56 sec) 
Heartbeat CPU 0 instructions: 22000002 cycles: 23674581 heartbeat IPC: 0.573506 cumulative IPC: 0.589655 (Simulation time: 0 hr 8 min 21 sec) 
Heartbeat CPU 0 instructions: 23000000 cycles: 25416104 heartbeat IPC: 0.574209 cumulative IPC: 0.588437 (Simulation time: 0 hr 8 min 49 sec) 
Heartbeat CPU 0 instructions: 24000000 cycles: 27169407 heartbeat IPC: 0.570352 cumulative IPC: 0.587107 (Simulation time: 0 hr 9 min 17 sec) 
Heartbeat CPU 0 instructions: 25000000 cycles: 28910799 heartbeat IPC: 0.574253 cumulative IPC: 0.586233 (Simulation time: 0 hr 9 min 50 sec) 
Heartbeat CPU 0 instructions: 26000002 cycles: 30876786 heartbeat IPC: 0.508651 cumulative IPC: 0.580697 (Simulation time: 0 hr 10 min 25 sec) 
Heartbeat CPU 0 instructions: 27000002 cycles: 33238558 heartbeat IPC: 0.423411 cumulative IPC: 0.568279 (Simulation time: 0 hr 11 min 0 sec) 
Heartbeat CPU 0 instructions: 28000000 cycles: 35594915 heartbeat IPC: 0.424383 cumulative IPC: 0.557772 (Simulation time: 0 hr 11 min 40 sec) 
Heartbeat CPU 0 instructions: 29000002 cycles: 37961949 heartbeat IPC: 0.42247 cumulative IPC: 0.548526 (Simulation time: 0 hr 12 min 16 sec) 
Heartbeat CPU 0 instructions: 30000002 cycles: 40327761 heartbeat IPC: 0.422688 cumulative IPC: 0.540481 (Simulation time: 0 hr 12 min 52 sec) 
Heartbeat CPU 0 instructions: 31000002 cycles: 42691232 heartbeat IPC: 0.423107 cumulative IPC: 0.533434 (Simulation time: 0 hr 13 min 29 sec) 
Heartbeat CPU 0 instructions: 32000000 cycles: 45044462 heartbeat IPC: 0.424947 cumulative IPC: 0.527315 (Simulation time: 0 hr 14 min 9 sec) 
Heartbeat CPU 0 instructions: 33000002 cycles: 47046472 heartbeat IPC: 0.499499 cumulative IPC: 0.526042 (Simulation time: 0 hr 14 min 46 sec) 
Heartbeat CPU 0 instructions: 34000002 cycles: 49398150 heartbeat IPC: 0.425228 cumulative IPC: 0.520896 (Simulation time: 0 hr 15 min 23 sec) 
Heartbeat CPU 0 instructions: 35000002 cycles: 51758172 heartbeat IPC: 0.423725 cumulative IPC: 0.516161 (Simulation time: 0 hr 16 min 4 sec) 
Heartbeat CPU 0 instructions: 36000000 cycles: 53889906 heartbeat IPC: 0.469101 cumulative IPC: 0.514177 (Simulation time: 0 hr 16 min 42 sec) 
Heartbeat CPU 0 instructions: 37000001 cycles: 55584210 heartbeat IPC: 0.590213 cumulative IPC: 0.516642 (Simulation time: 0 hr 17 min 15 sec) 
Heartbeat CPU 0 instructions: 38000000 cycles: 57079878 heartbeat IPC: 0.668597 cumulative IPC: 0.52087 (Simulation time: 0 hr 17 min 45 sec) 
Heartbeat CPU 0 instructions: 39000003 cycles: 58546044 heartbeat IPC: 0.682053 cumulative IPC: 0.52515 (Simulation time: 0 hr 18 min 18 sec) 
Heartbeat CPU 0 instructions: 40000000 cycles: 60012126 heartbeat IPC: 0.682088 cumulative IPC: 0.529208 (Simulation time: 0 hr 18 min 47 sec) 
Heartbeat CPU 0 instructions: 41000001 cycles: 61478346 heartbeat IPC: 0.682027 cumulative IPC: 0.533061 (Simulation time: 0 hr 19 min 17 sec) 
Heartbeat CPU 0 instructions: 42000000 cycles: 62944436 heartbeat IPC: 0.682086 cumulative IPC: 0.536726 (Simulation time: 0 hr 19 min 46 sec) 
Heartbeat CPU 0 instructions: 43000001 cycles: 64410599 heartbeat IPC: 0.682053 cumulative IPC: 0.540214 (Simulation time: 0 hr 20 min 15 sec) 
Heartbeat CPU 0 instructions: 44000000 cycles: 65876682 heartbeat IPC: 0.682089 cumulative IPC: 0.543539 (Simulation time: 0 hr 20 min 42 sec) 
Heartbeat CPU 0 instructions: 45000002 cycles: 67342789 heartbeat IPC: 0.68208 cumulative IPC: 0.546712 (Simulation time: 0 hr 21 min 11 sec) 
Heartbeat CPU 0 instructions: 46000001 cycles: 68808970 heartbeat IPC: 0.682043 cumulative IPC: 0.549742 (Simulation time: 0 hr 21 min 41 sec) 
Heartbeat CPU 0 instructions: 47000000 cycles: 70275060 heartbeat IPC: 0.682086 cumulative IPC: 0.55264 (Simulation time: 0 hr 22 min 11 sec) 
Heartbeat CPU 0 instructions: 48000000 cycles: 71741224 heartbeat IPC: 0.682052 cumulative IPC: 0.555413 (Simulation time: 0 hr 22 min 42 sec) 
Heartbeat CPU 0 instructions: 49000002 cycles: 73207281 heartbeat IPC: 0.682103 cumulative IPC: 0.558071 (Simulation time: 0 hr 23 min 13 sec) 
Heartbeat CPU 0 instructions: 50000001 cycles: 74654901 heartbeat IPC: 0.690788 cumulative IPC: 0.560764 (Simulation time: 0 hr 23 min 42 sec) 
Heartbeat CPU 0 instructions: 51000000 cycles: 76120991 heartbeat IPC: 0.682086 cumulative IPC: 0.563208 (Simulation time: 0 hr 24 min 12 sec) 
Heartbeat CPU 0 instructions: 52000000 cycles: 77587256 heartbeat IPC: 0.682005 cumulative IPC: 0.565553 (Simulation time: 0 hr 24 min 41 sec) 
Heartbeat CPU 0 instructions: 53000000 cycles: 79053462 heartbeat IPC: 0.682032 cumulative IPC: 0.567808 (Simulation time: 0 hr 25 min 14 sec) 
Heartbeat CPU 0 instructions: 54000002 cycles: 80519548 heartbeat IPC: 0.68209 cumulative IPC: 0.569979 (Simulation time: 0 hr 25 min 47 sec) 
Heartbeat CPU 0 instructions: 55000002 cycles: 81947272 heartbeat IPC: 0.700415 cumulative IPC: 0.572347 (Simulation time: 0 hr 26 min 14 sec) 
Heartbeat CPU 0 instructions: 56000000 cycles: 83451188 heartbeat IPC: 0.664929 cumulative IPC: 0.574085 (Simulation time: 0 hr 26 min 42 sec) 
Heartbeat CPU 0 instructions: 57000001 cycles: 85205150 heartbeat IPC: 0.570138 cumulative IPC: 0.574 (Simulation time: 0 hr 27 min 11 sec) 
Heartbeat CPU 0 instructions: 58000000 cycles: 86952773 heartbeat IPC: 0.572205 cumulative IPC: 0.573963 (Simulation time: 0 hr 27 min 39 sec) 
Heartbeat CPU 0 instructions: 59000003 cycles: 88706099 heartbeat IPC: 0.570346 cumulative IPC: 0.573889 (Simulation time: 0 hr 28 min 8 sec) 
Heartbeat CPU 0 instructions: 60000000 cycles: 90453519 heartbeat IPC: 0.572271 cumulative IPC: 0.573856 (Simulation time: 0 hr 28 min 36 sec) 
Heartbeat CPU 0 instructions: 61000002 cycles: 92203533 heartbeat IPC: 0.571425 cumulative IPC: 0.573808 (Simulation time: 0 hr 29 min 1 sec) 
Heartbeat CPU 0 instructions: 62000001 cycles: 93956642 heartbeat IPC: 0.570415 cumulative IPC: 0.573743 (Simulation time: 0 hr 29 min 29 sec) 
Heartbeat CPU 0 instructions: 63000001 cycles: 95704575 heartbeat IPC: 0.572104 cumulative IPC: 0.573712 (Simulation time: 0 hr 29 min 55 sec) 
Heartbeat CPU 0 instructions: 64000000 cycles: 97459711 heartbeat IPC: 0.569756 cumulative IPC: 0.573638 (Simulation time: 0 hr 30 min 22 sec) 
Heartbeat CPU 0 instructions: 65000002 cycles: 99211596 heartbeat IPC: 0.570815 cumulative IPC: 0.573586 (Simulation time: 0 hr 30 min 49 sec) 
Heartbeat CPU 0 instructions: 66000002 cycles: 100958908 heartbeat IPC: 0.572308 cumulative IPC: 0.573564 (Simulation time: 0 hr 31 min 18 sec) 
Heartbeat CPU 0 instructions: 67000000 cycles: 102708836 heartbeat IPC: 0.571451 cumulative IPC: 0.573526 (Simulation time: 0 hr 31 min 45 sec) 
Heartbeat CPU 0 instructions: 68000000 cycles: 104453235 heartbeat IPC: 0.573263 cumulative IPC: 0.573522 (Simulation time: 0 hr 32 min 13 sec) 
Heartbeat CPU 0 instructions: 69000000 cycles: 106178811 heartbeat IPC: 0.579517 cumulative IPC: 0.573622 (Simulation time: 0 hr 32 min 38 sec) 
Heartbeat CPU 0 instructions: 70000002 cycles: 107926114 heartbeat IPC: 0.572312 cumulative IPC: 0.5736 (Simulation time: 0 hr 33 min 6 sec) 
Heartbeat CPU 0 instructions: 71000001 cycles: 109678271 heartbeat IPC: 0.570725 cumulative IPC: 0.573553 (Simulation time: 0 hr 33 min 33 sec) 
Heartbeat CPU 0 instructions: 72000000 cycles: 111429190 heartbeat IPC: 0.571128 cumulative IPC: 0.573514 (Simulation time: 0 hr 34 min 1 sec) 
Heartbeat CPU 0 instructions: 73000000 cycles: 113176753 heartbeat IPC: 0.572225 cumulative IPC: 0.573493 (Simulation time: 0 hr 34 min 32 sec) 
Heartbeat CPU 0 instructions: 74000000 cycles: 114915587 heartbeat IPC: 0.575098 cumulative IPC: 0.573518 (Simulation time: 0 hr 35 min 1 sec) 
Heartbeat CPU 0 instructions: 75000000 cycles: 116985629 heartbeat IPC: 0.483082 cumulative IPC: 0.571871 (Simulation time: 0 hr 35 min 33 sec) 
Heartbeat CPU 0 instructions: 76000000 cycles: 119326609 heartbeat IPC: 0.427172 cumulative IPC: 0.568951 (Simulation time: 0 hr 36 min 17 sec) 
Heartbeat CPU 0 instructions: 77000000 cycles: 121663270 heartbeat IPC: 0.427961 cumulative IPC: 0.566167 (Simulation time: 0 hr 36 min 54 sec) 
Heartbeat CPU 0 instructions: 78000000 cycles: 124026068 heartbeat IPC: 0.423227 cumulative IPC: 0.563369 (Simulation time: 0 hr 37 min 31 sec) 
Heartbeat CPU 0 instructions: 79000000 cycles: 126356644 heartbeat IPC: 0.429078 cumulative IPC: 0.560825 (Simulation time: 0 hr 38 min 5 sec) 
Heartbeat CPU 0 instructions: 80000000 cycles: 128704490 heartbeat IPC: 0.425922 cumulative IPC: 0.558299 (Simulation time: 0 hr 38 min 41 sec) 
Heartbeat CPU 0 instructions: 81000000 cycles: 131037050 heartbeat IPC: 0.428714 cumulative IPC: 0.555932 (Simulation time: 0 hr 39 min 19 sec) 
Heartbeat CPU 0 instructions: 82000000 cycles: 133333013 heartbeat IPC: 0.435547 cumulative IPC: 0.553806 (Simulation time: 0 hr 39 min 52 sec) 
Heartbeat CPU 0 instructions: 83000000 cycles: 135679584 heartbeat IPC: 0.426154 cumulative IPC: 0.551543 (Simulation time: 0 hr 40 min 28 sec) 
Heartbeat CPU 0 instructions: 84000000 cycles: 138030117 heartbeat IPC: 0.425435 cumulative IPC: 0.549343 (Simulation time: 0 hr 41 min 7 sec) 
Heartbeat CPU 0 instructions: 85000001 cycles: 139652650 heartbeat IPC: 0.616321 cumulative IPC: 0.55014 (Simulation time: 0 hr 41 min 42 sec) 
Heartbeat CPU 0 instructions: 86000000 cycles: 141178894 heartbeat IPC: 0.655203 cumulative IPC: 0.551303 (Simulation time: 0 hr 42 min 16 sec) 
Heartbeat CPU 0 instructions: 87000003 cycles: 142688822 heartbeat IPC: 0.662285 cumulative IPC: 0.552505 (Simulation time: 0 hr 42 min 46 sec) 
Heartbeat CPU 0 instructions: 88000000 cycles: 144198814 heartbeat IPC: 0.662253 cumulative IPC: 0.553682 (Simulation time: 0 hr 43 min 15 sec) 
Heartbeat CPU 0 instructions: 89000001 cycles: 145708861 heartbeat IPC: 0.662232 cumulative IPC: 0.554833 (Simulation time: 0 hr 43 min 45 sec) 
Heartbeat CPU 0 instructions: 90000000 cycles: 147218981 heartbeat IPC: 0.662198 cumulative IPC: 0.55596 (Simulation time: 0 hr 44 min 16 sec) 
Heartbeat CPU 0 instructions: 91000001 cycles: 148728904 heartbeat IPC: 0.662286 cumulative IPC: 0.557064 (Simulation time: 0 hr 44 min 45 sec) 
Heartbeat CPU 0 instructions: 92000000 cycles: 150239012 heartbeat IPC: 0.662204 cumulative IPC: 0.558145 (Simulation time: 0 hr 45 min 14 sec) 
Heartbeat CPU 0 instructions: 93000002 cycles: 151749166 heartbeat IPC: 0.662185 cumulative IPC: 0.559203 (Simulation time: 0 hr 45 min 45 sec) 
Heartbeat CPU 0 instructions: 94000001 cycles: 153259086 heartbeat IPC: 0.662286 cumulative IPC: 0.560241 (Simulation time: 0 hr 46 min 15 sec) 
Heartbeat CPU 0 instructions: 95000000 cycles: 154769010 heartbeat IPC: 0.662284 cumulative IPC: 0.561259 (Simulation time: 0 hr 46 min 45 sec) 
Heartbeat CPU 0 instructions: 96000000 cycles: 156279004 heartbeat IPC: 0.662254 cumulative IPC: 0.562256 (Simulation time: 0 hr 47 min 14 sec) 
Heartbeat CPU 0 instructions: 97000002 cycles: 157788645 heartbeat IPC: 0.66241 cumulative IPC: 0.563235 (Simulation time: 0 hr 47 min 44 sec) 
Heartbeat CPU 0 instructions: 98000001 cycles: 159268360 heartbeat IPC: 0.675805 cumulative IPC: 0.564303 (Simulation time: 0 hr 48 min 12 sec) 
Heartbeat CPU 0 instructions: 99000000 cycles: 160778354 heartbeat IPC: 0.662254 cumulative IPC: 0.565242 (Simulation time: 0 hr 48 min 39 sec) 
Heartbeat CPU 0 instructions: 100000000 cycles: 162288275 heartbeat IPC: 0.662286 cumulative IPC: 0.566164 (Simulation time: 0 hr 49 min 8 sec) 
Heartbeat CPU 0 instructions: 101000000 cycles: 163798320 heartbeat IPC: 0.662232 cumulative IPC: 0.567068 (Simulation time: 0 hr 49 min 38 sec) 
Heartbeat CPU 0 instructions: 102000002 cycles: 165308243 heartbeat IPC: 0.662287 cumulative IPC: 0.567955 (Simulation time: 0 hr 50 min 8 sec) 
Heartbeat CPU 0 instructions: 103000001 cycles: 166816939 heartbeat IPC: 0.662823 cumulative IPC: 0.568831 (Simulation time: 0 hr 50 min 37 sec) 
Heartbeat CPU 0 instructions: 104000000 cycles: 168587917 heartbeat IPC: 0.564659 cumulative IPC: 0.568786 (Simulation time: 0 hr 51 min 9 sec) 
Heartbeat CPU 0 instructions: 105000000 cycles: 170932512 heartbeat IPC: 0.426513 cumulative IPC: 0.566796 (Simulation time: 0 hr 51 min 42 sec) 
Heartbeat CPU 0 instructions: 106000000 cycles: 173285208 heartbeat IPC: 0.425044 cumulative IPC: 0.564834 (Simulation time: 0 hr 52 min 22 sec) 
Heartbeat CPU 0 instructions: 107000000 cycles: 175642181 heartbeat IPC: 0.424273 cumulative IPC: 0.562911 (Simulation time: 0 hr 52 min 56 sec) 
Heartbeat CPU 0 instructions: 108000000 cycles: 178002056 heartbeat IPC: 0.423751 cumulative IPC: 0.561031 (Simulation time: 0 hr 53 min 29 sec) 
Heartbeat CPU 0 instructions: 109000000 cycles: 180350287 heartbeat IPC: 0.425852 cumulative IPC: 0.559238 (Simulation time: 0 hr 53 min 59 sec) 
Heartbeat CPU 0 instructions: 110000000 cycles: 182686510 heartbeat IPC: 0.428041 cumulative IPC: 0.557529 (Simulation time: 0 hr 54 min 30 sec) 
Finished CPU 0 instructions: 100000003 cycles: 179362827 cummulative IPC: 0.557529 (Simulation time: 0 hr 54 min 30 sec) 

ChampSim completed all CPUs

Region of Interest Statistics

CPU 0 cummulative IPC: 0.557529 instructions: 100000003 cycles: 179362827
LLC TOTAL     ACCESS:    4917133  HIT:     277446  MISS:    4639687
LLC LOAD      ACCESS:    1164347  HIT:      61339  MISS:    1103008
LLC RFO       ACCESS:         24  HIT:         24  MISS:          0
LLC PREFETCH  ACCESS:    2226064  HIT:      93293  MISS:    2132771
LLC WRITEBACK ACCESS:    1526698  HIT:     122790  MISS:    1403908
Insertion Distribution: 
	LOAD 1854 0 12769 1092733 
	RFO 0 0 4 0 
	PREF 0 16306 58560 2330555 
	WRITEBACK 0 0 0 1416971 
Total Prefetch Downgrades: 36598
