
*** ChampSim Multicore Out-of-Order Simulator ***

Warmup Instructions: 10000000
Simulation Instructions: 100000000
Configuration: 2
Number of CPUs: 1
LLC sets: 2048
LLC ways: 16
Off-chip DRAM Channels: 1 Width: 64-bit Data Rate: 1600 MT/s

CPU 0 runs /datasets/cs240c-wi22-a00-public/data/Assignment2-gz/wrf_1212B.trace.gz
CPU 0 L1D next line prefetcher
CPU 0 L2C IP-based stride prefetcher
Initialize SRRIP state
Heartbeat CPU 0 instructions: 1000001 cycles: 598660 heartbeat IPC: 1.6704 cumulative IPC: 1.6704 (Simulation time: 0 hr 0 min 35 sec) 
Heartbeat CPU 0 instructions: 2000000 cycles: 1197118 heartbeat IPC: 1.67096 cumulative IPC: 1.67068 (Simulation time: 0 hr 1 min 9 sec) 
Heartbeat CPU 0 instructions: 3000001 cycles: 1795976 heartbeat IPC: 1.66985 cumulative IPC: 1.6704 (Simulation time: 0 hr 1 min 46 sec) 
Heartbeat CPU 0 instructions: 4000000 cycles: 2394087 heartbeat IPC: 1.67193 cumulative IPC: 1.67078 (Simulation time: 0 hr 2 min 22 sec) 
Heartbeat CPU 0 instructions: 5000000 cycles: 2993053 heartbeat IPC: 1.66954 cumulative IPC: 1.67054 (Simulation time: 0 hr 2 min 56 sec) 
Heartbeat CPU 0 instructions: 6000001 cycles: 3592667 heartbeat IPC: 1.66774 cumulative IPC: 1.67007 (Simulation time: 0 hr 3 min 30 sec) 
Heartbeat CPU 0 instructions: 7000001 cycles: 4190665 heartbeat IPC: 1.67225 cumulative IPC: 1.67038 (Simulation time: 0 hr 4 min 2 sec) 
Heartbeat CPU 0 instructions: 8000000 cycles: 4788873 heartbeat IPC: 1.67166 cumulative IPC: 1.67054 (Simulation time: 0 hr 4 min 35 sec) 
Heartbeat CPU 0 instructions: 9000002 cycles: 5387792 heartbeat IPC: 1.66968 cumulative IPC: 1.67044 (Simulation time: 0 hr 5 min 6 sec) 
Heartbeat CPU 0 instructions: 10000001 cycles: 5987357 heartbeat IPC: 1.66787 cumulative IPC: 1.67019 (Simulation time: 0 hr 5 min 39 sec) 

Warmup complete CPU 0 instructions: 10000001 cycles: 5987357 (Simulation time: 0 hr 5 min 39 sec) 

Heartbeat CPU 0 instructions: 11000003 cycles: 7743719 heartbeat IPC: 0.56936 cumulative IPC: 0.56936 (Simulation time: 0 hr 6 min 22 sec) 
Heartbeat CPU 0 instructions: 12000000 cycles: 9513320 heartbeat IPC: 0.565097 cumulative IPC: 0.567221 (Simulation time: 0 hr 7 min 2 sec) 
Heartbeat CPU 0 instructions: 13000000 cycles: 11298746 heartbeat IPC: 0.56009 cumulative IPC: 0.564824 (Simulation time: 0 hr 7 min 41 sec) 
Heartbeat CPU 0 instructions: 14000002 cycles: 13082020 heartbeat IPC: 0.560767 cumulative IPC: 0.563804 (Simulation time: 0 hr 8 min 19 sec) 
Heartbeat CPU 0 instructions: 15000003 cycles: 14873145 heartbeat IPC: 0.558309 cumulative IPC: 0.562697 (Simulation time: 0 hr 8 min 58 sec) 
Heartbeat CPU 0 instructions: 16000000 cycles: 16621152 heartbeat IPC: 0.572078 cumulative IPC: 0.564239 (Simulation time: 0 hr 9 min 38 sec) 
Heartbeat CPU 0 instructions: 17000000 cycles: 18402583 heartbeat IPC: 0.561346 cumulative IPC: 0.563824 (Simulation time: 0 hr 10 min 21 sec) 
Heartbeat CPU 0 instructions: 18000000 cycles: 20184008 heartbeat IPC: 0.561348 cumulative IPC: 0.563513 (Simulation time: 0 hr 10 min 59 sec) 
Heartbeat CPU 0 instructions: 19000003 cycles: 21962577 heartbeat IPC: 0.562251 cumulative IPC: 0.563373 (Simulation time: 0 hr 11 min 39 sec) 
Heartbeat CPU 0 instructions: 20000000 cycles: 23710870 heartbeat IPC: 0.571985 cumulative IPC: 0.564222 (Simulation time: 0 hr 12 min 19 sec) 
Heartbeat CPU 0 instructions: 21000001 cycles: 25477486 heartbeat IPC: 0.566055 cumulative IPC: 0.564388 (Simulation time: 0 hr 13 min 0 sec) 
Heartbeat CPU 0 instructions: 22000001 cycles: 27260244 heartbeat IPC: 0.560929 cumulative IPC: 0.564098 (Simulation time: 0 hr 13 min 40 sec) 
Heartbeat CPU 0 instructions: 23000000 cycles: 29046641 heartbeat IPC: 0.559785 cumulative IPC: 0.563764 (Simulation time: 0 hr 14 min 22 sec) 
Heartbeat CPU 0 instructions: 24000000 cycles: 30828344 heartbeat IPC: 0.561261 cumulative IPC: 0.563585 (Simulation time: 0 hr 15 min 3 sec) 
Heartbeat CPU 0 instructions: 25000002 cycles: 32575404 heartbeat IPC: 0.572391 cumulative IPC: 0.564163 (Simulation time: 0 hr 15 min 47 sec) 
Heartbeat CPU 0 instructions: 26000000 cycles: 34357448 heartbeat IPC: 0.561152 cumulative IPC: 0.563974 (Simulation time: 0 hr 16 min 27 sec) 
Heartbeat CPU 0 instructions: 27000000 cycles: 36139605 heartbeat IPC: 0.561118 cumulative IPC: 0.563805 (Simulation time: 0 hr 17 min 8 sec) 
Heartbeat CPU 0 instructions: 28000000 cycles: 37918494 heartbeat IPC: 0.562149 cumulative IPC: 0.563713 (Simulation time: 0 hr 17 min 52 sec) 
Heartbeat CPU 0 instructions: 29000000 cycles: 39667356 heartbeat IPC: 0.5718 cumulative IPC: 0.564133 (Simulation time: 0 hr 18 min 32 sec) 
Heartbeat CPU 0 instructions: 30000003 cycles: 41428468 heartbeat IPC: 0.567825 cumulative IPC: 0.564316 (Simulation time: 0 hr 19 min 12 sec) 
Heartbeat CPU 0 instructions: 31000000 cycles: 43211010 heartbeat IPC: 0.560995 cumulative IPC: 0.564157 (Simulation time: 0 hr 19 min 54 sec) 
Heartbeat CPU 0 instructions: 32000000 cycles: 44992547 heartbeat IPC: 0.561313 cumulative IPC: 0.564027 (Simulation time: 0 hr 20 min 36 sec) 
Heartbeat CPU 0 instructions: 33000000 cycles: 46776991 heartbeat IPC: 0.560399 cumulative IPC: 0.563869 (Simulation time: 0 hr 21 min 23 sec) 
Heartbeat CPU 0 instructions: 34000000 cycles: 48515991 heartbeat IPC: 0.575043 cumulative IPC: 0.564326 (Simulation time: 0 hr 22 min 4 sec) 
Heartbeat CPU 0 instructions: 35000003 cycles: 50298693 heartbeat IPC: 0.560948 cumulative IPC: 0.56419 (Simulation time: 0 hr 22 min 50 sec) 
Heartbeat CPU 0 instructions: 36000000 cycles: 52079805 heartbeat IPC: 0.561445 cumulative IPC: 0.564084 (Simulation time: 0 hr 23 min 33 sec) 
Heartbeat CPU 0 instructions: 37000001 cycles: 53863346 heartbeat IPC: 0.560683 cumulative IPC: 0.563957 (Simulation time: 0 hr 24 min 9 sec) 
Heartbeat CPU 0 instructions: 38000000 cycles: 55613543 heartbeat IPC: 0.571364 cumulative IPC: 0.564218 (Simulation time: 0 hr 24 min 46 sec) 
Heartbeat CPU 0 instructions: 39000000 cycles: 57369000 heartbeat IPC: 0.569652 cumulative IPC: 0.564404 (Simulation time: 0 hr 25 min 27 sec) 
Heartbeat CPU 0 instructions: 40000000 cycles: 59150180 heartbeat IPC: 0.561426 cumulative IPC: 0.564304 (Simulation time: 0 hr 26 min 6 sec) 
Heartbeat CPU 0 instructions: 41000001 cycles: 60931917 heartbeat IPC: 0.561251 cumulative IPC: 0.564205 (Simulation time: 0 hr 26 min 42 sec) 
Heartbeat CPU 0 instructions: 42000003 cycles: 62714850 heartbeat IPC: 0.560875 cumulative IPC: 0.5641 (Simulation time: 0 hr 27 min 20 sec) 
Heartbeat CPU 0 instructions: 43000001 cycles: 64442614 heartbeat IPC: 0.578782 cumulative IPC: 0.564534 (Simulation time: 0 hr 27 min 58 sec) 
Heartbeat CPU 0 instructions: 44000000 cycles: 66223348 heartbeat IPC: 0.561566 cumulative IPC: 0.564447 (Simulation time: 0 hr 28 min 38 sec) 
Heartbeat CPU 0 instructions: 45000001 cycles: 68004014 heartbeat IPC: 0.561588 cumulative IPC: 0.564364 (Simulation time: 0 hr 29 min 16 sec) 
Heartbeat CPU 0 instructions: 46000001 cycles: 69782654 heartbeat IPC: 0.562227 cumulative IPC: 0.564305 (Simulation time: 0 hr 29 min 55 sec) 
Heartbeat CPU 0 instructions: 47000000 cycles: 71535691 heartbeat IPC: 0.570438 cumulative IPC: 0.564469 (Simulation time: 0 hr 30 min 32 sec) 
Heartbeat CPU 0 instructions: 48000000 cycles: 73277229 heartbeat IPC: 0.574205 cumulative IPC: 0.564721 (Simulation time: 0 hr 31 min 10 sec) 
Heartbeat CPU 0 instructions: 49000002 cycles: 75058869 heartbeat IPC: 0.561282 cumulative IPC: 0.564632 (Simulation time: 0 hr 31 min 49 sec) 
Heartbeat CPU 0 instructions: 50000002 cycles: 76839472 heartbeat IPC: 0.561607 cumulative IPC: 0.564556 (Simulation time: 0 hr 32 min 30 sec) 
Heartbeat CPU 0 instructions: 51000002 cycles: 78639610 heartbeat IPC: 0.555513 cumulative IPC: 0.564332 (Simulation time: 0 hr 33 min 13 sec) 
Heartbeat CPU 0 instructions: 52000000 cycles: 80362287 heartbeat IPC: 0.580491 cumulative IPC: 0.564706 (Simulation time: 0 hr 33 min 55 sec) 
Heartbeat CPU 0 instructions: 53000002 cycles: 82129964 heartbeat IPC: 0.565715 cumulative IPC: 0.56473 (Simulation time: 0 hr 34 min 37 sec) 
Heartbeat CPU 0 instructions: 54000001 cycles: 83910525 heartbeat IPC: 0.56162 cumulative IPC: 0.564659 (Simulation time: 0 hr 35 min 23 sec) 
Heartbeat CPU 0 instructions: 55000000 cycles: 85690180 heartbeat IPC: 0.561906 cumulative IPC: 0.564597 (Simulation time: 0 hr 36 min 8 sec) 
Heartbeat CPU 0 instructions: 56000000 cycles: 87463524 heartbeat IPC: 0.563906 cumulative IPC: 0.564582 (Simulation time: 0 hr 36 min 55 sec) 
Heartbeat CPU 0 instructions: 57000001 cycles: 89189850 heartbeat IPC: 0.579265 cumulative IPC: 0.564887 (Simulation time: 0 hr 37 min 40 sec) 
Heartbeat CPU 0 instructions: 58000001 cycles: 90971445 heartbeat IPC: 0.561295 cumulative IPC: 0.564812 (Simulation time: 0 hr 38 min 23 sec) 
Heartbeat CPU 0 instructions: 59000000 cycles: 92753442 heartbeat IPC: 0.561168 cumulative IPC: 0.564737 (Simulation time: 0 hr 39 min 2 sec) 
Heartbeat CPU 0 instructions: 60000000 cycles: 94537283 heartbeat IPC: 0.560588 cumulative IPC: 0.564653 (Simulation time: 0 hr 39 min 43 sec) 
Heartbeat CPU 0 instructions: 61000001 cycles: 96277107 heartbeat IPC: 0.574771 cumulative IPC: 0.564848 (Simulation time: 0 hr 40 min 20 sec) 
Heartbeat CPU 0 instructions: 62000001 cycles: 98020205 heartbeat IPC: 0.573691 cumulative IPC: 0.565016 (Simulation time: 0 hr 41 min 2 sec) 
Heartbeat CPU 0 instructions: 63000002 cycles: 99805893 heartbeat IPC: 0.560009 cumulative IPC: 0.56492 (Simulation time: 0 hr 41 min 45 sec) 
Heartbeat CPU 0 instructions: 64000000 cycles: 101587873 heartbeat IPC: 0.561172 cumulative IPC: 0.564851 (Simulation time: 0 hr 42 min 23 sec) 
Heartbeat CPU 0 instructions: 65000000 cycles: 103374403 heartbeat IPC: 0.559744 cumulative IPC: 0.564757 (Simulation time: 0 hr 43 min 2 sec) 
Heartbeat CPU 0 instructions: 66000001 cycles: 105088447 heartbeat IPC: 0.583416 cumulative IPC: 0.56508 (Simulation time: 0 hr 43 min 41 sec) 
Heartbeat CPU 0 instructions: 67000002 cycles: 106845171 heartbeat IPC: 0.569242 cumulative IPC: 0.565152 (Simulation time: 0 hr 44 min 21 sec) 
Heartbeat CPU 0 instructions: 68000000 cycles: 108630819 heartbeat IPC: 0.56002 cumulative IPC: 0.565063 (Simulation time: 0 hr 45 min 0 sec) 
Heartbeat CPU 0 instructions: 69000001 cycles: 110413090 heartbeat IPC: 0.561082 cumulative IPC: 0.564995 (Simulation time: 0 hr 45 min 38 sec) 
Heartbeat CPU 0 instructions: 70000000 cycles: 112182025 heartbeat IPC: 0.565311 cumulative IPC: 0.565 (Simulation time: 0 hr 46 min 17 sec) 
Heartbeat CPU 0 instructions: 71000001 cycles: 113897359 heartbeat IPC: 0.582977 cumulative IPC: 0.565286 (Simulation time: 0 hr 46 min 53 sec) 
Heartbeat CPU 0 instructions: 72000000 cycles: 115674222 heartbeat IPC: 0.562789 cumulative IPC: 0.565245 (Simulation time: 0 hr 47 min 31 sec) 
Heartbeat CPU 0 instructions: 73000001 cycles: 117461523 heartbeat IPC: 0.559503 cumulative IPC: 0.565153 (Simulation time: 0 hr 48 min 9 sec) 
Heartbeat CPU 0 instructions: 74000000 cycles: 119241167 heartbeat IPC: 0.56191 cumulative IPC: 0.565102 (Simulation time: 0 hr 48 min 47 sec) 
Heartbeat CPU 0 instructions: 75000002 cycles: 120997011 heartbeat IPC: 0.569528 cumulative IPC: 0.56517 (Simulation time: 0 hr 49 min 24 sec) 
Heartbeat CPU 0 instructions: 76000000 cycles: 122731289 heartbeat IPC: 0.576608 cumulative IPC: 0.56534 (Simulation time: 0 hr 49 min 59 sec) 
Heartbeat CPU 0 instructions: 77000003 cycles: 124508470 heartbeat IPC: 0.562691 cumulative IPC: 0.5653 (Simulation time: 0 hr 50 min 36 sec) 
Heartbeat CPU 0 instructions: 78000000 cycles: 126289914 heartbeat IPC: 0.561341 cumulative IPC: 0.565242 (Simulation time: 0 hr 51 min 14 sec) 
Heartbeat CPU 0 instructions: 79000000 cycles: 128086722 heartbeat IPC: 0.556543 cumulative IPC: 0.565113 (Simulation time: 0 hr 51 min 51 sec) 
Heartbeat CPU 0 instructions: 80000000 cycles: 129804876 heartbeat IPC: 0.58202 cumulative IPC: 0.565348 (Simulation time: 0 hr 52 min 27 sec) 
Heartbeat CPU 0 instructions: 81000003 cycles: 131570707 heartbeat IPC: 0.566307 cumulative IPC: 0.565362 (Simulation time: 0 hr 53 min 5 sec) 
Heartbeat CPU 0 instructions: 82000002 cycles: 133360622 heartbeat IPC: 0.558685 cumulative IPC: 0.565268 (Simulation time: 0 hr 53 min 38 sec) 
Heartbeat CPU 0 instructions: 83000001 cycles: 135145219 heartbeat IPC: 0.56035 cumulative IPC: 0.5652 (Simulation time: 0 hr 54 min 11 sec) 
Heartbeat CPU 0 instructions: 84000000 cycles: 136920524 heartbeat IPC: 0.563283 cumulative IPC: 0.565174 (Simulation time: 0 hr 54 min 43 sec) 
Heartbeat CPU 0 instructions: 85000000 cycles: 138638572 heartbeat IPC: 0.582056 cumulative IPC: 0.565392 (Simulation time: 0 hr 55 min 13 sec) 
Heartbeat CPU 0 instructions: 86000001 cycles: 140423964 heartbeat IPC: 0.560102 cumulative IPC: 0.565322 (Simulation time: 0 hr 55 min 43 sec) 
Heartbeat CPU 0 instructions: 87000000 cycles: 142206232 heartbeat IPC: 0.561082 cumulative IPC: 0.565267 (Simulation time: 0 hr 56 min 11 sec) 
Heartbeat CPU 0 instructions: 88000000 cycles: 143982801 heartbeat IPC: 0.562883 cumulative IPC: 0.565236 (Simulation time: 0 hr 56 min 39 sec) 
Heartbeat CPU 0 instructions: 89000000 cycles: 145735135 heartbeat IPC: 0.570667 cumulative IPC: 0.565304 (Simulation time: 0 hr 57 min 5 sec) 
Heartbeat CPU 0 instructions: 90000000 cycles: 147490895 heartbeat IPC: 0.569554 cumulative IPC: 0.565357 (Simulation time: 0 hr 57 min 31 sec) 
Heartbeat CPU 0 instructions: 91000001 cycles: 149270310 heartbeat IPC: 0.561983 cumulative IPC: 0.565315 (Simulation time: 0 hr 57 min 58 sec) 
Heartbeat CPU 0 instructions: 92000000 cycles: 151053155 heartbeat IPC: 0.560901 cumulative IPC: 0.565261 (Simulation time: 0 hr 58 min 22 sec) 
Heartbeat CPU 0 instructions: 93000003 cycles: 152835975 heartbeat IPC: 0.560911 cumulative IPC: 0.565208 (Simulation time: 0 hr 58 min 45 sec) 
Heartbeat CPU 0 instructions: 94000001 cycles: 154563112 heartbeat IPC: 0.578992 cumulative IPC: 0.565368 (Simulation time: 0 hr 59 min 7 sec) 
Heartbeat CPU 0 instructions: 95000001 cycles: 156344065 heartbeat IPC: 0.561497 cumulative IPC: 0.565322 (Simulation time: 0 hr 59 min 29 sec) 
Heartbeat CPU 0 instructions: 96000000 cycles: 158124653 heartbeat IPC: 0.561612 cumulative IPC: 0.565279 (Simulation time: 0 hr 59 min 52 sec) 
Heartbeat CPU 0 instructions: 97000000 cycles: 159905100 heartbeat IPC: 0.561657 cumulative IPC: 0.565237 (Simulation time: 1 hr 0 min 15 sec) 
Heartbeat CPU 0 instructions: 98000000 cycles: 161666200 heartbeat IPC: 0.567827 cumulative IPC: 0.565266 (Simulation time: 1 hr 0 min 37 sec) 
Heartbeat CPU 0 instructions: 99000000 cycles: 163421234 heartbeat IPC: 0.56979 cumulative IPC: 0.565317 (Simulation time: 1 hr 0 min 58 sec) 
Heartbeat CPU 0 instructions: 100000000 cycles: 165199525 heartbeat IPC: 0.562338 cumulative IPC: 0.565283 (Simulation time: 1 hr 1 min 22 sec) 
Heartbeat CPU 0 instructions: 101000000 cycles: 166977545 heartbeat IPC: 0.562423 cumulative IPC: 0.565252 (Simulation time: 1 hr 1 min 42 sec) 
Heartbeat CPU 0 instructions: 102000003 cycles: 168766401 heartbeat IPC: 0.559018 cumulative IPC: 0.565183 (Simulation time: 1 hr 2 min 1 sec) 
Heartbeat CPU 0 instructions: 103000001 cycles: 170497864 heartbeat IPC: 0.577545 cumulative IPC: 0.565313 (Simulation time: 1 hr 2 min 19 sec) 
Heartbeat CPU 0 instructions: 104000000 cycles: 172283169 heartbeat IPC: 0.560128 cumulative IPC: 0.565258 (Simulation time: 1 hr 2 min 38 sec) 
Heartbeat CPU 0 instructions: 105000002 cycles: 174063129 heartbeat IPC: 0.561812 cumulative IPC: 0.565221 (Simulation time: 1 hr 2 min 59 sec) 
Heartbeat CPU 0 instructions: 106000001 cycles: 175840451 heartbeat IPC: 0.562644 cumulative IPC: 0.565194 (Simulation time: 1 hr 3 min 18 sec) 
Heartbeat CPU 0 instructions: 107000003 cycles: 177600162 heartbeat IPC: 0.568276 cumulative IPC: 0.565226 (Simulation time: 1 hr 3 min 34 sec) 
Heartbeat CPU 0 instructions: 108000000 cycles: 179365947 heartbeat IPC: 0.566319 cumulative IPC: 0.565237 (Simulation time: 1 hr 3 min 50 sec) 
Heartbeat CPU 0 instructions: 109000002 cycles: 181150020 heartbeat IPC: 0.560516 cumulative IPC: 0.565189 (Simulation time: 1 hr 4 min 5 sec) 
Heartbeat CPU 0 instructions: 110000003 cycles: 182929075 heartbeat IPC: 0.562097 cumulative IPC: 0.565158 (Simulation time: 1 hr 4 min 18 sec) 
Finished CPU 0 instructions: 100000002 cycles: 176941718 cummulative IPC: 0.565158 (Simulation time: 1 hr 4 min 18 sec) 

ChampSim completed all CPUs

Region of Interest Statistics

CPU 0 cummulative IPC: 0.565158 instructions: 100000002 cycles: 176941718
LLC TOTAL     ACCESS:     134679  HIT:      35094  MISS:      99585
LLC LOAD      ACCESS:      14847  HIT:       4247  MISS:      10600
LLC RFO       ACCESS:       1247  HIT:        342  MISS:        905
LLC PREFETCH  ACCESS:      79498  HIT:       9674  MISS:      69824
LLC WRITEBACK ACCESS:      39087  HIT:      20831  MISS:      18256
Insertion Distribution: 
	LOAD 1868 0 9218 1166 
	RFO 0 0 1111 120 
	PREF 0 0 29507 48513 
	WRITEBACK 0 0 0 18256 
Total Prefetch Downgrades: 302
