
*** ChampSim Multicore Out-of-Order Simulator ***

Warmup Instructions: 10000000
Simulation Instructions: 100000000
Configuration: 2
Number of CPUs: 1
LLC sets: 2048
LLC ways: 16
Off-chip DRAM Channels: 1 Width: 64-bit Data Rate: 1600 MT/s

CPU 0 runs /datasets/cs240c-wi22-a00-public/data/Assignment2-gz/sphinx3_1339B.trace.gz
CPU 0 L1D next line prefetcher
CPU 0 L2C IP-based stride prefetcher
Initialize SRRIP state
Heartbeat CPU 0 instructions: 1000000 cycles: 339022 heartbeat IPC: 2.94966 cumulative IPC: 2.94966 (Simulation time: 0 hr 0 min 27 sec) 
Heartbeat CPU 0 instructions: 2000001 cycles: 693417 heartbeat IPC: 2.82171 cumulative IPC: 2.88427 (Simulation time: 0 hr 0 min 54 sec) 
Heartbeat CPU 0 instructions: 3000000 cycles: 1084463 heartbeat IPC: 2.55724 cumulative IPC: 2.76635 (Simulation time: 0 hr 1 min 23 sec) 
Heartbeat CPU 0 instructions: 4000000 cycles: 1529987 heartbeat IPC: 2.24455 cumulative IPC: 2.6144 (Simulation time: 0 hr 1 min 51 sec) 
Heartbeat CPU 0 instructions: 5000003 cycles: 1869001 heartbeat IPC: 2.94974 cumulative IPC: 2.67523 (Simulation time: 0 hr 2 min 18 sec) 
Heartbeat CPU 0 instructions: 6000002 cycles: 2253252 heartbeat IPC: 2.60246 cumulative IPC: 2.66282 (Simulation time: 0 hr 2 min 47 sec) 
Heartbeat CPU 0 instructions: 7000001 cycles: 2716995 heartbeat IPC: 2.15636 cumulative IPC: 2.57638 (Simulation time: 0 hr 3 min 15 sec) 
Heartbeat CPU 0 instructions: 8000000 cycles: 3055866 heartbeat IPC: 2.95097 cumulative IPC: 2.61792 (Simulation time: 0 hr 3 min 41 sec) 
Heartbeat CPU 0 instructions: 9000003 cycles: 3412442 heartbeat IPC: 2.80446 cumulative IPC: 2.63741 (Simulation time: 0 hr 4 min 9 sec) 
Heartbeat CPU 0 instructions: 10000001 cycles: 3799176 heartbeat IPC: 2.58575 cumulative IPC: 2.63215 (Simulation time: 0 hr 4 min 35 sec) 

Warmup complete CPU 0 instructions: 10000001 cycles: 3799176 (Simulation time: 0 hr 4 min 35 sec) 

Heartbeat CPU 0 instructions: 11000001 cycles: 4693706 heartbeat IPC: 1.11791 cumulative IPC: 1.11791 (Simulation time: 0 hr 5 min 5 sec) 
Heartbeat CPU 0 instructions: 12000000 cycles: 5520349 heartbeat IPC: 1.20971 cumulative IPC: 1.162 (Simulation time: 0 hr 5 min 36 sec) 
Heartbeat CPU 0 instructions: 13000000 cycles: 6781031 heartbeat IPC: 0.793221 cumulative IPC: 1.00608 (Simulation time: 0 hr 6 min 9 sec) 
Heartbeat CPU 0 instructions: 14000000 cycles: 7643488 heartbeat IPC: 1.15948 cumulative IPC: 1.0405 (Simulation time: 0 hr 6 min 41 sec) 
Heartbeat CPU 0 instructions: 15000001 cycles: 8506131 heartbeat IPC: 1.15923 cumulative IPC: 1.06226 (Simulation time: 0 hr 7 min 14 sec) 
Heartbeat CPU 0 instructions: 16000000 cycles: 9534588 heartbeat IPC: 0.972329 cumulative IPC: 1.04613 (Simulation time: 0 hr 7 min 46 sec) 
Heartbeat CPU 0 instructions: 17000001 cycles: 10866544 heartbeat IPC: 0.750776 cumulative IPC: 0.990468 (Simulation time: 0 hr 8 min 19 sec) 
Heartbeat CPU 0 instructions: 18000003 cycles: 11923775 heartbeat IPC: 0.945869 cumulative IPC: 0.984664 (Simulation time: 0 hr 8 min 49 sec) 
Heartbeat CPU 0 instructions: 19000002 cycles: 12775045 heartbeat IPC: 1.17471 cumulative IPC: 1.00269 (Simulation time: 0 hr 9 min 19 sec) 
Heartbeat CPU 0 instructions: 20000000 cycles: 13627226 heartbeat IPC: 1.17346 cumulative IPC: 1.0175 (Simulation time: 0 hr 9 min 49 sec) 
Heartbeat CPU 0 instructions: 21000000 cycles: 14809456 heartbeat IPC: 0.845859 cumulative IPC: 0.999066 (Simulation time: 0 hr 10 min 21 sec) 
Heartbeat CPU 0 instructions: 22000000 cycles: 15785797 heartbeat IPC: 1.02423 cumulative IPC: 1.00112 (Simulation time: 0 hr 10 min 50 sec) 
Heartbeat CPU 0 instructions: 23000003 cycles: 16652543 heartbeat IPC: 1.15374 cumulative IPC: 1.01141 (Simulation time: 0 hr 11 min 18 sec) 
Heartbeat CPU 0 instructions: 24000000 cycles: 17589446 heartbeat IPC: 1.06734 cumulative IPC: 1.01521 (Simulation time: 0 hr 11 min 47 sec) 
Heartbeat CPU 0 instructions: 25000001 cycles: 18501370 heartbeat IPC: 1.09658 cumulative IPC: 1.02026 (Simulation time: 0 hr 12 min 19 sec) 
Heartbeat CPU 0 instructions: 26000003 cycles: 19340135 heartbeat IPC: 1.19223 cumulative IPC: 1.02954 (Simulation time: 0 hr 12 min 48 sec) 
Heartbeat CPU 0 instructions: 27000000 cycles: 20180916 heartbeat IPC: 1.18937 cumulative IPC: 1.03774 (Simulation time: 0 hr 13 min 17 sec) 
Heartbeat CPU 0 instructions: 28000000 cycles: 21104735 heartbeat IPC: 1.08246 cumulative IPC: 1.04013 (Simulation time: 0 hr 13 min 46 sec) 
Heartbeat CPU 0 instructions: 29000003 cycles: 21946053 heartbeat IPC: 1.18861 cumulative IPC: 1.04701 (Simulation time: 0 hr 14 min 17 sec) 
Heartbeat CPU 0 instructions: 30000003 cycles: 22779099 heartbeat IPC: 1.20041 cumulative IPC: 1.05375 (Simulation time: 0 hr 14 min 48 sec) 
Heartbeat CPU 0 instructions: 31000002 cycles: 23669393 heartbeat IPC: 1.12322 cumulative IPC: 1.05686 (Simulation time: 0 hr 15 min 17 sec) 
Heartbeat CPU 0 instructions: 32000000 cycles: 24544465 heartbeat IPC: 1.14276 cumulative IPC: 1.06048 (Simulation time: 0 hr 15 min 46 sec) 
Heartbeat CPU 0 instructions: 33000001 cycles: 25381286 heartbeat IPC: 1.195 cumulative IPC: 1.0657 (Simulation time: 0 hr 16 min 15 sec) 
Heartbeat CPU 0 instructions: 34000001 cycles: 26750926 heartbeat IPC: 0.730119 cumulative IPC: 1.04567 (Simulation time: 0 hr 16 min 48 sec) 
Heartbeat CPU 0 instructions: 35000002 cycles: 27643722 heartbeat IPC: 1.12008 cumulative IPC: 1.04846 (Simulation time: 0 hr 17 min 16 sec) 
Heartbeat CPU 0 instructions: 36000000 cycles: 28530233 heartbeat IPC: 1.12802 cumulative IPC: 1.05131 (Simulation time: 0 hr 17 min 46 sec) 
Heartbeat CPU 0 instructions: 37000003 cycles: 29528992 heartbeat IPC: 1.00125 cumulative IPC: 1.04937 (Simulation time: 0 hr 18 min 15 sec) 
Heartbeat CPU 0 instructions: 38000000 cycles: 30664903 heartbeat IPC: 0.880348 cumulative IPC: 1.04222 (Simulation time: 0 hr 18 min 45 sec) 
Heartbeat CPU 0 instructions: 39000003 cycles: 31554915 heartbeat IPC: 1.12358 cumulative IPC: 1.04483 (Simulation time: 0 hr 19 min 13 sec) 
Heartbeat CPU 0 instructions: 40000000 cycles: 32420860 heartbeat IPC: 1.1548 cumulative IPC: 1.04816 (Simulation time: 0 hr 19 min 46 sec) 
Heartbeat CPU 0 instructions: 41000000 cycles: 33637845 heartbeat IPC: 0.821703 cumulative IPC: 1.03892 (Simulation time: 0 hr 20 min 17 sec) 
Heartbeat CPU 0 instructions: 42000002 cycles: 34501398 heartbeat IPC: 1.15801 cumulative IPC: 1.04227 (Simulation time: 0 hr 20 min 47 sec) 
Heartbeat CPU 0 instructions: 43000001 cycles: 35395347 heartbeat IPC: 1.11863 cumulative IPC: 1.04443 (Simulation time: 0 hr 21 min 17 sec) 
Heartbeat CPU 0 instructions: 44000000 cycles: 36429416 heartbeat IPC: 0.967052 cumulative IPC: 1.04198 (Simulation time: 0 hr 21 min 48 sec) 
Heartbeat CPU 0 instructions: 45000002 cycles: 37406886 heartbeat IPC: 1.02305 cumulative IPC: 1.04143 (Simulation time: 0 hr 22 min 20 sec) 
Heartbeat CPU 0 instructions: 46000003 cycles: 38262784 heartbeat IPC: 1.16836 cumulative IPC: 1.04458 (Simulation time: 0 hr 22 min 51 sec) 
Heartbeat CPU 0 instructions: 47000000 cycles: 39137875 heartbeat IPC: 1.14273 cumulative IPC: 1.04701 (Simulation time: 0 hr 23 min 19 sec) 
Heartbeat CPU 0 instructions: 48000000 cycles: 40086908 heartbeat IPC: 1.0537 cumulative IPC: 1.04719 (Simulation time: 0 hr 23 min 52 sec) 
Heartbeat CPU 0 instructions: 49000000 cycles: 40950703 heartbeat IPC: 1.15768 cumulative IPC: 1.04975 (Simulation time: 0 hr 24 min 26 sec) 
Heartbeat CPU 0 instructions: 50000000 cycles: 41811620 heartbeat IPC: 1.16155 cumulative IPC: 1.05229 (Simulation time: 0 hr 24 min 55 sec) 
Heartbeat CPU 0 instructions: 51000003 cycles: 42952398 heartbeat IPC: 0.876597 cumulative IPC: 1.04717 (Simulation time: 0 hr 25 min 28 sec) 
Heartbeat CPU 0 instructions: 52000000 cycles: 43781768 heartbeat IPC: 1.20573 cumulative IPC: 1.05046 (Simulation time: 0 hr 25 min 56 sec) 
Heartbeat CPU 0 instructions: 53000002 cycles: 44661939 heartbeat IPC: 1.13615 cumulative IPC: 1.0523 (Simulation time: 0 hr 26 min 25 sec) 
Heartbeat CPU 0 instructions: 54000003 cycles: 45782294 heartbeat IPC: 0.892575 cumulative IPC: 1.04804 (Simulation time: 0 hr 26 min 55 sec) 
Heartbeat CPU 0 instructions: 55000001 cycles: 46655160 heartbeat IPC: 1.14565 cumulative IPC: 1.05003 (Simulation time: 0 hr 27 min 26 sec) 
Heartbeat CPU 0 instructions: 56000000 cycles: 47535207 heartbeat IPC: 1.1363 cumulative IPC: 1.05176 (Simulation time: 0 hr 28 min 1 sec) 
Heartbeat CPU 0 instructions: 57000000 cycles: 48509575 heartbeat IPC: 1.02631 cumulative IPC: 1.05121 (Simulation time: 0 hr 28 min 36 sec) 
Heartbeat CPU 0 instructions: 58000000 cycles: 49553625 heartbeat IPC: 0.957809 cumulative IPC: 1.04908 (Simulation time: 0 hr 29 min 5 sec) 
Heartbeat CPU 0 instructions: 59000001 cycles: 50417641 heartbeat IPC: 1.15739 cumulative IPC: 1.05109 (Simulation time: 0 hr 29 min 35 sec) 
Heartbeat CPU 0 instructions: 60000000 cycles: 51285712 heartbeat IPC: 1.15198 cumulative IPC: 1.05293 (Simulation time: 0 hr 30 min 5 sec) 
Heartbeat CPU 0 instructions: 61000000 cycles: 52592120 heartbeat IPC: 0.765458 cumulative IPC: 1.04523 (Simulation time: 0 hr 30 min 36 sec) 
Heartbeat CPU 0 instructions: 62000002 cycles: 53735192 heartbeat IPC: 0.874837 cumulative IPC: 1.04133 (Simulation time: 0 hr 31 min 8 sec) 
Heartbeat CPU 0 instructions: 63000003 cycles: 54543930 heartbeat IPC: 1.2365 cumulative IPC: 1.04444 (Simulation time: 0 hr 31 min 41 sec) 
Heartbeat CPU 0 instructions: 64000000 cycles: 55432886 heartbeat IPC: 1.12491 cumulative IPC: 1.04583 (Simulation time: 0 hr 32 min 12 sec) 
Heartbeat CPU 0 instructions: 65000000 cycles: 56484460 heartbeat IPC: 0.950955 cumulative IPC: 1.04393 (Simulation time: 0 hr 32 min 41 sec) 
Heartbeat CPU 0 instructions: 66000001 cycles: 57432055 heartbeat IPC: 1.0553 cumulative IPC: 1.04414 (Simulation time: 0 hr 33 min 14 sec) 
Heartbeat CPU 0 instructions: 67000000 cycles: 58298680 heartbeat IPC: 1.1539 cumulative IPC: 1.04588 (Simulation time: 0 hr 33 min 51 sec) 
Heartbeat CPU 0 instructions: 68000000 cycles: 59214991 heartbeat IPC: 1.09133 cumulative IPC: 1.04663 (Simulation time: 0 hr 34 min 24 sec) 
Heartbeat CPU 0 instructions: 69000003 cycles: 60283689 heartbeat IPC: 0.935721 cumulative IPC: 1.04453 (Simulation time: 0 hr 34 min 57 sec) 
Heartbeat CPU 0 instructions: 70000001 cycles: 61158778 heartbeat IPC: 1.14274 cumulative IPC: 1.04603 (Simulation time: 0 hr 35 min 30 sec) 
Heartbeat CPU 0 instructions: 71000001 cycles: 62034414 heartbeat IPC: 1.14203 cumulative IPC: 1.04748 (Simulation time: 0 hr 36 min 1 sec) 
Heartbeat CPU 0 instructions: 72000000 cycles: 63197426 heartbeat IPC: 0.859836 cumulative IPC: 1.0438 (Simulation time: 0 hr 36 min 32 sec) 
Heartbeat CPU 0 instructions: 73000001 cycles: 64020563 heartbeat IPC: 1.21487 cumulative IPC: 1.04614 (Simulation time: 0 hr 37 min 1 sec) 
Heartbeat CPU 0 instructions: 74000001 cycles: 64909226 heartbeat IPC: 1.12529 cumulative IPC: 1.04729 (Simulation time: 0 hr 37 min 32 sec) 
Heartbeat CPU 0 instructions: 75000003 cycles: 65977557 heartbeat IPC: 0.936041 cumulative IPC: 1.04538 (Simulation time: 0 hr 38 min 3 sec) 
Heartbeat CPU 0 instructions: 76000000 cycles: 66872763 heartbeat IPC: 1.11706 cumulative IPC: 1.0464 (Simulation time: 0 hr 38 min 33 sec) 
Heartbeat CPU 0 instructions: 77000002 cycles: 67747298 heartbeat IPC: 1.14347 cumulative IPC: 1.04772 (Simulation time: 0 hr 39 min 5 sec) 
Heartbeat CPU 0 instructions: 78000002 cycles: 68689414 heartbeat IPC: 1.06144 cumulative IPC: 1.04792 (Simulation time: 0 hr 39 min 40 sec) 
Heartbeat CPU 0 instructions: 79000001 cycles: 69710368 heartbeat IPC: 0.979475 cumulative IPC: 1.04686 (Simulation time: 0 hr 40 min 10 sec) 
Heartbeat CPU 0 instructions: 80000000 cycles: 70582629 heartbeat IPC: 1.14644 cumulative IPC: 1.04816 (Simulation time: 0 hr 40 min 40 sec) 
Heartbeat CPU 0 instructions: 81000001 cycles: 71458079 heartbeat IPC: 1.14227 cumulative IPC: 1.04938 (Simulation time: 0 hr 41 min 11 sec) 
Heartbeat CPU 0 instructions: 82000000 cycles: 72579145 heartbeat IPC: 0.892007 cumulative IPC: 1.04682 (Simulation time: 0 hr 41 min 43 sec) 
Heartbeat CPU 0 instructions: 83000001 cycles: 73416678 heartbeat IPC: 1.19398 cumulative IPC: 1.04859 (Simulation time: 0 hr 42 min 14 sec) 
Heartbeat CPU 0 instructions: 84000000 cycles: 74300406 heartbeat IPC: 1.13157 cumulative IPC: 1.04963 (Simulation time: 0 hr 42 min 44 sec) 
Heartbeat CPU 0 instructions: 85000002 cycles: 75413115 heartbeat IPC: 0.898709 cumulative IPC: 1.04728 (Simulation time: 0 hr 43 min 19 sec) 
Heartbeat CPU 0 instructions: 86000003 cycles: 76269864 heartbeat IPC: 1.1672 cumulative IPC: 1.0487 (Simulation time: 0 hr 43 min 49 sec) 
Heartbeat CPU 0 instructions: 87000001 cycles: 77163335 heartbeat IPC: 1.11923 cumulative IPC: 1.04956 (Simulation time: 0 hr 44 min 20 sec) 
Heartbeat CPU 0 instructions: 88000000 cycles: 78170591 heartbeat IPC: 0.992795 cumulative IPC: 1.04879 (Simulation time: 0 hr 44 min 51 sec) 
Heartbeat CPU 0 instructions: 89000000 cycles: 79138797 heartbeat IPC: 1.03284 cumulative IPC: 1.04859 (Simulation time: 0 hr 45 min 23 sec) 
Heartbeat CPU 0 instructions: 90000000 cycles: 80004201 heartbeat IPC: 1.15553 cumulative IPC: 1.0498 (Simulation time: 0 hr 45 min 55 sec) 
Heartbeat CPU 0 instructions: 91000000 cycles: 80887067 heartbeat IPC: 1.13267 cumulative IPC: 1.05075 (Simulation time: 0 hr 46 min 25 sec) 
Heartbeat CPU 0 instructions: 92000000 cycles: 82000997 heartbeat IPC: 0.897722 cumulative IPC: 1.04857 (Simulation time: 0 hr 46 min 55 sec) 
Heartbeat CPU 0 instructions: 93000001 cycles: 82857340 heartbeat IPC: 1.16776 cumulative IPC: 1.04986 (Simulation time: 0 hr 47 min 23 sec) 
Heartbeat CPU 0 instructions: 94000000 cycles: 83737074 heartbeat IPC: 1.13671 cumulative IPC: 1.05082 (Simulation time: 0 hr 47 min 54 sec) 
Heartbeat CPU 0 instructions: 95000002 cycles: 84901577 heartbeat IPC: 0.858737 cumulative IPC: 1.04806 (Simulation time: 0 hr 48 min 25 sec) 
Heartbeat CPU 0 instructions: 96000000 cycles: 85729582 heartbeat IPC: 1.20772 cumulative IPC: 1.04967 (Simulation time: 0 hr 48 min 53 sec) 
Heartbeat CPU 0 instructions: 97000002 cycles: 86622224 heartbeat IPC: 1.12027 cumulative IPC: 1.05043 (Simulation time: 0 hr 49 min 21 sec) 
Heartbeat CPU 0 instructions: 98000000 cycles: 87699446 heartbeat IPC: 0.928312 cumulative IPC: 1.04886 (Simulation time: 0 hr 49 min 50 sec) 
Heartbeat CPU 0 instructions: 99000003 cycles: 88749394 heartbeat IPC: 0.952431 cumulative IPC: 1.04767 (Simulation time: 0 hr 50 min 21 sec) 
Heartbeat CPU 0 instructions: 100000000 cycles: 89627353 heartbeat IPC: 1.139 cumulative IPC: 1.04861 (Simulation time: 0 hr 50 min 53 sec) 
Heartbeat CPU 0 instructions: 101000000 cycles: 90515430 heartbeat IPC: 1.12603 cumulative IPC: 1.0494 (Simulation time: 0 hr 51 min 21 sec) 
Heartbeat CPU 0 instructions: 102000001 cycles: 91920812 heartbeat IPC: 0.711551 cumulative IPC: 1.04401 (Simulation time: 0 hr 51 min 51 sec) 
Heartbeat CPU 0 instructions: 103000000 cycles: 93188040 heartbeat IPC: 0.789123 cumulative IPC: 1.0404 (Simulation time: 0 hr 52 min 23 sec) 
Heartbeat CPU 0 instructions: 104000000 cycles: 94119112 heartbeat IPC: 1.07403 cumulative IPC: 1.04074 (Simulation time: 0 hr 52 min 51 sec) 
Heartbeat CPU 0 instructions: 105000003 cycles: 94996901 heartbeat IPC: 1.13923 cumulative IPC: 1.04169 (Simulation time: 0 hr 53 min 16 sec) 
Heartbeat CPU 0 instructions: 106000000 cycles: 95903878 heartbeat IPC: 1.10256 cumulative IPC: 1.04229 (Simulation time: 0 hr 53 min 43 sec) 
Heartbeat CPU 0 instructions: 107000001 cycles: 97322757 heartbeat IPC: 0.704782 cumulative IPC: 1.03717 (Simulation time: 0 hr 54 min 9 sec) 
Heartbeat CPU 0 instructions: 108000000 cycles: 98222304 heartbeat IPC: 1.11167 cumulative IPC: 1.03788 (Simulation time: 0 hr 54 min 32 sec) 
Heartbeat CPU 0 instructions: 109000000 cycles: 99116423 heartbeat IPC: 1.11842 cumulative IPC: 1.03864 (Simulation time: 0 hr 54 min 56 sec) 
Heartbeat CPU 0 instructions: 110000000 cycles: 100250292 heartbeat IPC: 0.881936 cumulative IPC: 1.03679 (Simulation time: 0 hr 55 min 19 sec) 
Finished CPU 0 instructions: 100000000 cycles: 96451118 cummulative IPC: 1.03679 (Simulation time: 0 hr 55 min 19 sec) 

ChampSim completed all CPUs

Region of Interest Statistics

CPU 0 cummulative IPC: 1.03679 instructions: 100000000 cycles: 96451118
LLC TOTAL     ACCESS:    1574030  HIT:     806367  MISS:     767663
LLC LOAD      ACCESS:     202247  HIT:     168766  MISS:      33481
LLC RFO       ACCESS:     111348  HIT:     109910  MISS:       1438
LLC PREFETCH  ACCESS:    1127280  HIT:     396602  MISS:     730678
LLC WRITEBACK ACCESS:     133155  HIT:     131089  MISS:       2066
Insertion Distribution: 
	LOAD 9741 0 12272 20425 
	RFO 1073 0 3719 201 
	PREF 0 6088 84984 722468 
	WRITEBACK 0 0 0 2410 
Total Prefetch Downgrades: 7549
