
*** ChampSim Multicore Out-of-Order Simulator ***

Warmup Instructions: 10000000
Simulation Instructions: 100000000
Configuration: 2
Number of CPUs: 1
LLC sets: 2048
LLC ways: 16
Off-chip DRAM Channels: 1 Width: 64-bit Data Rate: 1600 MT/s

CPU 0 runs /datasets/cs240c-wi22-a00-public/data/Assignment2-gz/gcc_56B.trace.gz
CPU 0 L1D next line prefetcher
CPU 0 L2C IP-based stride prefetcher
Initialize SRRIP state
Heartbeat CPU 0 instructions: 1000003 cycles: 954151 heartbeat IPC: 1.04806 cumulative IPC: 1.04806 (Simulation time: 0 hr 0 min 36 sec) 
Heartbeat CPU 0 instructions: 2000001 cycles: 1898349 heartbeat IPC: 1.0591 cumulative IPC: 1.05355 (Simulation time: 0 hr 1 min 11 sec) 
Heartbeat CPU 0 instructions: 3000001 cycles: 2885593 heartbeat IPC: 1.01292 cumulative IPC: 1.03965 (Simulation time: 0 hr 1 min 47 sec) 
Heartbeat CPU 0 instructions: 4000000 cycles: 3848221 heartbeat IPC: 1.03882 cumulative IPC: 1.03944 (Simulation time: 0 hr 2 min 27 sec) 
Heartbeat CPU 0 instructions: 5000002 cycles: 4737701 heartbeat IPC: 1.12425 cumulative IPC: 1.05536 (Simulation time: 0 hr 3 min 3 sec) 
Heartbeat CPU 0 instructions: 6000000 cycles: 5685656 heartbeat IPC: 1.0549 cumulative IPC: 1.05529 (Simulation time: 0 hr 3 min 42 sec) 
Heartbeat CPU 0 instructions: 7000000 cycles: 6649892 heartbeat IPC: 1.03709 cumulative IPC: 1.05265 (Simulation time: 0 hr 4 min 18 sec) 
Heartbeat CPU 0 instructions: 8000000 cycles: 7611115 heartbeat IPC: 1.04034 cumulative IPC: 1.05109 (Simulation time: 0 hr 4 min 53 sec) 
Heartbeat CPU 0 instructions: 9000000 cycles: 8622587 heartbeat IPC: 0.988658 cumulative IPC: 1.04377 (Simulation time: 0 hr 5 min 27 sec) 
Heartbeat CPU 0 instructions: 10000002 cycles: 9583098 heartbeat IPC: 1.04111 cumulative IPC: 1.0435 (Simulation time: 0 hr 6 min 5 sec) 

Warmup complete CPU 0 instructions: 10000002 cycles: 9583098 (Simulation time: 0 hr 6 min 5 sec) 

Heartbeat CPU 0 instructions: 11000000 cycles: 10925644 heartbeat IPC: 0.744852 cumulative IPC: 0.744852 (Simulation time: 0 hr 6 min 38 sec) 
Heartbeat CPU 0 instructions: 12000000 cycles: 12345245 heartbeat IPC: 0.704423 cumulative IPC: 0.724074 (Simulation time: 0 hr 7 min 14 sec) 
Heartbeat CPU 0 instructions: 13000001 cycles: 13726403 heartbeat IPC: 0.724031 cumulative IPC: 0.724059 (Simulation time: 0 hr 7 min 52 sec) 
Heartbeat CPU 0 instructions: 14000000 cycles: 15053234 heartbeat IPC: 0.753675 cumulative IPC: 0.731243 (Simulation time: 0 hr 8 min 32 sec) 
Heartbeat CPU 0 instructions: 15000003 cycles: 16421751 heartbeat IPC: 0.73072 cumulative IPC: 0.731138 (Simulation time: 0 hr 9 min 7 sec) 
Heartbeat CPU 0 instructions: 16000000 cycles: 17740013 heartbeat IPC: 0.758572 cumulative IPC: 0.735572 (Simulation time: 0 hr 9 min 45 sec) 
Heartbeat CPU 0 instructions: 17000001 cycles: 19053400 heartbeat IPC: 0.761391 cumulative IPC: 0.739153 (Simulation time: 0 hr 10 min 23 sec) 
Heartbeat CPU 0 instructions: 18000000 cycles: 20435313 heartbeat IPC: 0.723634 cumulative IPC: 0.737177 (Simulation time: 0 hr 10 min 59 sec) 
Heartbeat CPU 0 instructions: 19000000 cycles: 21802267 heartbeat IPC: 0.731553 cumulative IPC: 0.736547 (Simulation time: 0 hr 11 min 36 sec) 
Heartbeat CPU 0 instructions: 20000000 cycles: 23159187 heartbeat IPC: 0.736963 cumulative IPC: 0.736589 (Simulation time: 0 hr 12 min 11 sec) 
Heartbeat CPU 0 instructions: 21000000 cycles: 24495311 heartbeat IPC: 0.748434 cumulative IPC: 0.73765 (Simulation time: 0 hr 12 min 50 sec) 
Heartbeat CPU 0 instructions: 22000000 cycles: 25813252 heartbeat IPC: 0.758759 cumulative IPC: 0.739364 (Simulation time: 0 hr 13 min 25 sec) 
Heartbeat CPU 0 instructions: 23000000 cycles: 27140122 heartbeat IPC: 0.753653 cumulative IPC: 0.740444 (Simulation time: 0 hr 14 min 0 sec) 
Heartbeat CPU 0 instructions: 24000000 cycles: 28489754 heartbeat IPC: 0.740943 cumulative IPC: 0.74048 (Simulation time: 0 hr 14 min 35 sec) 
Heartbeat CPU 0 instructions: 25000000 cycles: 29850798 heartbeat IPC: 0.73473 cumulative IPC: 0.740094 (Simulation time: 0 hr 15 min 10 sec) 
Heartbeat CPU 0 instructions: 26000002 cycles: 31250394 heartbeat IPC: 0.714493 cumulative IPC: 0.73844 (Simulation time: 0 hr 15 min 46 sec) 
Heartbeat CPU 0 instructions: 27000000 cycles: 32625723 heartbeat IPC: 0.727097 cumulative IPC: 0.737763 (Simulation time: 0 hr 16 min 22 sec) 
Heartbeat CPU 0 instructions: 28000000 cycles: 33953793 heartbeat IPC: 0.752972 cumulative IPC: 0.738592 (Simulation time: 0 hr 16 min 59 sec) 
Heartbeat CPU 0 instructions: 29000000 cycles: 35286734 heartbeat IPC: 0.750221 cumulative IPC: 0.739195 (Simulation time: 0 hr 17 min 35 sec) 
Heartbeat CPU 0 instructions: 30000000 cycles: 36623375 heartbeat IPC: 0.748144 cumulative IPC: 0.739637 (Simulation time: 0 hr 18 min 15 sec) 
Heartbeat CPU 0 instructions: 31000000 cycles: 37969018 heartbeat IPC: 0.743139 cumulative IPC: 0.739803 (Simulation time: 0 hr 18 min 50 sec) 
Heartbeat CPU 0 instructions: 32000000 cycles: 39336714 heartbeat IPC: 0.731157 cumulative IPC: 0.739406 (Simulation time: 0 hr 19 min 26 sec) 
Heartbeat CPU 0 instructions: 33000002 cycles: 40738591 heartbeat IPC: 0.713331 cumulative IPC: 0.738233 (Simulation time: 0 hr 20 min 2 sec) 
Heartbeat CPU 0 instructions: 34000002 cycles: 42095899 heartbeat IPC: 0.736752 cumulative IPC: 0.738171 (Simulation time: 0 hr 20 min 39 sec) 
Heartbeat CPU 0 instructions: 35000002 cycles: 43440229 heartbeat IPC: 0.743865 cumulative IPC: 0.738397 (Simulation time: 0 hr 21 min 15 sec) 
Heartbeat CPU 0 instructions: 36000000 cycles: 44762949 heartbeat IPC: 0.756016 cumulative IPC: 0.739059 (Simulation time: 0 hr 21 min 55 sec) 
Heartbeat CPU 0 instructions: 37000000 cycles: 46071901 heartbeat IPC: 0.76397 cumulative IPC: 0.739953 (Simulation time: 0 hr 22 min 34 sec) 
Heartbeat CPU 0 instructions: 38000002 cycles: 47400689 heartbeat IPC: 0.752567 cumulative IPC: 0.740396 (Simulation time: 0 hr 23 min 8 sec) 
Heartbeat CPU 0 instructions: 39000000 cycles: 48798976 heartbeat IPC: 0.715159 cumulative IPC: 0.739496 (Simulation time: 0 hr 23 min 42 sec) 
Heartbeat CPU 0 instructions: 40000000 cycles: 50158493 heartbeat IPC: 0.735555 cumulative IPC: 0.739364 (Simulation time: 0 hr 24 min 17 sec) 
Heartbeat CPU 0 instructions: 41000001 cycles: 51496976 heartbeat IPC: 0.747115 cumulative IPC: 0.739612 (Simulation time: 0 hr 24 min 52 sec) 
Heartbeat CPU 0 instructions: 42000003 cycles: 52823001 heartbeat IPC: 0.754135 cumulative IPC: 0.740057 (Simulation time: 0 hr 25 min 34 sec) 
Heartbeat CPU 0 instructions: 43000001 cycles: 54155531 heartbeat IPC: 0.750451 cumulative IPC: 0.740368 (Simulation time: 0 hr 26 min 12 sec) 
Heartbeat CPU 0 instructions: 44000000 cycles: 55481378 heartbeat IPC: 0.754234 cumulative IPC: 0.740768 (Simulation time: 0 hr 26 min 49 sec) 
Heartbeat CPU 0 instructions: 45000000 cycles: 56847574 heartbeat IPC: 0.731959 cumulative IPC: 0.740514 (Simulation time: 0 hr 27 min 24 sec) 
Heartbeat CPU 0 instructions: 46000000 cycles: 58237497 heartbeat IPC: 0.719464 cumulative IPC: 0.739913 (Simulation time: 0 hr 27 min 59 sec) 
Heartbeat CPU 0 instructions: 47000002 cycles: 59609088 heartbeat IPC: 0.729082 cumulative IPC: 0.739616 (Simulation time: 0 hr 28 min 34 sec) 
Heartbeat CPU 0 instructions: 48000000 cycles: 60954306 heartbeat IPC: 0.743372 cumulative IPC: 0.739714 (Simulation time: 0 hr 29 min 12 sec) 
Heartbeat CPU 0 instructions: 49000002 cycles: 62279080 heartbeat IPC: 0.754847 cumulative IPC: 0.740094 (Simulation time: 0 hr 29 min 49 sec) 
Heartbeat CPU 0 instructions: 50000000 cycles: 63599912 heartbeat IPC: 0.757097 cumulative IPC: 0.74051 (Simulation time: 0 hr 30 min 26 sec) 
Heartbeat CPU 0 instructions: 51000000 cycles: 64955360 heartbeat IPC: 0.737763 cumulative IPC: 0.740443 (Simulation time: 0 hr 31 min 3 sec) 
Heartbeat CPU 0 instructions: 52000000 cycles: 66346463 heartbeat IPC: 0.718854 cumulative IPC: 0.739914 (Simulation time: 0 hr 31 min 42 sec) 
Heartbeat CPU 0 instructions: 53000001 cycles: 67683510 heartbeat IPC: 0.747918 cumulative IPC: 0.740098 (Simulation time: 0 hr 32 min 18 sec) 
Heartbeat CPU 0 instructions: 54000000 cycles: 68997102 heartbeat IPC: 0.761271 cumulative IPC: 0.740566 (Simulation time: 0 hr 32 min 53 sec) 
Heartbeat CPU 0 instructions: 55000001 cycles: 70302991 heartbeat IPC: 0.765763 cumulative IPC: 0.741108 (Simulation time: 0 hr 33 min 32 sec) 
Heartbeat CPU 0 instructions: 56000000 cycles: 71625826 heartbeat IPC: 0.755951 cumulative IPC: 0.741425 (Simulation time: 0 hr 34 min 10 sec) 
Heartbeat CPU 0 instructions: 57000001 cycles: 72959017 heartbeat IPC: 0.750081 cumulative IPC: 0.741607 (Simulation time: 0 hr 34 min 50 sec) 
Heartbeat CPU 0 instructions: 58000000 cycles: 74333507 heartbeat IPC: 0.727542 cumulative IPC: 0.741308 (Simulation time: 0 hr 35 min 30 sec) 
Heartbeat CPU 0 instructions: 59000000 cycles: 75726061 heartbeat IPC: 0.718105 cumulative IPC: 0.74082 (Simulation time: 0 hr 36 min 8 sec) 
Heartbeat CPU 0 instructions: 60000000 cycles: 77101083 heartbeat IPC: 0.727261 cumulative IPC: 0.740543 (Simulation time: 0 hr 36 min 44 sec) 
Heartbeat CPU 0 instructions: 61000000 cycles: 78430901 heartbeat IPC: 0.751983 cumulative IPC: 0.740764 (Simulation time: 0 hr 37 min 22 sec) 
Heartbeat CPU 0 instructions: 62000002 cycles: 79791360 heartbeat IPC: 0.735048 cumulative IPC: 0.740654 (Simulation time: 0 hr 37 min 58 sec) 
Heartbeat CPU 0 instructions: 63000003 cycles: 81105596 heartbeat IPC: 0.760899 cumulative IPC: 0.741026 (Simulation time: 0 hr 38 min 36 sec) 
Heartbeat CPU 0 instructions: 64000000 cycles: 82423568 heartbeat IPC: 0.758739 cumulative IPC: 0.741346 (Simulation time: 0 hr 39 min 14 sec) 
Heartbeat CPU 0 instructions: 65000000 cycles: 83766416 heartbeat IPC: 0.744686 cumulative IPC: 0.741407 (Simulation time: 0 hr 39 min 53 sec) 
Heartbeat CPU 0 instructions: 66000002 cycles: 85155750 heartbeat IPC: 0.719771 cumulative IPC: 0.741009 (Simulation time: 0 hr 40 min 28 sec) 
Heartbeat CPU 0 instructions: 67000002 cycles: 86541279 heartbeat IPC: 0.721746 cumulative IPC: 0.740662 (Simulation time: 0 hr 41 min 5 sec) 
Heartbeat CPU 0 instructions: 68000000 cycles: 87890922 heartbeat IPC: 0.740935 cumulative IPC: 0.740667 (Simulation time: 0 hr 41 min 42 sec) 
Heartbeat CPU 0 instructions: 69000000 cycles: 89219323 heartbeat IPC: 0.752785 cumulative IPC: 0.740869 (Simulation time: 0 hr 42 min 18 sec) 
Heartbeat CPU 0 instructions: 70000000 cycles: 90544656 heartbeat IPC: 0.754527 cumulative IPC: 0.741092 (Simulation time: 0 hr 42 min 55 sec) 
Heartbeat CPU 0 instructions: 71000003 cycles: 91885718 heartbeat IPC: 0.74568 cumulative IPC: 0.741167 (Simulation time: 0 hr 43 min 32 sec) 
Heartbeat CPU 0 instructions: 72000000 cycles: 93223362 heartbeat IPC: 0.747581 cumulative IPC: 0.74127 (Simulation time: 0 hr 44 min 7 sec) 
Heartbeat CPU 0 instructions: 73000003 cycles: 94588264 heartbeat IPC: 0.732656 cumulative IPC: 0.741131 (Simulation time: 0 hr 44 min 40 sec) 
Heartbeat CPU 0 instructions: 74000001 cycles: 95986787 heartbeat IPC: 0.715039 cumulative IPC: 0.740709 (Simulation time: 0 hr 45 min 16 sec) 
Heartbeat CPU 0 instructions: 75000003 cycles: 97359621 heartbeat IPC: 0.728422 cumulative IPC: 0.740517 (Simulation time: 0 hr 45 min 52 sec) 
Heartbeat CPU 0 instructions: 76000000 cycles: 98700685 heartbeat IPC: 0.745674 cumulative IPC: 0.740595 (Simulation time: 0 hr 46 min 27 sec) 
Heartbeat CPU 0 instructions: 77000003 cycles: 100034872 heartbeat IPC: 0.749522 cumulative IPC: 0.740726 (Simulation time: 0 hr 47 min 7 sec) 
Heartbeat CPU 0 instructions: 78000001 cycles: 101365866 heartbeat IPC: 0.751317 cumulative IPC: 0.74088 (Simulation time: 0 hr 47 min 42 sec) 
Heartbeat CPU 0 instructions: 79000000 cycles: 102721633 heartbeat IPC: 0.737589 cumulative IPC: 0.740832 (Simulation time: 0 hr 48 min 13 sec) 
Heartbeat CPU 0 instructions: 80000000 cycles: 104067138 heartbeat IPC: 0.743215 cumulative IPC: 0.740866 (Simulation time: 0 hr 48 min 48 sec) 
Heartbeat CPU 0 instructions: 81000002 cycles: 105444549 heartbeat IPC: 0.726001 cumulative IPC: 0.740652 (Simulation time: 0 hr 49 min 26 sec) 
Heartbeat CPU 0 instructions: 82000000 cycles: 106814296 heartbeat IPC: 0.73006 cumulative IPC: 0.740503 (Simulation time: 0 hr 50 min 0 sec) 
Heartbeat CPU 0 instructions: 83000003 cycles: 108145052 heartbeat IPC: 0.751455 cumulative IPC: 0.740651 (Simulation time: 0 hr 50 min 37 sec) 
Heartbeat CPU 0 instructions: 84000000 cycles: 109486964 heartbeat IPC: 0.745203 cumulative IPC: 0.740712 (Simulation time: 0 hr 51 min 14 sec) 
Heartbeat CPU 0 instructions: 85000002 cycles: 110800767 heartbeat IPC: 0.761151 cumulative IPC: 0.740977 (Simulation time: 0 hr 51 min 48 sec) 
Heartbeat CPU 0 instructions: 86000003 cycles: 112104306 heartbeat IPC: 0.767143 cumulative IPC: 0.74131 (Simulation time: 0 hr 52 min 24 sec) 
Heartbeat CPU 0 instructions: 87000000 cycles: 113485281 heartbeat IPC: 0.724124 cumulative IPC: 0.741082 (Simulation time: 0 hr 52 min 54 sec) 
Heartbeat CPU 0 instructions: 88000000 cycles: 114835081 heartbeat IPC: 0.740851 cumulative IPC: 0.741079 (Simulation time: 0 hr 53 min 23 sec) 
Heartbeat CPU 0 instructions: 89000000 cycles: 116192744 heartbeat IPC: 0.73656 cumulative IPC: 0.741021 (Simulation time: 0 hr 53 min 52 sec) 
Heartbeat CPU 0 instructions: 90000000 cycles: 117510331 heartbeat IPC: 0.758963 cumulative IPC: 0.74124 (Simulation time: 0 hr 54 min 21 sec) 
Heartbeat CPU 0 instructions: 91000001 cycles: 118817702 heartbeat IPC: 0.764895 cumulative IPC: 0.741523 (Simulation time: 0 hr 54 min 49 sec) 
Heartbeat CPU 0 instructions: 92000000 cycles: 120135743 heartbeat IPC: 0.758701 cumulative IPC: 0.741728 (Simulation time: 0 hr 55 min 16 sec) 
Heartbeat CPU 0 instructions: 93000003 cycles: 121518227 heartbeat IPC: 0.723338 cumulative IPC: 0.741501 (Simulation time: 0 hr 55 min 41 sec) 
Heartbeat CPU 0 instructions: 94000000 cycles: 122860658 heartbeat IPC: 0.744915 cumulative IPC: 0.741541 (Simulation time: 0 hr 56 min 4 sec) 
Heartbeat CPU 0 instructions: 95000000 cycles: 124210788 heartbeat IPC: 0.740669 cumulative IPC: 0.741531 (Simulation time: 0 hr 56 min 27 sec) 
Heartbeat CPU 0 instructions: 96000000 cycles: 125542283 heartbeat IPC: 0.751036 cumulative IPC: 0.74164 (Simulation time: 0 hr 56 min 49 sec) 
Heartbeat CPU 0 instructions: 97000000 cycles: 126851813 heartbeat IPC: 0.763633 cumulative IPC: 0.741886 (Simulation time: 0 hr 57 min 11 sec) 
Heartbeat CPU 0 instructions: 98000003 cycles: 128160026 heartbeat IPC: 0.764404 cumulative IPC: 0.742134 (Simulation time: 0 hr 57 min 32 sec) 
Heartbeat CPU 0 instructions: 99000000 cycles: 129546505 heartbeat IPC: 0.721249 cumulative IPC: 0.741893 (Simulation time: 0 hr 57 min 52 sec) 
Heartbeat CPU 0 instructions: 100000000 cycles: 130888373 heartbeat IPC: 0.74523 cumulative IPC: 0.74193 (Simulation time: 0 hr 58 min 12 sec) 
Heartbeat CPU 0 instructions: 101000000 cycles: 132235162 heartbeat IPC: 0.742507 cumulative IPC: 0.741936 (Simulation time: 0 hr 58 min 32 sec) 
Heartbeat CPU 0 instructions: 102000001 cycles: 133547994 heartbeat IPC: 0.761713 cumulative IPC: 0.742146 (Simulation time: 0 hr 58 min 53 sec) 
Heartbeat CPU 0 instructions: 103000001 cycles: 134850025 heartbeat IPC: 0.768031 cumulative IPC: 0.742415 (Simulation time: 0 hr 59 min 13 sec) 
Heartbeat CPU 0 instructions: 104000000 cycles: 136151004 heartbeat IPC: 0.768651 cumulative IPC: 0.742684 (Simulation time: 0 hr 59 min 32 sec) 
Heartbeat CPU 0 instructions: 105000002 cycles: 137528688 heartbeat IPC: 0.725857 cumulative IPC: 0.742503 (Simulation time: 0 hr 59 min 52 sec) 
Heartbeat CPU 0 instructions: 106000000 cycles: 138933689 heartbeat IPC: 0.711742 cumulative IPC: 0.742169 (Simulation time: 1 hr 0 min 16 sec) 
Heartbeat CPU 0 instructions: 107000002 cycles: 140322755 heartbeat IPC: 0.71991 cumulative IPC: 0.741933 (Simulation time: 1 hr 0 min 36 sec) 
Heartbeat CPU 0 instructions: 108000000 cycles: 141678805 heartbeat IPC: 0.737434 cumulative IPC: 0.741886 (Simulation time: 1 hr 0 min 56 sec) 
Heartbeat CPU 0 instructions: 109000000 cycles: 143015172 heartbeat IPC: 0.748297 cumulative IPC: 0.741951 (Simulation time: 1 hr 1 min 13 sec) 
Heartbeat CPU 0 instructions: 110000000 cycles: 144344045 heartbeat IPC: 0.752517 cumulative IPC: 0.742055 (Simulation time: 1 hr 1 min 31 sec) 
Finished CPU 0 instructions: 100000003 cycles: 134760949 cummulative IPC: 0.742055 (Simulation time: 1 hr 1 min 31 sec) 

ChampSim completed all CPUs

Region of Interest Statistics

CPU 0 cummulative IPC: 0.742055 instructions: 100000003 cycles: 134760949
LLC TOTAL     ACCESS:   21346126  HIT:   21272083  MISS:      74043
LLC LOAD      ACCESS:     165897  HIT:     131106  MISS:      34791
LLC RFO       ACCESS:   10463422  HIT:   10457725  MISS:       5697
LLC PREFETCH  ACCESS:     183319  HIT:     149941  MISS:      33378
LLC WRITEBACK ACCESS:   10533488  HIT:   10533311  MISS:        177
Insertion Distribution: 
	LOAD 7662 0 14996 15794 
	RFO 40 0 10364 3540 
	PREF 0 4830 12229 19361 
	WRITEBACK 0 0 0 179 
Total Prefetch Downgrades: 5288
