Initialize SIGNATURE TABLE
ST_SET: 1
ST_WAY: 256
ST_TAG_BIT: 16
ST_TAG_MASK: ffff

Initialize PATTERN TABLE
PT_SET: 512
PT_WAY: 4
SIG_DELTA_BIT: 7
C_SIG_BIT: 4
C_DELTA_BIT: 4

Initialize PREFETCH FILTER
FILTER_SET: 1024

*** ChampSim Multicore Out-of-Order Simulator ***

Warmup Instructions: 50000000
Simulation Instructions: 50000000
Number of CPUs: 1
LLC sets: 2048
LLC ways: 16
Off-chip DRAM Size: 4096 MB Channels: 1 Width: 64-bit Data Rate: 3200 MT/s

CPU 0 runs /Users/gandhardeshpande/Desktop/CSE240C/HW1/ChampSim/ipc1_public/client_008.champsimtrace.xz
CPU 0 L1D next line prefetcher
Heartbeat CPU 0 instructions: 10000001 cycles: 3753924 heartbeat IPC: 2.66388 cumulative IPC: 2.66388 (Simulation time: 0 hr 0 min 15 sec) 
Heartbeat CPU 0 instructions: 20000001 cycles: 7529198 heartbeat IPC: 2.64881 cumulative IPC: 2.65633 (Simulation time: 0 hr 0 min 29 sec) 
Heartbeat CPU 0 instructions: 30000000 cycles: 11256182 heartbeat IPC: 2.68313 cumulative IPC: 2.6652 (Simulation time: 0 hr 0 min 44 sec) 
Heartbeat CPU 0 instructions: 40000002 cycles: 15049722 heartbeat IPC: 2.63606 cumulative IPC: 2.65786 (Simulation time: 0 hr 0 min 59 sec) 
Heartbeat CPU 0 instructions: 50000003 cycles: 18840651 heartbeat IPC: 2.63788 cumulative IPC: 2.65384 (Simulation time: 0 hr 1 min 14 sec) 

Warmup complete CPU 0 instructions: 50000003 cycles: 18840651 (Simulation time: 0 hr 1 min 14 sec) 

Heartbeat CPU 0 instructions: 60000000 cycles: 28129668 heartbeat IPC: 1.07654 cumulative IPC: 1.07654 (Simulation time: 0 hr 1 min 27 sec) 
Heartbeat CPU 0 instructions: 70000000 cycles: 37181263 heartbeat IPC: 1.10478 cumulative IPC: 1.09048 (Simulation time: 0 hr 1 min 40 sec) 
Heartbeat CPU 0 instructions: 80000001 cycles: 46407755 heartbeat IPC: 1.08384 cumulative IPC: 1.08825 (Simulation time: 0 hr 1 min 52 sec) 
Heartbeat CPU 0 instructions: 90000001 cycles: 53817385 heartbeat IPC: 1.3496 cumulative IPC: 1.14362 (Simulation time: 0 hr 2 min 4 sec) 
Heartbeat CPU 0 instructions: 100000001 cycles: 61849016 heartbeat IPC: 1.24508 cumulative IPC: 1.16256 (Simulation time: 0 hr 2 min 16 sec) 
Finished CPU 0 instructions: 50000002 cycles: 43008366 cumulative IPC: 1.16256 (Simulation time: 0 hr 2 min 16 sec) 

ChampSim completed all CPUs

Region of Interest Statistics

CPU 0 cumulative IPC: 1.16256 instructions: 50000002 cycles: 43008366
L1D TOTAL     ACCESS:   20899175  HIT:   19268951  MISS:    1630224
L1D LOAD      ACCESS:    8254352  HIT:    7461820  MISS:     792532
L1D RFO       ACCESS:    4835581  HIT:    4727774  MISS:     107807
L1D PREFETCH  ACCESS:    7809242  HIT:    7079357  MISS:     729885
L1D WRITEBACK ACCESS:          0  HIT:          0  MISS:          0
L1D PREFETCH  REQUESTED:    8324154  ISSUED:    8159213  USEFUL:     208828  USELESS:     521062
L1D AVERAGE MISS LATENCY: 32.233 cycles
L1I TOTAL     ACCESS:    9645233  HIT:    8972645  MISS:     672588
L1I LOAD      ACCESS:    9645233  HIT:    8972645  MISS:     672588
L1I RFO       ACCESS:          0  HIT:          0  MISS:          0
L1I PREFETCH  ACCESS:          0  HIT:          0  MISS:          0
L1I WRITEBACK ACCESS:          0  HIT:          0  MISS:          0
L1I PREFETCH  REQUESTED:          0  ISSUED:          0  USEFUL:          0  USELESS:          0
L1I AVERAGE MISS LATENCY: 17.3842 cycles
L2C TOTAL     ACCESS:    3637155  HIT:    3200039  MISS:     437116
L2C LOAD      ACCESS:    1420868  HIT:    1233042  MISS:     187826
L2C RFO       ACCESS:     102637  HIT:      18202  MISS:      84435
L2C PREFETCH  ACCESS:    1931632  HIT:    1767145  MISS:     164487
L2C WRITEBACK ACCESS:     182018  HIT:     181650  MISS:        368
L2C PREFETCH  REQUESTED:    2661292  ISSUED:    2661086  USEFUL:      16727  USELESS:     147562
L2C AVERAGE MISS LATENCY: 75.077 cycles
LLC TOTAL     ACCESS:    1346395  HIT:    1167001  MISS:     179394
LLC LOAD      ACCESS:     187557  HIT:     162763  MISS:      24794
LLC RFO       ACCESS:      84428  HIT:      16850  MISS:      67578
LLC PREFETCH  ACCESS:     938756  HIT:     852099  MISS:      86657
LLC WRITEBACK ACCESS:     135654  HIT:     135289  MISS:        365
LLC PREFETCH  REQUESTED:          0  ISSUED:          0  USEFUL:      27217  USELESS:      65400
LLC AVERAGE MISS LATENCY: 164.147 cycles
Major fault: 0 Minor fault: 5303
CPU 0 L1D next line prefetcher final stats

DRAM Statistics
 CHANNEL 0
 RQ ROW_BUFFER_HIT:      51688  ROW_BUFFER_MISS:     127323
 DBUS_CONGESTED:      96468
 WQ ROW_BUFFER_HIT:      23953  ROW_BUFFER_MISS:      66057  FULL:          0

 AVG_CONGESTED_CYCLE: 6

CPU 0 Branch Prediction Accuracy: 98.6482% MPKI: 3.1551 Average ROB Occupancy at Mispredict: 89.8135

Branch types
NOT_BRANCH: 38329598 76.6592%
BRANCH_DIRECT_JUMP: 510116 1.02023%
BRANCH_INDIRECT: 225730 0.45146%
BRANCH_CONDITIONAL: 8366762 16.7335%
BRANCH_DIRECT_CALL: 600748 1.2015%
BRANCH_INDIRECT_CALL: 682990 1.36598%
BRANCH_RETURN: 1283974 2.56795%
BRANCH_OTHER: 0 0%

