Initialize SIGNATURE TABLE
ST_SET: 1
ST_WAY: 256
ST_TAG_BIT: 16
ST_TAG_MASK: ffff

Initialize PATTERN TABLE
PT_SET: 512
PT_WAY: 4
SIG_DELTA_BIT: 7
C_SIG_BIT: 4
C_DELTA_BIT: 4

Initialize PREFETCH FILTER
FILTER_SET: 1024

*** ChampSim Multicore Out-of-Order Simulator ***

Warmup Instructions: 50000000
Simulation Instructions: 50000000
Number of CPUs: 1
LLC sets: 2048
LLC ways: 16
Off-chip DRAM Size: 4096 MB Channels: 1 Width: 64-bit Data Rate: 3200 MT/s

CPU 0 runs /Users/gandhardeshpande/Desktop/CSE240C/HW1/ChampSim/ipc1_public/server_039.champsimtrace.xz
CPU 0 L1D next line prefetcher
Heartbeat CPU 0 instructions: 10000003 cycles: 3453228 heartbeat IPC: 2.89584 cumulative IPC: 2.89584 (Simulation time: 0 hr 0 min 15 sec) 
Heartbeat CPU 0 instructions: 20000002 cycles: 6899642 heartbeat IPC: 2.90157 cumulative IPC: 2.8987 (Simulation time: 0 hr 0 min 29 sec) 
Heartbeat CPU 0 instructions: 30000001 cycles: 10347742 heartbeat IPC: 2.90015 cumulative IPC: 2.89918 (Simulation time: 0 hr 0 min 44 sec) 
Heartbeat CPU 0 instructions: 40000002 cycles: 13791232 heartbeat IPC: 2.90403 cumulative IPC: 2.90039 (Simulation time: 0 hr 0 min 58 sec) 
Heartbeat CPU 0 instructions: 50000001 cycles: 17234091 heartbeat IPC: 2.90456 cumulative IPC: 2.90123 (Simulation time: 0 hr 1 min 12 sec) 

Warmup complete CPU 0 instructions: 50000001 cycles: 17234091 (Simulation time: 0 hr 1 min 12 sec) 

Heartbeat CPU 0 instructions: 60000000 cycles: 27905261 heartbeat IPC: 0.937104 cumulative IPC: 0.937104 (Simulation time: 0 hr 1 min 21 sec) 
Heartbeat CPU 0 instructions: 70000000 cycles: 38574728 heartbeat IPC: 0.937254 cumulative IPC: 0.937179 (Simulation time: 0 hr 1 min 29 sec) 
Heartbeat CPU 0 instructions: 80000000 cycles: 49247502 heartbeat IPC: 0.936964 cumulative IPC: 0.937107 (Simulation time: 0 hr 1 min 38 sec) 
Heartbeat CPU 0 instructions: 90000001 cycles: 59920069 heartbeat IPC: 0.936982 cumulative IPC: 0.937076 (Simulation time: 0 hr 1 min 46 sec) 
Heartbeat CPU 0 instructions: 100000002 cycles: 70592678 heartbeat IPC: 0.936978 cumulative IPC: 0.937056 (Simulation time: 0 hr 1 min 55 sec) 
Finished CPU 0 instructions: 50000001 cycles: 53358587 cumulative IPC: 0.937056 (Simulation time: 0 hr 1 min 55 sec) 

ChampSim completed all CPUs

Region of Interest Statistics

CPU 0 cumulative IPC: 0.937056 instructions: 50000001 cycles: 53358587
L1D TOTAL     ACCESS:   23549036  HIT:   23052070  MISS:     496966
L1D LOAD      ACCESS:    8248616  HIT:    8027942  MISS:     220674
L1D RFO       ACCESS:    7197885  HIT:    7127722  MISS:      70163
L1D PREFETCH  ACCESS:    8102535  HIT:    7896406  MISS:     206129
L1D WRITEBACK ACCESS:          0  HIT:          0  MISS:          0
L1D PREFETCH  REQUESTED:    8261717  ISSUED:    8181947  USEFUL:      48397  USELESS:     157736
L1D AVERAGE MISS LATENCY: 14.7626 cycles
L1I TOTAL     ACCESS:    9284032  HIT:    5196732  MISS:    4087300
L1I LOAD      ACCESS:    9284032  HIT:    5196732  MISS:    4087300
L1I RFO       ACCESS:          0  HIT:          0  MISS:          0
L1I PREFETCH  ACCESS:          0  HIT:          0  MISS:          0
L1I WRITEBACK ACCESS:          0  HIT:          0  MISS:          0
L1I PREFETCH  REQUESTED:          0  ISSUED:          0  USEFUL:          0  USELESS:          0
L1I AVERAGE MISS LATENCY: 14.0641 cycles
L2C TOTAL     ACCESS:    8243065  HIT:    8243032  MISS:         33
L2C LOAD      ACCESS:    4298894  HIT:    4298889  MISS:          5
L2C RFO       ACCESS:      66933  HIT:      66932  MISS:          1
L2C PREFETCH  ACCESS:    3697029  HIT:    3697002  MISS:         27
L2C WRITEBACK ACCESS:     180209  HIT:     180209  MISS:          0
L2C PREFETCH  REQUESTED:    5317660  ISSUED:    5317660  USEFUL:          1  USELESS:          0
L2C AVERAGE MISS LATENCY: 60.0606 cycles
LLC TOTAL     ACCESS:    1168988  HIT:    1168795  MISS:        193
LLC LOAD      ACCESS:          5  HIT:          4  MISS:          1
LLC RFO       ACCESS:          1  HIT:          1  MISS:          0
LLC PREFETCH  ACCESS:    1168981  HIT:    1168789  MISS:        192
LLC WRITEBACK ACCESS:          1  HIT:          1  MISS:          0
LLC PREFETCH  REQUESTED:          0  ISSUED:          0  USEFUL:          2  USELESS:          0
LLC AVERAGE MISS LATENCY: 172.218 cycles
Major fault: 0 Minor fault: 356
CPU 0 L1D next line prefetcher final stats

DRAM Statistics
 CHANNEL 0
 RQ ROW_BUFFER_HIT:         27  ROW_BUFFER_MISS:        166
 DBUS_CONGESTED:         39
 WQ ROW_BUFFER_HIT:          0  ROW_BUFFER_MISS:          0  FULL:          0

 AVG_CONGESTED_CYCLE: 6

CPU 0 Branch Prediction Accuracy: 99.9091% MPKI: 0.1547 Average ROB Occupancy at Mispredict: 8.86296

Branch types
NOT_BRANCH: 41494795 82.9896%
BRANCH_DIRECT_JUMP: 491305 0.98261%
BRANCH_INDIRECT: 0 0%
BRANCH_CONDITIONAL: 5595231 11.1905%
BRANCH_DIRECT_CALL: 1028406 2.05681%
BRANCH_INDIRECT_CALL: 180755 0.36151%
BRANCH_RETURN: 1209170 2.41834%
BRANCH_OTHER: 0 0%

