Initialize SIGNATURE TABLE
ST_SET: 1
ST_WAY: 256
ST_TAG_BIT: 16
ST_TAG_MASK: ffff

Initialize PATTERN TABLE
PT_SET: 512
PT_WAY: 4
SIG_DELTA_BIT: 7
C_SIG_BIT: 4
C_DELTA_BIT: 4

Initialize PREFETCH FILTER
FILTER_SET: 1024

*** ChampSim Multicore Out-of-Order Simulator ***

Warmup Instructions: 50000000
Simulation Instructions: 50000000
Number of CPUs: 1
LLC sets: 2048
LLC ways: 16
Off-chip DRAM Size: 4096 MB Channels: 1 Width: 64-bit Data Rate: 3200 MT/s

CPU 0 runs /Users/gandhardeshpande/Desktop/CSE240C/HW1/ChampSim/ipc1_public/client_004.champsimtrace.xz
CPU 0 L1I next line prefetcher
Running FNL-MMA for L1I
CPU 0 L1D next line prefetcher
Heartbeat CPU 0 instructions: 10000000 cycles: 3592086 heartbeat IPC: 2.7839 cumulative IPC: 2.7839 (Simulation time: 0 hr 0 min 14 sec) 
Heartbeat CPU 0 instructions: 20000003 cycles: 7056473 heartbeat IPC: 2.88651 cumulative IPC: 2.83428 (Simulation time: 0 hr 0 min 27 sec) 
Heartbeat CPU 0 instructions: 30000000 cycles: 10646739 heartbeat IPC: 2.78531 cumulative IPC: 2.81776 (Simulation time: 0 hr 0 min 40 sec) 
Heartbeat CPU 0 instructions: 40000003 cycles: 14327136 heartbeat IPC: 2.7171 cumulative IPC: 2.7919 (Simulation time: 0 hr 0 min 54 sec) 
Heartbeat CPU 0 instructions: 50000001 cycles: 17844832 heartbeat IPC: 2.84277 cumulative IPC: 2.80193 (Simulation time: 0 hr 1 min 8 sec) 

Warmup complete CPU 0 instructions: 50000001 cycles: 17844832 (Simulation time: 0 hr 1 min 8 sec) 

Heartbeat CPU 0 instructions: 60000002 cycles: 25599407 heartbeat IPC: 1.28956 cumulative IPC: 1.28956 (Simulation time: 0 hr 1 min 19 sec) 
Heartbeat CPU 0 instructions: 70000001 cycles: 33442922 heartbeat IPC: 1.27494 cumulative IPC: 1.28221 (Simulation time: 0 hr 1 min 30 sec) 
Heartbeat CPU 0 instructions: 80000002 cycles: 42072665 heartbeat IPC: 1.15878 cumulative IPC: 1.23825 (Simulation time: 0 hr 1 min 41 sec) 
Heartbeat CPU 0 instructions: 90000000 cycles: 50163277 heartbeat IPC: 1.236 cumulative IPC: 1.23768 (Simulation time: 0 hr 1 min 52 sec) 
Heartbeat CPU 0 instructions: 100000001 cycles: 57985024 heartbeat IPC: 1.27849 cumulative IPC: 1.24563 (Simulation time: 0 hr 2 min 3 sec) 
Finished CPU 0 instructions: 50000000 cycles: 40140192 cumulative IPC: 1.24563 (Simulation time: 0 hr 2 min 3 sec) 

ChampSim completed all CPUs

Region of Interest Statistics

CPU 0 cumulative IPC: 1.24563 instructions: 50000000 cycles: 40140192
L1D TOTAL     ACCESS:   21966619  HIT:   21077587  MISS:     889032
L1D LOAD      ACCESS:    8723434  HIT:    8327636  MISS:     395798
L1D RFO       ACCESS:    4811635  HIT:    4690247  MISS:     121388
L1D PREFETCH  ACCESS:    8431550  HIT:    8059704  MISS:     371846
L1D WRITEBACK ACCESS:          0  HIT:          0  MISS:          0
L1D PREFETCH  REQUESTED:    8762619  ISSUED:    8603393  USEFUL:     133311  USELESS:     238543
L1D AVERAGE MISS LATENCY: 29.7585 cycles
L1I TOTAL     ACCESS:   10623061  HIT:    9856356  MISS:     766705
L1I LOAD      ACCESS:    9388059  HIT:    9228794  MISS:     159265
L1I RFO       ACCESS:          0  HIT:          0  MISS:          0
L1I PREFETCH  ACCESS:    1235002  HIT:     627562  MISS:     607440
L1I WRITEBACK ACCESS:          0  HIT:          0  MISS:          0
L1I PREFETCH  REQUESTED:    1309507  ISSUED:    1309500  USEFUL:     423716  USELESS:     183728
L1I AVERAGE MISS LATENCY: 26.9279 cycles
L2C TOTAL     ACCESS:    2481391  HIT:    2188491  MISS:     292900
L2C LOAD      ACCESS:     505747  HIT:     439296  MISS:      66451
L2C RFO       ACCESS:     117425  HIT:      46434  MISS:      70991
L2C PREFETCH  ACCESS:    1636187  HIT:    1481308  MISS:     154879
L2C WRITEBACK ACCESS:     222032  HIT:     221453  MISS:        579
L2C PREFETCH  REQUESTED:    1660959  ISSUED:    1660509  USEFUL:      25433  USELESS:     128309
L2C AVERAGE MISS LATENCY: 86.6923 cycles
LLC TOTAL     ACCESS:     692039  HIT:     557477  MISS:     134562
LLC LOAD      ACCESS:      66440  HIT:      47334  MISS:      19106
LLC RFO       ACCESS:      70988  HIT:      40021  MISS:      30967
LLC PREFETCH  ACCESS:     454893  HIT:     370731  MISS:      84162
LLC WRITEBACK ACCESS:      99718  HIT:      99391  MISS:        327
LLC PREFETCH  REQUESTED:          0  ISSUED:          0  USEFUL:      18424  USELESS:      66005
LLC AVERAGE MISS LATENCY: 183.751 cycles
Major fault: 0 Minor fault: 3980
I-Shadow cache 408 bytes
Touched + WorthPF tables 24576 bytes 
MMA filter 174 bytes 
FNL filter 272 bytes 
TOTAL PREFETCHER STORAGE SIZE: 98134 bytes
CPU 0 L1I next line prefetcher final stats
CPU 0 L1D next line prefetcher final stats

DRAM Statistics
 CHANNEL 0
 RQ ROW_BUFFER_HIT:      33884  ROW_BUFFER_MISS:     100321
 DBUS_CONGESTED:      67805
 WQ ROW_BUFFER_HIT:       8386  ROW_BUFFER_MISS:      36524  FULL:          0

 AVG_CONGESTED_CYCLE: 6

CPU 0 Branch Prediction Accuracy: 94.1242% MPKI: 11.6089 Average ROB Occupancy at Mispredict: 55.5971

Branch types
NOT_BRANCH: 40121069 80.2421%
BRANCH_DIRECT_JUMP: 644555 1.28911%
BRANCH_INDIRECT: 201946 0.403892%
BRANCH_CONDITIONAL: 7003556 14.0071%
BRANCH_DIRECT_CALL: 564821 1.12964%
BRANCH_INDIRECT_CALL: 445012 0.890024%
BRANCH_RETURN: 1018716 2.03743%
BRANCH_OTHER: 0 0%

