Initialize SIGNATURE TABLE
ST_SET: 1
ST_WAY: 256
ST_TAG_BIT: 16
ST_TAG_MASK: ffff

Initialize PATTERN TABLE
PT_SET: 512
PT_WAY: 4
SIG_DELTA_BIT: 7
C_SIG_BIT: 4
C_DELTA_BIT: 4

Initialize PREFETCH FILTER
FILTER_SET: 1024

*** ChampSim Multicore Out-of-Order Simulator ***

Warmup Instructions: 50000000
Simulation Instructions: 50000000
Number of CPUs: 1
LLC sets: 2048
LLC ways: 16
Off-chip DRAM Size: 4096 MB Channels: 1 Width: 64-bit Data Rate: 3200 MT/s

CPU 0 runs /Users/gandhardeshpande/Desktop/CSE240C/HW1/ChampSim/ipc1_public/server_024.champsimtrace.xz
CPU 0 L1I next line prefetcher
Running FNL-MMA for L1I
CPU 0 L1D next line prefetcher
Heartbeat CPU 0 instructions: 10000000 cycles: 3499107 heartbeat IPC: 2.85787 cumulative IPC: 2.85787 (Simulation time: 0 hr 0 min 14 sec) 
Heartbeat CPU 0 instructions: 20000002 cycles: 6990099 heartbeat IPC: 2.86452 cumulative IPC: 2.86119 (Simulation time: 0 hr 0 min 29 sec) 
Heartbeat CPU 0 instructions: 30000000 cycles: 10492220 heartbeat IPC: 2.85541 cumulative IPC: 2.85926 (Simulation time: 0 hr 0 min 43 sec) 
Heartbeat CPU 0 instructions: 40000000 cycles: 13991408 heartbeat IPC: 2.85781 cumulative IPC: 2.8589 (Simulation time: 0 hr 0 min 58 sec) 
Heartbeat CPU 0 instructions: 50000001 cycles: 17479967 heartbeat IPC: 2.86651 cumulative IPC: 2.86042 (Simulation time: 0 hr 1 min 12 sec) 

Warmup complete CPU 0 instructions: 50000001 cycles: 17479967 (Simulation time: 0 hr 1 min 12 sec) 

Heartbeat CPU 0 instructions: 60000003 cycles: 24280575 heartbeat IPC: 1.47046 cumulative IPC: 1.47046 (Simulation time: 0 hr 1 min 27 sec) 
Heartbeat CPU 0 instructions: 70000000 cycles: 31115505 heartbeat IPC: 1.46307 cumulative IPC: 1.46676 (Simulation time: 0 hr 1 min 42 sec) 
*** Reached end of trace for Core: 0 Repeating trace: /Users/gandhardeshpande/Desktop/CSE240C/HW1/ChampSim/ipc1_public/server_024.champsimtrace.xz
Heartbeat CPU 0 instructions: 80000003 cycles: 37906263 heartbeat IPC: 1.47259 cumulative IPC: 1.4687 (Simulation time: 0 hr 1 min 56 sec) 
Heartbeat CPU 0 instructions: 90000003 cycles: 44764107 heartbeat IPC: 1.45818 cumulative IPC: 1.46605 (Simulation time: 0 hr 2 min 11 sec) 
Heartbeat CPU 0 instructions: 100000002 cycles: 51582547 heartbeat IPC: 1.46661 cumulative IPC: 1.46616 (Simulation time: 0 hr 2 min 26 sec) 
Finished CPU 0 instructions: 50000001 cycles: 34102580 cumulative IPC: 1.46616 (Simulation time: 0 hr 2 min 26 sec) 

ChampSim completed all CPUs

Region of Interest Statistics

CPU 0 cumulative IPC: 1.46616 instructions: 50000001 cycles: 34102580
L1D TOTAL     ACCESS:   19680642  HIT:   18163161  MISS:    1517481
L1D LOAD      ACCESS:    6929870  HIT:    6249046  MISS:     680824
L1D RFO       ACCESS:    6151054  HIT:    5877135  MISS:     273919
L1D PREFETCH  ACCESS:    6599718  HIT:    6036980  MISS:     562738
L1D WRITEBACK ACCESS:          0  HIT:          0  MISS:          0
L1D PREFETCH  REQUESTED:    6983193  ISSUED:    6861796  USEFUL:     135345  USELESS:     427398
L1D AVERAGE MISS LATENCY: 25.6557 cycles
L1I TOTAL     ACCESS:   13800174  HIT:   10431426  MISS:    3368748
L1I LOAD      ACCESS:    9329835  HIT:    9238470  MISS:      91365
L1I RFO       ACCESS:          0  HIT:          0  MISS:          0
L1I PREFETCH  ACCESS:    4470339  HIT:    1192956  MISS:    3277383
L1I WRITEBACK ACCESS:          0  HIT:          0  MISS:          0
L1I PREFETCH  REQUESTED:    4626230  ISSUED:    4626171  USEFUL:    2498071  USELESS:     779311
L1I AVERAGE MISS LATENCY: 18.6171 cycles
L2C TOTAL     ACCESS:    6613765  HIT:    5823817  MISS:     789948
L2C LOAD      ACCESS:     652697  HIT:     515904  MISS:     136793
L2C RFO       ACCESS:     272171  HIT:     183106  MISS:      89065
L2C PREFETCH  ACCESS:    5168687  HIT:    4610943  MISS:     557744
L2C WRITEBACK ACCESS:     520210  HIT:     513864  MISS:       6346
L2C PREFETCH  REQUESTED:    5667523  ISSUED:    5660536  USEFUL:      14462  USELESS:     542914
L2C AVERAGE MISS LATENCY: 42.8377 cycles
LLC TOTAL     ACCESS:    2362542  HIT:    2308574  MISS:      53968
LLC LOAD      ACCESS:     136413  HIT:     130884  MISS:       5529
LLC RFO       ACCESS:      89042  HIT:      66955  MISS:      22087
LLC PREFETCH  ACCESS:    1987771  HIT:    1961705  MISS:      26066
LLC WRITEBACK ACCESS:     149316  HIT:     149030  MISS:        286
LLC PREFETCH  REQUESTED:          0  ISSUED:          0  USEFUL:       2211  USELESS:      23308
LLC AVERAGE MISS LATENCY: 196.668 cycles
Major fault: 0 Minor fault: 2363
I-Shadow cache 408 bytes
Touched + WorthPF tables 24576 bytes 
MMA filter 174 bytes 
FNL filter 272 bytes 
TOTAL PREFETCHER STORAGE SIZE: 98134 bytes
CPU 0 L1I next line prefetcher final stats
CPU 0 L1D next line prefetcher final stats

DRAM Statistics
 CHANNEL 0
 RQ ROW_BUFFER_HIT:      17789  ROW_BUFFER_MISS:      35884
 DBUS_CONGESTED:      38612
 WQ ROW_BUFFER_HIT:       2715  ROW_BUFFER_MISS:      23165  FULL:          0

 AVG_CONGESTED_CYCLE: 6

CPU 0 Branch Prediction Accuracy: 99.7477% MPKI: 0.46156 Average ROB Occupancy at Mispredict: 174.543

Branch types
NOT_BRANCH: 40853748 81.7075%
BRANCH_DIRECT_JUMP: 566824 1.13365%
BRANCH_INDIRECT: 197171 0.394342%
BRANCH_CONDITIONAL: 6308440 12.6169%
BRANCH_DIRECT_CALL: 876400 1.7528%
BRANCH_INDIRECT_CALL: 160491 0.320982%
BRANCH_RETURN: 1036885 2.07377%
BRANCH_OTHER: 0 0%

