Initialize SIGNATURE TABLE
ST_SET: 1
ST_WAY: 256
ST_TAG_BIT: 16
ST_TAG_MASK: ffff

Initialize PATTERN TABLE
PT_SET: 512
PT_WAY: 4
SIG_DELTA_BIT: 7
C_SIG_BIT: 4
C_DELTA_BIT: 4

Initialize PREFETCH FILTER
FILTER_SET: 1024

*** ChampSim Multicore Out-of-Order Simulator ***

Warmup Instructions: 50000000
Simulation Instructions: 50000000
Number of CPUs: 1
LLC sets: 2048
LLC ways: 16
Off-chip DRAM Size: 4096 MB Channels: 1 Width: 64-bit Data Rate: 3200 MT/s

CPU 0 runs /Users/gandhardeshpande/Desktop/CSE240C/HW1/ChampSim/ipc1_public/server_013.champsimtrace.xz
CPU 0 L1I next line prefetcher
Running FNL-MMA for L1I
CPU 0 L1D next line prefetcher
Heartbeat CPU 0 instructions: 10000000 cycles: 3210783 heartbeat IPC: 3.11451 cumulative IPC: 3.11451 (Simulation time: 0 hr 0 min 13 sec) 
Heartbeat CPU 0 instructions: 20000001 cycles: 6410208 heartbeat IPC: 3.12556 cumulative IPC: 3.12002 (Simulation time: 0 hr 0 min 27 sec) 
Heartbeat CPU 0 instructions: 30000002 cycles: 9612865 heartbeat IPC: 3.12241 cumulative IPC: 3.12082 (Simulation time: 0 hr 0 min 40 sec) 
Heartbeat CPU 0 instructions: 40000002 cycles: 12811226 heartbeat IPC: 3.1266 cumulative IPC: 3.12226 (Simulation time: 0 hr 0 min 54 sec) 
Heartbeat CPU 0 instructions: 50000000 cycles: 16009400 heartbeat IPC: 3.12678 cumulative IPC: 3.12317 (Simulation time: 0 hr 1 min 7 sec) 

Warmup complete CPU 0 instructions: 50000004 cycles: 16009401 (Simulation time: 0 hr 1 min 7 sec) 

Heartbeat CPU 0 instructions: 60000002 cycles: 23635129 heartbeat IPC: 1.31135 cumulative IPC: 1.31135 (Simulation time: 0 hr 1 min 19 sec) 
Heartbeat CPU 0 instructions: 70000003 cycles: 31458585 heartbeat IPC: 1.27821 cumulative IPC: 1.29457 (Simulation time: 0 hr 1 min 32 sec) 
Heartbeat CPU 0 instructions: 80000003 cycles: 38713056 heartbeat IPC: 1.37846 cumulative IPC: 1.32137 (Simulation time: 0 hr 1 min 44 sec) 
Heartbeat CPU 0 instructions: 90000003 cycles: 46161886 heartbeat IPC: 1.34249 cumulative IPC: 1.32659 (Simulation time: 0 hr 1 min 56 sec) 
Heartbeat CPU 0 instructions: 100000003 cycles: 53617920 heartbeat IPC: 1.3412 cumulative IPC: 1.32949 (Simulation time: 0 hr 2 min 8 sec) 
Finished CPU 0 instructions: 50000003 cycles: 37608520 cumulative IPC: 1.32949 (Simulation time: 0 hr 2 min 8 sec) 

ChampSim completed all CPUs

Region of Interest Statistics

CPU 0 cumulative IPC: 1.32949 instructions: 50000003 cycles: 37608520
L1D TOTAL     ACCESS:   17378865  HIT:   16312477  MISS:    1066388
L1D LOAD      ACCESS:    6344369  HIT:    5843509  MISS:     500860
L1D RFO       ACCESS:    4931137  HIT:    4850978  MISS:      80159
L1D PREFETCH  ACCESS:    6103359  HIT:    5617990  MISS:     485369
L1D WRITEBACK ACCESS:          0  HIT:          0  MISS:          0
L1D PREFETCH  REQUESTED:    6378975  ISSUED:    6283307  USEFUL:     133777  USELESS:     351600
L1D AVERAGE MISS LATENCY: 42.4375 cycles
L1I TOTAL     ACCESS:   11720177  HIT:    9767314  MISS:    1952863
L1I LOAD      ACCESS:    8657255  HIT:    8454805  MISS:     202450
L1I RFO       ACCESS:          0  HIT:          0  MISS:          0
L1I PREFETCH  ACCESS:    3062922  HIT:    1312509  MISS:    1750413
L1I WRITEBACK ACCESS:          0  HIT:          0  MISS:          0
L1I PREFETCH  REQUESTED:    3280262  ISSUED:    3280242  USEFUL:    1261767  USELESS:     488638
L1I AVERAGE MISS LATENCY: 28.6875 cycles
L2C TOTAL     ACCESS:    3794107  HIT:    2408364  MISS:    1385743
L2C LOAD      ACCESS:     512087  HIT:     239940  MISS:     272147
L2C RFO       ACCESS:      78845  HIT:      30346  MISS:      48499
L2C PREFETCH  ACCESS:    2927384  HIT:    1863887  MISS:    1063497
L2C WRITEBACK ACCESS:     275791  HIT:     274191  MISS:       1600
L2C PREFETCH  REQUESTED:    3093893  ISSUED:    3091641  USEFUL:      26411  USELESS:    1037220
L2C AVERAGE MISS LATENCY: 46.8779 cycles
LLC TOTAL     ACCESS:    2483397  HIT:    2319532  MISS:     163865
LLC LOAD      ACCESS:     272025  HIT:     248904  MISS:      23121
LLC RFO       ACCESS:      48488  HIT:      39042  MISS:       9446
LLC PREFETCH  ACCESS:    1987570  HIT:    1856563  MISS:     131007
LLC WRITEBACK ACCESS:     175314  HIT:     175023  MISS:        291
LLC PREFETCH  REQUESTED:          0  ISSUED:          0  USEFUL:      10621  USELESS:     119316
LLC AVERAGE MISS LATENCY: 174.428 cycles
Major fault: 0 Minor fault: 6202
I-Shadow cache 408 bytes
Touched + WorthPF tables 24576 bytes 
MMA filter 174 bytes 
FNL filter 272 bytes 
TOTAL PREFETCHER STORAGE SIZE: 98134 bytes
CPU 0 L1I next line prefetcher final stats
CPU 0 L1D next line prefetcher final stats

DRAM Statistics
 CHANNEL 0
 RQ ROW_BUFFER_HIT:      26529  ROW_BUFFER_MISS:     137031
 DBUS_CONGESTED:      70480
 WQ ROW_BUFFER_HIT:      11824  ROW_BUFFER_MISS:      50208  FULL:          0

 AVG_CONGESTED_CYCLE: 5

CPU 0 Branch Prediction Accuracy: 99.4114% MPKI: 1.0933 Average ROB Occupancy at Mispredict: 120.638

Branch types
NOT_BRANCH: 40713233 81.4265%
BRANCH_DIRECT_JUMP: 463701 0.927402%
BRANCH_INDIRECT: 146544 0.293088%
BRANCH_CONDITIONAL: 6981950 13.9639%
BRANCH_DIRECT_CALL: 665005 1.33001%
BRANCH_INDIRECT_CALL: 165152 0.330304%
BRANCH_RETURN: 864311 1.72862%
BRANCH_OTHER: 0 0%

