Initialize SIGNATURE TABLE
ST_SET: 1
ST_WAY: 256
ST_TAG_BIT: 16
ST_TAG_MASK: ffff

Initialize PATTERN TABLE
PT_SET: 512
PT_WAY: 4
SIG_DELTA_BIT: 7
C_SIG_BIT: 4
C_DELTA_BIT: 4

Initialize PREFETCH FILTER
FILTER_SET: 1024

*** ChampSim Multicore Out-of-Order Simulator ***

Warmup Instructions: 50000000
Simulation Instructions: 50000000
Number of CPUs: 1
LLC sets: 2048
LLC ways: 16
Off-chip DRAM Size: 4096 MB Channels: 1 Width: 64-bit Data Rate: 3200 MT/s

CPU 0 runs /Users/gandhardeshpande/Desktop/CSE240C/HW1/ChampSim/ipc1_public/spec_gobmk_001.champsimtrace.xz
CPU 0 L1I next line prefetcher
Running FNL-MMA for L1I
CPU 0 L1D next line prefetcher
Heartbeat CPU 0 instructions: 10000003 cycles: 3509192 heartbeat IPC: 2.84966 cumulative IPC: 2.84966 (Simulation time: 0 hr 0 min 12 sec) 
Heartbeat CPU 0 instructions: 20000002 cycles: 6990671 heartbeat IPC: 2.87234 cumulative IPC: 2.86096 (Simulation time: 0 hr 0 min 24 sec) 
Heartbeat CPU 0 instructions: 30000002 cycles: 10509584 heartbeat IPC: 2.84179 cumulative IPC: 2.85454 (Simulation time: 0 hr 0 min 36 sec) 
Heartbeat CPU 0 instructions: 40000001 cycles: 14028632 heartbeat IPC: 2.84168 cumulative IPC: 2.85131 (Simulation time: 0 hr 0 min 48 sec) 
Heartbeat CPU 0 instructions: 50000001 cycles: 17568773 heartbeat IPC: 2.82475 cumulative IPC: 2.84596 (Simulation time: 0 hr 1 min 0 sec) 

Warmup complete CPU 0 instructions: 50000001 cycles: 17568773 (Simulation time: 0 hr 1 min 0 sec) 

Heartbeat CPU 0 instructions: 60000000 cycles: 26428055 heartbeat IPC: 1.12876 cumulative IPC: 1.12876 (Simulation time: 0 hr 1 min 9 sec) 
Heartbeat CPU 0 instructions: 70000002 cycles: 34945696 heartbeat IPC: 1.17403 cumulative IPC: 1.15095 (Simulation time: 0 hr 1 min 18 sec) 
Heartbeat CPU 0 instructions: 80000003 cycles: 43863965 heartbeat IPC: 1.12129 cumulative IPC: 1.14089 (Simulation time: 0 hr 1 min 27 sec) 
Heartbeat CPU 0 instructions: 90000001 cycles: 52430457 heartbeat IPC: 1.16734 cumulative IPC: 1.14739 (Simulation time: 0 hr 1 min 36 sec) 
Heartbeat CPU 0 instructions: 100000003 cycles: 61328840 heartbeat IPC: 1.1238 cumulative IPC: 1.14259 (Simulation time: 0 hr 1 min 45 sec) 
Finished CPU 0 instructions: 50000002 cycles: 43760067 cumulative IPC: 1.14259 (Simulation time: 0 hr 1 min 45 sec) 

ChampSim completed all CPUs

Region of Interest Statistics

CPU 0 cumulative IPC: 1.14259 instructions: 50000002 cycles: 43760067
L1D TOTAL     ACCESS:   18012169  HIT:   17632606  MISS:     379563
L1D LOAD      ACCESS:    7224623  HIT:    7089153  MISS:     135470
L1D RFO       ACCESS:    3702278  HIT:    3597749  MISS:     104529
L1D PREFETCH  ACCESS:    7085268  HIT:    6945704  MISS:     139564
L1D WRITEBACK ACCESS:          0  HIT:          0  MISS:          0
L1D PREFETCH  REQUESTED:    7229869  ISSUED:    7147060  USEFUL:      44843  USELESS:      94727
L1D AVERAGE MISS LATENCY: 32.7843 cycles
L1I TOTAL     ACCESS:   11507339  HIT:   10525394  MISS:     981945
L1I LOAD      ACCESS:    8950819  HIT:    8803947  MISS:     146872
L1I RFO       ACCESS:          0  HIT:          0  MISS:          0
L1I PREFETCH  ACCESS:    2556520  HIT:    1721447  MISS:     835073
L1I WRITEBACK ACCESS:          0  HIT:          0  MISS:          0
L1I PREFETCH  REQUESTED:    2649340  ISSUED:    2649340  USEFUL:     486213  USELESS:     348820
L1I AVERAGE MISS LATENCY: 14.7002 cycles
L2C TOTAL     ACCESS:    2038530  HIT:    1912703  MISS:     125827
L2C LOAD      ACCESS:     224295  HIT:     188593  MISS:      35702
L2C RFO       ACCESS:     104194  HIT:      70693  MISS:      33501
L2C PREFETCH  ACCESS:    1570743  HIT:    1514128  MISS:      56615
L2C WRITEBACK ACCESS:     139298  HIT:     139289  MISS:          9
L2C PREFETCH  REQUESTED:    1324235  ISSUED:    1324173  USEFUL:       5127  USELESS:      51933
L2C AVERAGE MISS LATENCY: 62.7135 cycles
LLC TOTAL     ACCESS:     309067  HIT:     273430  MISS:      35637
LLC LOAD      ACCESS:      35699  HIT:      27582  MISS:       8117
LLC RFO       ACCESS:      33501  HIT:      28245  MISS:       5256
LLC PREFETCH  ACCESS:     195855  HIT:     173821  MISS:      22034
LLC WRITEBACK ACCESS:      44012  HIT:      43782  MISS:        230
LLC PREFETCH  REQUESTED:          0  ISSUED:          0  USEFUL:       1526  USELESS:      18849
LLC AVERAGE MISS LATENCY: 180.123 cycles
Major fault: 0 Minor fault: 4157
I-Shadow cache 408 bytes
Touched + WorthPF tables 24576 bytes 
MMA filter 174 bytes 
FNL filter 272 bytes 
TOTAL PREFETCHER STORAGE SIZE: 98134 bytes
CPU 0 L1I next line prefetcher final stats
CPU 0 L1D next line prefetcher final stats

DRAM Statistics
 CHANNEL 0
 RQ ROW_BUFFER_HIT:       3607  ROW_BUFFER_MISS:      31800
 DBUS_CONGESTED:      21080
 WQ ROW_BUFFER_HIT:       1316  ROW_BUFFER_MISS:      13968  FULL:          0

 AVG_CONGESTED_CYCLE: 4

CPU 0 Branch Prediction Accuracy: 94.7729% MPKI: 9.72684 Average ROB Occupancy at Mispredict: 53.2437

Branch types
NOT_BRANCH: 40695383 81.3908%
BRANCH_DIRECT_JUMP: 422107 0.844214%
BRANCH_INDIRECT: 65 0.00013%
BRANCH_CONDITIONAL: 8105005 16.21%
BRANCH_DIRECT_CALL: 374913 0.749826%
BRANCH_INDIRECT_CALL: 13657 0.027314%
BRANCH_RETURN: 388556 0.777112%
BRANCH_OTHER: 0 0%

