
*** ChampSim Multicore Out-of-Order Simulator ***

Warmup Instructions: 10000000
Simulation Instructions: 100000000
Configuration: 2
Number of CPUs: 1
LLC sets: 2048
LLC ways: 16
Off-chip DRAM Channels: 1 Width: 64-bit Data Rate: 1600 MT/s

CPU 0 runs /datasets/cs240c-wi22-a00-public/data/Assignment2-gz/leslie3d_1186B.trace.gz
CPU 0 L1D next line prefetcher
CPU 0 L2C IP-based stride prefetcher
Heartbeat CPU 0 instructions: 1000002 cycles: 564518 heartbeat IPC: 1.77143 cumulative IPC: 1.77143 (Simulation time: 0 hr 0 min 45 sec) 
Heartbeat CPU 0 instructions: 2000000 cycles: 1215884 heartbeat IPC: 1.53523 cumulative IPC: 1.64489 (Simulation time: 0 hr 1 min 30 sec) 
Heartbeat CPU 0 instructions: 3000000 cycles: 1867642 heartbeat IPC: 1.53431 cumulative IPC: 1.6063 (Simulation time: 0 hr 2 min 15 sec) 
Heartbeat CPU 0 instructions: 4000000 cycles: 2473228 heartbeat IPC: 1.65129 cumulative IPC: 1.61732 (Simulation time: 0 hr 3 min 0 sec) 
Heartbeat CPU 0 instructions: 5000000 cycles: 3083572 heartbeat IPC: 1.63842 cumulative IPC: 1.6215 (Simulation time: 0 hr 3 min 38 sec) 
Heartbeat CPU 0 instructions: 6000000 cycles: 3735296 heartbeat IPC: 1.53439 cumulative IPC: 1.6063 (Simulation time: 0 hr 4 min 20 sec) 
Heartbeat CPU 0 instructions: 7000001 cycles: 4386527 heartbeat IPC: 1.53556 cumulative IPC: 1.5958 (Simulation time: 0 hr 5 min 1 sec) 
Heartbeat CPU 0 instructions: 8000000 cycles: 4951107 heartbeat IPC: 1.77123 cumulative IPC: 1.6158 (Simulation time: 0 hr 5 min 39 sec) 
Heartbeat CPU 0 instructions: 9000003 cycles: 5602395 heartbeat IPC: 1.53542 cumulative IPC: 1.60646 (Simulation time: 0 hr 6 min 15 sec) 
Heartbeat CPU 0 instructions: 10000001 cycles: 6253550 heartbeat IPC: 1.53573 cumulative IPC: 1.59909 (Simulation time: 0 hr 6 min 51 sec) 

Warmup complete CPU 0 instructions: 10000001 cycles: 6253550 (Simulation time: 0 hr 6 min 51 sec) 

Heartbeat CPU 0 instructions: 11000001 cycles: 7644488 heartbeat IPC: 0.718939 cumulative IPC: 0.718939 (Simulation time: 0 hr 7 min 34 sec) 
Heartbeat CPU 0 instructions: 12000000 cycles: 8900368 heartbeat IPC: 0.796254 cumulative IPC: 0.755624 (Simulation time: 0 hr 8 min 11 sec) 
Heartbeat CPU 0 instructions: 13000000 cycles: 10119811 heartbeat IPC: 0.820047 cumulative IPC: 0.775943 (Simulation time: 0 hr 8 min 55 sec) 
Heartbeat CPU 0 instructions: 14000000 cycles: 11371107 heartbeat IPC: 0.799171 cumulative IPC: 0.781623 (Simulation time: 0 hr 9 min 36 sec) 
Heartbeat CPU 0 instructions: 15000002 cycles: 12777203 heartbeat IPC: 0.71119 cumulative IPC: 0.766442 (Simulation time: 0 hr 10 min 14 sec) 
Heartbeat CPU 0 instructions: 16000000 cycles: 13992025 heartbeat IPC: 0.823164 cumulative IPC: 0.775346 (Simulation time: 0 hr 10 min 54 sec) 
Heartbeat CPU 0 instructions: 17000000 cycles: 15202637 heartbeat IPC: 0.826028 cumulative IPC: 0.782203 (Simulation time: 0 hr 11 min 30 sec) 
Heartbeat CPU 0 instructions: 18000001 cycles: 16618889 heartbeat IPC: 0.70609 cumulative IPC: 0.771803 (Simulation time: 0 hr 12 min 5 sec) 
Heartbeat CPU 0 instructions: 19000003 cycles: 17859156 heartbeat IPC: 0.80628 cumulative IPC: 0.775487 (Simulation time: 0 hr 12 min 45 sec) 
Heartbeat CPU 0 instructions: 20000000 cycles: 19093505 heartbeat IPC: 0.810141 cumulative IPC: 0.778819 (Simulation time: 0 hr 13 min 28 sec) 
Heartbeat CPU 0 instructions: 21000003 cycles: 20403514 heartbeat IPC: 0.763356 cumulative IPC: 0.777387 (Simulation time: 0 hr 14 min 7 sec) 
Heartbeat CPU 0 instructions: 22000003 cycles: 21713445 heartbeat IPC: 0.763399 cumulative IPC: 0.776202 (Simulation time: 0 hr 14 min 44 sec) 
Heartbeat CPU 0 instructions: 23000002 cycles: 22918456 heartbeat IPC: 0.829867 cumulative IPC: 0.780082 (Simulation time: 0 hr 15 min 20 sec) 
Heartbeat CPU 0 instructions: 24000000 cycles: 24121488 heartbeat IPC: 0.831231 cumulative IPC: 0.783526 (Simulation time: 0 hr 15 min 57 sec) 
Heartbeat CPU 0 instructions: 25000000 cycles: 25532729 heartbeat IPC: 0.708596 cumulative IPC: 0.778041 (Simulation time: 0 hr 16 min 38 sec) 
Heartbeat CPU 0 instructions: 26000000 cycles: 26749966 heartbeat IPC: 0.821533 cumulative IPC: 0.780624 (Simulation time: 0 hr 17 min 17 sec) 
Heartbeat CPU 0 instructions: 27000000 cycles: 27963786 heartbeat IPC: 0.823845 cumulative IPC: 0.783041 (Simulation time: 0 hr 17 min 56 sec) 
Heartbeat CPU 0 instructions: 28000000 cycles: 29356277 heartbeat IPC: 0.718138 cumulative IPC: 0.779129 (Simulation time: 0 hr 18 min 35 sec) 
Heartbeat CPU 0 instructions: 29000002 cycles: 30588685 heartbeat IPC: 0.811421 cumulative IPC: 0.780764 (Simulation time: 0 hr 19 min 17 sec) 
Heartbeat CPU 0 instructions: 30000002 cycles: 31803547 heartbeat IPC: 0.823139 cumulative IPC: 0.782779 (Simulation time: 0 hr 19 min 58 sec) 
Heartbeat CPU 0 instructions: 31000002 cycles: 33050071 heartbeat IPC: 0.802231 cumulative IPC: 0.783684 (Simulation time: 0 hr 20 min 37 sec) 
Heartbeat CPU 0 instructions: 32000000 cycles: 34423279 heartbeat IPC: 0.72822 cumulative IPC: 0.78098 (Simulation time: 0 hr 21 min 28 sec) 
Heartbeat CPU 0 instructions: 33000000 cycles: 35625538 heartbeat IPC: 0.831768 cumulative IPC: 0.783059 (Simulation time: 0 hr 22 min 8 sec) 
Heartbeat CPU 0 instructions: 34000000 cycles: 36833139 heartbeat IPC: 0.828088 cumulative IPC: 0.784837 (Simulation time: 0 hr 22 min 44 sec) 
Heartbeat CPU 0 instructions: 35000000 cycles: 38244795 heartbeat IPC: 0.708388 cumulative IPC: 0.781464 (Simulation time: 0 hr 23 min 25 sec) 
Heartbeat CPU 0 instructions: 36000000 cycles: 39466326 heartbeat IPC: 0.818645 cumulative IPC: 0.782831 (Simulation time: 0 hr 24 min 2 sec) 
Heartbeat CPU 0 instructions: 37000003 cycles: 40689545 heartbeat IPC: 0.817518 cumulative IPC: 0.784063 (Simulation time: 0 hr 24 min 38 sec) 
Heartbeat CPU 0 instructions: 38000003 cycles: 42025784 heartbeat IPC: 0.748369 cumulative IPC: 0.78273 (Simulation time: 0 hr 25 min 21 sec) 
Heartbeat CPU 0 instructions: 39000001 cycles: 43310798 heartbeat IPC: 0.7782 cumulative IPC: 0.782573 (Simulation time: 0 hr 26 min 1 sec) 
Heartbeat CPU 0 instructions: 40000000 cycles: 44526073 heartbeat IPC: 0.822858 cumulative IPC: 0.783852 (Simulation time: 0 hr 26 min 43 sec) 
Heartbeat CPU 0 instructions: 41000000 cycles: 45722369 heartbeat IPC: 0.835914 cumulative IPC: 0.78543 (Simulation time: 0 hr 27 min 33 sec) 
Heartbeat CPU 0 instructions: 42000000 cycles: 47135943 heartbeat IPC: 0.707427 cumulative IPC: 0.782733 (Simulation time: 0 hr 28 min 19 sec) 
Heartbeat CPU 0 instructions: 43000002 cycles: 48326560 heartbeat IPC: 0.839902 cumulative IPC: 0.784351 (Simulation time: 0 hr 29 min 6 sec) 
Heartbeat CPU 0 instructions: 44000000 cycles: 49535048 heartbeat IPC: 0.827479 cumulative IPC: 0.785555 (Simulation time: 0 hr 29 min 54 sec) 
Heartbeat CPU 0 instructions: 45000001 cycles: 50980126 heartbeat IPC: 0.692005 cumulative IPC: 0.782533 (Simulation time: 0 hr 30 min 44 sec) 
Heartbeat CPU 0 instructions: 46000001 cycles: 52859684 heartbeat IPC: 0.53204 cumulative IPC: 0.772431 (Simulation time: 0 hr 31 min 34 sec) 
Heartbeat CPU 0 instructions: 47000002 cycles: 54863675 heartbeat IPC: 0.499005 cumulative IPC: 0.761158 (Simulation time: 0 hr 32 min 25 sec) 
Heartbeat CPU 0 instructions: 48000000 cycles: 56900170 heartbeat IPC: 0.491039 cumulative IPC: 0.750297 (Simulation time: 0 hr 33 min 17 sec) 
Heartbeat CPU 0 instructions: 49000002 cycles: 58924277 heartbeat IPC: 0.494046 cumulative IPC: 0.740449 (Simulation time: 0 hr 34 min 10 sec) 
Heartbeat CPU 0 instructions: 50000002 cycles: 60895559 heartbeat IPC: 0.507284 cumulative IPC: 0.732038 (Simulation time: 0 hr 35 min 1 sec) 
Heartbeat CPU 0 instructions: 51000000 cycles: 62860963 heartbeat IPC: 0.5088 cumulative IPC: 0.724287 (Simulation time: 0 hr 35 min 51 sec) 
Heartbeat CPU 0 instructions: 52000000 cycles: 64815827 heartbeat IPC: 0.511545 cumulative IPC: 0.717185 (Simulation time: 0 hr 36 min 42 sec) 
Heartbeat CPU 0 instructions: 53000003 cycles: 66791978 heartbeat IPC: 0.506036 cumulative IPC: 0.710293 (Simulation time: 0 hr 37 min 33 sec) 
Heartbeat CPU 0 instructions: 54000003 cycles: 68772278 heartbeat IPC: 0.504974 cumulative IPC: 0.703789 (Simulation time: 0 hr 38 min 28 sec) 
Heartbeat CPU 0 instructions: 55000001 cycles: 70850109 heartbeat IPC: 0.48127 cumulative IPC: 0.696632 (Simulation time: 0 hr 39 min 21 sec) 
Heartbeat CPU 0 instructions: 56000000 cycles: 73194856 heartbeat IPC: 0.426485 cumulative IPC: 0.687169 (Simulation time: 0 hr 40 min 11 sec) 
Heartbeat CPU 0 instructions: 57000003 cycles: 75609499 heartbeat IPC: 0.414141 cumulative IPC: 0.677664 (Simulation time: 0 hr 41 min 3 sec) 
Heartbeat CPU 0 instructions: 58000001 cycles: 78088686 heartbeat IPC: 0.403357 cumulative IPC: 0.668197 (Simulation time: 0 hr 41 min 58 sec) 
Heartbeat CPU 0 instructions: 59000003 cycles: 80417027 heartbeat IPC: 0.429491 cumulative IPC: 0.660703 (Simulation time: 0 hr 42 min 54 sec) 
Heartbeat CPU 0 instructions: 60000000 cycles: 82733836 heartbeat IPC: 0.431627 cumulative IPC: 0.653763 (Simulation time: 0 hr 43 min 54 sec) 
Heartbeat CPU 0 instructions: 61000003 cycles: 85060481 heartbeat IPC: 0.429805 cumulative IPC: 0.647151 (Simulation time: 0 hr 44 min 52 sec) 
Heartbeat CPU 0 instructions: 62000001 cycles: 87421042 heartbeat IPC: 0.423627 cumulative IPC: 0.640651 (Simulation time: 0 hr 45 min 52 sec) 
Heartbeat CPU 0 instructions: 63000000 cycles: 89419740 heartbeat IPC: 0.500325 cumulative IPC: 0.637278 (Simulation time: 0 hr 46 min 44 sec) 
Heartbeat CPU 0 instructions: 64000000 cycles: 90745725 heartbeat IPC: 0.754156 cumulative IPC: 0.639112 (Simulation time: 0 hr 47 min 31 sec) 
Heartbeat CPU 0 instructions: 65000000 cycles: 92108362 heartbeat IPC: 0.733871 cumulative IPC: 0.640616 (Simulation time: 0 hr 48 min 20 sec) 
Heartbeat CPU 0 instructions: 66000002 cycles: 93464558 heartbeat IPC: 0.737358 cumulative IPC: 0.642121 (Simulation time: 0 hr 49 min 8 sec) 
Heartbeat CPU 0 instructions: 67000000 cycles: 94808327 heartbeat IPC: 0.744174 cumulative IPC: 0.643669 (Simulation time: 0 hr 49 min 54 sec) 
Heartbeat CPU 0 instructions: 68000000 cycles: 96207029 heartbeat IPC: 0.714949 cumulative IPC: 0.644778 (Simulation time: 0 hr 50 min 43 sec) 
Heartbeat CPU 0 instructions: 69000000 cycles: 97540400 heartbeat IPC: 0.749979 cumulative IPC: 0.646314 (Simulation time: 0 hr 51 min 28 sec) 
Heartbeat CPU 0 instructions: 70000000 cycles: 98909555 heartbeat IPC: 0.730377 cumulative IPC: 0.647556 (Simulation time: 0 hr 52 min 15 sec) 
Heartbeat CPU 0 instructions: 71000000 cycles: 100233754 heartbeat IPC: 0.755174 cumulative IPC: 0.649073 (Simulation time: 0 hr 53 min 2 sec) 
Heartbeat CPU 0 instructions: 72000000 cycles: 101580050 heartbeat IPC: 0.742779 cumulative IPC: 0.650396 (Simulation time: 0 hr 53 min 48 sec) 
Heartbeat CPU 0 instructions: 73000003 cycles: 102925019 heartbeat IPC: 0.743514 cumulative IPC: 0.651692 (Simulation time: 0 hr 54 min 35 sec) 
Heartbeat CPU 0 instructions: 74000000 cycles: 104244269 heartbeat IPC: 0.758004 cumulative IPC: 0.653123 (Simulation time: 0 hr 55 min 21 sec) 
Heartbeat CPU 0 instructions: 75000003 cycles: 105607078 heartbeat IPC: 0.733781 cumulative IPC: 0.654229 (Simulation time: 0 hr 56 min 10 sec) 
Heartbeat CPU 0 instructions: 76000000 cycles: 106926431 heartbeat IPC: 0.757945 cumulative IPC: 0.655589 (Simulation time: 0 hr 56 min 57 sec) 
Heartbeat CPU 0 instructions: 77000000 cycles: 108287589 heartbeat IPC: 0.734669 cumulative IPC: 0.656644 (Simulation time: 0 hr 57 min 43 sec) 
Heartbeat CPU 0 instructions: 78000001 cycles: 109633407 heartbeat IPC: 0.743043 cumulative IPC: 0.657768 (Simulation time: 0 hr 58 min 28 sec) 
Heartbeat CPU 0 instructions: 79000002 cycles: 110983803 heartbeat IPC: 0.740524 cumulative IPC: 0.658835 (Simulation time: 0 hr 59 min 13 sec) 
Heartbeat CPU 0 instructions: 80000000 cycles: 112352744 heartbeat IPC: 0.73049 cumulative IPC: 0.65976 (Simulation time: 0 hr 59 min 58 sec) 
Heartbeat CPU 0 instructions: 81000000 cycles: 113685277 heartbeat IPC: 0.75045 cumulative IPC: 0.660885 (Simulation time: 1 hr 0 min 42 sec) 
Heartbeat CPU 0 instructions: 82000003 cycles: 115058197 heartbeat IPC: 0.728377 cumulative IPC: 0.661736 (Simulation time: 1 hr 1 min 24 sec) 
Heartbeat CPU 0 instructions: 83000001 cycles: 116402868 heartbeat IPC: 0.743675 cumulative IPC: 0.662737 (Simulation time: 1 hr 2 min 8 sec) 
Heartbeat CPU 0 instructions: 84000000 cycles: 117745409 heartbeat IPC: 0.744855 cumulative IPC: 0.663726 (Simulation time: 1 hr 2 min 51 sec) 
Heartbeat CPU 0 instructions: 85000001 cycles: 119072949 heartbeat IPC: 0.753274 cumulative IPC: 0.664779 (Simulation time: 1 hr 3 min 33 sec) 
Heartbeat CPU 0 instructions: 86000003 cycles: 120408359 heartbeat IPC: 0.748835 cumulative IPC: 0.665763 (Simulation time: 1 hr 4 min 12 sec) 
Heartbeat CPU 0 instructions: 87000001 cycles: 121748569 heartbeat IPC: 0.74615 cumulative IPC: 0.666695 (Simulation time: 1 hr 4 min 51 sec) 
Heartbeat CPU 0 instructions: 88000000 cycles: 123092604 heartbeat IPC: 0.744027 cumulative IPC: 0.667585 (Simulation time: 1 hr 5 min 30 sec) 
Heartbeat CPU 0 instructions: 89000001 cycles: 124441060 heartbeat IPC: 0.74159 cumulative IPC: 0.668429 (Simulation time: 1 hr 6 min 8 sec) 
Heartbeat CPU 0 instructions: 90000002 cycles: 125787025 heartbeat IPC: 0.742962 cumulative IPC: 0.669269 (Simulation time: 1 hr 6 min 46 sec) 
Heartbeat CPU 0 instructions: 91000000 cycles: 127137770 heartbeat IPC: 0.740331 cumulative IPC: 0.670063 (Simulation time: 1 hr 7 min 19 sec) 
Heartbeat CPU 0 instructions: 92000000 cycles: 128465507 heartbeat IPC: 0.753161 cumulative IPC: 0.670965 (Simulation time: 1 hr 7 min 52 sec) 
Heartbeat CPU 0 instructions: 93000002 cycles: 129821924 heartbeat IPC: 0.737238 cumulative IPC: 0.671693 (Simulation time: 1 hr 8 min 23 sec) 
Heartbeat CPU 0 instructions: 94000000 cycles: 131144029 heartbeat IPC: 0.756368 cumulative IPC: 0.672589 (Simulation time: 1 hr 8 min 55 sec) 
Heartbeat CPU 0 instructions: 95000003 cycles: 132472944 heartbeat IPC: 0.752496 cumulative IPC: 0.673431 (Simulation time: 1 hr 9 min 26 sec) 
Heartbeat CPU 0 instructions: 96000000 cycles: 133831386 heartbeat IPC: 0.736135 cumulative IPC: 0.674098 (Simulation time: 1 hr 9 min 54 sec) 
Heartbeat CPU 0 instructions: 97000001 cycles: 135155499 heartbeat IPC: 0.755223 cumulative IPC: 0.674932 (Simulation time: 1 hr 10 min 24 sec) 
Heartbeat CPU 0 instructions: 98000002 cycles: 136513893 heartbeat IPC: 0.736164 cumulative IPC: 0.67557 (Simulation time: 1 hr 10 min 51 sec) 
Heartbeat CPU 0 instructions: 99000000 cycles: 137846340 heartbeat IPC: 0.750497 cumulative IPC: 0.676329 (Simulation time: 1 hr 11 min 18 sec) 
Heartbeat CPU 0 instructions: 100000000 cycles: 139221933 heartbeat IPC: 0.726959 cumulative IPC: 0.676853 (Simulation time: 1 hr 11 min 46 sec) 
Heartbeat CPU 0 instructions: 101000000 cycles: 140568587 heartbeat IPC: 0.742581 cumulative IPC: 0.677512 (Simulation time: 1 hr 12 min 11 sec) 
Heartbeat CPU 0 instructions: 102000001 cycles: 141896812 heartbeat IPC: 0.752885 cumulative IPC: 0.67825 (Simulation time: 1 hr 12 min 36 sec) 
Heartbeat CPU 0 instructions: 103000002 cycles: 143258122 heartbeat IPC: 0.734587 cumulative IPC: 0.678809 (Simulation time: 1 hr 13 min 1 sec) 
Heartbeat CPU 0 instructions: 104000000 cycles: 144583025 heartbeat IPC: 0.754771 cumulative IPC: 0.679537 (Simulation time: 1 hr 13 min 27 sec) 
Heartbeat CPU 0 instructions: 105000001 cycles: 145959141 heartbeat IPC: 0.726684 cumulative IPC: 0.680001 (Simulation time: 1 hr 13 min 49 sec) 
Heartbeat CPU 0 instructions: 106000002 cycles: 147297189 heartbeat IPC: 0.747358 cumulative IPC: 0.68064 (Simulation time: 1 hr 14 min 8 sec) 
Heartbeat CPU 0 instructions: 107000000 cycles: 148651439 heartbeat IPC: 0.738415 cumulative IPC: 0.68119 (Simulation time: 1 hr 14 min 28 sec) 
Heartbeat CPU 0 instructions: 108000000 cycles: 149986462 heartbeat IPC: 0.749051 cumulative IPC: 0.68182 (Simulation time: 1 hr 14 min 47 sec) 
Heartbeat CPU 0 instructions: 109000003 cycles: 151319573 heartbeat IPC: 0.750127 cumulative IPC: 0.682448 (Simulation time: 1 hr 15 min 4 sec) 
Heartbeat CPU 0 instructions: 110000001 cycles: 152686207 heartbeat IPC: 0.731723 cumulative IPC: 0.682908 (Simulation time: 1 hr 15 min 21 sec) 
Finished CPU 0 instructions: 100000000 cycles: 146432657 cummulative IPC: 0.682908 (Simulation time: 1 hr 15 min 21 sec) 

ChampSim completed all CPUs

Region of Interest Statistics

CPU 0 cummulative IPC: 0.682908 instructions: 100000000 cycles: 146432657
LLC TOTAL     ACCESS:    3758423  HIT:     921177  MISS:    2837246
LLC LOAD      ACCESS:     402823  HIT:      79750  MISS:     323073
LLC RFO       ACCESS:     463711  HIT:     173986  MISS:     289725
LLC PREFETCH  ACCESS:    2142757  HIT:     220111  MISS:    1922646
LLC WRITEBACK ACCESS:     749132  HIT:     447330  MISS:     301802
