
*** ChampSim Multicore Out-of-Order Simulator ***

Warmup Instructions: 10000000
Simulation Instructions: 100000000
Configuration: 2
Number of CPUs: 1
LLC sets: 2048
LLC ways: 16
Off-chip DRAM Channels: 1 Width: 64-bit Data Rate: 1600 MT/s

CPU 0 runs /datasets/cs240c-wi22-a00-public/data/Assignment2-gz/sphinx3_1339B.trace.gz
CPU 0 L1D next line prefetcher
CPU 0 L2C IP-based stride prefetcher
Heartbeat CPU 0 instructions: 1000000 cycles: 339022 heartbeat IPC: 2.94966 cumulative IPC: 2.94966 (Simulation time: 0 hr 0 min 37 sec) 
Heartbeat CPU 0 instructions: 2000001 cycles: 693421 heartbeat IPC: 2.82168 cumulative IPC: 2.88425 (Simulation time: 0 hr 1 min 13 sec) 
Heartbeat CPU 0 instructions: 3000000 cycles: 1084511 heartbeat IPC: 2.55695 cumulative IPC: 2.76622 (Simulation time: 0 hr 1 min 49 sec) 
Heartbeat CPU 0 instructions: 4000000 cycles: 1530043 heartbeat IPC: 2.24451 cumulative IPC: 2.61431 (Simulation time: 0 hr 2 min 22 sec) 
Heartbeat CPU 0 instructions: 5000003 cycles: 1869062 heartbeat IPC: 2.9497 cumulative IPC: 2.67514 (Simulation time: 0 hr 3 min 0 sec) 
Heartbeat CPU 0 instructions: 6000002 cycles: 2253262 heartbeat IPC: 2.60281 cumulative IPC: 2.66281 (Simulation time: 0 hr 3 min 39 sec) 
Heartbeat CPU 0 instructions: 7000001 cycles: 2717189 heartbeat IPC: 2.15551 cumulative IPC: 2.57619 (Simulation time: 0 hr 4 min 16 sec) 
Heartbeat CPU 0 instructions: 8000000 cycles: 3056061 heartbeat IPC: 2.95096 cumulative IPC: 2.61775 (Simulation time: 0 hr 4 min 51 sec) 
Heartbeat CPU 0 instructions: 9000003 cycles: 3412637 heartbeat IPC: 2.80446 cumulative IPC: 2.63726 (Simulation time: 0 hr 5 min 28 sec) 
Heartbeat CPU 0 instructions: 10000001 cycles: 3799558 heartbeat IPC: 2.5845 cumulative IPC: 2.63189 (Simulation time: 0 hr 6 min 4 sec) 

Warmup complete CPU 0 instructions: 10000001 cycles: 3799558 (Simulation time: 0 hr 6 min 4 sec) 

Heartbeat CPU 0 instructions: 11000001 cycles: 4722781 heartbeat IPC: 1.08316 cumulative IPC: 1.08316 (Simulation time: 0 hr 6 min 46 sec) 
Heartbeat CPU 0 instructions: 12000000 cycles: 5619602 heartbeat IPC: 1.11505 cumulative IPC: 1.09887 (Simulation time: 0 hr 7 min 26 sec) 
Heartbeat CPU 0 instructions: 13000000 cycles: 6969569 heartbeat IPC: 0.740759 cumulative IPC: 0.946369 (Simulation time: 0 hr 8 min 7 sec) 
Heartbeat CPU 0 instructions: 14000000 cycles: 7875241 heartbeat IPC: 1.10415 cumulative IPC: 0.98143 (Simulation time: 0 hr 8 min 46 sec) 
Heartbeat CPU 0 instructions: 15000001 cycles: 8771687 heartbeat IPC: 1.11552 cumulative IPC: 1.00561 (Simulation time: 0 hr 9 min 27 sec) 
Heartbeat CPU 0 instructions: 16000000 cycles: 9868220 heartbeat IPC: 0.911964 cumulative IPC: 0.988686 (Simulation time: 0 hr 10 min 10 sec) 
Heartbeat CPU 0 instructions: 17000001 cycles: 11227584 heartbeat IPC: 0.735639 cumulative IPC: 0.942377 (Simulation time: 0 hr 10 min 55 sec) 
Heartbeat CPU 0 instructions: 18000003 cycles: 12296113 heartbeat IPC: 0.935868 cumulative IPC: 0.941558 (Simulation time: 0 hr 11 min 37 sec) 
Heartbeat CPU 0 instructions: 19000002 cycles: 13164546 heartbeat IPC: 1.1515 cumulative IPC: 0.961026 (Simulation time: 0 hr 12 min 17 sec) 
Heartbeat CPU 0 instructions: 20000000 cycles: 14052253 heartbeat IPC: 1.1265 cumulative IPC: 0.975353 (Simulation time: 0 hr 13 min 1 sec) 
Heartbeat CPU 0 instructions: 21000000 cycles: 15286940 heartbeat IPC: 0.809922 cumulative IPC: 0.957572 (Simulation time: 0 hr 13 min 45 sec) 
Heartbeat CPU 0 instructions: 22000000 cycles: 16291034 heartbeat IPC: 0.995923 cumulative IPC: 0.960655 (Simulation time: 0 hr 14 min 26 sec) 
Heartbeat CPU 0 instructions: 23000003 cycles: 17151283 heartbeat IPC: 1.16246 cumulative IPC: 0.973657 (Simulation time: 0 hr 15 min 8 sec) 
Heartbeat CPU 0 instructions: 24000000 cycles: 18111895 heartbeat IPC: 1.041 cumulative IPC: 0.978177 (Simulation time: 0 hr 15 min 50 sec) 
Heartbeat CPU 0 instructions: 25000001 cycles: 19074533 heartbeat IPC: 1.03881 cumulative IPC: 0.981998 (Simulation time: 0 hr 16 min 33 sec) 
Heartbeat CPU 0 instructions: 26000003 cycles: 19905681 heartbeat IPC: 1.20316 cumulative IPC: 0.993411 (Simulation time: 0 hr 17 min 13 sec) 
Heartbeat CPU 0 instructions: 27000002 cycles: 20754594 heartbeat IPC: 1.17798 cumulative IPC: 1.00265 (Simulation time: 0 hr 17 min 55 sec) 
Heartbeat CPU 0 instructions: 28000000 cycles: 21729883 heartbeat IPC: 1.02534 cumulative IPC: 1.00389 (Simulation time: 0 hr 18 min 36 sec) 
Heartbeat CPU 0 instructions: 29000003 cycles: 22559039 heartbeat IPC: 1.20605 cumulative IPC: 1.01282 (Simulation time: 0 hr 19 min 17 sec) 
Heartbeat CPU 0 instructions: 30000003 cycles: 23389581 heartbeat IPC: 1.20403 cumulative IPC: 1.02093 (Simulation time: 0 hr 19 min 58 sec) 
Heartbeat CPU 0 instructions: 31000002 cycles: 24329518 heartbeat IPC: 1.0639 cumulative IPC: 1.0229 (Simulation time: 0 hr 20 min 37 sec) 
Heartbeat CPU 0 instructions: 32000000 cycles: 25205670 heartbeat IPC: 1.14135 cumulative IPC: 1.02774 (Simulation time: 0 hr 21 min 18 sec) 
Heartbeat CPU 0 instructions: 33000001 cycles: 26037225 heartbeat IPC: 1.20257 cumulative IPC: 1.03428 (Simulation time: 0 hr 21 min 57 sec) 
Heartbeat CPU 0 instructions: 34000001 cycles: 27428886 heartbeat IPC: 0.718566 cumulative IPC: 1.01569 (Simulation time: 0 hr 22 min 41 sec) 
Heartbeat CPU 0 instructions: 35000000 cycles: 28349624 heartbeat IPC: 1.08608 cumulative IPC: 1.01833 (Simulation time: 0 hr 23 min 24 sec) 
Heartbeat CPU 0 instructions: 36000000 cycles: 29219158 heartbeat IPC: 1.15004 cumulative IPC: 1.02283 (Simulation time: 0 hr 24 min 9 sec) 
Heartbeat CPU 0 instructions: 37000003 cycles: 30228233 heartbeat IPC: 0.99101 cumulative IPC: 1.02162 (Simulation time: 0 hr 24 min 56 sec) 
Heartbeat CPU 0 instructions: 38000000 cycles: 31404104 heartbeat IPC: 0.850431 cumulative IPC: 1.01433 (Simulation time: 0 hr 25 min 36 sec) 
Heartbeat CPU 0 instructions: 39000000 cycles: 32278781 heartbeat IPC: 1.14328 cumulative IPC: 1.01829 (Simulation time: 0 hr 26 min 14 sec) 
Heartbeat CPU 0 instructions: 40000000 cycles: 33117283 heartbeat IPC: 1.1926 cumulative IPC: 1.02327 (Simulation time: 0 hr 26 min 54 sec) 
Heartbeat CPU 0 instructions: 41000000 cycles: 34351916 heartbeat IPC: 0.809957 cumulative IPC: 1.01465 (Simulation time: 0 hr 27 min 35 sec) 
Heartbeat CPU 0 instructions: 42000002 cycles: 35237308 heartbeat IPC: 1.12945 cumulative IPC: 1.01788 (Simulation time: 0 hr 28 min 14 sec) 
Heartbeat CPU 0 instructions: 43000001 cycles: 36092269 heartbeat IPC: 1.16964 cumulative IPC: 1.0219 (Simulation time: 0 hr 28 min 52 sec) 
Heartbeat CPU 0 instructions: 44000000 cycles: 37151870 heartbeat IPC: 0.943751 cumulative IPC: 1.01942 (Simulation time: 0 hr 29 min 32 sec) 
Heartbeat CPU 0 instructions: 45000002 cycles: 38171676 heartbeat IPC: 0.980581 cumulative IPC: 1.01827 (Simulation time: 0 hr 30 min 11 sec) 
Heartbeat CPU 0 instructions: 46000003 cycles: 38993246 heartbeat IPC: 1.21718 cumulative IPC: 1.02291 (Simulation time: 0 hr 30 min 49 sec) 
Heartbeat CPU 0 instructions: 47000001 cycles: 39834789 heartbeat IPC: 1.18829 cumulative IPC: 1.02677 (Simulation time: 0 hr 31 min 27 sec) 
Heartbeat CPU 0 instructions: 48000000 cycles: 40839907 heartbeat IPC: 0.994907 cumulative IPC: 1.02591 (Simulation time: 0 hr 32 min 6 sec) 
Heartbeat CPU 0 instructions: 49000000 cycles: 41684405 heartbeat IPC: 1.18414 cumulative IPC: 1.02944 (Simulation time: 0 hr 32 min 44 sec) 
Heartbeat CPU 0 instructions: 50000003 cycles: 42507298 heartbeat IPC: 1.21523 cumulative IPC: 1.03339 (Simulation time: 0 hr 33 min 21 sec) 
Heartbeat CPU 0 instructions: 51000001 cycles: 43702445 heartbeat IPC: 0.836715 cumulative IPC: 1.02749 (Simulation time: 0 hr 34 min 1 sec) 
Heartbeat CPU 0 instructions: 52000000 cycles: 44540425 heartbeat IPC: 1.19334 cumulative IPC: 1.03091 (Simulation time: 0 hr 34 min 40 sec) 
Heartbeat CPU 0 instructions: 53000002 cycles: 45374673 heartbeat IPC: 1.19869 cumulative IPC: 1.03427 (Simulation time: 0 hr 35 min 19 sec) 
Heartbeat CPU 0 instructions: 54000003 cycles: 46518223 heartbeat IPC: 0.874471 cumulative IPC: 1.02999 (Simulation time: 0 hr 36 min 1 sec) 
Heartbeat CPU 0 instructions: 55000001 cycles: 47434078 heartbeat IPC: 1.09187 cumulative IPC: 1.03129 (Simulation time: 0 hr 36 min 40 sec) 
Heartbeat CPU 0 instructions: 56000000 cycles: 48275991 heartbeat IPC: 1.18777 cumulative IPC: 1.03426 (Simulation time: 0 hr 37 min 19 sec) 
Heartbeat CPU 0 instructions: 57000000 cycles: 49245677 heartbeat IPC: 1.03126 cumulative IPC: 1.03419 (Simulation time: 0 hr 38 min 0 sec) 
Heartbeat CPU 0 instructions: 58000000 cycles: 50342917 heartbeat IPC: 0.911378 cumulative IPC: 1.0313 (Simulation time: 0 hr 38 min 42 sec) 
Heartbeat CPU 0 instructions: 59000001 cycles: 51171183 heartbeat IPC: 1.20734 cumulative IPC: 1.03437 (Simulation time: 0 hr 39 min 20 sec) 
Heartbeat CPU 0 instructions: 60000000 cycles: 52000534 heartbeat IPC: 1.20576 cumulative IPC: 1.03732 (Simulation time: 0 hr 39 min 57 sec) 
Heartbeat CPU 0 instructions: 61000000 cycles: 53318489 heartbeat IPC: 0.758751 cumulative IPC: 1.02991 (Simulation time: 0 hr 40 min 41 sec) 
Heartbeat CPU 0 instructions: 62000002 cycles: 54458893 heartbeat IPC: 0.876884 cumulative IPC: 1.02646 (Simulation time: 0 hr 41 min 29 sec) 
Heartbeat CPU 0 instructions: 63000003 cycles: 55294988 heartbeat IPC: 1.19604 cumulative IPC: 1.02922 (Simulation time: 0 hr 42 min 22 sec) 
Heartbeat CPU 0 instructions: 64000000 cycles: 56129870 heartbeat IPC: 1.19777 cumulative IPC: 1.03191 (Simulation time: 0 hr 43 min 8 sec) 
Heartbeat CPU 0 instructions: 65000000 cycles: 57189633 heartbeat IPC: 0.943607 cumulative IPC: 1.03015 (Simulation time: 0 hr 44 min 7 sec) 
Heartbeat CPU 0 instructions: 66000001 cycles: 58175527 heartbeat IPC: 1.01431 cumulative IPC: 1.02987 (Simulation time: 0 hr 45 min 1 sec) 
Heartbeat CPU 0 instructions: 67000000 cycles: 59002837 heartbeat IPC: 1.20874 cumulative IPC: 1.03255 (Simulation time: 0 hr 45 min 58 sec) 
Heartbeat CPU 0 instructions: 68000000 cycles: 59886907 heartbeat IPC: 1.13113 cumulative IPC: 1.0341 (Simulation time: 0 hr 46 min 49 sec) 
Heartbeat CPU 0 instructions: 69000003 cycles: 61023322 heartbeat IPC: 0.879963 cumulative IPC: 1.03104 (Simulation time: 0 hr 47 min 50 sec) 
Heartbeat CPU 0 instructions: 70000001 cycles: 61877008 heartbeat IPC: 1.17139 cumulative IPC: 1.0331 (Simulation time: 0 hr 48 min 43 sec) 
Heartbeat CPU 0 instructions: 71000001 cycles: 62703886 heartbeat IPC: 1.20937 cumulative IPC: 1.03558 (Simulation time: 0 hr 49 min 35 sec) 
Heartbeat CPU 0 instructions: 72000000 cycles: 63909864 heartbeat IPC: 0.829202 cumulative IPC: 1.03144 (Simulation time: 0 hr 50 min 26 sec) 
Heartbeat CPU 0 instructions: 73000001 cycles: 64752289 heartbeat IPC: 1.18705 cumulative IPC: 1.03359 (Simulation time: 0 hr 51 min 16 sec) 
Heartbeat CPU 0 instructions: 74000000 cycles: 65585845 heartbeat IPC: 1.19968 cumulative IPC: 1.03583 (Simulation time: 0 hr 52 min 7 sec) 
Heartbeat CPU 0 instructions: 75000003 cycles: 66671290 heartbeat IPC: 0.921284 cumulative IPC: 1.03385 (Simulation time: 0 hr 52 min 58 sec) 
Heartbeat CPU 0 instructions: 76000000 cycles: 67615015 heartbeat IPC: 1.05963 cumulative IPC: 1.03423 (Simulation time: 0 hr 53 min 43 sec) 
Heartbeat CPU 0 instructions: 77000002 cycles: 68444256 heartbeat IPC: 1.20592 cumulative IPC: 1.03643 (Simulation time: 0 hr 54 min 25 sec) 
Heartbeat CPU 0 instructions: 78000002 cycles: 69357702 heartbeat IPC: 1.09476 cumulative IPC: 1.03725 (Simulation time: 0 hr 55 min 9 sec) 
Heartbeat CPU 0 instructions: 79000001 cycles: 70442789 heartbeat IPC: 0.921584 cumulative IPC: 1.03536 (Simulation time: 0 hr 55 min 51 sec) 
Heartbeat CPU 0 instructions: 80000000 cycles: 71295153 heartbeat IPC: 1.17321 cumulative IPC: 1.0371 (Simulation time: 0 hr 56 min 35 sec) 
Heartbeat CPU 0 instructions: 81000001 cycles: 72126266 heartbeat IPC: 1.20321 cumulative IPC: 1.03913 (Simulation time: 0 hr 57 min 16 sec) 
Heartbeat CPU 0 instructions: 82000000 cycles: 73302349 heartbeat IPC: 0.850279 cumulative IPC: 1.03593 (Simulation time: 0 hr 57 min 57 sec) 
Heartbeat CPU 0 instructions: 83000001 cycles: 74149509 heartbeat IPC: 1.18042 cumulative IPC: 1.03767 (Simulation time: 0 hr 58 min 39 sec) 
Heartbeat CPU 0 instructions: 84000000 cycles: 74985473 heartbeat IPC: 1.19622 cumulative IPC: 1.03953 (Simulation time: 0 hr 59 min 19 sec) 
Heartbeat CPU 0 instructions: 85000002 cycles: 76125027 heartbeat IPC: 0.877538 cumulative IPC: 1.03698 (Simulation time: 0 hr 59 min 58 sec) 
Heartbeat CPU 0 instructions: 86000003 cycles: 77023100 heartbeat IPC: 1.1135 cumulative IPC: 1.03792 (Simulation time: 1 hr 0 min 44 sec) 
Heartbeat CPU 0 instructions: 87000001 cycles: 77858583 heartbeat IPC: 1.19691 cumulative IPC: 1.03971 (Simulation time: 1 hr 1 min 31 sec) 
Heartbeat CPU 0 instructions: 88000000 cycles: 78863697 heartbeat IPC: 0.994911 cumulative IPC: 1.03911 (Simulation time: 1 hr 2 min 21 sec) 
Heartbeat CPU 0 instructions: 89000000 cycles: 79887868 heartbeat IPC: 0.976399 cumulative IPC: 1.03827 (Simulation time: 1 hr 3 min 11 sec) 
Heartbeat CPU 0 instructions: 90000003 cycles: 80712133 heartbeat IPC: 1.21321 cumulative IPC: 1.04014 (Simulation time: 1 hr 3 min 57 sec) 
Heartbeat CPU 0 instructions: 91000000 cycles: 81551387 heartbeat IPC: 1.19153 cumulative IPC: 1.04178 (Simulation time: 1 hr 4 min 39 sec) 
Heartbeat CPU 0 instructions: 92000000 cycles: 82738742 heartbeat IPC: 0.842208 cumulative IPC: 1.03877 (Simulation time: 1 hr 5 min 22 sec) 
Heartbeat CPU 0 instructions: 93000001 cycles: 83584002 heartbeat IPC: 1.18307 cumulative IPC: 1.0403 (Simulation time: 1 hr 6 min 2 sec) 
Heartbeat CPU 0 instructions: 94000001 cycles: 84412951 heartbeat IPC: 1.20635 cumulative IPC: 1.04201 (Simulation time: 1 hr 6 min 37 sec) 
Heartbeat CPU 0 instructions: 95000002 cycles: 85622243 heartbeat IPC: 0.826931 cumulative IPC: 1.03883 (Simulation time: 1 hr 7 min 10 sec) 
Heartbeat CPU 0 instructions: 96000000 cycles: 86480724 heartbeat IPC: 1.16485 cumulative IPC: 1.04014 (Simulation time: 1 hr 7 min 44 sec) 
Heartbeat CPU 0 instructions: 97000002 cycles: 87315479 heartbeat IPC: 1.19796 cumulative IPC: 1.04172 (Simulation time: 1 hr 8 min 15 sec) 
Heartbeat CPU 0 instructions: 98000000 cycles: 88398796 heartbeat IPC: 0.923089 cumulative IPC: 1.0402 (Simulation time: 1 hr 8 min 51 sec) 
Heartbeat CPU 0 instructions: 99000003 cycles: 89509045 heartbeat IPC: 0.900702 cumulative IPC: 1.03839 (Simulation time: 1 hr 9 min 27 sec) 
Heartbeat CPU 0 instructions: 100000000 cycles: 90351853 heartbeat IPC: 1.18651 cumulative IPC: 1.03983 (Simulation time: 1 hr 10 min 1 sec) 
Heartbeat CPU 0 instructions: 101000000 cycles: 91192551 heartbeat IPC: 1.18949 cumulative IPC: 1.04127 (Simulation time: 1 hr 10 min 32 sec) 
Heartbeat CPU 0 instructions: 102000001 cycles: 92645567 heartbeat IPC: 0.688224 cumulative IPC: 1.0355 (Simulation time: 1 hr 11 min 8 sec) 
Heartbeat CPU 0 instructions: 103000000 cycles: 93897886 heartbeat IPC: 0.798518 cumulative IPC: 1.03221 (Simulation time: 1 hr 11 min 37 sec) 
Heartbeat CPU 0 instructions: 104000000 cycles: 94846367 heartbeat IPC: 1.05432 cumulative IPC: 1.03244 (Simulation time: 1 hr 12 min 4 sec) 
Heartbeat CPU 0 instructions: 105000003 cycles: 95673010 heartbeat IPC: 1.20972 cumulative IPC: 1.03403 (Simulation time: 1 hr 12 min 30 sec) 
Heartbeat CPU 0 instructions: 106000000 cycles: 96532116 heartbeat IPC: 1.164 cumulative IPC: 1.03524 (Simulation time: 1 hr 12 min 54 sec) 
Heartbeat CPU 0 instructions: 107000001 cycles: 97978829 heartbeat IPC: 0.691223 cumulative IPC: 1.02995 (Simulation time: 1 hr 13 min 19 sec) 
Heartbeat CPU 0 instructions: 108000000 cycles: 98890569 heartbeat IPC: 1.0968 cumulative IPC: 1.03059 (Simulation time: 1 hr 13 min 43 sec) 
Heartbeat CPU 0 instructions: 109000000 cycles: 99729323 heartbeat IPC: 1.19224 cumulative IPC: 1.03201 (Simulation time: 1 hr 14 min 5 sec) 
Heartbeat CPU 0 instructions: 110000000 cycles: 100841739 heartbeat IPC: 0.898944 cumulative IPC: 1.03048 (Simulation time: 1 hr 14 min 27 sec) 
Finished CPU 0 instructions: 100000000 cycles: 97042183 cummulative IPC: 1.03048 (Simulation time: 1 hr 14 min 27 sec) 

ChampSim completed all CPUs

Region of Interest Statistics

CPU 0 cummulative IPC: 1.03048 instructions: 100000000 cycles: 97042183
LLC TOTAL     ACCESS:    1574112  HIT:     557756  MISS:    1016356
LLC LOAD      ACCESS:     202300  HIT:     174085  MISS:      28215
LLC RFO       ACCESS:     111347  HIT:     109482  MISS:       1865
LLC PREFETCH  ACCESS:    1127307  HIT:     141268  MISS:     986039
LLC WRITEBACK ACCESS:     133158  HIT:     132921  MISS:        237
