
*** ChampSim Multicore Out-of-Order Simulator ***

Warmup Instructions: 10000000
Simulation Instructions: 100000000
Configuration: 2
Number of CPUs: 1
LLC sets: 2048
LLC ways: 16
Off-chip DRAM Channels: 1 Width: 64-bit Data Rate: 1600 MT/s

CPU 0 runs /datasets/cs240c-wi22-a00-public/data/Assignment2-gz/mcf_158B.trace.gz
CPU 0 L1D next line prefetcher
CPU 0 L2C IP-based stride prefetcher
Heartbeat CPU 0 instructions: 1000002 cycles: 512497 heartbeat IPC: 1.95123 cumulative IPC: 1.95123 (Simulation time: 0 hr 1 min 8 sec) 
Heartbeat CPU 0 instructions: 2000002 cycles: 1023651 heartbeat IPC: 1.95636 cumulative IPC: 1.95379 (Simulation time: 0 hr 2 min 19 sec) 
Heartbeat CPU 0 instructions: 3000000 cycles: 1536291 heartbeat IPC: 1.95068 cumulative IPC: 1.95276 (Simulation time: 0 hr 3 min 17 sec) 
Heartbeat CPU 0 instructions: 4000000 cycles: 2047126 heartbeat IPC: 1.95758 cumulative IPC: 1.95396 (Simulation time: 0 hr 4 min 15 sec) 
Heartbeat CPU 0 instructions: 5000002 cycles: 2554529 heartbeat IPC: 1.97082 cumulative IPC: 1.95731 (Simulation time: 0 hr 5 min 14 sec) 
Heartbeat CPU 0 instructions: 6000001 cycles: 3066921 heartbeat IPC: 1.95163 cumulative IPC: 1.95636 (Simulation time: 0 hr 6 min 14 sec) 
Heartbeat CPU 0 instructions: 7000001 cycles: 3575724 heartbeat IPC: 1.9654 cumulative IPC: 1.95765 (Simulation time: 0 hr 7 min 13 sec) 
Heartbeat CPU 0 instructions: 8000000 cycles: 4086176 heartbeat IPC: 1.95905 cumulative IPC: 1.95782 (Simulation time: 0 hr 8 min 15 sec) 
Heartbeat CPU 0 instructions: 9000000 cycles: 4604891 heartbeat IPC: 1.92784 cumulative IPC: 1.95444 (Simulation time: 0 hr 9 min 12 sec) 
Heartbeat CPU 0 instructions: 10000001 cycles: 5144643 heartbeat IPC: 1.8527 cumulative IPC: 1.94377 (Simulation time: 0 hr 10 min 12 sec) 

Warmup complete CPU 0 instructions: 10000001 cycles: 5144643 (Simulation time: 0 hr 10 min 12 sec) 

Heartbeat CPU 0 instructions: 11000001 cycles: 15539425 heartbeat IPC: 0.0962021 cumulative IPC: 0.0962021 (Simulation time: 0 hr 11 min 38 sec) 
Heartbeat CPU 0 instructions: 12000000 cycles: 24699376 heartbeat IPC: 0.109171 cumulative IPC: 0.102277 (Simulation time: 0 hr 12 min 56 sec) 
Heartbeat CPU 0 instructions: 13000001 cycles: 33791084 heartbeat IPC: 0.10999 cumulative IPC: 0.104725 (Simulation time: 0 hr 14 min 10 sec) 
Heartbeat CPU 0 instructions: 14000001 cycles: 42235902 heartbeat IPC: 0.118416 cumulative IPC: 0.107842 (Simulation time: 0 hr 15 min 27 sec) 
Heartbeat CPU 0 instructions: 15000000 cycles: 51149965 heartbeat IPC: 0.112182 cumulative IPC: 0.108683 (Simulation time: 0 hr 16 min 40 sec) 
Heartbeat CPU 0 instructions: 16000000 cycles: 66544817 heartbeat IPC: 0.0649568 cumulative IPC: 0.0977196 (Simulation time: 0 hr 18 min 25 sec) 
Heartbeat CPU 0 instructions: 17000001 cycles: 77705869 heartbeat IPC: 0.0895974 cumulative IPC: 0.0964703 (Simulation time: 0 hr 19 min 50 sec) 
Heartbeat CPU 0 instructions: 18000000 cycles: 87034346 heartbeat IPC: 0.107199 cumulative IPC: 0.0976924 (Simulation time: 0 hr 21 min 10 sec) 
Heartbeat CPU 0 instructions: 19000001 cycles: 96724822 heartbeat IPC: 0.103194 cumulative IPC: 0.0982745 (Simulation time: 0 hr 22 min 31 sec) 
Heartbeat CPU 0 instructions: 20000000 cycles: 105984837 heartbeat IPC: 0.107991 cumulative IPC: 0.0991668 (Simulation time: 0 hr 23 min 51 sec) 
Heartbeat CPU 0 instructions: 21000000 cycles: 115354959 heartbeat IPC: 0.106722 cumulative IPC: 0.0998092 (Simulation time: 0 hr 25 min 7 sec) 
Heartbeat CPU 0 instructions: 22000002 cycles: 124731137 heartbeat IPC: 0.106653 cumulative IPC: 0.100346 (Simulation time: 0 hr 26 min 26 sec) 
Heartbeat CPU 0 instructions: 23000002 cycles: 135533551 heartbeat IPC: 0.0925719 cumulative IPC: 0.0997017 (Simulation time: 0 hr 27 min 47 sec) 
Heartbeat CPU 0 instructions: 24000000 cycles: 151965768 heartbeat IPC: 0.0608559 cumulative IPC: 0.0953541 (Simulation time: 0 hr 29 min 30 sec) 
Heartbeat CPU 0 instructions: 25000000 cycles: 161840418 heartbeat IPC: 0.101269 cumulative IPC: 0.0957269 (Simulation time: 0 hr 30 min 51 sec) 
Heartbeat CPU 0 instructions: 26000000 cycles: 169840223 heartbeat IPC: 0.125003 cumulative IPC: 0.0971489 (Simulation time: 0 hr 32 min 6 sec) 
Heartbeat CPU 0 instructions: 27000002 cycles: 177787179 heartbeat IPC: 0.125835 cumulative IPC: 0.0984694 (Simulation time: 0 hr 33 min 20 sec) 
Heartbeat CPU 0 instructions: 28000000 cycles: 192630905 heartbeat IPC: 0.0673684 cumulative IPC: 0.096007 (Simulation time: 0 hr 34 min 59 sec) 
Heartbeat CPU 0 instructions: 29000003 cycles: 202010820 heartbeat IPC: 0.106611 cumulative IPC: 0.0965123 (Simulation time: 0 hr 36 min 20 sec) 
Heartbeat CPU 0 instructions: 30000003 cycles: 209511839 heartbeat IPC: 0.133315 cumulative IPC: 0.0978631 (Simulation time: 0 hr 37 min 31 sec) 
Heartbeat CPU 0 instructions: 31000003 cycles: 217980615 heartbeat IPC: 0.118081 cumulative IPC: 0.0986675 (Simulation time: 0 hr 38 min 51 sec) 
Heartbeat CPU 0 instructions: 32000000 cycles: 232683865 heartbeat IPC: 0.068012 cumulative IPC: 0.0966866 (Simulation time: 0 hr 40 min 43 sec) 
Heartbeat CPU 0 instructions: 33000000 cycles: 240677684 heartbeat IPC: 0.125097 cumulative IPC: 0.0976508 (Simulation time: 0 hr 42 min 17 sec) 
Heartbeat CPU 0 instructions: 34000000 cycles: 248798024 heartbeat IPC: 0.123148 cumulative IPC: 0.0985006 (Simulation time: 0 hr 43 min 54 sec) 
Heartbeat CPU 0 instructions: 35000001 cycles: 257392397 heartbeat IPC: 0.116355 cumulative IPC: 0.0991089 (Simulation time: 0 hr 45 min 21 sec) 
Heartbeat CPU 0 instructions: 36000000 cycles: 272840633 heartbeat IPC: 0.0647322 cumulative IPC: 0.0971251 (Simulation time: 0 hr 47 min 19 sec) 
Heartbeat CPU 0 instructions: 37000001 cycles: 281667588 heartbeat IPC: 0.113289 cumulative IPC: 0.0976411 (Simulation time: 0 hr 48 min 31 sec) 
Heartbeat CPU 0 instructions: 38000000 cycles: 290188215 heartbeat IPC: 0.117362 cumulative IPC: 0.0982306 (Simulation time: 0 hr 49 min 48 sec) 
Heartbeat CPU 0 instructions: 39000000 cycles: 297671990 heartbeat IPC: 0.133622 cumulative IPC: 0.099136 (Simulation time: 0 hr 51 min 21 sec) 
Heartbeat CPU 0 instructions: 40000000 cycles: 311990820 heartbeat IPC: 0.0698381 cumulative IPC: 0.0977689 (Simulation time: 0 hr 53 min 17 sec) 
Heartbeat CPU 0 instructions: 41000003 cycles: 321098770 heartbeat IPC: 0.109795 cumulative IPC: 0.0981155 (Simulation time: 0 hr 54 min 56 sec) 
Heartbeat CPU 0 instructions: 42000000 cycles: 328578647 heartbeat IPC: 0.133692 cumulative IPC: 0.0989383 (Simulation time: 0 hr 56 min 25 sec) 
Heartbeat CPU 0 instructions: 43000001 cycles: 339277325 heartbeat IPC: 0.0934696 cumulative IPC: 0.0987632 (Simulation time: 0 hr 58 min 5 sec) 
Heartbeat CPU 0 instructions: 44000000 cycles: 351360263 heartbeat IPC: 0.0827612 cumulative IPC: 0.0982047 (Simulation time: 0 hr 59 min 45 sec) 
Heartbeat CPU 0 instructions: 45000000 cycles: 357973611 heartbeat IPC: 0.151209 cumulative IPC: 0.0991982 (Simulation time: 1 hr 1 min 3 sec) 
Heartbeat CPU 0 instructions: 46000002 cycles: 368238539 heartbeat IPC: 0.0974193 cumulative IPC: 0.0991479 (Simulation time: 1 hr 2 min 19 sec) 
Heartbeat CPU 0 instructions: 47000002 cycles: 380586054 heartbeat IPC: 0.080988 cumulative IPC: 0.0985507 (Simulation time: 1 hr 3 min 31 sec) 
Heartbeat CPU 0 instructions: 48000000 cycles: 387426956 heartbeat IPC: 0.146179 cumulative IPC: 0.099403 (Simulation time: 1 hr 4 min 27 sec) 
Heartbeat CPU 0 instructions: 49000003 cycles: 397636393 heartbeat IPC: 0.0979489 cumulative IPC: 0.0993652 (Simulation time: 1 hr 5 min 27 sec) 
Heartbeat CPU 0 instructions: 50000000 cycles: 410039080 heartbeat IPC: 0.0806274 cumulative IPC: 0.0987912 (Simulation time: 1 hr 6 min 30 sec) 
Heartbeat CPU 0 instructions: 51000000 cycles: 416645080 heartbeat IPC: 0.151378 cumulative IPC: 0.0996354 (Simulation time: 1 hr 7 min 24 sec) 
Heartbeat CPU 0 instructions: 52000000 cycles: 426188043 heartbeat IPC: 0.104789 cumulative IPC: 0.0997522 (Simulation time: 1 hr 8 min 17 sec) 
Heartbeat CPU 0 instructions: 53000000 cycles: 439454807 heartbeat IPC: 0.0753763 cumulative IPC: 0.0990076 (Simulation time: 1 hr 9 min 22 sec) 
Heartbeat CPU 0 instructions: 54000000 cycles: 446226281 heartbeat IPC: 0.147678 cumulative IPC: 0.0997548 (Simulation time: 1 hr 10 min 9 sec) 
Heartbeat CPU 0 instructions: 55000000 cycles: 454369047 heartbeat IPC: 0.122808 cumulative IPC: 0.100173 (Simulation time: 1 hr 10 min 57 sec) 
Heartbeat CPU 0 instructions: 56000000 cycles: 469015612 heartbeat IPC: 0.0682754 cumulative IPC: 0.0991655 (Simulation time: 1 hr 11 min 58 sec) 
Heartbeat CPU 0 instructions: 57000001 cycles: 475920548 heartbeat IPC: 0.144824 cumulative IPC: 0.0998352 (Simulation time: 1 hr 12 min 43 sec) 
Heartbeat CPU 0 instructions: 58000001 cycles: 482717019 heartbeat IPC: 0.147135 cumulative IPC: 0.100508 (Simulation time: 1 hr 13 min 20 sec) 
Heartbeat CPU 0 instructions: 59000000 cycles: 498256032 heartbeat IPC: 0.0643541 cumulative IPC: 0.099369 (Simulation time: 1 hr 14 min 11 sec) 
Heartbeat CPU 0 instructions: 60000000 cycles: 505350914 heartbeat IPC: 0.140947 cumulative IPC: 0.0999588 (Simulation time: 1 hr 14 min 50 sec) 
Heartbeat CPU 0 instructions: 61000000 cycles: 512557059 heartbeat IPC: 0.13877 cumulative IPC: 0.10051 (Simulation time: 1 hr 15 min 26 sec) 
Heartbeat CPU 0 instructions: 62000001 cycles: 524912201 heartbeat IPC: 0.080938 cumulative IPC: 0.100045 (Simulation time: 1 hr 16 min 8 sec) 
Heartbeat CPU 0 instructions: 63000001 cycles: 535172973 heartbeat IPC: 0.0974586 cumulative IPC: 0.0999947 (Simulation time: 1 hr 16 min 48 sec) 
Heartbeat CPU 0 instructions: 64000000 cycles: 541806686 heartbeat IPC: 0.150745 cumulative IPC: 0.100622 (Simulation time: 1 hr 17 min 19 sec) 
Heartbeat CPU 0 instructions: 65000000 cycles: 549462095 heartbeat IPC: 0.130627 cumulative IPC: 0.101044 (Simulation time: 1 hr 17 min 49 sec) 
Heartbeat CPU 0 instructions: 66000000 cycles: 564193322 heartbeat IPC: 0.067883 cumulative IPC: 0.10017 (Simulation time: 1 hr 18 min 29 sec) 
Heartbeat CPU 0 instructions: 67000002 cycles: 570825057 heartbeat IPC: 0.15079 cumulative IPC: 0.100764 (Simulation time: 1 hr 18 min 57 sec) 
Heartbeat CPU 0 instructions: 68000000 cycles: 577436368 heartbeat IPC: 0.151256 cumulative IPC: 0.101347 (Simulation time: 1 hr 19 min 21 sec) 
Heartbeat CPU 0 instructions: 69000000 cycles: 590513879 heartbeat IPC: 0.0764671 cumulative IPC: 0.100791 (Simulation time: 1 hr 19 min 53 sec) 
Heartbeat CPU 0 instructions: 70000000 cycles: 599865126 heartbeat IPC: 0.106938 cumulative IPC: 0.100888 (Simulation time: 1 hr 20 min 18 sec) 
Heartbeat CPU 0 instructions: 71000002 cycles: 606382753 heartbeat IPC: 0.15343 cumulative IPC: 0.101457 (Simulation time: 1 hr 20 min 37 sec) 
Heartbeat CPU 0 instructions: 72000000 cycles: 614442818 heartbeat IPC: 0.124068 cumulative IPC: 0.101756 (Simulation time: 1 hr 20 min 54 sec) 
Heartbeat CPU 0 instructions: 73000000 cycles: 628757126 heartbeat IPC: 0.0698602 cumulative IPC: 0.101024 (Simulation time: 1 hr 21 min 16 sec) 
Heartbeat CPU 0 instructions: 74000000 cycles: 635553160 heartbeat IPC: 0.147145 cumulative IPC: 0.101521 (Simulation time: 1 hr 21 min 31 sec) 
Heartbeat CPU 0 instructions: 75000001 cycles: 642487802 heartbeat IPC: 0.144204 cumulative IPC: 0.101986 (Simulation time: 1 hr 21 min 47 sec) 
Heartbeat CPU 0 instructions: 76000000 cycles: 654678041 heartbeat IPC: 0.0820328 cumulative IPC: 0.101611 (Simulation time: 1 hr 22 min 7 sec) 
Heartbeat CPU 0 instructions: 77000000 cycles: 665379589 heartbeat IPC: 0.0934444 cumulative IPC: 0.101479 (Simulation time: 1 hr 22 min 22 sec) 
Heartbeat CPU 0 instructions: 78000000 cycles: 672820848 heartbeat IPC: 0.134386 cumulative IPC: 0.101846 (Simulation time: 1 hr 22 min 34 sec) 
Heartbeat CPU 0 instructions: 79000003 cycles: 680520814 heartbeat IPC: 0.129871 cumulative IPC: 0.102165 (Simulation time: 1 hr 22 min 45 sec) 
Heartbeat CPU 0 instructions: 80000000 cycles: 695880908 heartbeat IPC: 0.0651036 cumulative IPC: 0.101341 (Simulation time: 1 hr 22 min 58 sec) 
Heartbeat CPU 0 instructions: 81000001 cycles: 703561644 heartbeat IPC: 0.130196 cumulative IPC: 0.101658 (Simulation time: 1 hr 23 min 9 sec) 
Heartbeat CPU 0 instructions: 82000001 cycles: 711055736 heartbeat IPC: 0.133438 cumulative IPC: 0.101996 (Simulation time: 1 hr 23 min 17 sec) 
Heartbeat CPU 0 instructions: 83000001 cycles: 723719011 heartbeat IPC: 0.0789685 cumulative IPC: 0.10159 (Simulation time: 1 hr 23 min 27 sec) 
Heartbeat CPU 0 instructions: 84000000 cycles: 734725705 heartbeat IPC: 0.0908537 cumulative IPC: 0.101428 (Simulation time: 1 hr 23 min 35 sec) 
Heartbeat CPU 0 instructions: 85000000 cycles: 741445810 heartbeat IPC: 0.148807 cumulative IPC: 0.10186 (Simulation time: 1 hr 23 min 42 sec) 
Heartbeat CPU 0 instructions: 86000000 cycles: 749431461 heartbeat IPC: 0.125225 cumulative IPC: 0.102111 (Simulation time: 1 hr 23 min 49 sec) 
Heartbeat CPU 0 instructions: 87000000 cycles: 764352425 heartbeat IPC: 0.0670198 cumulative IPC: 0.101422 (Simulation time: 1 hr 23 min 59 sec) 
Heartbeat CPU 0 instructions: 88000000 cycles: 771628823 heartbeat IPC: 0.137431 cumulative IPC: 0.101763 (Simulation time: 1 hr 24 min 5 sec) 
Heartbeat CPU 0 instructions: 89000000 cycles: 779322649 heartbeat IPC: 0.129974 cumulative IPC: 0.102044 (Simulation time: 1 hr 24 min 11 sec) 
Heartbeat CPU 0 instructions: 90000002 cycles: 793051473 heartbeat IPC: 0.0728396 cumulative IPC: 0.101535 (Simulation time: 1 hr 24 min 19 sec) 
Heartbeat CPU 0 instructions: 91000000 cycles: 802671661 heartbeat IPC: 0.103948 cumulative IPC: 0.101564 (Simulation time: 1 hr 24 min 26 sec) 
Heartbeat CPU 0 instructions: 92000000 cycles: 810010530 heartbeat IPC: 0.136261 cumulative IPC: 0.10188 (Simulation time: 1 hr 24 min 32 sec) 
Heartbeat CPU 0 instructions: 93000003 cycles: 821327277 heartbeat IPC: 0.0883649 cumulative IPC: 0.101693 (Simulation time: 1 hr 24 min 41 sec) 
Heartbeat CPU 0 instructions: 94000000 cycles: 833356312 heartbeat IPC: 0.0831319 cumulative IPC: 0.101423 (Simulation time: 1 hr 24 min 50 sec) 
Heartbeat CPU 0 instructions: 95000000 cycles: 840669225 heartbeat IPC: 0.136744 cumulative IPC: 0.101732 (Simulation time: 1 hr 24 min 57 sec) 
Heartbeat CPU 0 instructions: 96000000 cycles: 848501493 heartbeat IPC: 0.127677 cumulative IPC: 0.101973 (Simulation time: 1 hr 25 min 4 sec) 
Heartbeat CPU 0 instructions: 97000003 cycles: 863937633 heartbeat IPC: 0.0647832 cumulative IPC: 0.101305 (Simulation time: 1 hr 25 min 13 sec) 
Heartbeat CPU 0 instructions: 98000002 cycles: 871489251 heartbeat IPC: 0.132422 cumulative IPC: 0.101576 (Simulation time: 1 hr 25 min 20 sec) 
Heartbeat CPU 0 instructions: 99000000 cycles: 879233236 heartbeat IPC: 0.129132 cumulative IPC: 0.10182 (Simulation time: 1 hr 25 min 26 sec) 
Heartbeat CPU 0 instructions: 100000000 cycles: 892844289 heartbeat IPC: 0.0734697 cumulative IPC: 0.101386 (Simulation time: 1 hr 25 min 34 sec) 
Heartbeat CPU 0 instructions: 101000000 cycles: 903123327 heartbeat IPC: 0.0972854 cumulative IPC: 0.101339 (Simulation time: 1 hr 25 min 42 sec) 
Heartbeat CPU 0 instructions: 102000000 cycles: 910855993 heartbeat IPC: 0.129322 cumulative IPC: 0.101578 (Simulation time: 1 hr 25 min 49 sec) 
Heartbeat CPU 0 instructions: 103000001 cycles: 918158538 heartbeat IPC: 0.136939 cumulative IPC: 0.10186 (Simulation time: 1 hr 25 min 56 sec) 
Heartbeat CPU 0 instructions: 104000000 cycles: 933945519 heartbeat IPC: 0.0633433 cumulative IPC: 0.101206 (Simulation time: 1 hr 26 min 6 sec) 
Heartbeat CPU 0 instructions: 105000000 cycles: 942278767 heartbeat IPC: 0.120001 cumulative IPC: 0.101373 (Simulation time: 1 hr 26 min 12 sec) 
Heartbeat CPU 0 instructions: 106000000 cycles: 949891209 heartbeat IPC: 0.131364 cumulative IPC: 0.101615 (Simulation time: 1 hr 26 min 19 sec) 
Heartbeat CPU 0 instructions: 107000000 cycles: 960102047 heartbeat IPC: 0.0979352 cumulative IPC: 0.101575 (Simulation time: 1 hr 26 min 27 sec) 
Heartbeat CPU 0 instructions: 108000000 cycles: 973561559 heartbeat IPC: 0.0742969 cumulative IPC: 0.101196 (Simulation time: 1 hr 26 min 36 sec) 
Heartbeat CPU 0 instructions: 109000000 cycles: 981145869 heartbeat IPC: 0.131851 cumulative IPC: 0.101434 (Simulation time: 1 hr 26 min 43 sec) 
Heartbeat CPU 0 instructions: 110000000 cycles: 989432590 heartbeat IPC: 0.120675 cumulative IPC: 0.101596 (Simulation time: 1 hr 26 min 50 sec) 
Finished CPU 0 instructions: 100000002 cycles: 984287949 cummulative IPC: 0.101596 (Simulation time: 1 hr 26 min 50 sec) 

ChampSim completed all CPUs

Region of Interest Statistics

CPU 0 cummulative IPC: 0.101596 instructions: 100000002 cycles: 984287949
LLC TOTAL     ACCESS:   21080131  HIT:    8427326  MISS:   12652805
LLC LOAD      ACCESS:    9507690  HIT:    5212180  MISS:    4295510
LLC RFO       ACCESS:     164428  HIT:     100933  MISS:      63495
LLC PREFETCH  ACCESS:    9645309  HIT:    2016599  MISS:    7628710
LLC WRITEBACK ACCESS:    1762704  HIT:    1097614  MISS:     665090
