
*** ChampSim Multicore Out-of-Order Simulator ***

Warmup Instructions: 10000000
Simulation Instructions: 100000000
Configuration: 2
Number of CPUs: 1
LLC sets: 2048
LLC ways: 16
Off-chip DRAM Channels: 1 Width: 64-bit Data Rate: 1600 MT/s

CPU 0 runs /datasets/cs240c-wi22-a00-public/data/Assignment2-gz/mcf_250B.trace.gz
CPU 0 L1D next line prefetcher
CPU 0 L2C IP-based stride prefetcher
Heartbeat CPU 0 instructions: 1000000 cycles: 536654 heartbeat IPC: 1.8634 cumulative IPC: 1.8634 (Simulation time: 0 hr 0 min 51 sec) 
Heartbeat CPU 0 instructions: 2000003 cycles: 1051384 heartbeat IPC: 1.94277 cumulative IPC: 1.90226 (Simulation time: 0 hr 1 min 41 sec) 
Heartbeat CPU 0 instructions: 3000002 cycles: 1547713 heartbeat IPC: 2.01479 cumulative IPC: 1.93835 (Simulation time: 0 hr 2 min 32 sec) 
Heartbeat CPU 0 instructions: 4000000 cycles: 2057935 heartbeat IPC: 1.95993 cumulative IPC: 1.9437 (Simulation time: 0 hr 3 min 27 sec) 
Heartbeat CPU 0 instructions: 5000002 cycles: 2563018 heartbeat IPC: 1.97988 cumulative IPC: 1.95083 (Simulation time: 0 hr 4 min 20 sec) 
Heartbeat CPU 0 instructions: 6000002 cycles: 3067223 heartbeat IPC: 1.98332 cumulative IPC: 1.95617 (Simulation time: 0 hr 5 min 11 sec) 
Heartbeat CPU 0 instructions: 7000002 cycles: 3606375 heartbeat IPC: 1.85476 cumulative IPC: 1.94101 (Simulation time: 0 hr 6 min 4 sec) 
Heartbeat CPU 0 instructions: 8000000 cycles: 4120258 heartbeat IPC: 1.94596 cumulative IPC: 1.94163 (Simulation time: 0 hr 7 min 0 sec) 
Heartbeat CPU 0 instructions: 9000002 cycles: 4633481 heartbeat IPC: 1.94847 cumulative IPC: 1.94238 (Simulation time: 0 hr 7 min 52 sec) 
Heartbeat CPU 0 instructions: 10000000 cycles: 5143258 heartbeat IPC: 1.96164 cumulative IPC: 1.94429 (Simulation time: 0 hr 8 min 40 sec) 

Warmup complete CPU 0 instructions: 10000003 cycles: 5143259 (Simulation time: 0 hr 8 min 40 sec) 

Heartbeat CPU 0 instructions: 11000001 cycles: 14389581 heartbeat IPC: 0.108151 cumulative IPC: 0.108151 (Simulation time: 0 hr 9 min 54 sec) 
Heartbeat CPU 0 instructions: 12000000 cycles: 27749975 heartbeat IPC: 0.074848 cumulative IPC: 0.0884692 (Simulation time: 0 hr 11 min 28 sec) 
Heartbeat CPU 0 instructions: 13000001 cycles: 40713869 heartbeat IPC: 0.0771374 cumulative IPC: 0.0843392 (Simulation time: 0 hr 12 min 50 sec) 
Heartbeat CPU 0 instructions: 14000003 cycles: 50125402 heartbeat IPC: 0.106253 cumulative IPC: 0.0889242 (Simulation time: 0 hr 14 min 1 sec) 
Heartbeat CPU 0 instructions: 15000002 cycles: 59584112 heartbeat IPC: 0.105723 cumulative IPC: 0.0918428 (Simulation time: 0 hr 15 min 19 sec) 
Heartbeat CPU 0 instructions: 16000000 cycles: 68389367 heartbeat IPC: 0.113568 cumulative IPC: 0.0948675 (Simulation time: 0 hr 16 min 36 sec) 
Heartbeat CPU 0 instructions: 17000000 cycles: 77558586 heartbeat IPC: 0.109061 cumulative IPC: 0.0966646 (Simulation time: 0 hr 17 min 54 sec) 
Heartbeat CPU 0 instructions: 18000002 cycles: 86061670 heartbeat IPC: 0.117605 cumulative IPC: 0.098865 (Simulation time: 0 hr 19 min 7 sec) 
Heartbeat CPU 0 instructions: 19000000 cycles: 94939258 heartbeat IPC: 0.112643 cumulative IPC: 0.100227 (Simulation time: 0 hr 20 min 26 sec) 
Heartbeat CPU 0 instructions: 20000000 cycles: 103800078 heartbeat IPC: 0.112856 cumulative IPC: 0.101361 (Simulation time: 0 hr 21 min 42 sec) 
Heartbeat CPU 0 instructions: 21000000 cycles: 112447923 heartbeat IPC: 0.115636 cumulative IPC: 0.102512 (Simulation time: 0 hr 22 min 52 sec) 
Heartbeat CPU 0 instructions: 22000000 cycles: 120860082 heartbeat IPC: 0.118876 cumulative IPC: 0.103701 (Simulation time: 0 hr 24 min 2 sec) 
Heartbeat CPU 0 instructions: 23000003 cycles: 129750978 heartbeat IPC: 0.112475 cumulative IPC: 0.104327 (Simulation time: 0 hr 25 min 14 sec) 
Heartbeat CPU 0 instructions: 24000000 cycles: 138408816 heartbeat IPC: 0.115502 cumulative IPC: 0.105053 (Simulation time: 0 hr 26 min 30 sec) 
Heartbeat CPU 0 instructions: 25000002 cycles: 147458900 heartbeat IPC: 0.110496 cumulative IPC: 0.1054 (Simulation time: 0 hr 27 min 42 sec) 
Heartbeat CPU 0 instructions: 26000000 cycles: 156605690 heartbeat IPC: 0.109328 cumulative IPC: 0.105637 (Simulation time: 0 hr 28 min 58 sec) 
Heartbeat CPU 0 instructions: 27000003 cycles: 165741904 heartbeat IPC: 0.109455 cumulative IPC: 0.105854 (Simulation time: 0 hr 30 min 13 sec) 
Heartbeat CPU 0 instructions: 28000000 cycles: 175084730 heartbeat IPC: 0.107034 cumulative IPC: 0.105919 (Simulation time: 0 hr 31 min 30 sec) 
Heartbeat CPU 0 instructions: 29000000 cycles: 184565017 heartbeat IPC: 0.105482 cumulative IPC: 0.105896 (Simulation time: 0 hr 32 min 49 sec) 
Heartbeat CPU 0 instructions: 30000001 cycles: 193686539 heartbeat IPC: 0.109631 cumulative IPC: 0.106076 (Simulation time: 0 hr 34 min 5 sec) 
Heartbeat CPU 0 instructions: 31000000 cycles: 202804034 heartbeat IPC: 0.109679 cumulative IPC: 0.106243 (Simulation time: 0 hr 35 min 22 sec) 
Heartbeat CPU 0 instructions: 32000000 cycles: 211677740 heartbeat IPC: 0.112692 cumulative IPC: 0.10652 (Simulation time: 0 hr 36 min 37 sec) 
Heartbeat CPU 0 instructions: 33000000 cycles: 220887788 heartbeat IPC: 0.108577 cumulative IPC: 0.106608 (Simulation time: 0 hr 37 min 55 sec) 
Heartbeat CPU 0 instructions: 34000000 cycles: 230091735 heartbeat IPC: 0.108649 cumulative IPC: 0.106691 (Simulation time: 0 hr 39 min 10 sec) 
Heartbeat CPU 0 instructions: 35000001 cycles: 241163989 heartbeat IPC: 0.0903159 cumulative IPC: 0.105923 (Simulation time: 0 hr 40 min 31 sec) 
Heartbeat CPU 0 instructions: 36000000 cycles: 254682718 heartbeat IPC: 0.0739714 cumulative IPC: 0.104192 (Simulation time: 0 hr 42 min 7 sec) 
Heartbeat CPU 0 instructions: 37000002 cycles: 264282068 heartbeat IPC: 0.104174 cumulative IPC: 0.104191 (Simulation time: 0 hr 43 min 30 sec) 
Heartbeat CPU 0 instructions: 38000000 cycles: 273584046 heartbeat IPC: 0.107504 cumulative IPC: 0.104306 (Simulation time: 0 hr 44 min 45 sec) 
Heartbeat CPU 0 instructions: 39000000 cycles: 282769343 heartbeat IPC: 0.10887 cumulative IPC: 0.104457 (Simulation time: 0 hr 46 min 5 sec) 
Heartbeat CPU 0 instructions: 40000000 cycles: 291841900 heartbeat IPC: 0.110223 cumulative IPC: 0.104639 (Simulation time: 0 hr 47 min 27 sec) 
Heartbeat CPU 0 instructions: 41000000 cycles: 301073769 heartbeat IPC: 0.10832 cumulative IPC: 0.104754 (Simulation time: 0 hr 48 min 49 sec) 
Heartbeat CPU 0 instructions: 42000000 cycles: 310214618 heartbeat IPC: 0.109399 cumulative IPC: 0.104893 (Simulation time: 0 hr 50 min 7 sec) 
Heartbeat CPU 0 instructions: 43000000 cycles: 319159799 heartbeat IPC: 0.111792 cumulative IPC: 0.10509 (Simulation time: 0 hr 51 min 24 sec) 
Heartbeat CPU 0 instructions: 44000000 cycles: 328299734 heartbeat IPC: 0.10941 cumulative IPC: 0.105212 (Simulation time: 0 hr 52 min 43 sec) 
Heartbeat CPU 0 instructions: 45000001 cycles: 337335512 heartbeat IPC: 0.110671 cumulative IPC: 0.105361 (Simulation time: 0 hr 53 min 59 sec) 
Heartbeat CPU 0 instructions: 46000000 cycles: 346583011 heartbeat IPC: 0.108137 cumulative IPC: 0.105436 (Simulation time: 0 hr 55 min 15 sec) 
Heartbeat CPU 0 instructions: 47000002 cycles: 355730001 heartbeat IPC: 0.109326 cumulative IPC: 0.105537 (Simulation time: 0 hr 56 min 32 sec) 
Heartbeat CPU 0 instructions: 48000000 cycles: 364754711 heartbeat IPC: 0.110807 cumulative IPC: 0.10567 (Simulation time: 0 hr 57 min 52 sec) 
Heartbeat CPU 0 instructions: 49000000 cycles: 374122887 heartbeat IPC: 0.106744 cumulative IPC: 0.105697 (Simulation time: 0 hr 59 min 7 sec) 
Heartbeat CPU 0 instructions: 50000002 cycles: 383420666 heartbeat IPC: 0.107553 cumulative IPC: 0.105742 (Simulation time: 1 hr 0 min 22 sec) 
Heartbeat CPU 0 instructions: 51000002 cycles: 392555191 heartbeat IPC: 0.109475 cumulative IPC: 0.10583 (Simulation time: 1 hr 1 min 39 sec) 
Heartbeat CPU 0 instructions: 52000000 cycles: 401731742 heartbeat IPC: 0.108973 cumulative IPC: 0.105903 (Simulation time: 1 hr 2 min 59 sec) 
Heartbeat CPU 0 instructions: 53000000 cycles: 410874397 heartbeat IPC: 0.109377 cumulative IPC: 0.105982 (Simulation time: 1 hr 4 min 16 sec) 
Heartbeat CPU 0 instructions: 54000000 cycles: 419841305 heartbeat IPC: 0.111521 cumulative IPC: 0.106101 (Simulation time: 1 hr 5 min 31 sec) 
Heartbeat CPU 0 instructions: 55000001 cycles: 428870536 heartbeat IPC: 0.110752 cumulative IPC: 0.1062 (Simulation time: 1 hr 6 min 31 sec) 
Heartbeat CPU 0 instructions: 56000000 cycles: 437914587 heartbeat IPC: 0.11057 cumulative IPC: 0.106292 (Simulation time: 1 hr 7 min 36 sec) 
Heartbeat CPU 0 instructions: 57000000 cycles: 447140938 heartbeat IPC: 0.108385 cumulative IPC: 0.106335 (Simulation time: 1 hr 8 min 39 sec) 
Heartbeat CPU 0 instructions: 58000000 cycles: 456209646 heartbeat IPC: 0.110269 cumulative IPC: 0.106414 (Simulation time: 1 hr 9 min 43 sec) 
Heartbeat CPU 0 instructions: 59000001 cycles: 465345546 heartbeat IPC: 0.109458 cumulative IPC: 0.106475 (Simulation time: 1 hr 10 min 46 sec) 
Heartbeat CPU 0 instructions: 60000000 cycles: 474403333 heartbeat IPC: 0.110402 cumulative IPC: 0.106551 (Simulation time: 1 hr 11 min 40 sec) 
Heartbeat CPU 0 instructions: 61000002 cycles: 483426037 heartbeat IPC: 0.110832 cumulative IPC: 0.106631 (Simulation time: 1 hr 12 min 40 sec) 
Heartbeat CPU 0 instructions: 62000000 cycles: 491128884 heartbeat IPC: 0.129822 cumulative IPC: 0.106999 (Simulation time: 1 hr 13 min 25 sec) 
Heartbeat CPU 0 instructions: 63000001 cycles: 499807605 heartbeat IPC: 0.115224 cumulative IPC: 0.107143 (Simulation time: 1 hr 14 min 12 sec) 
Heartbeat CPU 0 instructions: 64000000 cycles: 508681745 heartbeat IPC: 0.112687 cumulative IPC: 0.107241 (Simulation time: 1 hr 15 min 2 sec) 
Heartbeat CPU 0 instructions: 65000000 cycles: 517213406 heartbeat IPC: 0.11721 cumulative IPC: 0.107407 (Simulation time: 1 hr 15 min 48 sec) 
Heartbeat CPU 0 instructions: 66000000 cycles: 525996214 heartbeat IPC: 0.113859 cumulative IPC: 0.107516 (Simulation time: 1 hr 16 min 33 sec) 
Heartbeat CPU 0 instructions: 67000001 cycles: 534983546 heartbeat IPC: 0.111268 cumulative IPC: 0.10758 (Simulation time: 1 hr 17 min 10 sec) 
Heartbeat CPU 0 instructions: 68000000 cycles: 544113892 heartbeat IPC: 0.109525 cumulative IPC: 0.107613 (Simulation time: 1 hr 17 min 47 sec) 
Heartbeat CPU 0 instructions: 69000000 cycles: 553008340 heartbeat IPC: 0.11243 cumulative IPC: 0.107691 (Simulation time: 1 hr 18 min 22 sec) 
Heartbeat CPU 0 instructions: 70000000 cycles: 561732605 heartbeat IPC: 0.114623 cumulative IPC: 0.107799 (Simulation time: 1 hr 18 min 58 sec) 
Heartbeat CPU 0 instructions: 71000000 cycles: 570444758 heartbeat IPC: 0.114782 cumulative IPC: 0.107907 (Simulation time: 1 hr 19 min 28 sec) 
Heartbeat CPU 0 instructions: 72000000 cycles: 579185726 heartbeat IPC: 0.114404 cumulative IPC: 0.108006 (Simulation time: 1 hr 19 min 57 sec) 
Heartbeat CPU 0 instructions: 73000000 cycles: 588012088 heartbeat IPC: 0.113297 cumulative IPC: 0.108086 (Simulation time: 1 hr 20 min 24 sec) 
Heartbeat CPU 0 instructions: 74000001 cycles: 597075885 heartbeat IPC: 0.110329 cumulative IPC: 0.10812 (Simulation time: 1 hr 20 min 47 sec) 
Heartbeat CPU 0 instructions: 75000002 cycles: 605794072 heartbeat IPC: 0.114703 cumulative IPC: 0.108216 (Simulation time: 1 hr 21 min 9 sec) 
Heartbeat CPU 0 instructions: 76000000 cycles: 614524635 heartbeat IPC: 0.11454 cumulative IPC: 0.108307 (Simulation time: 1 hr 21 min 31 sec) 
Heartbeat CPU 0 instructions: 77000003 cycles: 628457732 heartbeat IPC: 0.0717718 cumulative IPC: 0.10749 (Simulation time: 1 hr 21 min 57 sec) 
Heartbeat CPU 0 instructions: 78000000 cycles: 638746731 heartbeat IPC: 0.0971909 cumulative IPC: 0.107323 (Simulation time: 1 hr 22 min 18 sec) 
Heartbeat CPU 0 instructions: 79000000 cycles: 647701497 heartbeat IPC: 0.111672 cumulative IPC: 0.107383 (Simulation time: 1 hr 22 min 35 sec) 
Heartbeat CPU 0 instructions: 80000000 cycles: 656348894 heartbeat IPC: 0.115642 cumulative IPC: 0.107493 (Simulation time: 1 hr 22 min 49 sec) 
Heartbeat CPU 0 instructions: 81000001 cycles: 664999793 heartbeat IPC: 0.115595 cumulative IPC: 0.107599 (Simulation time: 1 hr 23 min 1 sec) 
Heartbeat CPU 0 instructions: 82000001 cycles: 673205451 heartbeat IPC: 0.121867 cumulative IPC: 0.107774 (Simulation time: 1 hr 23 min 12 sec) 
Heartbeat CPU 0 instructions: 83000002 cycles: 680913016 heartbeat IPC: 0.129743 cumulative IPC: 0.108025 (Simulation time: 1 hr 23 min 22 sec) 
Heartbeat CPU 0 instructions: 84000000 cycles: 688466393 heartbeat IPC: 0.132391 cumulative IPC: 0.108294 (Simulation time: 1 hr 23 min 29 sec) 
Heartbeat CPU 0 instructions: 85000000 cycles: 696369522 heartbeat IPC: 0.126532 cumulative IPC: 0.108503 (Simulation time: 1 hr 23 min 38 sec) 
Heartbeat CPU 0 instructions: 86000001 cycles: 704248247 heartbeat IPC: 0.126924 cumulative IPC: 0.10871 (Simulation time: 1 hr 23 min 46 sec) 
Heartbeat CPU 0 instructions: 87000001 cycles: 717469686 heartbeat IPC: 0.0756347 cumulative IPC: 0.108097 (Simulation time: 1 hr 23 min 55 sec) 
Heartbeat CPU 0 instructions: 88000000 cycles: 727817256 heartbeat IPC: 0.096641 cumulative IPC: 0.107932 (Simulation time: 1 hr 24 min 3 sec) 
Heartbeat CPU 0 instructions: 89000001 cycles: 736124066 heartbeat IPC: 0.120383 cumulative IPC: 0.108074 (Simulation time: 1 hr 24 min 10 sec) 
Heartbeat CPU 0 instructions: 90000001 cycles: 742996321 heartbeat IPC: 0.145513 cumulative IPC: 0.108423 (Simulation time: 1 hr 24 min 16 sec) 
Heartbeat CPU 0 instructions: 91000000 cycles: 753026612 heartbeat IPC: 0.0996979 cumulative IPC: 0.108306 (Simulation time: 1 hr 24 min 24 sec) 
Heartbeat CPU 0 instructions: 92000000 cycles: 762028768 heartbeat IPC: 0.111084 cumulative IPC: 0.108339 (Simulation time: 1 hr 24 min 32 sec) 
Heartbeat CPU 0 instructions: 93000000 cycles: 771535473 heartbeat IPC: 0.105189 cumulative IPC: 0.1083 (Simulation time: 1 hr 24 min 39 sec) 
Heartbeat CPU 0 instructions: 94000000 cycles: 780676256 heartbeat IPC: 0.1094 cumulative IPC: 0.108313 (Simulation time: 1 hr 24 min 46 sec) 
Heartbeat CPU 0 instructions: 95000000 cycles: 789774024 heartbeat IPC: 0.109917 cumulative IPC: 0.108331 (Simulation time: 1 hr 24 min 53 sec) 
Heartbeat CPU 0 instructions: 96000000 cycles: 798909275 heartbeat IPC: 0.109466 cumulative IPC: 0.108344 (Simulation time: 1 hr 24 min 59 sec) 
Heartbeat CPU 0 instructions: 97000000 cycles: 808044537 heartbeat IPC: 0.109466 cumulative IPC: 0.108357 (Simulation time: 1 hr 25 min 6 sec) 
Heartbeat CPU 0 instructions: 98000000 cycles: 817153692 heartbeat IPC: 0.10978 cumulative IPC: 0.108373 (Simulation time: 1 hr 25 min 13 sec) 
Heartbeat CPU 0 instructions: 99000000 cycles: 826186304 heartbeat IPC: 0.11071 cumulative IPC: 0.108399 (Simulation time: 1 hr 25 min 20 sec) 
Heartbeat CPU 0 instructions: 100000000 cycles: 835375912 heartbeat IPC: 0.108819 cumulative IPC: 0.108403 (Simulation time: 1 hr 25 min 27 sec) 
Heartbeat CPU 0 instructions: 101000002 cycles: 844443917 heartbeat IPC: 0.110278 cumulative IPC: 0.108424 (Simulation time: 1 hr 25 min 35 sec) 
Heartbeat CPU 0 instructions: 102000000 cycles: 853607203 heartbeat IPC: 0.109131 cumulative IPC: 0.108431 (Simulation time: 1 hr 25 min 44 sec) 
Heartbeat CPU 0 instructions: 103000000 cycles: 862884550 heartbeat IPC: 0.107789 cumulative IPC: 0.108424 (Simulation time: 1 hr 25 min 51 sec) 
Heartbeat CPU 0 instructions: 104000000 cycles: 872041314 heartbeat IPC: 0.109209 cumulative IPC: 0.108433 (Simulation time: 1 hr 25 min 59 sec) 
Heartbeat CPU 0 instructions: 105000000 cycles: 881391304 heartbeat IPC: 0.106952 cumulative IPC: 0.108417 (Simulation time: 1 hr 26 min 7 sec) 
Heartbeat CPU 0 instructions: 106000002 cycles: 890662127 heartbeat IPC: 0.107866 cumulative IPC: 0.108411 (Simulation time: 1 hr 26 min 15 sec) 
Heartbeat CPU 0 instructions: 107000003 cycles: 899832003 heartbeat IPC: 0.109053 cumulative IPC: 0.108418 (Simulation time: 1 hr 26 min 22 sec) 
Heartbeat CPU 0 instructions: 108000000 cycles: 908987473 heartbeat IPC: 0.109224 cumulative IPC: 0.108426 (Simulation time: 1 hr 26 min 29 sec) 
Heartbeat CPU 0 instructions: 109000000 cycles: 917974260 heartbeat IPC: 0.111274 cumulative IPC: 0.108454 (Simulation time: 1 hr 26 min 35 sec) 
Heartbeat CPU 0 instructions: 110000000 cycles: 927085331 heartbeat IPC: 0.109757 cumulative IPC: 0.108467 (Simulation time: 1 hr 26 min 43 sec) 
Finished CPU 0 instructions: 100000000 cycles: 921942074 cummulative IPC: 0.108467 (Simulation time: 1 hr 26 min 43 sec) 

ChampSim completed all CPUs

Region of Interest Statistics

CPU 0 cummulative IPC: 0.108467 instructions: 100000000 cycles: 921942074
LLC TOTAL     ACCESS:   26977713  HIT:   11437823  MISS:   15539890
LLC LOAD      ACCESS:   11728573  HIT:    8685218  MISS:    3043355
LLC RFO       ACCESS:      27338  HIT:      17579  MISS:       9759
LLC PREFETCH  ACCESS:   14888066  HIT:    2481942  MISS:   12406124
LLC WRITEBACK ACCESS:     333736  HIT:     253084  MISS:      80652
