
*** ChampSim Multicore Out-of-Order Simulator ***

Warmup Instructions: 10000000
Simulation Instructions: 100000000
Configuration: 2
Number of CPUs: 1
LLC sets: 2048
LLC ways: 16
Off-chip DRAM Channels: 1 Width: 64-bit Data Rate: 1600 MT/s

CPU 0 runs /datasets/cs240c-wi22-a00-public/data/Assignment2-gz/gcc_56B.trace.gz
CPU 0 L1D next line prefetcher
CPU 0 L2C IP-based stride prefetcher
Heartbeat CPU 0 instructions: 1000003 cycles: 954147 heartbeat IPC: 1.04806 cumulative IPC: 1.04806 (Simulation time: 0 hr 0 min 50 sec) 
Heartbeat CPU 0 instructions: 2000001 cycles: 1898356 heartbeat IPC: 1.05909 cumulative IPC: 1.05354 (Simulation time: 0 hr 1 min 39 sec) 
Heartbeat CPU 0 instructions: 3000001 cycles: 2885605 heartbeat IPC: 1.01292 cumulative IPC: 1.03964 (Simulation time: 0 hr 2 min 31 sec) 
Heartbeat CPU 0 instructions: 4000000 cycles: 3848223 heartbeat IPC: 1.03883 cumulative IPC: 1.03944 (Simulation time: 0 hr 3 min 21 sec) 
Heartbeat CPU 0 instructions: 5000002 cycles: 4737713 heartbeat IPC: 1.12424 cumulative IPC: 1.05536 (Simulation time: 0 hr 4 min 12 sec) 
Heartbeat CPU 0 instructions: 6000000 cycles: 5685680 heartbeat IPC: 1.05489 cumulative IPC: 1.05528 (Simulation time: 0 hr 5 min 3 sec) 
Heartbeat CPU 0 instructions: 7000000 cycles: 6649935 heartbeat IPC: 1.03707 cumulative IPC: 1.05264 (Simulation time: 0 hr 5 min 53 sec) 
Heartbeat CPU 0 instructions: 8000000 cycles: 7611170 heartbeat IPC: 1.04033 cumulative IPC: 1.05109 (Simulation time: 0 hr 6 min 42 sec) 
Heartbeat CPU 0 instructions: 9000000 cycles: 8622650 heartbeat IPC: 0.98865 cumulative IPC: 1.04376 (Simulation time: 0 hr 7 min 35 sec) 
Heartbeat CPU 0 instructions: 10000002 cycles: 9583169 heartbeat IPC: 1.04111 cumulative IPC: 1.0435 (Simulation time: 0 hr 8 min 24 sec) 

Warmup complete CPU 0 instructions: 10000002 cycles: 9583169 (Simulation time: 0 hr 8 min 24 sec) 

Heartbeat CPU 0 instructions: 11000000 cycles: 10944973 heartbeat IPC: 0.734319 cumulative IPC: 0.734319 (Simulation time: 0 hr 9 min 11 sec) 
Heartbeat CPU 0 instructions: 12000000 cycles: 12382291 heartbeat IPC: 0.69574 cumulative IPC: 0.714509 (Simulation time: 0 hr 9 min 59 sec) 
Heartbeat CPU 0 instructions: 13000001 cycles: 13777398 heartbeat IPC: 0.716792 cumulative IPC: 0.715268 (Simulation time: 0 hr 10 min 49 sec) 
Heartbeat CPU 0 instructions: 14000000 cycles: 15120941 heartbeat IPC: 0.7443 cumulative IPC: 0.722312 (Simulation time: 0 hr 11 min 40 sec) 
Heartbeat CPU 0 instructions: 15000003 cycles: 16507389 heartbeat IPC: 0.72127 cumulative IPC: 0.722103 (Simulation time: 0 hr 12 min 33 sec) 
Heartbeat CPU 0 instructions: 16000000 cycles: 17844232 heartbeat IPC: 0.748029 cumulative IPC: 0.726299 (Simulation time: 0 hr 13 min 28 sec) 
Heartbeat CPU 0 instructions: 17000001 cycles: 19177066 heartbeat IPC: 0.750282 cumulative IPC: 0.72963 (Simulation time: 0 hr 14 min 23 sec) 
Heartbeat CPU 0 instructions: 18000000 cycles: 20578377 heartbeat IPC: 0.713617 cumulative IPC: 0.727589 (Simulation time: 0 hr 15 min 18 sec) 
Heartbeat CPU 0 instructions: 19000000 cycles: 21970647 heartbeat IPC: 0.718251 cumulative IPC: 0.72654 (Simulation time: 0 hr 16 min 9 sec) 
Heartbeat CPU 0 instructions: 20000000 cycles: 23344133 heartbeat IPC: 0.728074 cumulative IPC: 0.726693 (Simulation time: 0 hr 17 min 1 sec) 
Heartbeat CPU 0 instructions: 21000000 cycles: 24700729 heartbeat IPC: 0.737139 cumulative IPC: 0.72763 (Simulation time: 0 hr 17 min 53 sec) 
Heartbeat CPU 0 instructions: 22000000 cycles: 26037420 heartbeat IPC: 0.748116 cumulative IPC: 0.729295 (Simulation time: 0 hr 18 min 50 sec) 
Heartbeat CPU 0 instructions: 23000000 cycles: 27380445 heartbeat IPC: 0.744588 cumulative IPC: 0.730449 (Simulation time: 0 hr 19 min 52 sec) 
Heartbeat CPU 0 instructions: 24000000 cycles: 28752924 heartbeat IPC: 0.728609 cumulative IPC: 0.730317 (Simulation time: 0 hr 20 min 55 sec) 
Heartbeat CPU 0 instructions: 25000000 cycles: 30133862 heartbeat IPC: 0.724145 cumulative IPC: 0.729902 (Simulation time: 0 hr 21 min 57 sec) 
Heartbeat CPU 0 instructions: 26000002 cycles: 31547958 heartbeat IPC: 0.707167 cumulative IPC: 0.728439 (Simulation time: 0 hr 23 min 0 sec) 
Heartbeat CPU 0 instructions: 27000000 cycles: 32941736 heartbeat IPC: 0.717473 cumulative IPC: 0.727784 (Simulation time: 0 hr 24 min 4 sec) 
Heartbeat CPU 0 instructions: 28000000 cycles: 34291283 heartbeat IPC: 0.740989 cumulative IPC: 0.728506 (Simulation time: 0 hr 25 min 6 sec) 
Heartbeat CPU 0 instructions: 29000000 cycles: 35642371 heartbeat IPC: 0.740144 cumulative IPC: 0.729109 (Simulation time: 0 hr 26 min 15 sec) 
Heartbeat CPU 0 instructions: 30000000 cycles: 36998434 heartbeat IPC: 0.737429 cumulative IPC: 0.72952 (Simulation time: 0 hr 27 min 24 sec) 
Heartbeat CPU 0 instructions: 31000000 cycles: 38360168 heartbeat IPC: 0.734358 cumulative IPC: 0.729749 (Simulation time: 0 hr 28 min 23 sec) 
Heartbeat CPU 0 instructions: 32000000 cycles: 39748836 heartbeat IPC: 0.720115 cumulative IPC: 0.729306 (Simulation time: 0 hr 29 min 30 sec) 
Heartbeat CPU 0 instructions: 33000002 cycles: 41166743 heartbeat IPC: 0.705266 cumulative IPC: 0.728227 (Simulation time: 0 hr 30 min 39 sec) 
Heartbeat CPU 0 instructions: 34000002 cycles: 42541819 heartbeat IPC: 0.727233 cumulative IPC: 0.728185 (Simulation time: 0 hr 31 min 38 sec) 
Heartbeat CPU 0 instructions: 35000002 cycles: 43901418 heartbeat IPC: 0.735511 cumulative IPC: 0.728475 (Simulation time: 0 hr 32 min 31 sec) 
Heartbeat CPU 0 instructions: 36000000 cycles: 45244047 heartbeat IPC: 0.744806 cumulative IPC: 0.72909 (Simulation time: 0 hr 33 min 22 sec) 
Heartbeat CPU 0 instructions: 37000000 cycles: 46568497 heartbeat IPC: 0.75503 cumulative IPC: 0.730019 (Simulation time: 0 hr 34 min 13 sec) 
Heartbeat CPU 0 instructions: 38000002 cycles: 47914768 heartbeat IPC: 0.742794 cumulative IPC: 0.730468 (Simulation time: 0 hr 35 min 3 sec) 
Heartbeat CPU 0 instructions: 39000000 cycles: 49328390 heartbeat IPC: 0.707401 cumulative IPC: 0.729647 (Simulation time: 0 hr 35 min 52 sec) 
Heartbeat CPU 0 instructions: 40000000 cycles: 50704294 heartbeat IPC: 0.726795 cumulative IPC: 0.729552 (Simulation time: 0 hr 36 min 39 sec) 
Heartbeat CPU 0 instructions: 41000001 cycles: 52059622 heartbeat IPC: 0.73783 cumulative IPC: 0.729816 (Simulation time: 0 hr 37 min 27 sec) 
Heartbeat CPU 0 instructions: 42000003 cycles: 53404524 heartbeat IPC: 0.74355 cumulative IPC: 0.730238 (Simulation time: 0 hr 38 min 15 sec) 
Heartbeat CPU 0 instructions: 43000001 cycles: 54756660 heartbeat IPC: 0.739569 cumulative IPC: 0.730517 (Simulation time: 0 hr 39 min 8 sec) 
Heartbeat CPU 0 instructions: 44000000 cycles: 56099943 heartbeat IPC: 0.744444 cumulative IPC: 0.730919 (Simulation time: 0 hr 39 min 58 sec) 
Heartbeat CPU 0 instructions: 45000000 cycles: 57484610 heartbeat IPC: 0.722195 cumulative IPC: 0.730667 (Simulation time: 0 hr 40 min 51 sec) 
Heartbeat CPU 0 instructions: 46000000 cycles: 58891709 heartbeat IPC: 0.710682 cumulative IPC: 0.730097 (Simulation time: 0 hr 41 min 42 sec) 
Heartbeat CPU 0 instructions: 47000002 cycles: 60283255 heartbeat IPC: 0.718627 cumulative IPC: 0.729782 (Simulation time: 0 hr 42 min 32 sec) 
Heartbeat CPU 0 instructions: 48000000 cycles: 61645720 heartbeat IPC: 0.733962 cumulative IPC: 0.729891 (Simulation time: 0 hr 43 min 22 sec) 
Heartbeat CPU 0 instructions: 49000002 cycles: 62987358 heartbeat IPC: 0.745359 cumulative IPC: 0.73028 (Simulation time: 0 hr 44 min 13 sec) 
Heartbeat CPU 0 instructions: 50000000 cycles: 64325227 heartbeat IPC: 0.747456 cumulative IPC: 0.7307 (Simulation time: 0 hr 45 min 4 sec) 
Heartbeat CPU 0 instructions: 51000000 cycles: 65697559 heartbeat IPC: 0.728687 cumulative IPC: 0.73065 (Simulation time: 0 hr 45 min 53 sec) 
Heartbeat CPU 0 instructions: 52000000 cycles: 67106294 heartbeat IPC: 0.709857 cumulative IPC: 0.730141 (Simulation time: 0 hr 46 min 41 sec) 
Heartbeat CPU 0 instructions: 53000001 cycles: 68455824 heartbeat IPC: 0.740999 cumulative IPC: 0.73039 (Simulation time: 0 hr 47 min 29 sec) 
Heartbeat CPU 0 instructions: 54000000 cycles: 69787116 heartbeat IPC: 0.751149 cumulative IPC: 0.730849 (Simulation time: 0 hr 48 min 19 sec) 
Heartbeat CPU 0 instructions: 55000001 cycles: 71109814 heartbeat IPC: 0.756031 cumulative IPC: 0.73139 (Simulation time: 0 hr 49 min 9 sec) 
Heartbeat CPU 0 instructions: 56000000 cycles: 72447880 heartbeat IPC: 0.747347 cumulative IPC: 0.73173 (Simulation time: 0 hr 49 min 59 sec) 
Heartbeat CPU 0 instructions: 57000001 cycles: 73799084 heartbeat IPC: 0.740081 cumulative IPC: 0.731906 (Simulation time: 0 hr 50 min 50 sec) 
Heartbeat CPU 0 instructions: 58000000 cycles: 75194379 heartbeat IPC: 0.716694 cumulative IPC: 0.731582 (Simulation time: 0 hr 51 min 40 sec) 
Heartbeat CPU 0 instructions: 59000000 cycles: 76608402 heartbeat IPC: 0.707202 cumulative IPC: 0.731068 (Simulation time: 0 hr 52 min 29 sec) 
Heartbeat CPU 0 instructions: 60000000 cycles: 78001432 heartbeat IPC: 0.71786 cumulative IPC: 0.730799 (Simulation time: 0 hr 53 min 21 sec) 
Heartbeat CPU 0 instructions: 61000000 cycles: 79347755 heartbeat IPC: 0.742764 cumulative IPC: 0.73103 (Simulation time: 0 hr 54 min 14 sec) 
Heartbeat CPU 0 instructions: 62000002 cycles: 80728432 heartbeat IPC: 0.724284 cumulative IPC: 0.730899 (Simulation time: 0 hr 55 min 6 sec) 
Heartbeat CPU 0 instructions: 63000003 cycles: 82061833 heartbeat IPC: 0.749963 cumulative IPC: 0.73125 (Simulation time: 0 hr 56 min 0 sec) 
Heartbeat CPU 0 instructions: 64000000 cycles: 83400398 heartbeat IPC: 0.747066 cumulative IPC: 0.731537 (Simulation time: 0 hr 56 min 51 sec) 
Heartbeat CPU 0 instructions: 65000000 cycles: 84765526 heartbeat IPC: 0.732532 cumulative IPC: 0.731555 (Simulation time: 0 hr 57 min 40 sec) 
Heartbeat CPU 0 instructions: 66000002 cycles: 86173112 heartbeat IPC: 0.710438 cumulative IPC: 0.731166 (Simulation time: 0 hr 58 min 32 sec) 
Heartbeat CPU 0 instructions: 67000002 cycles: 87577106 heartbeat IPC: 0.712254 cumulative IPC: 0.730826 (Simulation time: 0 hr 59 min 22 sec) 
Heartbeat CPU 0 instructions: 68000000 cycles: 88949599 heartbeat IPC: 0.7286 cumulative IPC: 0.730788 (Simulation time: 1 hr 0 min 11 sec) 
Heartbeat CPU 0 instructions: 69000000 cycles: 90295943 heartbeat IPC: 0.742752 cumulative IPC: 0.730987 (Simulation time: 1 hr 1 min 3 sec) 
Heartbeat CPU 0 instructions: 70000000 cycles: 91640818 heartbeat IPC: 0.743564 cumulative IPC: 0.731193 (Simulation time: 1 hr 1 min 56 sec) 
Heartbeat CPU 0 instructions: 71000003 cycles: 92997615 heartbeat IPC: 0.737032 cumulative IPC: 0.731288 (Simulation time: 1 hr 2 min 47 sec) 
Heartbeat CPU 0 instructions: 72000000 cycles: 94354226 heartbeat IPC: 0.737129 cumulative IPC: 0.731382 (Simulation time: 1 hr 3 min 37 sec) 
Heartbeat CPU 0 instructions: 73000003 cycles: 95739360 heartbeat IPC: 0.721954 cumulative IPC: 0.73123 (Simulation time: 1 hr 4 min 23 sec) 
Heartbeat CPU 0 instructions: 74000001 cycles: 97153312 heartbeat IPC: 0.707236 cumulative IPC: 0.730843 (Simulation time: 1 hr 5 min 8 sec) 
Heartbeat CPU 0 instructions: 75000003 cycles: 98544506 heartbeat IPC: 0.718808 cumulative IPC: 0.730654 (Simulation time: 1 hr 5 min 55 sec) 
Heartbeat CPU 0 instructions: 76000000 cycles: 99905193 heartbeat IPC: 0.734921 cumulative IPC: 0.730719 (Simulation time: 1 hr 6 min 40 sec) 
Heartbeat CPU 0 instructions: 77000003 cycles: 101257893 heartbeat IPC: 0.739264 cumulative IPC: 0.730845 (Simulation time: 1 hr 7 min 28 sec) 
Heartbeat CPU 0 instructions: 78000001 cycles: 102608759 heartbeat IPC: 0.740264 cumulative IPC: 0.730982 (Simulation time: 1 hr 8 min 7 sec) 
Heartbeat CPU 0 instructions: 79000000 cycles: 103980294 heartbeat IPC: 0.729109 cumulative IPC: 0.730954 (Simulation time: 1 hr 8 min 48 sec) 
Heartbeat CPU 0 instructions: 80000000 cycles: 105345895 heartbeat IPC: 0.732278 cumulative IPC: 0.730973 (Simulation time: 1 hr 9 min 30 sec) 
Heartbeat CPU 0 instructions: 81000002 cycles: 106739161 heartbeat IPC: 0.717739 cumulative IPC: 0.730784 (Simulation time: 1 hr 10 min 14 sec) 
Heartbeat CPU 0 instructions: 82000000 cycles: 108126318 heartbeat IPC: 0.720897 cumulative IPC: 0.730644 (Simulation time: 1 hr 10 min 59 sec) 
Heartbeat CPU 0 instructions: 83000003 cycles: 109474559 heartbeat IPC: 0.741709 cumulative IPC: 0.730794 (Simulation time: 1 hr 11 min 40 sec) 
Heartbeat CPU 0 instructions: 84000000 cycles: 110836314 heartbeat IPC: 0.734344 cumulative IPC: 0.730841 (Simulation time: 1 hr 12 min 16 sec) 
Heartbeat CPU 0 instructions: 85000002 cycles: 112166431 heartbeat IPC: 0.751815 cumulative IPC: 0.731113 (Simulation time: 1 hr 12 min 55 sec) 
Heartbeat CPU 0 instructions: 86000003 cycles: 113487458 heartbeat IPC: 0.756988 cumulative IPC: 0.731442 (Simulation time: 1 hr 13 min 30 sec) 
Heartbeat CPU 0 instructions: 87000000 cycles: 114884688 heartbeat IPC: 0.7157 cumulative IPC: 0.731233 (Simulation time: 1 hr 13 min 59 sec) 
Heartbeat CPU 0 instructions: 88000000 cycles: 116251353 heartbeat IPC: 0.731708 cumulative IPC: 0.73124 (Simulation time: 1 hr 14 min 27 sec) 
Heartbeat CPU 0 instructions: 89000000 cycles: 117627705 heartbeat IPC: 0.726558 cumulative IPC: 0.73118 (Simulation time: 1 hr 14 min 55 sec) 
Heartbeat CPU 0 instructions: 90000000 cycles: 118961578 heartbeat IPC: 0.749697 cumulative IPC: 0.731406 (Simulation time: 1 hr 15 min 24 sec) 
Heartbeat CPU 0 instructions: 91000001 cycles: 120284594 heartbeat IPC: 0.75585 cumulative IPC: 0.731698 (Simulation time: 1 hr 15 min 56 sec) 
Heartbeat CPU 0 instructions: 92000000 cycles: 121618677 heartbeat IPC: 0.749578 cumulative IPC: 0.731911 (Simulation time: 1 hr 16 min 22 sec) 
Heartbeat CPU 0 instructions: 93000003 cycles: 123014760 heartbeat IPC: 0.716292 cumulative IPC: 0.731719 (Simulation time: 1 hr 16 min 48 sec) 
Heartbeat CPU 0 instructions: 94000000 cycles: 124373844 heartbeat IPC: 0.735788 cumulative IPC: 0.731767 (Simulation time: 1 hr 17 min 14 sec) 
Heartbeat CPU 0 instructions: 95000000 cycles: 125743597 heartbeat IPC: 0.730059 cumulative IPC: 0.731747 (Simulation time: 1 hr 17 min 41 sec) 
Heartbeat CPU 0 instructions: 96000000 cycles: 127091780 heartbeat IPC: 0.741739 cumulative IPC: 0.731861 (Simulation time: 1 hr 18 min 4 sec) 
Heartbeat CPU 0 instructions: 97000000 cycles: 128415929 heartbeat IPC: 0.755202 cumulative IPC: 0.732121 (Simulation time: 1 hr 18 min 29 sec) 
Heartbeat CPU 0 instructions: 98000003 cycles: 129744414 heartbeat IPC: 0.752739 cumulative IPC: 0.732349 (Simulation time: 1 hr 18 min 52 sec) 
Heartbeat CPU 0 instructions: 99000000 cycles: 131146307 heartbeat IPC: 0.713319 cumulative IPC: 0.73213 (Simulation time: 1 hr 19 min 11 sec) 
Heartbeat CPU 0 instructions: 100000000 cycles: 132505331 heartbeat IPC: 0.735822 cumulative IPC: 0.732171 (Simulation time: 1 hr 19 min 30 sec) 
Heartbeat CPU 0 instructions: 101000000 cycles: 133868614 heartbeat IPC: 0.733523 cumulative IPC: 0.732185 (Simulation time: 1 hr 19 min 49 sec) 
Heartbeat CPU 0 instructions: 102000001 cycles: 135200110 heartbeat IPC: 0.751036 cumulative IPC: 0.732385 (Simulation time: 1 hr 20 min 8 sec) 
Heartbeat CPU 0 instructions: 103000001 cycles: 136516400 heartbeat IPC: 0.759711 cumulative IPC: 0.732669 (Simulation time: 1 hr 20 min 27 sec) 
Heartbeat CPU 0 instructions: 104000000 cycles: 137836565 heartbeat IPC: 0.75748 cumulative IPC: 0.732924 (Simulation time: 1 hr 20 min 43 sec) 
Heartbeat CPU 0 instructions: 105000002 cycles: 139232100 heartbeat IPC: 0.716573 cumulative IPC: 0.732748 (Simulation time: 1 hr 20 min 59 sec) 
Heartbeat CPU 0 instructions: 106000000 cycles: 140652299 heartbeat IPC: 0.704125 cumulative IPC: 0.732438 (Simulation time: 1 hr 21 min 14 sec) 
Heartbeat CPU 0 instructions: 107000002 cycles: 142055795 heartbeat IPC: 0.712508 cumulative IPC: 0.732227 (Simulation time: 1 hr 21 min 30 sec) 
Heartbeat CPU 0 instructions: 108000000 cycles: 143430007 heartbeat IPC: 0.727688 cumulative IPC: 0.73218 (Simulation time: 1 hr 21 min 44 sec) 
Heartbeat CPU 0 instructions: 109000000 cycles: 144784105 heartbeat IPC: 0.738499 cumulative IPC: 0.732243 (Simulation time: 1 hr 21 min 58 sec) 
Heartbeat CPU 0 instructions: 110000000 cycles: 146131112 heartbeat IPC: 0.742387 cumulative IPC: 0.732343 (Simulation time: 1 hr 22 min 11 sec) 
Finished CPU 0 instructions: 100000003 cycles: 136547945 cummulative IPC: 0.732343 (Simulation time: 1 hr 22 min 11 sec) 

ChampSim completed all CPUs

Region of Interest Statistics

CPU 0 cummulative IPC: 0.732343 instructions: 100000003 cycles: 136547945
LLC TOTAL     ACCESS:   21346119  HIT:   21110964  MISS:     235155
LLC LOAD      ACCESS:     165908  HIT:     123239  MISS:      42669
LLC RFO       ACCESS:   10463422  HIT:   10456786  MISS:       6636
LLC PREFETCH  ACCESS:     183301  HIT:      27982  MISS:     155319
LLC WRITEBACK ACCESS:   10533488  HIT:   10502957  MISS:      30531
