
*** ChampSim Multicore Out-of-Order Simulator ***

Warmup Instructions: 10000000
Simulation Instructions: 100000000
Configuration: 2
Number of CPUs: 1
LLC sets: 2048
LLC ways: 16
Off-chip DRAM Channels: 1 Width: 64-bit Data Rate: 1600 MT/s

CPU 0 runs /datasets/cs240c-wi22-a00-public/data/Assignment2-gz/astar_313B.trace.gz
CPU 0 L1D next line prefetcher
CPU 0 L2C IP-based stride prefetcher
Heartbeat CPU 0 instructions: 1000001 cycles: 676287 heartbeat IPC: 1.47866 cumulative IPC: 1.47866 (Simulation time: 0 hr 0 min 49 sec) 
Heartbeat CPU 0 instructions: 2000003 cycles: 1263744 heartbeat IPC: 1.70226 cumulative IPC: 1.5826 (Simulation time: 0 hr 1 min 32 sec) 
Heartbeat CPU 0 instructions: 3000003 cycles: 1938719 heartbeat IPC: 1.48154 cumulative IPC: 1.54742 (Simulation time: 0 hr 2 min 17 sec) 
Heartbeat CPU 0 instructions: 4000000 cycles: 2613561 heartbeat IPC: 1.48182 cumulative IPC: 1.53048 (Simulation time: 0 hr 2 min 56 sec) 
Heartbeat CPU 0 instructions: 5000002 cycles: 3288836 heartbeat IPC: 1.48088 cumulative IPC: 1.5203 (Simulation time: 0 hr 3 min 40 sec) 
Heartbeat CPU 0 instructions: 6000001 cycles: 3875100 heartbeat IPC: 1.70571 cumulative IPC: 1.54835 (Simulation time: 0 hr 4 min 24 sec) 
Heartbeat CPU 0 instructions: 7000001 cycles: 4443626 heartbeat IPC: 1.75893 cumulative IPC: 1.57529 (Simulation time: 0 hr 5 min 11 sec) 
Heartbeat CPU 0 instructions: 8000000 cycles: 4995363 heartbeat IPC: 1.81246 cumulative IPC: 1.60149 (Simulation time: 0 hr 5 min 58 sec) 
Heartbeat CPU 0 instructions: 9000001 cycles: 5556974 heartbeat IPC: 1.78059 cumulative IPC: 1.61959 (Simulation time: 0 hr 6 min 40 sec) 
Heartbeat CPU 0 instructions: 10000002 cycles: 6231788 heartbeat IPC: 1.48189 cumulative IPC: 1.60468 (Simulation time: 0 hr 7 min 26 sec) 

Warmup complete CPU 0 instructions: 10000002 cycles: 6231788 (Simulation time: 0 hr 7 min 26 sec) 

Heartbeat CPU 0 instructions: 11000000 cycles: 12533923 heartbeat IPC: 0.158676 cumulative IPC: 0.158676 (Simulation time: 0 hr 8 min 14 sec) 
Heartbeat CPU 0 instructions: 12000000 cycles: 19248164 heartbeat IPC: 0.148937 cumulative IPC: 0.153652 (Simulation time: 0 hr 9 min 0 sec) 
Heartbeat CPU 0 instructions: 13000003 cycles: 27504896 heartbeat IPC: 0.121114 cumulative IPC: 0.141023 (Simulation time: 0 hr 9 min 55 sec) 
Heartbeat CPU 0 instructions: 14000002 cycles: 33565417 heartbeat IPC: 0.165002 cumulative IPC: 0.14634 (Simulation time: 0 hr 10 min 42 sec) 
Heartbeat CPU 0 instructions: 15000000 cycles: 39906380 heartbeat IPC: 0.157704 cumulative IPC: 0.14848 (Simulation time: 0 hr 11 min 28 sec) 
Heartbeat CPU 0 instructions: 16000000 cycles: 46286736 heartbeat IPC: 0.156731 cumulative IPC: 0.149794 (Simulation time: 0 hr 12 min 15 sec) 
Heartbeat CPU 0 instructions: 17000001 cycles: 52715580 heartbeat IPC: 0.155549 cumulative IPC: 0.15059 (Simulation time: 0 hr 13 min 2 sec) 
Heartbeat CPU 0 instructions: 18000000 cycles: 61550142 heartbeat IPC: 0.113192 cumulative IPC: 0.144617 (Simulation time: 0 hr 13 min 58 sec) 
Heartbeat CPU 0 instructions: 19000000 cycles: 67548318 heartbeat IPC: 0.166717 cumulative IPC: 0.146779 (Simulation time: 0 hr 14 min 46 sec) 
Heartbeat CPU 0 instructions: 20000000 cycles: 73855221 heartbeat IPC: 0.158556 cumulative IPC: 0.147878 (Simulation time: 0 hr 15 min 32 sec) 
Heartbeat CPU 0 instructions: 21000002 cycles: 82392533 heartbeat IPC: 0.117133 cumulative IPC: 0.144431 (Simulation time: 0 hr 16 min 23 sec) 
Heartbeat CPU 0 instructions: 22000002 cycles: 89527261 heartbeat IPC: 0.14016 cumulative IPC: 0.144065 (Simulation time: 0 hr 17 min 16 sec) 
Heartbeat CPU 0 instructions: 23000002 cycles: 95139365 heartbeat IPC: 0.178186 cumulative IPC: 0.146219 (Simulation time: 0 hr 18 min 2 sec) 
Heartbeat CPU 0 instructions: 24000000 cycles: 101384976 heartbeat IPC: 0.160112 cumulative IPC: 0.147131 (Simulation time: 0 hr 18 min 50 sec) 
Heartbeat CPU 0 instructions: 25000001 cycles: 109142988 heartbeat IPC: 0.128899 cumulative IPC: 0.145757 (Simulation time: 0 hr 19 min 44 sec) 
Heartbeat CPU 0 instructions: 26000002 cycles: 115361974 heartbeat IPC: 0.160798 cumulative IPC: 0.146614 (Simulation time: 0 hr 20 min 29 sec) 
Heartbeat CPU 0 instructions: 27000003 cycles: 124527384 heartbeat IPC: 0.109106 cumulative IPC: 0.143708 (Simulation time: 0 hr 21 min 25 sec) 
Heartbeat CPU 0 instructions: 28000000 cycles: 130330454 heartbeat IPC: 0.172322 cumulative IPC: 0.145046 (Simulation time: 0 hr 22 min 11 sec) 
Heartbeat CPU 0 instructions: 29000001 cycles: 138905999 heartbeat IPC: 0.116611 cumulative IPC: 0.143208 (Simulation time: 0 hr 23 min 5 sec) 
Heartbeat CPU 0 instructions: 30000001 cycles: 144698559 heartbeat IPC: 0.172635 cumulative IPC: 0.144439 (Simulation time: 0 hr 23 min 54 sec) 
Heartbeat CPU 0 instructions: 31000002 cycles: 150601441 heartbeat IPC: 0.169409 cumulative IPC: 0.14546 (Simulation time: 0 hr 24 min 42 sec) 
Heartbeat CPU 0 instructions: 32000000 cycles: 156266236 heartbeat IPC: 0.176529 cumulative IPC: 0.146633 (Simulation time: 0 hr 25 min 29 sec) 
Heartbeat CPU 0 instructions: 33000000 cycles: 161980707 heartbeat IPC: 0.174994 cumulative IPC: 0.147674 (Simulation time: 0 hr 26 min 18 sec) 
Heartbeat CPU 0 instructions: 34000000 cycles: 170534011 heartbeat IPC: 0.116914 cumulative IPC: 0.146072 (Simulation time: 0 hr 27 min 14 sec) 
Heartbeat CPU 0 instructions: 35000000 cycles: 176312938 heartbeat IPC: 0.173043 cumulative IPC: 0.146989 (Simulation time: 0 hr 28 min 3 sec) 
Heartbeat CPU 0 instructions: 36000000 cycles: 182439615 heartbeat IPC: 0.163221 cumulative IPC: 0.147553 (Simulation time: 0 hr 28 min 49 sec) 
Heartbeat CPU 0 instructions: 37000002 cycles: 191101140 heartbeat IPC: 0.115453 cumulative IPC: 0.146049 (Simulation time: 0 hr 29 min 43 sec) 
Heartbeat CPU 0 instructions: 38000000 cycles: 196744115 heartbeat IPC: 0.177211 cumulative IPC: 0.146972 (Simulation time: 0 hr 30 min 31 sec) 
Heartbeat CPU 0 instructions: 39000001 cycles: 205370850 heartbeat IPC: 0.115919 cumulative IPC: 0.145627 (Simulation time: 0 hr 31 min 26 sec) 
Heartbeat CPU 0 instructions: 40000000 cycles: 214015804 heartbeat IPC: 0.115674 cumulative IPC: 0.144381 (Simulation time: 0 hr 32 min 24 sec) 
Heartbeat CPU 0 instructions: 41000001 cycles: 219982047 heartbeat IPC: 0.16761 cumulative IPC: 0.145029 (Simulation time: 0 hr 33 min 11 sec) 
Heartbeat CPU 0 instructions: 42000003 cycles: 226862758 heartbeat IPC: 0.145334 cumulative IPC: 0.145039 (Simulation time: 0 hr 34 min 0 sec) 
Heartbeat CPU 0 instructions: 43000002 cycles: 236057079 heartbeat IPC: 0.108763 cumulative IPC: 0.143587 (Simulation time: 0 hr 34 min 54 sec) 
Heartbeat CPU 0 instructions: 44000000 cycles: 241651969 heartbeat IPC: 0.178734 cumulative IPC: 0.144423 (Simulation time: 0 hr 35 min 44 sec) 
Heartbeat CPU 0 instructions: 45000000 cycles: 247727543 heartbeat IPC: 0.164594 cumulative IPC: 0.14493 (Simulation time: 0 hr 36 min 33 sec) 
Heartbeat CPU 0 instructions: 46000002 cycles: 253921632 heartbeat IPC: 0.161445 cumulative IPC: 0.145343 (Simulation time: 0 hr 37 min 21 sec) 
Heartbeat CPU 0 instructions: 47000000 cycles: 260226330 heartbeat IPC: 0.158612 cumulative IPC: 0.145672 (Simulation time: 0 hr 38 min 8 sec) 
Heartbeat CPU 0 instructions: 48000000 cycles: 268623648 heartbeat IPC: 0.119086 cumulative IPC: 0.144822 (Simulation time: 0 hr 39 min 0 sec) 
Heartbeat CPU 0 instructions: 49000000 cycles: 274111601 heartbeat IPC: 0.182217 cumulative IPC: 0.145588 (Simulation time: 0 hr 39 min 45 sec) 
Heartbeat CPU 0 instructions: 50000000 cycles: 279930121 heartbeat IPC: 0.171865 cumulative IPC: 0.146146 (Simulation time: 0 hr 40 min 30 sec) 
Heartbeat CPU 0 instructions: 51000000 cycles: 286580081 heartbeat IPC: 0.150377 cumulative IPC: 0.146247 (Simulation time: 0 hr 41 min 19 sec) 
Heartbeat CPU 0 instructions: 52000000 cycles: 294293243 heartbeat IPC: 0.129649 cumulative IPC: 0.145802 (Simulation time: 0 hr 42 min 10 sec) 
Heartbeat CPU 0 instructions: 53000000 cycles: 300576183 heartbeat IPC: 0.159161 cumulative IPC: 0.146087 (Simulation time: 0 hr 42 min 54 sec) 
Heartbeat CPU 0 instructions: 54000000 cycles: 307976481 heartbeat IPC: 0.13513 cumulative IPC: 0.145819 (Simulation time: 0 hr 43 min 43 sec) 
Heartbeat CPU 0 instructions: 55000001 cycles: 315925151 heartbeat IPC: 0.125807 cumulative IPC: 0.145305 (Simulation time: 0 hr 44 min 35 sec) 
Heartbeat CPU 0 instructions: 56000000 cycles: 325577622 heartbeat IPC: 0.1036 cumulative IPC: 0.144044 (Simulation time: 0 hr 45 min 33 sec) 
Heartbeat CPU 0 instructions: 57000000 cycles: 331322376 heartbeat IPC: 0.174072 cumulative IPC: 0.144575 (Simulation time: 0 hr 46 min 19 sec) 
Heartbeat CPU 0 instructions: 58000001 cycles: 337529866 heartbeat IPC: 0.161096 cumulative IPC: 0.144885 (Simulation time: 0 hr 47 min 6 sec) 
Heartbeat CPU 0 instructions: 59000000 cycles: 345626656 heartbeat IPC: 0.123506 cumulative IPC: 0.144375 (Simulation time: 0 hr 47 min 53 sec) 
Heartbeat CPU 0 instructions: 60000000 cycles: 352735318 heartbeat IPC: 0.140673 cumulative IPC: 0.144299 (Simulation time: 0 hr 48 min 44 sec) 
Heartbeat CPU 0 instructions: 61000001 cycles: 358783072 heartbeat IPC: 0.165351 cumulative IPC: 0.14466 (Simulation time: 0 hr 49 min 30 sec) 
Heartbeat CPU 0 instructions: 62000001 cycles: 364948681 heartbeat IPC: 0.16219 cumulative IPC: 0.144961 (Simulation time: 0 hr 50 min 15 sec) 
Heartbeat CPU 0 instructions: 63000000 cycles: 371165048 heartbeat IPC: 0.160866 cumulative IPC: 0.145232 (Simulation time: 0 hr 51 min 3 sec) 
Heartbeat CPU 0 instructions: 64000000 cycles: 379614207 heartbeat IPC: 0.118355 cumulative IPC: 0.144624 (Simulation time: 0 hr 51 min 53 sec) 
Heartbeat CPU 0 instructions: 65000000 cycles: 386186007 heartbeat IPC: 0.152165 cumulative IPC: 0.144754 (Simulation time: 0 hr 52 min 44 sec) 
Heartbeat CPU 0 instructions: 66000001 cycles: 392439433 heartbeat IPC: 0.159912 cumulative IPC: 0.145 (Simulation time: 0 hr 53 min 33 sec) 
Heartbeat CPU 0 instructions: 67000000 cycles: 398865952 heartbeat IPC: 0.155605 cumulative IPC: 0.145173 (Simulation time: 0 hr 54 min 17 sec) 
Heartbeat CPU 0 instructions: 68000000 cycles: 405630058 heartbeat IPC: 0.147839 cumulative IPC: 0.145218 (Simulation time: 0 hr 55 min 6 sec) 
Heartbeat CPU 0 instructions: 69000000 cycles: 417235200 heartbeat IPC: 0.0861687 cumulative IPC: 0.143551 (Simulation time: 0 hr 56 min 6 sec) 
Heartbeat CPU 0 instructions: 70000000 cycles: 423508640 heartbeat IPC: 0.159402 cumulative IPC: 0.143789 (Simulation time: 0 hr 56 min 49 sec) 
Heartbeat CPU 0 instructions: 71000002 cycles: 430064437 heartbeat IPC: 0.152537 cumulative IPC: 0.143925 (Simulation time: 0 hr 57 min 33 sec) 
Heartbeat CPU 0 instructions: 72000000 cycles: 437014775 heartbeat IPC: 0.143878 cumulative IPC: 0.143924 (Simulation time: 0 hr 58 min 19 sec) 
Heartbeat CPU 0 instructions: 73000003 cycles: 443947511 heartbeat IPC: 0.144244 cumulative IPC: 0.143929 (Simulation time: 0 hr 59 min 5 sec) 
Heartbeat CPU 0 instructions: 74000003 cycles: 452579412 heartbeat IPC: 0.115849 cumulative IPC: 0.143386 (Simulation time: 0 hr 59 min 51 sec) 
Heartbeat CPU 0 instructions: 75000000 cycles: 459357383 heartbeat IPC: 0.147536 cumulative IPC: 0.143448 (Simulation time: 1 hr 0 min 40 sec) 
Heartbeat CPU 0 instructions: 76000000 cycles: 465014931 heartbeat IPC: 0.176755 cumulative IPC: 0.143859 (Simulation time: 1 hr 1 min 21 sec) 
Heartbeat CPU 0 instructions: 77000000 cycles: 470664869 heartbeat IPC: 0.176993 cumulative IPC: 0.144262 (Simulation time: 1 hr 2 min 5 sec) 
Heartbeat CPU 0 instructions: 78000001 cycles: 476503869 heartbeat IPC: 0.171262 cumulative IPC: 0.144597 (Simulation time: 1 hr 2 min 51 sec) 
Heartbeat CPU 0 instructions: 79000000 cycles: 484919384 heartbeat IPC: 0.118828 cumulative IPC: 0.144144 (Simulation time: 1 hr 3 min 40 sec) 
Heartbeat CPU 0 instructions: 80000000 cycles: 490467139 heartbeat IPC: 0.180253 cumulative IPC: 0.144558 (Simulation time: 1 hr 4 min 19 sec) 
Heartbeat CPU 0 instructions: 81000001 cycles: 497659452 heartbeat IPC: 0.139037 cumulative IPC: 0.144477 (Simulation time: 1 hr 5 min 5 sec) 
Heartbeat CPU 0 instructions: 82000001 cycles: 504991242 heartbeat IPC: 0.136392 cumulative IPC: 0.144358 (Simulation time: 1 hr 5 min 53 sec) 
Heartbeat CPU 0 instructions: 83000002 cycles: 510653294 heartbeat IPC: 0.176615 cumulative IPC: 0.14472 (Simulation time: 1 hr 6 min 39 sec) 
Heartbeat CPU 0 instructions: 84000000 cycles: 516618763 heartbeat IPC: 0.167631 cumulative IPC: 0.144988 (Simulation time: 1 hr 7 min 21 sec) 
Heartbeat CPU 0 instructions: 85000000 cycles: 523383902 heartbeat IPC: 0.147817 cumulative IPC: 0.145025 (Simulation time: 1 hr 8 min 0 sec) 
Heartbeat CPU 0 instructions: 86000001 cycles: 531338371 heartbeat IPC: 0.125716 cumulative IPC: 0.144733 (Simulation time: 1 hr 8 min 47 sec) 
Heartbeat CPU 0 instructions: 87000000 cycles: 536894313 heartbeat IPC: 0.179987 cumulative IPC: 0.145102 (Simulation time: 1 hr 9 min 32 sec) 
Heartbeat CPU 0 instructions: 88000000 cycles: 542692687 heartbeat IPC: 0.172462 cumulative IPC: 0.145397 (Simulation time: 1 hr 10 min 13 sec) 
Heartbeat CPU 0 instructions: 89000002 cycles: 548697147 heartbeat IPC: 0.166543 cumulative IPC: 0.145631 (Simulation time: 1 hr 10 min 49 sec) 
Heartbeat CPU 0 instructions: 90000002 cycles: 554659791 heartbeat IPC: 0.167711 cumulative IPC: 0.145871 (Simulation time: 1 hr 11 min 24 sec) 
Heartbeat CPU 0 instructions: 91000001 cycles: 563049758 heartbeat IPC: 0.11919 cumulative IPC: 0.145469 (Simulation time: 1 hr 12 min 3 sec) 
Heartbeat CPU 0 instructions: 92000000 cycles: 569361652 heartbeat IPC: 0.158431 cumulative IPC: 0.145615 (Simulation time: 1 hr 12 min 36 sec) 
Heartbeat CPU 0 instructions: 93000003 cycles: 576257484 heartbeat IPC: 0.145016 cumulative IPC: 0.145607 (Simulation time: 1 hr 13 min 14 sec) 
Heartbeat CPU 0 instructions: 94000000 cycles: 583617126 heartbeat IPC: 0.135876 cumulative IPC: 0.145483 (Simulation time: 1 hr 13 min 45 sec) 
Heartbeat CPU 0 instructions: 95000000 cycles: 590094609 heartbeat IPC: 0.154381 cumulative IPC: 0.145582 (Simulation time: 1 hr 14 min 14 sec) 
Heartbeat CPU 0 instructions: 96000000 cycles: 598958845 heartbeat IPC: 0.112813 cumulative IPC: 0.145092 (Simulation time: 1 hr 14 min 48 sec) 
Heartbeat CPU 0 instructions: 97000000 cycles: 605511023 heartbeat IPC: 0.152621 cumulative IPC: 0.145174 (Simulation time: 1 hr 15 min 20 sec) 
Heartbeat CPU 0 instructions: 98000003 cycles: 612763200 heartbeat IPC: 0.13789 cumulative IPC: 0.145087 (Simulation time: 1 hr 15 min 50 sec) 
Heartbeat CPU 0 instructions: 99000001 cycles: 620460485 heartbeat IPC: 0.129916 cumulative IPC: 0.144897 (Simulation time: 1 hr 16 min 15 sec) 
Heartbeat CPU 0 instructions: 100000000 cycles: 628004746 heartbeat IPC: 0.132551 cumulative IPC: 0.144747 (Simulation time: 1 hr 16 min 45 sec) 
Heartbeat CPU 0 instructions: 101000000 cycles: 636946000 heartbeat IPC: 0.111841 cumulative IPC: 0.144281 (Simulation time: 1 hr 17 min 15 sec) 
Heartbeat CPU 0 instructions: 102000001 cycles: 642953356 heartbeat IPC: 0.166463 cumulative IPC: 0.14449 (Simulation time: 1 hr 17 min 40 sec) 
Heartbeat CPU 0 instructions: 103000000 cycles: 649075366 heartbeat IPC: 0.163345 cumulative IPC: 0.14467 (Simulation time: 1 hr 18 min 3 sec) 
Heartbeat CPU 0 instructions: 104000000 cycles: 654947561 heartbeat IPC: 0.170294 cumulative IPC: 0.144902 (Simulation time: 1 hr 18 min 27 sec) 
Heartbeat CPU 0 instructions: 105000000 cycles: 660219613 heartbeat IPC: 0.189679 cumulative IPC: 0.145263 (Simulation time: 1 hr 18 min 50 sec) 
Heartbeat CPU 0 instructions: 106000000 cycles: 668826888 heartbeat IPC: 0.116181 cumulative IPC: 0.144885 (Simulation time: 1 hr 19 min 13 sec) 
Heartbeat CPU 0 instructions: 107000002 cycles: 675023523 heartbeat IPC: 0.161378 cumulative IPC: 0.145038 (Simulation time: 1 hr 19 min 32 sec) 
Heartbeat CPU 0 instructions: 108000000 cycles: 683747180 heartbeat IPC: 0.114631 cumulative IPC: 0.144646 (Simulation time: 1 hr 19 min 53 sec) 
Heartbeat CPU 0 instructions: 109000003 cycles: 689783250 heartbeat IPC: 0.165671 cumulative IPC: 0.144832 (Simulation time: 1 hr 20 min 13 sec) 
Heartbeat CPU 0 instructions: 110000003 cycles: 695836606 heartbeat IPC: 0.165198 cumulative IPC: 0.145011 (Simulation time: 1 hr 20 min 29 sec) 
Finished CPU 0 instructions: 100000001 cycles: 689604818 cummulative IPC: 0.145011 (Simulation time: 1 hr 20 min 29 sec) 

ChampSim completed all CPUs

Region of Interest Statistics

CPU 0 cummulative IPC: 0.145011 instructions: 100000001 cycles: 689604818
LLC TOTAL     ACCESS:    8750598  HIT:    3040195  MISS:    5710403
LLC LOAD      ACCESS:    1885809  HIT:     652170  MISS:    1233639
LLC RFO       ACCESS:    1828632  HIT:     780446  MISS:    1048186
LLC PREFETCH  ACCESS:    2273357  HIT:      68808  MISS:    2204549
LLC WRITEBACK ACCESS:    2762800  HIT:    1538771  MISS:    1224029
