
*** ChampSim Multicore Out-of-Order Simulator ***

Warmup Instructions: 10000000
Simulation Instructions: 100000000
Configuration: 2
Number of CPUs: 1
LLC sets: 2048
LLC ways: 16
Off-chip DRAM Channels: 1 Width: 64-bit Data Rate: 1600 MT/s

CPU 0 runs /datasets/cs240c-wi22-a00-public/data/Assignment2-gz/libquantum_1735B.trace.gz
CPU 0 L1D next line prefetcher
CPU 0 L2C IP-based stride prefetcher
Heartbeat CPU 0 instructions: 1000001 cycles: 333341 heartbeat IPC: 2.99993 cumulative IPC: 2.99993 (Simulation time: 0 hr 0 min 23 sec) 
Heartbeat CPU 0 instructions: 2000000 cycles: 666674 heartbeat IPC: 3 cumulative IPC: 2.99997 (Simulation time: 0 hr 0 min 47 sec) 
Heartbeat CPU 0 instructions: 3000000 cycles: 989045 heartbeat IPC: 3.10202 cumulative IPC: 3.03323 (Simulation time: 0 hr 1 min 12 sec) 
Heartbeat CPU 0 instructions: 4000000 cycles: 1290770 heartbeat IPC: 3.31428 cumulative IPC: 3.09893 (Simulation time: 0 hr 1 min 39 sec) 
Heartbeat CPU 0 instructions: 5000001 cycles: 1592495 heartbeat IPC: 3.31428 cumulative IPC: 3.13973 (Simulation time: 0 hr 2 min 6 sec) 
Heartbeat CPU 0 instructions: 6000001 cycles: 1894219 heartbeat IPC: 3.31429 cumulative IPC: 3.16753 (Simulation time: 0 hr 2 min 33 sec) 
Heartbeat CPU 0 instructions: 7000002 cycles: 2195942 heartbeat IPC: 3.3143 cumulative IPC: 3.1877 (Simulation time: 0 hr 2 min 58 sec) 
Heartbeat CPU 0 instructions: 8000000 cycles: 2501897 heartbeat IPC: 3.26845 cumulative IPC: 3.19757 (Simulation time: 0 hr 3 min 24 sec) 
Heartbeat CPU 0 instructions: 9000000 cycles: 2835230 heartbeat IPC: 3 cumulative IPC: 3.17435 (Simulation time: 0 hr 3 min 48 sec) 
Heartbeat CPU 0 instructions: 10000002 cycles: 3168564 heartbeat IPC: 3 cumulative IPC: 3.156 (Simulation time: 0 hr 4 min 15 sec) 

Warmup complete CPU 0 instructions: 10000002 cycles: 3168564 (Simulation time: 0 hr 4 min 15 sec) 

Heartbeat CPU 0 instructions: 11000001 cycles: 4602178 heartbeat IPC: 0.697537 cumulative IPC: 0.697537 (Simulation time: 0 hr 4 min 58 sec) 
Heartbeat CPU 0 instructions: 12000000 cycles: 6027434 heartbeat IPC: 0.701628 cumulative IPC: 0.699576 (Simulation time: 0 hr 5 min 40 sec) 
Heartbeat CPU 0 instructions: 13000001 cycles: 7847212 heartbeat IPC: 0.549518 cumulative IPC: 0.641211 (Simulation time: 0 hr 6 min 24 sec) 
Heartbeat CPU 0 instructions: 14000000 cycles: 10339382 heartbeat IPC: 0.401256 cumulative IPC: 0.557816 (Simulation time: 0 hr 7 min 5 sec) 
Heartbeat CPU 0 instructions: 15000000 cycles: 12831439 heartbeat IPC: 0.401275 cumulative IPC: 0.517444 (Simulation time: 0 hr 7 min 46 sec) 
Heartbeat CPU 0 instructions: 16000000 cycles: 15311287 heartbeat IPC: 0.403251 cumulative IPC: 0.494123 (Simulation time: 0 hr 8 min 26 sec) 
Heartbeat CPU 0 instructions: 17000002 cycles: 17807991 heartbeat IPC: 0.400529 cumulative IPC: 0.478161 (Simulation time: 0 hr 9 min 3 sec) 
Heartbeat CPU 0 instructions: 18000001 cycles: 19986045 heartbeat IPC: 0.459125 cumulative IPC: 0.475695 (Simulation time: 0 hr 9 min 44 sec) 
Heartbeat CPU 0 instructions: 19000000 cycles: 21506243 heartbeat IPC: 0.657808 cumulative IPC: 0.490793 (Simulation time: 0 hr 10 min 31 sec) 
Heartbeat CPU 0 instructions: 20000000 cycles: 23008457 heartbeat IPC: 0.665684 cumulative IPC: 0.504035 (Simulation time: 0 hr 11 min 17 sec) 
Heartbeat CPU 0 instructions: 21000001 cycles: 24508087 heartbeat IPC: 0.666832 cumulative IPC: 0.515475 (Simulation time: 0 hr 12 min 4 sec) 
Heartbeat CPU 0 instructions: 22000000 cycles: 26007593 heartbeat IPC: 0.666886 cumulative IPC: 0.525416 (Simulation time: 0 hr 12 min 52 sec) 
Heartbeat CPU 0 instructions: 23000000 cycles: 28208112 heartbeat IPC: 0.454438 cumulative IPC: 0.519179 (Simulation time: 0 hr 13 min 32 sec) 
Heartbeat CPU 0 instructions: 24000000 cycles: 30874696 heartbeat IPC: 0.375012 cumulative IPC: 0.505303 (Simulation time: 0 hr 14 min 12 sec) 
Heartbeat CPU 0 instructions: 25000000 cycles: 33555450 heartbeat IPC: 0.373029 cumulative IPC: 0.493634 (Simulation time: 0 hr 14 min 50 sec) 
Heartbeat CPU 0 instructions: 26000000 cycles: 36222903 heartbeat IPC: 0.374889 cumulative IPC: 0.484051 (Simulation time: 0 hr 15 min 24 sec) 
Heartbeat CPU 0 instructions: 27000001 cycles: 38911047 heartbeat IPC: 0.372004 cumulative IPC: 0.475624 (Simulation time: 0 hr 16 min 0 sec) 
Heartbeat CPU 0 instructions: 28000000 cycles: 40906902 heartbeat IPC: 0.501038 cumulative IPC: 0.476968 (Simulation time: 0 hr 16 min 38 sec) 
Heartbeat CPU 0 instructions: 29000000 cycles: 42370005 heartbeat IPC: 0.683479 cumulative IPC: 0.484676 (Simulation time: 0 hr 17 min 17 sec) 
Heartbeat CPU 0 instructions: 30000001 cycles: 43795838 heartbeat IPC: 0.701345 cumulative IPC: 0.49228 (Simulation time: 0 hr 17 min 57 sec) 
Heartbeat CPU 0 instructions: 31000000 cycles: 45217733 heartbeat IPC: 0.703286 cumulative IPC: 0.499415 (Simulation time: 0 hr 18 min 37 sec) 
Heartbeat CPU 0 instructions: 32000000 cycles: 46639549 heartbeat IPC: 0.703326 cumulative IPC: 0.506085 (Simulation time: 0 hr 19 min 19 sec) 
Heartbeat CPU 0 instructions: 33000002 cycles: 48665137 heartbeat IPC: 0.493685 cumulative IPC: 0.505533 (Simulation time: 0 hr 19 min 55 sec) 
Heartbeat CPU 0 instructions: 34000002 cycles: 50848512 heartbeat IPC: 0.458007 cumulative IPC: 0.503356 (Simulation time: 0 hr 20 min 30 sec) 
Heartbeat CPU 0 instructions: 35000000 cycles: 53021875 heartbeat IPC: 0.460115 cumulative IPC: 0.501471 (Simulation time: 0 hr 21 min 7 sec) 
Heartbeat CPU 0 instructions: 36000000 cycles: 55208872 heartbeat IPC: 0.457248 cumulative IPC: 0.499613 (Simulation time: 0 hr 21 min 42 sec) 
Heartbeat CPU 0 instructions: 37000002 cycles: 57405323 heartbeat IPC: 0.455281 cumulative IPC: 0.497817 (Simulation time: 0 hr 22 min 17 sec) 
Heartbeat CPU 0 instructions: 38000003 cycles: 59129674 heartbeat IPC: 0.579929 cumulative IPC: 0.500347 (Simulation time: 0 hr 22 min 56 sec) 
Heartbeat CPU 0 instructions: 39000000 cycles: 60541080 heartbeat IPC: 0.708511 cumulative IPC: 0.505468 (Simulation time: 0 hr 23 min 37 sec) 
Heartbeat CPU 0 instructions: 40000000 cycles: 61952552 heartbeat IPC: 0.70848 cumulative IPC: 0.510343 (Simulation time: 0 hr 24 min 15 sec) 
Heartbeat CPU 0 instructions: 41000000 cycles: 63364660 heartbeat IPC: 0.708161 cumulative IPC: 0.514984 (Simulation time: 0 hr 24 min 56 sec) 
Heartbeat CPU 0 instructions: 42000001 cycles: 64811269 heartbeat IPC: 0.691272 cumulative IPC: 0.519121 (Simulation time: 0 hr 25 min 37 sec) 
Heartbeat CPU 0 instructions: 43000000 cycles: 66887365 heartbeat IPC: 0.481673 cumulative IPC: 0.5179 (Simulation time: 0 hr 26 min 11 sec) 
Heartbeat CPU 0 instructions: 44000000 cycles: 69058307 heartbeat IPC: 0.46063 cumulative IPC: 0.516014 (Simulation time: 0 hr 26 min 45 sec) 
Heartbeat CPU 0 instructions: 45000001 cycles: 71229407 heartbeat IPC: 0.460596 cumulative IPC: 0.514246 (Simulation time: 0 hr 27 min 22 sec) 
Heartbeat CPU 0 instructions: 46000002 cycles: 73386667 heartbeat IPC: 0.463551 cumulative IPC: 0.512688 (Simulation time: 0 hr 27 min 58 sec) 
Heartbeat CPU 0 instructions: 47000000 cycles: 75558124 heartbeat IPC: 0.460519 cumulative IPC: 0.511123 (Simulation time: 0 hr 28 min 34 sec) 
Heartbeat CPU 0 instructions: 48000000 cycles: 77297631 heartbeat IPC: 0.574876 cumulative IPC: 0.512619 (Simulation time: 0 hr 29 min 13 sec) 
Heartbeat CPU 0 instructions: 49000002 cycles: 78817223 heartbeat IPC: 0.658073 cumulative IPC: 0.515541 (Simulation time: 0 hr 29 min 54 sec) 
Heartbeat CPU 0 instructions: 50000001 cycles: 80336691 heartbeat IPC: 0.658124 cumulative IPC: 0.518349 (Simulation time: 0 hr 30 min 32 sec) 
Heartbeat CPU 0 instructions: 51000000 cycles: 81856932 heartbeat IPC: 0.65779 cumulative IPC: 0.521043 (Simulation time: 0 hr 31 min 10 sec) 
Heartbeat CPU 0 instructions: 52000000 cycles: 83393702 heartbeat IPC: 0.650715 cumulative IPC: 0.523527 (Simulation time: 0 hr 31 min 49 sec) 
Heartbeat CPU 0 instructions: 53000002 cycles: 84906430 heartbeat IPC: 0.661059 cumulative IPC: 0.526072 (Simulation time: 0 hr 32 min 28 sec) 
Heartbeat CPU 0 instructions: 54000001 cycles: 86481956 heartbeat IPC: 0.634708 cumulative IPC: 0.528126 (Simulation time: 0 hr 33 min 8 sec) 
Heartbeat CPU 0 instructions: 55000000 cycles: 88029176 heartbeat IPC: 0.64632 cumulative IPC: 0.530281 (Simulation time: 0 hr 33 min 52 sec) 
Heartbeat CPU 0 instructions: 56000000 cycles: 89559550 heartbeat IPC: 0.653435 cumulative IPC: 0.532463 (Simulation time: 0 hr 34 min 35 sec) 
Heartbeat CPU 0 instructions: 57000000 cycles: 91117879 heartbeat IPC: 0.641713 cumulative IPC: 0.534399 (Simulation time: 0 hr 35 min 11 sec) 
Heartbeat CPU 0 instructions: 58000002 cycles: 92637350 heartbeat IPC: 0.658125 cumulative IPC: 0.5365 (Simulation time: 0 hr 35 min 50 sec) 
Heartbeat CPU 0 instructions: 59000001 cycles: 94156896 heartbeat IPC: 0.658091 cumulative IPC: 0.538531 (Simulation time: 0 hr 36 min 29 sec) 
Heartbeat CPU 0 instructions: 60000000 cycles: 95676361 heartbeat IPC: 0.658126 cumulative IPC: 0.540495 (Simulation time: 0 hr 37 min 9 sec) 
Heartbeat CPU 0 instructions: 61000003 cycles: 97196046 heartbeat IPC: 0.658033 cumulative IPC: 0.542395 (Simulation time: 0 hr 37 min 48 sec) 
Heartbeat CPU 0 instructions: 62000002 cycles: 98715221 heartbeat IPC: 0.658251 cumulative IPC: 0.544237 (Simulation time: 0 hr 38 min 28 sec) 
Heartbeat CPU 0 instructions: 63000001 cycles: 100234021 heartbeat IPC: 0.658414 cumulative IPC: 0.546023 (Simulation time: 0 hr 39 min 8 sec) 
Heartbeat CPU 0 instructions: 64000000 cycles: 101752676 heartbeat IPC: 0.658477 cumulative IPC: 0.547756 (Simulation time: 0 hr 39 min 50 sec) 
Heartbeat CPU 0 instructions: 65000001 cycles: 103271406 heartbeat IPC: 0.658446 cumulative IPC: 0.549435 (Simulation time: 0 hr 40 min 31 sec) 
Heartbeat CPU 0 instructions: 66000000 cycles: 104788777 heartbeat IPC: 0.659034 cumulative IPC: 0.551071 (Simulation time: 0 hr 41 min 14 sec) 
Heartbeat CPU 0 instructions: 67000001 cycles: 106281987 heartbeat IPC: 0.669699 cumulative IPC: 0.552789 (Simulation time: 0 hr 41 min 55 sec) 
Heartbeat CPU 0 instructions: 68000000 cycles: 107774110 heartbeat IPC: 0.670185 cumulative IPC: 0.554464 (Simulation time: 0 hr 42 min 35 sec) 
Heartbeat CPU 0 instructions: 69000002 cycles: 109266257 heartbeat IPC: 0.670177 cumulative IPC: 0.556091 (Simulation time: 0 hr 43 min 16 sec) 
Heartbeat CPU 0 instructions: 70000001 cycles: 110756398 heartbeat IPC: 0.671077 cumulative IPC: 0.557684 (Simulation time: 0 hr 43 min 57 sec) 
Heartbeat CPU 0 instructions: 71000003 cycles: 112284929 heartbeat IPC: 0.654224 cumulative IPC: 0.559036 (Simulation time: 0 hr 44 min 37 sec) 
Heartbeat CPU 0 instructions: 72000000 cycles: 114445072 heartbeat IPC: 0.462931 cumulative IPC: 0.557171 (Simulation time: 0 hr 45 min 15 sec) 
Heartbeat CPU 0 instructions: 73000000 cycles: 116620281 heartbeat IPC: 0.459726 cumulative IPC: 0.555302 (Simulation time: 0 hr 45 min 53 sec) 
Heartbeat CPU 0 instructions: 74000000 cycles: 118781116 heartbeat IPC: 0.462784 cumulative IPC: 0.553573 (Simulation time: 0 hr 46 min 28 sec) 
Heartbeat CPU 0 instructions: 75000000 cycles: 120955809 heartbeat IPC: 0.459835 cumulative IPC: 0.551842 (Simulation time: 0 hr 47 min 7 sec) 
Heartbeat CPU 0 instructions: 76000000 cycles: 123144160 heartbeat IPC: 0.456965 cumulative IPC: 0.550112 (Simulation time: 0 hr 47 min 45 sec) 
Heartbeat CPU 0 instructions: 77000001 cycles: 124770339 heartbeat IPC: 0.614939 cumulative IPC: 0.550979 (Simulation time: 0 hr 48 min 35 sec) 
Heartbeat CPU 0 instructions: 78000000 cycles: 126275489 heartbeat IPC: 0.664385 cumulative IPC: 0.552365 (Simulation time: 0 hr 49 min 17 sec) 
Heartbeat CPU 0 instructions: 79000001 cycles: 127780712 heartbeat IPC: 0.664354 cumulative IPC: 0.553718 (Simulation time: 0 hr 50 min 0 sec) 
Heartbeat CPU 0 instructions: 80000000 cycles: 129284719 heartbeat IPC: 0.66489 cumulative IPC: 0.555044 (Simulation time: 0 hr 50 min 42 sec) 
Heartbeat CPU 0 instructions: 81000002 cycles: 130876520 heartbeat IPC: 0.62822 cumulative IPC: 0.555956 (Simulation time: 0 hr 51 min 23 sec) 
Heartbeat CPU 0 instructions: 82000003 cycles: 133034968 heartbeat IPC: 0.463296 cumulative IPC: 0.554416 (Simulation time: 0 hr 52 min 1 sec) 
Heartbeat CPU 0 instructions: 83000000 cycles: 135218467 heartbeat IPC: 0.457979 cumulative IPC: 0.552821 (Simulation time: 0 hr 52 min 40 sec) 
Heartbeat CPU 0 instructions: 84000000 cycles: 137373593 heartbeat IPC: 0.46401 cumulative IPC: 0.551395 (Simulation time: 0 hr 53 min 22 sec) 
Heartbeat CPU 0 instructions: 85000002 cycles: 139500151 heartbeat IPC: 0.470244 cumulative IPC: 0.550129 (Simulation time: 0 hr 54 min 2 sec) 
Heartbeat CPU 0 instructions: 86000002 cycles: 141685064 heartbeat IPC: 0.457684 cumulative IPC: 0.548671 (Simulation time: 0 hr 54 min 41 sec) 
Heartbeat CPU 0 instructions: 87000002 cycles: 143423708 heartbeat IPC: 0.575161 cumulative IPC: 0.548999 (Simulation time: 0 hr 55 min 31 sec) 
Heartbeat CPU 0 instructions: 88000000 cycles: 145017216 heartbeat IPC: 0.627545 cumulative IPC: 0.549882 (Simulation time: 0 hr 56 min 28 sec) 
Heartbeat CPU 0 instructions: 89000000 cycles: 146603750 heartbeat IPC: 0.630305 cumulative IPC: 0.550771 (Simulation time: 0 hr 57 min 24 sec) 
Heartbeat CPU 0 instructions: 90000000 cycles: 148532222 heartbeat IPC: 0.518545 cumulative IPC: 0.550344 (Simulation time: 0 hr 58 min 13 sec) 
Heartbeat CPU 0 instructions: 91000001 cycles: 151356676 heartbeat IPC: 0.354051 cumulative IPC: 0.546603 (Simulation time: 0 hr 58 min 56 sec) 
Heartbeat CPU 0 instructions: 92000000 cycles: 154211994 heartbeat IPC: 0.350223 cumulative IPC: 0.54289 (Simulation time: 0 hr 59 min 45 sec) 
Heartbeat CPU 0 instructions: 93000001 cycles: 157113232 heartbeat IPC: 0.344681 cumulative IPC: 0.539155 (Simulation time: 1 hr 0 min 35 sec) 
Heartbeat CPU 0 instructions: 94000001 cycles: 159860673 heartbeat IPC: 0.363975 cumulative IPC: 0.536083 (Simulation time: 1 hr 1 min 31 sec) 
Heartbeat CPU 0 instructions: 95000000 cycles: 161567129 heartbeat IPC: 0.586009 cumulative IPC: 0.536621 (Simulation time: 1 hr 2 min 25 sec) 
Heartbeat CPU 0 instructions: 96000000 cycles: 163160156 heartbeat IPC: 0.627736 cumulative IPC: 0.537528 (Simulation time: 1 hr 3 min 20 sec) 
Heartbeat CPU 0 instructions: 97000002 cycles: 164748487 heartbeat IPC: 0.629593 cumulative IPC: 0.538433 (Simulation time: 1 hr 4 min 7 sec) 
Heartbeat CPU 0 instructions: 98000001 cycles: 166949552 heartbeat IPC: 0.454325 cumulative IPC: 0.537303 (Simulation time: 1 hr 4 min 46 sec) 
Heartbeat CPU 0 instructions: 99000003 cycles: 169803857 heartbeat IPC: 0.350349 cumulative IPC: 0.534101 (Simulation time: 1 hr 5 min 24 sec) 
Heartbeat CPU 0 instructions: 100000000 cycles: 172666745 heartbeat IPC: 0.349297 cumulative IPC: 0.530979 (Simulation time: 1 hr 5 min 56 sec) 
Heartbeat CPU 0 instructions: 101000000 cycles: 175588741 heartbeat IPC: 0.342232 cumulative IPC: 0.52778 (Simulation time: 1 hr 6 min 32 sec) 
Heartbeat CPU 0 instructions: 102000000 cycles: 177955433 heartbeat IPC: 0.422531 cumulative IPC: 0.526355 (Simulation time: 1 hr 7 min 13 sec) 
Heartbeat CPU 0 instructions: 103000002 cycles: 179426298 heartbeat IPC: 0.679873 cumulative IPC: 0.527636 (Simulation time: 1 hr 7 min 49 sec) 
Heartbeat CPU 0 instructions: 104000000 cycles: 180897234 heartbeat IPC: 0.679838 cumulative IPC: 0.528896 (Simulation time: 1 hr 8 min 23 sec) 
Heartbeat CPU 0 instructions: 105000000 cycles: 182368115 heartbeat IPC: 0.679865 cumulative IPC: 0.530135 (Simulation time: 1 hr 8 min 58 sec) 
Heartbeat CPU 0 instructions: 106000003 cycles: 183839074 heartbeat IPC: 0.679831 cumulative IPC: 0.531354 (Simulation time: 1 hr 9 min 27 sec) 
Heartbeat CPU 0 instructions: 107000000 cycles: 185981466 heartbeat IPC: 0.466767 cumulative IPC: 0.530597 (Simulation time: 1 hr 9 min 54 sec) 
Heartbeat CPU 0 instructions: 108000000 cycles: 188473245 heartbeat IPC: 0.40132 cumulative IPC: 0.528859 (Simulation time: 1 hr 10 min 19 sec) 
Heartbeat CPU 0 instructions: 109000002 cycles: 190955656 heartbeat IPC: 0.402835 cumulative IPC: 0.527193 (Simulation time: 1 hr 10 min 45 sec) 
Heartbeat CPU 0 instructions: 110000002 cycles: 193435836 heartbeat IPC: 0.403197 cumulative IPC: 0.525576 (Simulation time: 1 hr 11 min 12 sec) 
Finished CPU 0 instructions: 100000000 cycles: 190267272 cummulative IPC: 0.525576 (Simulation time: 1 hr 11 min 12 sec) 

ChampSim completed all CPUs

Region of Interest Statistics

CPU 0 cummulative IPC: 0.525576 instructions: 100000000 cycles: 190267272
LLC TOTAL     ACCESS:    3801551  HIT:     210340  MISS:    3591211
LLC LOAD      ACCESS:     655339  HIT:       8203  MISS:     647136
LLC RFO       ACCESS:         20  HIT:          7  MISS:         13
LLC PREFETCH  ACCESS:    2134087  HIT:      56682  MISS:    2077405
LLC WRITEBACK ACCESS:    1012105  HIT:     145448  MISS:     866657
