
*** ChampSim Multicore Out-of-Order Simulator ***

Warmup Instructions: 10000000
Simulation Instructions: 100000000
Configuration: 2
Number of CPUs: 1
LLC sets: 2048
LLC ways: 16
Off-chip DRAM Channels: 1 Width: 64-bit Data Rate: 1600 MT/s

CPU 0 runs /datasets/cs240c-wi22-a00-public/data/Assignment2-gz/lbm_564B.trace.gz
CPU 0 L1D next line prefetcher
CPU 0 L2C IP-based stride prefetcher
Heartbeat CPU 0 instructions: 1000000 cycles: 390168 heartbeat IPC: 2.563 cumulative IPC: 2.563 (Simulation time: 0 hr 0 min 40 sec) 
Heartbeat CPU 0 instructions: 2000003 cycles: 785204 heartbeat IPC: 2.53142 cumulative IPC: 2.54711 (Simulation time: 0 hr 1 min 17 sec) 
Heartbeat CPU 0 instructions: 3000002 cycles: 1175399 heartbeat IPC: 2.56282 cumulative IPC: 2.55233 (Simulation time: 0 hr 1 min 54 sec) 
Heartbeat CPU 0 instructions: 4000000 cycles: 1565583 heartbeat IPC: 2.56289 cumulative IPC: 2.55496 (Simulation time: 0 hr 2 min 30 sec) 
Heartbeat CPU 0 instructions: 5000000 cycles: 1960698 heartbeat IPC: 2.53091 cumulative IPC: 2.55011 (Simulation time: 0 hr 3 min 4 sec) 
Heartbeat CPU 0 instructions: 6000002 cycles: 2350854 heartbeat IPC: 2.56308 cumulative IPC: 2.55226 (Simulation time: 0 hr 3 min 38 sec) 
Heartbeat CPU 0 instructions: 7000001 cycles: 2741115 heartbeat IPC: 2.56239 cumulative IPC: 2.55371 (Simulation time: 0 hr 4 min 16 sec) 
Heartbeat CPU 0 instructions: 8000000 cycles: 3136121 heartbeat IPC: 2.5316 cumulative IPC: 2.55092 (Simulation time: 0 hr 4 min 51 sec) 
Heartbeat CPU 0 instructions: 9000000 cycles: 3526379 heartbeat IPC: 2.56241 cumulative IPC: 2.55219 (Simulation time: 0 hr 5 min 26 sec) 
Heartbeat CPU 0 instructions: 10000002 cycles: 3916531 heartbeat IPC: 2.56311 cumulative IPC: 2.55328 (Simulation time: 0 hr 6 min 0 sec) 

Warmup complete CPU 0 instructions: 10000002 cycles: 3916531 (Simulation time: 0 hr 6 min 0 sec) 

Heartbeat CPU 0 instructions: 11000000 cycles: 5499826 heartbeat IPC: 0.631593 cumulative IPC: 0.631593 (Simulation time: 0 hr 6 min 42 sec) 
Heartbeat CPU 0 instructions: 12000000 cycles: 7121612 heartbeat IPC: 0.616604 cumulative IPC: 0.624009 (Simulation time: 0 hr 7 min 22 sec) 
Heartbeat CPU 0 instructions: 13000001 cycles: 8653249 heartbeat IPC: 0.652897 cumulative IPC: 0.63335 (Simulation time: 0 hr 8 min 4 sec) 
Heartbeat CPU 0 instructions: 14000001 cycles: 10228359 heartbeat IPC: 0.634876 cumulative IPC: 0.633731 (Simulation time: 0 hr 8 min 46 sec) 
Heartbeat CPU 0 instructions: 15000000 cycles: 11884625 heartbeat IPC: 0.603767 cumulative IPC: 0.627502 (Simulation time: 0 hr 9 min 28 sec) 
Heartbeat CPU 0 instructions: 16000000 cycles: 13439626 heartbeat IPC: 0.643086 cumulative IPC: 0.630047 (Simulation time: 0 hr 10 min 10 sec) 
Heartbeat CPU 0 instructions: 17000000 cycles: 14994390 heartbeat IPC: 0.643184 cumulative IPC: 0.631891 (Simulation time: 0 hr 10 min 49 sec) 
Heartbeat CPU 0 instructions: 18000000 cycles: 16622239 heartbeat IPC: 0.614308 cumulative IPC: 0.629638 (Simulation time: 0 hr 11 min 33 sec) 
Heartbeat CPU 0 instructions: 19000003 cycles: 18126629 heartbeat IPC: 0.664723 cumulative IPC: 0.633353 (Simulation time: 0 hr 12 min 15 sec) 
Heartbeat CPU 0 instructions: 20000000 cycles: 19640601 heartbeat IPC: 0.660512 cumulative IPC: 0.635968 (Simulation time: 0 hr 12 min 58 sec) 
Heartbeat CPU 0 instructions: 21000003 cycles: 21099985 heartbeat IPC: 0.685223 cumulative IPC: 0.640151 (Simulation time: 0 hr 13 min 41 sec) 
Heartbeat CPU 0 instructions: 22000003 cycles: 23051850 heartbeat IPC: 0.512331 cumulative IPC: 0.627113 (Simulation time: 0 hr 14 min 30 sec) 
Heartbeat CPU 0 instructions: 23000001 cycles: 25216850 heartbeat IPC: 0.461893 cumulative IPC: 0.610319 (Simulation time: 0 hr 15 min 23 sec) 
Heartbeat CPU 0 instructions: 24000000 cycles: 32080096 heartbeat IPC: 0.145704 cumulative IPC: 0.497096 (Simulation time: 0 hr 17 min 12 sec) 
Heartbeat CPU 0 instructions: 25000003 cycles: 34741315 heartbeat IPC: 0.375769 cumulative IPC: 0.486621 (Simulation time: 0 hr 18 min 11 sec) 
Heartbeat CPU 0 instructions: 26000002 cycles: 36752640 heartbeat IPC: 0.497184 cumulative IPC: 0.487268 (Simulation time: 0 hr 19 min 5 sec) 
Heartbeat CPU 0 instructions: 27000001 cycles: 38142258 heartbeat IPC: 0.719621 cumulative IPC: 0.496702 (Simulation time: 0 hr 19 min 48 sec) 
Heartbeat CPU 0 instructions: 28000000 cycles: 39589430 heartbeat IPC: 0.691002 cumulative IPC: 0.504585 (Simulation time: 0 hr 20 min 32 sec) 
Heartbeat CPU 0 instructions: 29000003 cycles: 41032235 heartbeat IPC: 0.693096 cumulative IPC: 0.511913 (Simulation time: 0 hr 21 min 15 sec) 
Heartbeat CPU 0 instructions: 30000000 cycles: 42393778 heartbeat IPC: 0.734459 cumulative IPC: 0.519788 (Simulation time: 0 hr 21 min 56 sec) 
Heartbeat CPU 0 instructions: 31000000 cycles: 43694743 heartbeat IPC: 0.76866 cumulative IPC: 0.527927 (Simulation time: 0 hr 22 min 36 sec) 
Heartbeat CPU 0 instructions: 32000000 cycles: 45021416 heartbeat IPC: 0.753765 cumulative IPC: 0.535216 (Simulation time: 0 hr 23 min 15 sec) 
Heartbeat CPU 0 instructions: 33000001 cycles: 46558922 heartbeat IPC: 0.650405 cumulative IPC: 0.539369 (Simulation time: 0 hr 23 min 55 sec) 
Heartbeat CPU 0 instructions: 34000001 cycles: 47862958 heartbeat IPC: 0.76685 cumulative IPC: 0.546119 (Simulation time: 0 hr 24 min 37 sec) 
Heartbeat CPU 0 instructions: 35000002 cycles: 49163030 heartbeat IPC: 0.769189 cumulative IPC: 0.552529 (Simulation time: 0 hr 25 min 20 sec) 
Heartbeat CPU 0 instructions: 36000000 cycles: 50508417 heartbeat IPC: 0.743279 cumulative IPC: 0.558037 (Simulation time: 0 hr 26 min 3 sec) 
Heartbeat CPU 0 instructions: 37000000 cycles: 51971079 heartbeat IPC: 0.683685 cumulative IPC: 0.561861 (Simulation time: 0 hr 26 min 44 sec) 
Heartbeat CPU 0 instructions: 38000003 cycles: 53335536 heartbeat IPC: 0.732894 cumulative IPC: 0.566584 (Simulation time: 0 hr 27 min 24 sec) 
Heartbeat CPU 0 instructions: 39000002 cycles: 54656081 heartbeat IPC: 0.757262 cumulative IPC: 0.571546 (Simulation time: 0 hr 28 min 5 sec) 
Heartbeat CPU 0 instructions: 40000000 cycles: 56142404 heartbeat IPC: 0.6728 cumulative IPC: 0.574428 (Simulation time: 0 hr 28 min 47 sec) 
Heartbeat CPU 0 instructions: 41000000 cycles: 57553394 heartbeat IPC: 0.708722 cumulative IPC: 0.577961 (Simulation time: 0 hr 29 min 30 sec) 
Heartbeat CPU 0 instructions: 42000002 cycles: 58901359 heartbeat IPC: 0.741861 cumulative IPC: 0.581979 (Simulation time: 0 hr 30 min 13 sec) 
Heartbeat CPU 0 instructions: 43000001 cycles: 60293427 heartbeat IPC: 0.718355 cumulative IPC: 0.585346 (Simulation time: 0 hr 30 min 56 sec) 
Heartbeat CPU 0 instructions: 44000000 cycles: 61726588 heartbeat IPC: 0.697758 cumulative IPC: 0.588133 (Simulation time: 0 hr 31 min 41 sec) 
Heartbeat CPU 0 instructions: 45000001 cycles: 63118199 heartbeat IPC: 0.718592 cumulative IPC: 0.5912 (Simulation time: 0 hr 32 min 24 sec) 
Heartbeat CPU 0 instructions: 46000002 cycles: 64463442 heartbeat IPC: 0.743361 cumulative IPC: 0.59458 (Simulation time: 0 hr 33 min 4 sec) 
Heartbeat CPU 0 instructions: 47000001 cycles: 65913649 heartbeat IPC: 0.689556 cumulative IPC: 0.596802 (Simulation time: 0 hr 33 min 45 sec) 
Heartbeat CPU 0 instructions: 48000000 cycles: 67240249 heartbeat IPC: 0.753806 cumulative IPC: 0.600091 (Simulation time: 0 hr 34 min 26 sec) 
Heartbeat CPU 0 instructions: 49000001 cycles: 68540289 heartbeat IPC: 0.769208 cumulative IPC: 0.603493 (Simulation time: 0 hr 35 min 7 sec) 
Heartbeat CPU 0 instructions: 50000001 cycles: 70010573 heartbeat IPC: 0.680141 cumulative IPC: 0.605198 (Simulation time: 0 hr 35 min 49 sec) 
Heartbeat CPU 0 instructions: 51000002 cycles: 71388383 heartbeat IPC: 0.72579 cumulative IPC: 0.607661 (Simulation time: 0 hr 36 min 31 sec) 
Heartbeat CPU 0 instructions: 52000000 cycles: 72738663 heartbeat IPC: 0.740586 cumulative IPC: 0.610269 (Simulation time: 0 hr 37 min 13 sec) 
Heartbeat CPU 0 instructions: 53000001 cycles: 74127102 heartbeat IPC: 0.720234 cumulative IPC: 0.612443 (Simulation time: 0 hr 37 min 56 sec) 
Heartbeat CPU 0 instructions: 54000001 cycles: 75537970 heartbeat IPC: 0.708784 cumulative IPC: 0.614341 (Simulation time: 0 hr 38 min 38 sec) 
Heartbeat CPU 0 instructions: 55000003 cycles: 76914094 heartbeat IPC: 0.72668 cumulative IPC: 0.616459 (Simulation time: 0 hr 39 min 19 sec) 
Heartbeat CPU 0 instructions: 56000000 cycles: 78256374 heartbeat IPC: 0.744999 cumulative IPC: 0.61878 (Simulation time: 0 hr 40 min 2 sec) 
Heartbeat CPU 0 instructions: 57000001 cycles: 79643407 heartbeat IPC: 0.720964 cumulative IPC: 0.620651 (Simulation time: 0 hr 40 min 45 sec) 
Heartbeat CPU 0 instructions: 58000002 cycles: 81082814 heartbeat IPC: 0.694731 cumulative IPC: 0.622033 (Simulation time: 0 hr 41 min 28 sec) 
Heartbeat CPU 0 instructions: 59000001 cycles: 82453733 heartbeat IPC: 0.729437 cumulative IPC: 0.623908 (Simulation time: 0 hr 42 min 12 sec) 
Heartbeat CPU 0 instructions: 60000000 cycles: 83834205 heartbeat IPC: 0.724389 cumulative IPC: 0.625644 (Simulation time: 0 hr 42 min 55 sec) 
Heartbeat CPU 0 instructions: 61000003 cycles: 85278601 heartbeat IPC: 0.692333 cumulative IPC: 0.626828 (Simulation time: 0 hr 43 min 39 sec) 
Heartbeat CPU 0 instructions: 62000003 cycles: 86614367 heartbeat IPC: 0.748634 cumulative IPC: 0.628795 (Simulation time: 0 hr 44 min 22 sec) 
Heartbeat CPU 0 instructions: 63000000 cycles: 88005566 heartbeat IPC: 0.718802 cumulative IPC: 0.630284 (Simulation time: 0 hr 45 min 5 sec) 
Heartbeat CPU 0 instructions: 64000000 cycles: 89438075 heartbeat IPC: 0.698076 cumulative IPC: 0.63142 (Simulation time: 0 hr 45 min 50 sec) 
Heartbeat CPU 0 instructions: 65000003 cycles: 90786878 heartbeat IPC: 0.7414 cumulative IPC: 0.633127 (Simulation time: 0 hr 46 min 33 sec) 
Heartbeat CPU 0 instructions: 66000001 cycles: 92170849 heartbeat IPC: 0.722557 cumulative IPC: 0.63453 (Simulation time: 0 hr 47 min 16 sec) 
Heartbeat CPU 0 instructions: 67000001 cycles: 93642208 heartbeat IPC: 0.679644 cumulative IPC: 0.63527 (Simulation time: 0 hr 48 min 0 sec) 
Heartbeat CPU 0 instructions: 68000000 cycles: 95103831 heartbeat IPC: 0.68417 cumulative IPC: 0.636053 (Simulation time: 0 hr 48 min 44 sec) 
Heartbeat CPU 0 instructions: 69000003 cycles: 96432859 heartbeat IPC: 0.752432 cumulative IPC: 0.637725 (Simulation time: 0 hr 49 min 26 sec) 
Heartbeat CPU 0 instructions: 70000003 cycles: 97877549 heartbeat IPC: 0.69219 cumulative IPC: 0.638563 (Simulation time: 0 hr 50 min 8 sec) 
Heartbeat CPU 0 instructions: 71000000 cycles: 99383167 heartbeat IPC: 0.664177 cumulative IPC: 0.638967 (Simulation time: 0 hr 50 min 52 sec) 
Heartbeat CPU 0 instructions: 72000000 cycles: 100747284 heartbeat IPC: 0.733075 cumulative IPC: 0.640292 (Simulation time: 0 hr 51 min 35 sec) 
Heartbeat CPU 0 instructions: 73000003 cycles: 102154020 heartbeat IPC: 0.710868 cumulative IPC: 0.641303 (Simulation time: 0 hr 52 min 17 sec) 
Heartbeat CPU 0 instructions: 74000002 cycles: 103714941 heartbeat IPC: 0.640647 cumulative IPC: 0.641293 (Simulation time: 0 hr 53 min 6 sec) 
Heartbeat CPU 0 instructions: 75000002 cycles: 105030773 heartbeat IPC: 0.759975 cumulative IPC: 0.642837 (Simulation time: 0 hr 53 min 48 sec) 
Heartbeat CPU 0 instructions: 76000000 cycles: 106466970 heartbeat IPC: 0.696282 cumulative IPC: 0.643586 (Simulation time: 0 hr 54 min 30 sec) 
Heartbeat CPU 0 instructions: 77000001 cycles: 108062644 heartbeat IPC: 0.626695 cumulative IPC: 0.643327 (Simulation time: 0 hr 55 min 14 sec) 
Heartbeat CPU 0 instructions: 78000002 cycles: 109407169 heartbeat IPC: 0.743758 cumulative IPC: 0.644607 (Simulation time: 0 hr 55 min 54 sec) 
Heartbeat CPU 0 instructions: 79000000 cycles: 110816570 heartbeat IPC: 0.70952 cumulative IPC: 0.645463 (Simulation time: 0 hr 56 min 37 sec) 
Heartbeat CPU 0 instructions: 80000000 cycles: 112371891 heartbeat IPC: 0.642954 cumulative IPC: 0.645427 (Simulation time: 0 hr 57 min 25 sec) 
Heartbeat CPU 0 instructions: 81000003 cycles: 113721004 heartbeat IPC: 0.74123 cumulative IPC: 0.646604 (Simulation time: 0 hr 58 min 4 sec) 
Heartbeat CPU 0 instructions: 82000001 cycles: 115169093 heartbeat IPC: 0.690564 cumulative IPC: 0.647176 (Simulation time: 0 hr 58 min 46 sec) 
Heartbeat CPU 0 instructions: 83000001 cycles: 116706840 heartbeat IPC: 0.650302 cumulative IPC: 0.647219 (Simulation time: 0 hr 59 min 28 sec) 
Heartbeat CPU 0 instructions: 84000000 cycles: 118094772 heartbeat IPC: 0.720496 cumulative IPC: 0.648109 (Simulation time: 1 hr 0 min 10 sec) 
Heartbeat CPU 0 instructions: 85000002 cycles: 119492721 heartbeat IPC: 0.715335 cumulative IPC: 0.648923 (Simulation time: 1 hr 0 min 51 sec) 
Heartbeat CPU 0 instructions: 86000001 cycles: 121096579 heartbeat IPC: 0.623496 cumulative IPC: 0.648575 (Simulation time: 1 hr 1 min 36 sec) 
Heartbeat CPU 0 instructions: 87000003 cycles: 122517789 heartbeat IPC: 0.703627 cumulative IPC: 0.649234 (Simulation time: 1 hr 2 min 16 sec) 
Heartbeat CPU 0 instructions: 88000000 cycles: 123849065 heartbeat IPC: 0.751157 cumulative IPC: 0.650366 (Simulation time: 1 hr 3 min 0 sec) 
Heartbeat CPU 0 instructions: 89000003 cycles: 125440725 heartbeat IPC: 0.628277 cumulative IPC: 0.650076 (Simulation time: 1 hr 3 min 46 sec) 
Heartbeat CPU 0 instructions: 90000001 cycles: 126952238 heartbeat IPC: 0.661587 cumulative IPC: 0.650218 (Simulation time: 1 hr 4 min 29 sec) 
Heartbeat CPU 0 instructions: 91000000 cycles: 128253745 heartbeat IPC: 0.768339 cumulative IPC: 0.651454 (Simulation time: 1 hr 5 min 3 sec) 
Heartbeat CPU 0 instructions: 92000000 cycles: 129861846 heartbeat IPC: 0.621852 cumulative IPC: 0.651076 (Simulation time: 1 hr 5 min 38 sec) 
Heartbeat CPU 0 instructions: 93000003 cycles: 131398486 heartbeat IPC: 0.650772 cumulative IPC: 0.651073 (Simulation time: 1 hr 6 min 13 sec) 
Heartbeat CPU 0 instructions: 94000002 cycles: 132706990 heartbeat IPC: 0.764231 cumulative IPC: 0.652222 (Simulation time: 1 hr 6 min 46 sec) 
Heartbeat CPU 0 instructions: 95000001 cycles: 134269061 heartbeat IPC: 0.640175 cumulative IPC: 0.652078 (Simulation time: 1 hr 7 min 29 sec) 
Heartbeat CPU 0 instructions: 96000000 cycles: 135837892 heartbeat IPC: 0.637417 cumulative IPC: 0.651904 (Simulation time: 1 hr 8 min 4 sec) 
Heartbeat CPU 0 instructions: 97000002 cycles: 137181883 heartbeat IPC: 0.744054 cumulative IPC: 0.652833 (Simulation time: 1 hr 8 min 39 sec) 
Heartbeat CPU 0 instructions: 98000000 cycles: 138712246 heartbeat IPC: 0.653438 cumulative IPC: 0.65284 (Simulation time: 1 hr 9 min 15 sec) 
Heartbeat CPU 0 instructions: 99000001 cycles: 140241311 heartbeat IPC: 0.653995 cumulative IPC: 0.652853 (Simulation time: 1 hr 9 min 50 sec) 
Heartbeat CPU 0 instructions: 100000000 cycles: 141592778 heartbeat IPC: 0.739936 cumulative IPC: 0.653708 (Simulation time: 1 hr 10 min 21 sec) 
Heartbeat CPU 0 instructions: 101000002 cycles: 143191393 heartbeat IPC: 0.625543 cumulative IPC: 0.653384 (Simulation time: 1 hr 10 min 55 sec) 
Heartbeat CPU 0 instructions: 102000002 cycles: 144767327 heartbeat IPC: 0.634544 cumulative IPC: 0.653173 (Simulation time: 1 hr 11 min 32 sec) 
Heartbeat CPU 0 instructions: 103000001 cycles: 146105732 heartbeat IPC: 0.747157 cumulative IPC: 0.654058 (Simulation time: 1 hr 11 min 58 sec) 
Heartbeat CPU 0 instructions: 104000000 cycles: 147710081 heartbeat IPC: 0.623305 cumulative IPC: 0.653715 (Simulation time: 1 hr 12 min 28 sec) 
Heartbeat CPU 0 instructions: 105000001 cycles: 149244970 heartbeat IPC: 0.651514 cumulative IPC: 0.653692 (Simulation time: 1 hr 13 min 1 sec) 
Heartbeat CPU 0 instructions: 106000003 cycles: 150598810 heartbeat IPC: 0.738641 cumulative IPC: 0.654476 (Simulation time: 1 hr 13 min 29 sec) 
Heartbeat CPU 0 instructions: 107000001 cycles: 152227493 heartbeat IPC: 0.613992 cumulative IPC: 0.654031 (Simulation time: 1 hr 13 min 56 sec) 
Heartbeat CPU 0 instructions: 108000000 cycles: 153750866 heartbeat IPC: 0.656437 cumulative IPC: 0.654056 (Simulation time: 1 hr 14 min 23 sec) 
Heartbeat CPU 0 instructions: 109000003 cycles: 155110288 heartbeat IPC: 0.735609 cumulative IPC: 0.654789 (Simulation time: 1 hr 14 min 50 sec) 
Heartbeat CPU 0 instructions: 110000001 cycles: 156778148 heartbeat IPC: 0.599569 cumulative IPC: 0.654186 (Simulation time: 1 hr 15 min 17 sec) 
Finished CPU 0 instructions: 100000003 cycles: 152861618 cummulative IPC: 0.654186 (Simulation time: 1 hr 15 min 17 sec) 

ChampSim completed all CPUs

Region of Interest Statistics

CPU 0 cummulative IPC: 0.654186 instructions: 100000003 cycles: 152861618
LLC TOTAL     ACCESS:    6071672  HIT:    1658165  MISS:    4413507
LLC LOAD      ACCESS:     446576  HIT:         87  MISS:     446489
LLC RFO       ACCESS:    2591726  HIT:     500046  MISS:    2091680
LLC PREFETCH  ACCESS:     441406  HIT:          2  MISS:     441404
LLC WRITEBACK ACCESS:    2591964  HIT:    1158030  MISS:    1433934
