
*** ChampSim Multicore Out-of-Order Simulator ***

Warmup Instructions: 10000000
Simulation Instructions: 100000000
Configuration: 2
Number of CPUs: 1
LLC sets: 2048
LLC ways: 16
Off-chip DRAM Channels: 1 Width: 64-bit Data Rate: 1600 MT/s

CPU 0 runs /datasets/cs240c-wi22-a00-public/data/Assignment2-gz/mcf_46B.trace.gz
CPU 0 L1D next line prefetcher
CPU 0 L2C IP-based stride prefetcher
Heartbeat CPU 0 instructions: 1000002 cycles: 492215 heartbeat IPC: 2.03164 cumulative IPC: 2.03164 (Simulation time: 0 hr 0 min 55 sec) 
Heartbeat CPU 0 instructions: 2000002 cycles: 987434 heartbeat IPC: 2.01931 cumulative IPC: 2.02545 (Simulation time: 0 hr 1 min 50 sec) 
Heartbeat CPU 0 instructions: 3000003 cycles: 1515981 heartbeat IPC: 1.89198 cumulative IPC: 1.97892 (Simulation time: 0 hr 2 min 46 sec) 
Heartbeat CPU 0 instructions: 4000000 cycles: 2039744 heartbeat IPC: 1.90925 cumulative IPC: 1.96103 (Simulation time: 0 hr 3 min 41 sec) 
Heartbeat CPU 0 instructions: 5000000 cycles: 2533525 heartbeat IPC: 2.02519 cumulative IPC: 1.97353 (Simulation time: 0 hr 4 min 39 sec) 
Heartbeat CPU 0 instructions: 6000002 cycles: 3036503 heartbeat IPC: 1.98816 cumulative IPC: 1.97596 (Simulation time: 0 hr 5 min 35 sec) 
Heartbeat CPU 0 instructions: 7000001 cycles: 3581356 heartbeat IPC: 1.83536 cumulative IPC: 1.95457 (Simulation time: 0 hr 6 min 32 sec) 
Heartbeat CPU 0 instructions: 8000000 cycles: 4071574 heartbeat IPC: 2.03991 cumulative IPC: 1.96484 (Simulation time: 0 hr 7 min 28 sec) 
Heartbeat CPU 0 instructions: 9000001 cycles: 4554975 heartbeat IPC: 2.06868 cumulative IPC: 1.97586 (Simulation time: 0 hr 8 min 23 sec) 
Heartbeat CPU 0 instructions: 10000001 cycles: 5090550 heartbeat IPC: 1.86715 cumulative IPC: 1.96442 (Simulation time: 0 hr 9 min 26 sec) 

Warmup complete CPU 0 instructions: 10000001 cycles: 5090550 (Simulation time: 0 hr 9 min 26 sec) 

Heartbeat CPU 0 instructions: 11000002 cycles: 16841173 heartbeat IPC: 0.085102 cumulative IPC: 0.085102 (Simulation time: 0 hr 11 min 20 sec) 
Heartbeat CPU 0 instructions: 12000000 cycles: 21632252 heartbeat IPC: 0.208721 cumulative IPC: 0.120906 (Simulation time: 0 hr 12 min 55 sec) 
Heartbeat CPU 0 instructions: 13000000 cycles: 29384659 heartbeat IPC: 0.128992 cumulative IPC: 0.123487 (Simulation time: 0 hr 14 min 53 sec) 
Heartbeat CPU 0 instructions: 14000003 cycles: 43401542 heartbeat IPC: 0.0713428 cumulative IPC: 0.104409 (Simulation time: 0 hr 17 min 11 sec) 
Heartbeat CPU 0 instructions: 15000000 cycles: 48202243 heartbeat IPC: 0.208302 cumulative IPC: 0.115978 (Simulation time: 0 hr 18 min 46 sec) 
Heartbeat CPU 0 instructions: 16000000 cycles: 52677771 heartbeat IPC: 0.223437 cumulative IPC: 0.126084 (Simulation time: 0 hr 20 min 12 sec) 
Heartbeat CPU 0 instructions: 17000002 cycles: 67416422 heartbeat IPC: 0.067849 cumulative IPC: 0.112313 (Simulation time: 0 hr 22 min 23 sec) 
Heartbeat CPU 0 instructions: 18000001 cycles: 73079789 heartbeat IPC: 0.176573 cumulative IPC: 0.117666 (Simulation time: 0 hr 23 min 56 sec) 
Heartbeat CPU 0 instructions: 19000002 cycles: 78127024 heartbeat IPC: 0.198128 cumulative IPC: 0.123226 (Simulation time: 0 hr 25 min 24 sec) 
Heartbeat CPU 0 instructions: 20000000 cycles: 91584535 heartbeat IPC: 0.0743078 cumulative IPC: 0.115615 (Simulation time: 0 hr 27 min 35 sec) 
Heartbeat CPU 0 instructions: 21000002 cycles: 106663329 heartbeat IPC: 0.0663184 cumulative IPC: 0.108297 (Simulation time: 0 hr 29 min 51 sec) 
Heartbeat CPU 0 instructions: 22000002 cycles: 111509299 heartbeat IPC: 0.206357 cumulative IPC: 0.112762 (Simulation time: 0 hr 31 min 21 sec) 
Heartbeat CPU 0 instructions: 23000001 cycles: 116071608 heartbeat IPC: 0.219187 cumulative IPC: 0.117137 (Simulation time: 0 hr 32 min 51 sec) 
Heartbeat CPU 0 instructions: 24000000 cycles: 128779904 heartbeat IPC: 0.0786887 cumulative IPC: 0.113187 (Simulation time: 0 hr 35 min 3 sec) 
Heartbeat CPU 0 instructions: 25000002 cycles: 136539193 heartbeat IPC: 0.128878 cumulative IPC: 0.114113 (Simulation time: 0 hr 36 min 53 sec) 
Heartbeat CPU 0 instructions: 26000001 cycles: 140968275 heartbeat IPC: 0.22578 cumulative IPC: 0.117753 (Simulation time: 0 hr 38 min 29 sec) 
Heartbeat CPU 0 instructions: 27000000 cycles: 150407077 heartbeat IPC: 0.105946 cumulative IPC: 0.116986 (Simulation time: 0 hr 40 min 6 sec) 
Heartbeat CPU 0 instructions: 28000000 cycles: 161534075 heartbeat IPC: 0.0898715 cumulative IPC: 0.115057 (Simulation time: 0 hr 41 min 43 sec) 
Heartbeat CPU 0 instructions: 29000001 cycles: 166387631 heartbeat IPC: 0.206035 cumulative IPC: 0.117795 (Simulation time: 0 hr 42 min 52 sec) 
Heartbeat CPU 0 instructions: 30000000 cycles: 173836553 heartbeat IPC: 0.134247 cumulative IPC: 0.118521 (Simulation time: 0 hr 44 min 6 sec) 
Heartbeat CPU 0 instructions: 31000002 cycles: 187105770 heartbeat IPC: 0.0753625 cumulative IPC: 0.115375 (Simulation time: 0 hr 45 min 43 sec) 
Heartbeat CPU 0 instructions: 32000000 cycles: 191936034 heartbeat IPC: 0.207028 cumulative IPC: 0.117744 (Simulation time: 0 hr 46 min 51 sec) 
Heartbeat CPU 0 instructions: 33000000 cycles: 198314724 heartbeat IPC: 0.156772 cumulative IPC: 0.119033 (Simulation time: 0 hr 48 min 4 sec) 
Heartbeat CPU 0 instructions: 34000000 cycles: 212684470 heartbeat IPC: 0.0695907 cumulative IPC: 0.11561 (Simulation time: 0 hr 49 min 48 sec) 
Heartbeat CPU 0 instructions: 35000000 cycles: 219041330 heartbeat IPC: 0.15731 cumulative IPC: 0.116849 (Simulation time: 0 hr 51 min 5 sec) 
Heartbeat CPU 0 instructions: 36000000 cycles: 225610683 heartbeat IPC: 0.152222 cumulative IPC: 0.117903 (Simulation time: 0 hr 52 min 18 sec) 
Heartbeat CPU 0 instructions: 37000002 cycles: 235439968 heartbeat IPC: 0.101737 cumulative IPC: 0.117213 (Simulation time: 0 hr 53 min 44 sec) 
Heartbeat CPU 0 instructions: 38000000 cycles: 246286287 heartbeat IPC: 0.092197 cumulative IPC: 0.116088 (Simulation time: 0 hr 55 min 15 sec) 
Heartbeat CPU 0 instructions: 39000000 cycles: 250922430 heartbeat IPC: 0.215697 cumulative IPC: 0.117967 (Simulation time: 0 hr 56 min 17 sec) 
Heartbeat CPU 0 instructions: 40000000 cycles: 257153681 heartbeat IPC: 0.160481 cumulative IPC: 0.119018 (Simulation time: 0 hr 57 min 30 sec) 
Heartbeat CPU 0 instructions: 41000000 cycles: 271386718 heartbeat IPC: 0.0702591 cumulative IPC: 0.116412 (Simulation time: 0 hr 59 min 4 sec) 
Heartbeat CPU 0 instructions: 42000001 cycles: 276546897 heartbeat IPC: 0.193792 cumulative IPC: 0.117883 (Simulation time: 1 hr 0 min 10 sec) 
Heartbeat CPU 0 instructions: 43000000 cycles: 281205987 heartbeat IPC: 0.214634 cumulative IPC: 0.119515 (Simulation time: 1 hr 1 min 16 sec) 
Heartbeat CPU 0 instructions: 44000000 cycles: 294184479 heartbeat IPC: 0.0770506 cumulative IPC: 0.117609 (Simulation time: 1 hr 2 min 51 sec) 
Heartbeat CPU 0 instructions: 45000001 cycles: 301776686 heartbeat IPC: 0.131714 cumulative IPC: 0.11797 (Simulation time: 1 hr 4 min 10 sec) 
Heartbeat CPU 0 instructions: 46000001 cycles: 306569562 heartbeat IPC: 0.208643 cumulative IPC: 0.119411 (Simulation time: 1 hr 5 min 14 sec) 
Heartbeat CPU 0 instructions: 47000002 cycles: 316021185 heartbeat IPC: 0.105802 cumulative IPC: 0.118998 (Simulation time: 1 hr 6 min 24 sec) 
Heartbeat CPU 0 instructions: 48000000 cycles: 327259329 heartbeat IPC: 0.0889825 cumulative IPC: 0.117951 (Simulation time: 1 hr 7 min 42 sec) 
Heartbeat CPU 0 instructions: 49000000 cycles: 332293670 heartbeat IPC: 0.198636 cumulative IPC: 0.119192 (Simulation time: 1 hr 8 min 38 sec) 
Heartbeat CPU 0 instructions: 50000000 cycles: 338861848 heartbeat IPC: 0.152249 cumulative IPC: 0.119843 (Simulation time: 1 hr 9 min 35 sec) 
Heartbeat CPU 0 instructions: 51000001 cycles: 352914112 heartbeat IPC: 0.071163 cumulative IPC: 0.117876 (Simulation time: 1 hr 10 min 48 sec) 
Heartbeat CPU 0 instructions: 52000000 cycles: 357961686 heartbeat IPC: 0.198115 cumulative IPC: 0.119024 (Simulation time: 1 hr 11 min 34 sec) 
Heartbeat CPU 0 instructions: 53000000 cycles: 362675213 heartbeat IPC: 0.212155 cumulative IPC: 0.120251 (Simulation time: 1 hr 12 min 19 sec) 
Heartbeat CPU 0 instructions: 54000002 cycles: 377742133 heartbeat IPC: 0.0663707 cumulative IPC: 0.118073 (Simulation time: 1 hr 13 min 21 sec) 
Heartbeat CPU 0 instructions: 55000002 cycles: 383304590 heartbeat IPC: 0.179777 cumulative IPC: 0.11898 (Simulation time: 1 hr 13 min 58 sec) 
Heartbeat CPU 0 instructions: 56000000 cycles: 388239821 heartbeat IPC: 0.202624 cumulative IPC: 0.120058 (Simulation time: 1 hr 14 min 35 sec) 
Heartbeat CPU 0 instructions: 57000000 cycles: 401766009 heartbeat IPC: 0.0739307 cumulative IPC: 0.118485 (Simulation time: 1 hr 15 min 29 sec) 
Heartbeat CPU 0 instructions: 58000000 cycles: 409578805 heartbeat IPC: 0.127995 cumulative IPC: 0.118668 (Simulation time: 1 hr 16 min 9 sec) 
Heartbeat CPU 0 instructions: 59000002 cycles: 414352172 heartbeat IPC: 0.209496 cumulative IPC: 0.119728 (Simulation time: 1 hr 16 min 40 sec) 
Heartbeat CPU 0 instructions: 60000000 cycles: 425928245 heartbeat IPC: 0.0863849 cumulative IPC: 0.118811 (Simulation time: 1 hr 17 min 24 sec) 
Heartbeat CPU 0 instructions: 61000002 cycles: 435500946 heartbeat IPC: 0.104464 cumulative IPC: 0.118492 (Simulation time: 1 hr 18 min 8 sec) 
Heartbeat CPU 0 instructions: 62000001 cycles: 440311829 heartbeat IPC: 0.207862 cumulative IPC: 0.119479 (Simulation time: 1 hr 18 min 39 sec) 
Heartbeat CPU 0 instructions: 63000001 cycles: 450311623 heartbeat IPC: 0.100002 cumulative IPC: 0.119042 (Simulation time: 1 hr 19 min 11 sec) 
Heartbeat CPU 0 instructions: 64000000 cycles: 461524538 heartbeat IPC: 0.0891828 cumulative IPC: 0.118308 (Simulation time: 1 hr 19 min 43 sec) 
Heartbeat CPU 0 instructions: 65000000 cycles: 467056703 heartbeat IPC: 0.180761 cumulative IPC: 0.119056 (Simulation time: 1 hr 20 min 8 sec) 
Heartbeat CPU 0 instructions: 66000000 cycles: 473543512 heartbeat IPC: 0.154159 cumulative IPC: 0.119542 (Simulation time: 1 hr 20 min 31 sec) 
Heartbeat CPU 0 instructions: 67000002 cycles: 488891115 heartbeat IPC: 0.0651569 cumulative IPC: 0.117817 (Simulation time: 1 hr 21 min 1 sec) 
Heartbeat CPU 0 instructions: 68000000 cycles: 493746867 heartbeat IPC: 0.205941 cumulative IPC: 0.118693 (Simulation time: 1 hr 21 min 21 sec) 
Heartbeat CPU 0 instructions: 69000000 cycles: 498329387 heartbeat IPC: 0.218221 cumulative IPC: 0.119618 (Simulation time: 1 hr 21 min 40 sec) 
Heartbeat CPU 0 instructions: 70000001 cycles: 512302586 heartbeat IPC: 0.0715656 cumulative IPC: 0.118294 (Simulation time: 1 hr 22 min 6 sec) 
Heartbeat CPU 0 instructions: 71000002 cycles: 520650170 heartbeat IPC: 0.119795 cumulative IPC: 0.118318 (Simulation time: 1 hr 22 min 24 sec) 
Heartbeat CPU 0 instructions: 72000000 cycles: 525869073 heartbeat IPC: 0.191611 cumulative IPC: 0.119053 (Simulation time: 1 hr 22 min 37 sec) 
Heartbeat CPU 0 instructions: 73000002 cycles: 535119580 heartbeat IPC: 0.108102 cumulative IPC: 0.118861 (Simulation time: 1 hr 22 min 52 sec) 
Heartbeat CPU 0 instructions: 74000001 cycles: 546940373 heartbeat IPC: 0.0845966 cumulative IPC: 0.118114 (Simulation time: 1 hr 23 min 8 sec) 
Heartbeat CPU 0 instructions: 75000001 cycles: 551919185 heartbeat IPC: 0.200851 cumulative IPC: 0.118867 (Simulation time: 1 hr 23 min 17 sec) 
Heartbeat CPU 0 instructions: 76000000 cycles: 558297809 heartbeat IPC: 0.156773 cumulative IPC: 0.119304 (Simulation time: 1 hr 23 min 26 sec) 
Heartbeat CPU 0 instructions: 77000001 cycles: 573690149 heartbeat IPC: 0.0649674 cumulative IPC: 0.117833 (Simulation time: 1 hr 23 min 37 sec) 
Heartbeat CPU 0 instructions: 78000002 cycles: 578821518 heartbeat IPC: 0.19488 cumulative IPC: 0.118522 (Simulation time: 1 hr 23 min 45 sec) 
Heartbeat CPU 0 instructions: 79000001 cycles: 583630422 heartbeat IPC: 0.207947 cumulative IPC: 0.119266 (Simulation time: 1 hr 23 min 52 sec) 
Heartbeat CPU 0 instructions: 80000000 cycles: 596422815 heartbeat IPC: 0.0781714 cumulative IPC: 0.118377 (Simulation time: 1 hr 24 min 2 sec) 
Heartbeat CPU 0 instructions: 81000000 cycles: 603950690 heartbeat IPC: 0.13284 cumulative IPC: 0.118559 (Simulation time: 1 hr 24 min 11 sec) 
Heartbeat CPU 0 instructions: 82000000 cycles: 609171605 heartbeat IPC: 0.191537 cumulative IPC: 0.119189 (Simulation time: 1 hr 24 min 18 sec) 
Heartbeat CPU 0 instructions: 83000001 cycles: 618751554 heartbeat IPC: 0.104385 cumulative IPC: 0.118958 (Simulation time: 1 hr 24 min 27 sec) 
Heartbeat CPU 0 instructions: 84000000 cycles: 630206585 heartbeat IPC: 0.0872978 cumulative IPC: 0.118378 (Simulation time: 1 hr 24 min 36 sec) 
Heartbeat CPU 0 instructions: 85000001 cycles: 635025005 heartbeat IPC: 0.207537 cumulative IPC: 0.11906 (Simulation time: 1 hr 24 min 42 sec) 
Heartbeat CPU 0 instructions: 86000000 cycles: 642789507 heartbeat IPC: 0.128791 cumulative IPC: 0.119178 (Simulation time: 1 hr 24 min 49 sec) 
Heartbeat CPU 0 instructions: 87000000 cycles: 656871982 heartbeat IPC: 0.0710102 cumulative IPC: 0.118138 (Simulation time: 1 hr 24 min 59 sec) 
Heartbeat CPU 0 instructions: 88000000 cycles: 663225470 heartbeat IPC: 0.157394 cumulative IPC: 0.118517 (Simulation time: 1 hr 25 min 6 sec) 
Heartbeat CPU 0 instructions: 89000000 cycles: 668017568 heartbeat IPC: 0.208677 cumulative IPC: 0.119168 (Simulation time: 1 hr 25 min 12 sec) 
Heartbeat CPU 0 instructions: 90000003 cycles: 679744675 heartbeat IPC: 0.0852728 cumulative IPC: 0.118579 (Simulation time: 1 hr 25 min 22 sec) 
Heartbeat CPU 0 instructions: 91000000 cycles: 688808890 heartbeat IPC: 0.110324 cumulative IPC: 0.11847 (Simulation time: 1 hr 25 min 30 sec) 
Heartbeat CPU 0 instructions: 92000000 cycles: 693535575 heartbeat IPC: 0.211565 cumulative IPC: 0.119109 (Simulation time: 1 hr 25 min 36 sec) 
Heartbeat CPU 0 instructions: 93000002 cycles: 702484050 heartbeat IPC: 0.111751 cumulative IPC: 0.119015 (Simulation time: 1 hr 25 min 45 sec) 
Heartbeat CPU 0 instructions: 94000002 cycles: 713889539 heartbeat IPC: 0.0876771 cumulative IPC: 0.11851 (Simulation time: 1 hr 25 min 55 sec) 
Heartbeat CPU 0 instructions: 95000001 cycles: 719944432 heartbeat IPC: 0.165156 cumulative IPC: 0.118905 (Simulation time: 1 hr 26 min 1 sec) 
Heartbeat CPU 0 instructions: 96000000 cycles: 726224618 heartbeat IPC: 0.159231 cumulative IPC: 0.119257 (Simulation time: 1 hr 26 min 8 sec) 
Heartbeat CPU 0 instructions: 97000000 cycles: 741281747 heartbeat IPC: 0.0664137 cumulative IPC: 0.118176 (Simulation time: 1 hr 26 min 18 sec) 
Heartbeat CPU 0 instructions: 98000002 cycles: 746342841 heartbeat IPC: 0.197586 cumulative IPC: 0.118718 (Simulation time: 1 hr 26 min 25 sec) 
Heartbeat CPU 0 instructions: 99000002 cycles: 751488917 heartbeat IPC: 0.194323 cumulative IPC: 0.119239 (Simulation time: 1 hr 26 min 33 sec) 
Heartbeat CPU 0 instructions: 100000000 cycles: 765216625 heartbeat IPC: 0.0728452 cumulative IPC: 0.118401 (Simulation time: 1 hr 26 min 44 sec) 
Heartbeat CPU 0 instructions: 101000000 cycles: 772218522 heartbeat IPC: 0.142818 cumulative IPC: 0.118624 (Simulation time: 1 hr 26 min 52 sec) 
Heartbeat CPU 0 instructions: 102000003 cycles: 776909488 heartbeat IPC: 0.213176 cumulative IPC: 0.119199 (Simulation time: 1 hr 26 min 58 sec) 
Heartbeat CPU 0 instructions: 103000003 cycles: 788698681 heartbeat IPC: 0.0848234 cumulative IPC: 0.118682 (Simulation time: 1 hr 27 min 7 sec) 
Heartbeat CPU 0 instructions: 104000000 cycles: 800252780 heartbeat IPC: 0.0865491 cumulative IPC: 0.118215 (Simulation time: 1 hr 27 min 15 sec) 
Heartbeat CPU 0 instructions: 105000000 cycles: 805613510 heartbeat IPC: 0.186542 cumulative IPC: 0.118672 (Simulation time: 1 hr 27 min 21 sec) 
Heartbeat CPU 0 instructions: 106000000 cycles: 810478960 heartbeat IPC: 0.205531 cumulative IPC: 0.119197 (Simulation time: 1 hr 27 min 27 sec) 
Heartbeat CPU 0 instructions: 107000002 cycles: 825334626 heartbeat IPC: 0.0673145 cumulative IPC: 0.118257 (Simulation time: 1 hr 27 min 36 sec) 
Heartbeat CPU 0 instructions: 108000000 cycles: 830975049 heartbeat IPC: 0.177291 cumulative IPC: 0.118661 (Simulation time: 1 hr 27 min 42 sec) 
Heartbeat CPU 0 instructions: 109000001 cycles: 835926272 heartbeat IPC: 0.201971 cumulative IPC: 0.119157 (Simulation time: 1 hr 27 min 47 sec) 
Heartbeat CPU 0 instructions: 110000002 cycles: 845706591 heartbeat IPC: 0.102246 cumulative IPC: 0.11896 (Simulation time: 1 hr 27 min 54 sec) 
Finished CPU 0 instructions: 100000001 cycles: 840616041 cummulative IPC: 0.11896 (Simulation time: 1 hr 27 min 54 sec) 

ChampSim completed all CPUs

Region of Interest Statistics

CPU 0 cummulative IPC: 0.11896 instructions: 100000001 cycles: 840616041
LLC TOTAL     ACCESS:   18783669  HIT:    7339169  MISS:   11444500
LLC LOAD      ACCESS:    8477607  HIT:    3970487  MISS:    4507120
LLC RFO       ACCESS:     206421  HIT:     121888  MISS:      84533
LLC PREFETCH  ACCESS:    7991562  HIT:    1906341  MISS:    6085221
LLC WRITEBACK ACCESS:    2108079  HIT:    1340453  MISS:     767626
