
*** ChampSim Multicore Out-of-Order Simulator ***

Warmup Instructions: 10000000
Simulation Instructions: 100000000
Configuration: 2
Number of CPUs: 1
LLC sets: 2048
LLC ways: 16
Off-chip DRAM Channels: 1 Width: 64-bit Data Rate: 1600 MT/s

CPU 0 runs /datasets/cs240c-wi22-a00-public/data/Assignment2-gz/bzip2_281B.trace.gz
CPU 0 L1D next line prefetcher
CPU 0 L2C IP-based stride prefetcher
Heartbeat CPU 0 instructions: 1000000 cycles: 445883 heartbeat IPC: 2.24274 cumulative IPC: 2.24274 (Simulation time: 0 hr 0 min 40 sec) 
Heartbeat CPU 0 instructions: 2000003 cycles: 900143 heartbeat IPC: 2.20139 cumulative IPC: 2.22187 (Simulation time: 0 hr 1 min 21 sec) 
Heartbeat CPU 0 instructions: 3000002 cycles: 1314804 heartbeat IPC: 2.41161 cumulative IPC: 2.28171 (Simulation time: 0 hr 2 min 0 sec) 
Heartbeat CPU 0 instructions: 4000000 cycles: 1753273 heartbeat IPC: 2.28066 cumulative IPC: 2.28145 (Simulation time: 0 hr 2 min 37 sec) 
Heartbeat CPU 0 instructions: 5000002 cycles: 2175273 heartbeat IPC: 2.36967 cumulative IPC: 2.29856 (Simulation time: 0 hr 3 min 17 sec) 
Heartbeat CPU 0 instructions: 6000000 cycles: 2665946 heartbeat IPC: 2.03801 cumulative IPC: 2.25061 (Simulation time: 0 hr 4 min 3 sec) 
Heartbeat CPU 0 instructions: 7000001 cycles: 3193235 heartbeat IPC: 1.8965 cumulative IPC: 2.19213 (Simulation time: 0 hr 4 min 47 sec) 
Heartbeat CPU 0 instructions: 8000000 cycles: 3725869 heartbeat IPC: 1.87746 cumulative IPC: 2.14715 (Simulation time: 0 hr 5 min 31 sec) 
Heartbeat CPU 0 instructions: 9000000 cycles: 4232417 heartbeat IPC: 1.97415 cumulative IPC: 2.12644 (Simulation time: 0 hr 6 min 11 sec) 
Heartbeat CPU 0 instructions: 10000002 cycles: 4685381 heartbeat IPC: 2.20769 cumulative IPC: 2.1343 (Simulation time: 0 hr 6 min 49 sec) 

Warmup complete CPU 0 instructions: 10000002 cycles: 4685381 (Simulation time: 0 hr 6 min 49 sec) 

Heartbeat CPU 0 instructions: 11000001 cycles: 6205106 heartbeat IPC: 0.658013 cumulative IPC: 0.658013 (Simulation time: 0 hr 7 min 25 sec) 
Heartbeat CPU 0 instructions: 12000000 cycles: 7499440 heartbeat IPC: 0.772597 cumulative IPC: 0.710716 (Simulation time: 0 hr 8 min 3 sec) 
Heartbeat CPU 0 instructions: 13000001 cycles: 8857396 heartbeat IPC: 0.736402 cumulative IPC: 0.719077 (Simulation time: 0 hr 8 min 43 sec) 
Heartbeat CPU 0 instructions: 14000000 cycles: 10328876 heartbeat IPC: 0.679587 cumulative IPC: 0.70878 (Simulation time: 0 hr 9 min 19 sec) 
Heartbeat CPU 0 instructions: 15000000 cycles: 11832308 heartbeat IPC: 0.665145 cumulative IPC: 0.699601 (Simulation time: 0 hr 10 min 2 sec) 
Heartbeat CPU 0 instructions: 16000000 cycles: 13380794 heartbeat IPC: 0.645792 cumulative IPC: 0.690019 (Simulation time: 0 hr 10 min 46 sec) 
Heartbeat CPU 0 instructions: 17000000 cycles: 14898078 heartbeat IPC: 0.659072 cumulative IPC: 0.685421 (Simulation time: 0 hr 11 min 24 sec) 
Heartbeat CPU 0 instructions: 18000002 cycles: 16574912 heartbeat IPC: 0.596363 cumulative IPC: 0.672861 (Simulation time: 0 hr 11 min 59 sec) 
Heartbeat CPU 0 instructions: 19000003 cycles: 18039249 heartbeat IPC: 0.682904 cumulative IPC: 0.673962 (Simulation time: 0 hr 12 min 35 sec) 
Heartbeat CPU 0 instructions: 20000000 cycles: 19705367 heartbeat IPC: 0.600196 cumulative IPC: 0.665779 (Simulation time: 0 hr 13 min 15 sec) 
Heartbeat CPU 0 instructions: 21000001 cycles: 21298256 heartbeat IPC: 0.627791 cumulative IPC: 0.662137 (Simulation time: 0 hr 13 min 57 sec) 
Heartbeat CPU 0 instructions: 22000000 cycles: 23162540 heartbeat IPC: 0.536398 cumulative IPC: 0.64945 (Simulation time: 0 hr 14 min 45 sec) 
Heartbeat CPU 0 instructions: 23000001 cycles: 24790135 heartbeat IPC: 0.614404 cumulative IPC: 0.646613 (Simulation time: 0 hr 15 min 20 sec) 
Heartbeat CPU 0 instructions: 24000000 cycles: 26671261 heartbeat IPC: 0.531596 cumulative IPC: 0.636772 (Simulation time: 0 hr 16 min 6 sec) 
Heartbeat CPU 0 instructions: 25000002 cycles: 28298019 heartbeat IPC: 0.614721 cumulative IPC: 0.635253 (Simulation time: 0 hr 16 min 55 sec) 
Heartbeat CPU 0 instructions: 26000003 cycles: 29589944 heartbeat IPC: 0.77404 cumulative IPC: 0.642453 (Simulation time: 0 hr 17 min 43 sec) 
Heartbeat CPU 0 instructions: 27000002 cycles: 30995658 heartbeat IPC: 0.711382 cumulative IPC: 0.646135 (Simulation time: 0 hr 18 min 32 sec) 
Heartbeat CPU 0 instructions: 28000000 cycles: 31960768 heartbeat IPC: 1.03615 cumulative IPC: 0.659936 (Simulation time: 0 hr 19 min 12 sec) 
Heartbeat CPU 0 instructions: 29000001 cycles: 32859888 heartbeat IPC: 1.1122 cumulative IPC: 0.674368 (Simulation time: 0 hr 19 min 52 sec) 
Heartbeat CPU 0 instructions: 30000000 cycles: 33778338 heartbeat IPC: 1.08879 cumulative IPC: 0.687452 (Simulation time: 0 hr 20 min 32 sec) 
Heartbeat CPU 0 instructions: 31000003 cycles: 34785955 heartbeat IPC: 0.992444 cumulative IPC: 0.697661 (Simulation time: 0 hr 21 min 9 sec) 
Heartbeat CPU 0 instructions: 32000000 cycles: 35707615 heartbeat IPC: 1.085 cumulative IPC: 0.709169 (Simulation time: 0 hr 21 min 47 sec) 
Heartbeat CPU 0 instructions: 33000002 cycles: 36702050 heartbeat IPC: 1.0056 cumulative IPC: 0.718376 (Simulation time: 0 hr 22 min 32 sec) 
Heartbeat CPU 0 instructions: 34000000 cycles: 37650608 heartbeat IPC: 1.05423 cumulative IPC: 0.72804 (Simulation time: 0 hr 23 min 8 sec) 
Heartbeat CPU 0 instructions: 35000000 cycles: 38509118 heartbeat IPC: 1.16481 cumulative IPC: 0.739126 (Simulation time: 0 hr 23 min 42 sec) 
Heartbeat CPU 0 instructions: 36000000 cycles: 39351759 heartbeat IPC: 1.18675 cumulative IPC: 0.750006 (Simulation time: 0 hr 24 min 17 sec) 
Heartbeat CPU 0 instructions: 37000000 cycles: 40204185 heartbeat IPC: 1.17312 cumulative IPC: 0.760161 (Simulation time: 0 hr 24 min 51 sec) 
Heartbeat CPU 0 instructions: 38000002 cycles: 40999298 heartbeat IPC: 1.25769 cumulative IPC: 0.771054 (Simulation time: 0 hr 25 min 26 sec) 
Heartbeat CPU 0 instructions: 39000001 cycles: 41905785 heartbeat IPC: 1.10316 cumulative IPC: 0.779142 (Simulation time: 0 hr 26 min 0 sec) 
Heartbeat CPU 0 instructions: 40000000 cycles: 42839511 heartbeat IPC: 1.07098 cumulative IPC: 0.786284 (Simulation time: 0 hr 26 min 38 sec) 
Heartbeat CPU 0 instructions: 41000002 cycles: 43800397 heartbeat IPC: 1.04071 cumulative IPC: 0.792535 (Simulation time: 0 hr 27 min 15 sec) 
Heartbeat CPU 0 instructions: 42000001 cycles: 44756455 heartbeat IPC: 1.04596 cumulative IPC: 0.798581 (Simulation time: 0 hr 27 min 54 sec) 
Heartbeat CPU 0 instructions: 43000001 cycles: 45705594 heartbeat IPC: 1.05359 cumulative IPC: 0.804481 (Simulation time: 0 hr 28 min 28 sec) 
Heartbeat CPU 0 instructions: 44000000 cycles: 46681402 heartbeat IPC: 1.02479 cumulative IPC: 0.8096 (Simulation time: 0 hr 29 min 7 sec) 
Heartbeat CPU 0 instructions: 45000001 cycles: 47607199 heartbeat IPC: 1.08015 cumulative IPC: 0.815436 (Simulation time: 0 hr 29 min 42 sec) 
Heartbeat CPU 0 instructions: 46000000 cycles: 48509713 heartbeat IPC: 1.10801 cumulative IPC: 0.821461 (Simulation time: 0 hr 30 min 19 sec) 
Heartbeat CPU 0 instructions: 47000000 cycles: 49389224 heartbeat IPC: 1.137 cumulative IPC: 0.827669 (Simulation time: 0 hr 30 min 56 sec) 
Heartbeat CPU 0 instructions: 48000000 cycles: 50295924 heartbeat IPC: 1.1029 cumulative IPC: 0.833141 (Simulation time: 0 hr 31 min 33 sec) 
Heartbeat CPU 0 instructions: 49000001 cycles: 51237094 heartbeat IPC: 1.06251 cumulative IPC: 0.837778 (Simulation time: 0 hr 32 min 11 sec) 
Heartbeat CPU 0 instructions: 50000003 cycles: 52218988 heartbeat IPC: 1.01844 cumulative IPC: 0.84151 (Simulation time: 0 hr 32 min 48 sec) 
Heartbeat CPU 0 instructions: 51000002 cycles: 53176080 heartbeat IPC: 1.04483 cumulative IPC: 0.845523 (Simulation time: 0 hr 33 min 25 sec) 
Heartbeat CPU 0 instructions: 52000000 cycles: 54141096 heartbeat IPC: 1.03625 cumulative IPC: 0.849245 (Simulation time: 0 hr 34 min 3 sec) 
Heartbeat CPU 0 instructions: 53000001 cycles: 55119281 heartbeat IPC: 1.0223 cumulative IPC: 0.852601 (Simulation time: 0 hr 34 min 40 sec) 
Heartbeat CPU 0 instructions: 54000003 cycles: 56099927 heartbeat IPC: 1.01974 cumulative IPC: 0.855789 (Simulation time: 0 hr 35 min 17 sec) 
Heartbeat CPU 0 instructions: 55000000 cycles: 57063990 heartbeat IPC: 1.03727 cumulative IPC: 0.859129 (Simulation time: 0 hr 35 min 58 sec) 
Heartbeat CPU 0 instructions: 56000000 cycles: 58044016 heartbeat IPC: 1.02038 cumulative IPC: 0.862091 (Simulation time: 0 hr 36 min 37 sec) 
Heartbeat CPU 0 instructions: 57000002 cycles: 59017577 heartbeat IPC: 1.02716 cumulative IPC: 0.865049 (Simulation time: 0 hr 37 min 13 sec) 
Heartbeat CPU 0 instructions: 58000003 cycles: 59994784 heartbeat IPC: 1.02333 cumulative IPC: 0.867845 (Simulation time: 0 hr 37 min 50 sec) 
Heartbeat CPU 0 instructions: 59000003 cycles: 61029670 heartbeat IPC: 0.96629 cumulative IPC: 0.869653 (Simulation time: 0 hr 38 min 30 sec) 
Heartbeat CPU 0 instructions: 60000000 cycles: 62238255 heartbeat IPC: 0.827411 cumulative IPC: 0.868766 (Simulation time: 0 hr 39 min 16 sec) 
Heartbeat CPU 0 instructions: 61000000 cycles: 63445880 heartbeat IPC: 0.828072 cumulative IPC: 0.86793 (Simulation time: 0 hr 40 min 7 sec) 
Heartbeat CPU 0 instructions: 62000003 cycles: 64670242 heartbeat IPC: 0.816754 cumulative IPC: 0.866885 (Simulation time: 0 hr 40 min 55 sec) 
Heartbeat CPU 0 instructions: 63000001 cycles: 65901468 heartbeat IPC: 0.812197 cumulative IPC: 0.865785 (Simulation time: 0 hr 41 min 40 sec) 
Heartbeat CPU 0 instructions: 64000000 cycles: 67223047 heartbeat IPC: 0.75667 cumulative IPC: 0.86348 (Simulation time: 0 hr 42 min 34 sec) 
Heartbeat CPU 0 instructions: 65000001 cycles: 68427312 heartbeat IPC: 0.830383 cumulative IPC: 0.862854 (Simulation time: 0 hr 43 min 30 sec) 
Heartbeat CPU 0 instructions: 66000003 cycles: 69629282 heartbeat IPC: 0.831969 cumulative IPC: 0.862283 (Simulation time: 0 hr 44 min 19 sec) 
Heartbeat CPU 0 instructions: 67000000 cycles: 70840569 heartbeat IPC: 0.825566 cumulative IPC: 0.86161 (Simulation time: 0 hr 45 min 12 sec) 
Heartbeat CPU 0 instructions: 68000000 cycles: 72154616 heartbeat IPC: 0.761008 cumulative IPC: 0.859651 (Simulation time: 0 hr 45 min 55 sec) 
Heartbeat CPU 0 instructions: 69000000 cycles: 73351337 heartbeat IPC: 0.835617 cumulative IPC: 0.859232 (Simulation time: 0 hr 46 min 45 sec) 
Heartbeat CPU 0 instructions: 70000002 cycles: 74553618 heartbeat IPC: 0.831754 cumulative IPC: 0.858759 (Simulation time: 0 hr 47 min 31 sec) 
Heartbeat CPU 0 instructions: 71000003 cycles: 75760494 heartbeat IPC: 0.828586 cumulative IPC: 0.858247 (Simulation time: 0 hr 48 min 15 sec) 
Heartbeat CPU 0 instructions: 72000000 cycles: 76968860 heartbeat IPC: 0.827561 cumulative IPC: 0.857734 (Simulation time: 0 hr 49 min 5 sec) 
Heartbeat CPU 0 instructions: 73000002 cycles: 78272626 heartbeat IPC: 0.76701 cumulative IPC: 0.856127 (Simulation time: 0 hr 49 min 48 sec) 
Heartbeat CPU 0 instructions: 74000000 cycles: 79472325 heartbeat IPC: 0.833541 cumulative IPC: 0.855764 (Simulation time: 0 hr 50 min 35 sec) 
Heartbeat CPU 0 instructions: 75000001 cycles: 80673840 heartbeat IPC: 0.832283 cumulative IPC: 0.855393 (Simulation time: 0 hr 51 min 21 sec) 
Heartbeat CPU 0 instructions: 76000000 cycles: 81883257 heartbeat IPC: 0.826844 cumulative IPC: 0.854946 (Simulation time: 0 hr 52 min 2 sec) 
Heartbeat CPU 0 instructions: 77000001 cycles: 83140515 heartbeat IPC: 0.795382 cumulative IPC: 0.853991 (Simulation time: 0 hr 52 min 45 sec) 
Heartbeat CPU 0 instructions: 78000003 cycles: 84310559 heartbeat IPC: 0.85467 cumulative IPC: 0.854001 (Simulation time: 0 hr 53 min 19 sec) 
Heartbeat CPU 0 instructions: 79000000 cycles: 85229801 heartbeat IPC: 1.08785 cumulative IPC: 0.85667 (Simulation time: 0 hr 53 min 50 sec) 
Heartbeat CPU 0 instructions: 80000000 cycles: 86133252 heartbeat IPC: 1.10687 cumulative IPC: 0.859445 (Simulation time: 0 hr 54 min 23 sec) 
Heartbeat CPU 0 instructions: 81000000 cycles: 86979221 heartbeat IPC: 1.18208 cumulative IPC: 0.862762 (Simulation time: 0 hr 54 min 55 sec) 
Heartbeat CPU 0 instructions: 82000001 cycles: 87871364 heartbeat IPC: 1.1209 cumulative IPC: 0.86553 (Simulation time: 0 hr 55 min 28 sec) 
Heartbeat CPU 0 instructions: 83000000 cycles: 88795247 heartbeat IPC: 1.08239 cumulative IPC: 0.867912 (Simulation time: 0 hr 56 min 1 sec) 
Heartbeat CPU 0 instructions: 84000000 cycles: 89712475 heartbeat IPC: 1.09024 cumulative IPC: 0.870311 (Simulation time: 0 hr 56 min 35 sec) 
Heartbeat CPU 0 instructions: 85000002 cycles: 90647465 heartbeat IPC: 1.06953 cumulative IPC: 0.872478 (Simulation time: 0 hr 57 min 13 sec) 
Heartbeat CPU 0 instructions: 86000002 cycles: 91576750 heartbeat IPC: 1.0761 cumulative IPC: 0.874655 (Simulation time: 0 hr 57 min 58 sec) 
Heartbeat CPU 0 instructions: 87000002 cycles: 92506017 heartbeat IPC: 1.07612 cumulative IPC: 0.876787 (Simulation time: 0 hr 58 min 40 sec) 
Heartbeat CPU 0 instructions: 88000000 cycles: 93554387 heartbeat IPC: 0.95386 cumulative IPC: 0.877696 (Simulation time: 0 hr 59 min 21 sec) 
Heartbeat CPU 0 instructions: 89000002 cycles: 94644522 heartbeat IPC: 0.917319 cumulative IPC: 0.878176 (Simulation time: 1 hr 0 min 1 sec) 
Heartbeat CPU 0 instructions: 90000001 cycles: 95731707 heartbeat IPC: 0.919806 cumulative IPC: 0.878674 (Simulation time: 1 hr 0 min 38 sec) 
Heartbeat CPU 0 instructions: 91000001 cycles: 96826149 heartbeat IPC: 0.913708 cumulative IPC: 0.87909 (Simulation time: 1 hr 1 min 17 sec) 
Heartbeat CPU 0 instructions: 92000000 cycles: 97910190 heartbeat IPC: 0.922473 cumulative IPC: 0.879594 (Simulation time: 1 hr 1 min 56 sec) 
Heartbeat CPU 0 instructions: 93000001 cycles: 98992446 heartbeat IPC: 0.923997 cumulative IPC: 0.880104 (Simulation time: 1 hr 2 min 36 sec) 
Heartbeat CPU 0 instructions: 94000001 cycles: 100072580 heartbeat IPC: 0.925811 cumulative IPC: 0.880621 (Simulation time: 1 hr 3 min 18 sec) 
Heartbeat CPU 0 instructions: 95000000 cycles: 101156494 heartbeat IPC: 0.922581 cumulative IPC: 0.881093 (Simulation time: 1 hr 3 min 58 sec) 
Heartbeat CPU 0 instructions: 96000000 cycles: 102236081 heartbeat IPC: 0.92628 cumulative IPC: 0.881593 (Simulation time: 1 hr 4 min 40 sec) 
Heartbeat CPU 0 instructions: 97000002 cycles: 103318485 heartbeat IPC: 0.923871 cumulative IPC: 0.882057 (Simulation time: 1 hr 5 min 20 sec) 
Heartbeat CPU 0 instructions: 98000002 cycles: 104400712 heartbeat IPC: 0.924021 cumulative IPC: 0.882512 (Simulation time: 1 hr 6 min 1 sec) 
Heartbeat CPU 0 instructions: 99000000 cycles: 105481973 heartbeat IPC: 0.924844 cumulative IPC: 0.882966 (Simulation time: 1 hr 6 min 36 sec) 
Heartbeat CPU 0 instructions: 100000000 cycles: 106567119 heartbeat IPC: 0.921535 cumulative IPC: 0.883377 (Simulation time: 1 hr 7 min 15 sec) 
Heartbeat CPU 0 instructions: 101000000 cycles: 107654099 heartbeat IPC: 0.91998 cumulative IPC: 0.883764 (Simulation time: 1 hr 7 min 53 sec) 
Heartbeat CPU 0 instructions: 102000000 cycles: 108743580 heartbeat IPC: 0.917868 cumulative IPC: 0.884121 (Simulation time: 1 hr 8 min 29 sec) 
Heartbeat CPU 0 instructions: 103000002 cycles: 109832077 heartbeat IPC: 0.9187 cumulative IPC: 0.884479 (Simulation time: 1 hr 9 min 3 sec) 
Heartbeat CPU 0 instructions: 104000000 cycles: 110920487 heartbeat IPC: 0.91877 cumulative IPC: 0.88483 (Simulation time: 1 hr 9 min 38 sec) 
Heartbeat CPU 0 instructions: 105000003 cycles: 112014411 heartbeat IPC: 0.914143 cumulative IPC: 0.885129 (Simulation time: 1 hr 10 min 21 sec) 
Heartbeat CPU 0 instructions: 106000002 cycles: 113110598 heartbeat IPC: 0.912252 cumulative IPC: 0.885403 (Simulation time: 1 hr 10 min 56 sec) 
Heartbeat CPU 0 instructions: 107000001 cycles: 114194214 heartbeat IPC: 0.922835 cumulative IPC: 0.885773 (Simulation time: 1 hr 11 min 27 sec) 
Heartbeat CPU 0 instructions: 108000000 cycles: 115288148 heartbeat IPC: 0.914131 cumulative IPC: 0.886054 (Simulation time: 1 hr 12 min 0 sec) 
Heartbeat CPU 0 instructions: 109000001 cycles: 116382997 heartbeat IPC: 0.913369 cumulative IPC: 0.886321 (Simulation time: 1 hr 12 min 30 sec) 
Heartbeat CPU 0 instructions: 110000002 cycles: 117481973 heartbeat IPC: 0.909939 cumulative IPC: 0.886552 (Simulation time: 1 hr 13 min 3 sec) 
Finished CPU 0 instructions: 100000000 cycles: 112796592 cummulative IPC: 0.886552 (Simulation time: 1 hr 13 min 3 sec) 

ChampSim completed all CPUs

Region of Interest Statistics

CPU 0 cummulative IPC: 0.886552 instructions: 100000000 cycles: 112796592
LLC TOTAL     ACCESS:    2346620  HIT:    2047743  MISS:     298877
LLC LOAD      ACCESS:     882441  HIT:     845187  MISS:      37254
LLC RFO       ACCESS:     180751  HIT:     114011  MISS:      66740
LLC PREFETCH  ACCESS:    1098566  HIT:     919217  MISS:     179349
LLC WRITEBACK ACCESS:     184862  HIT:     169328  MISS:      15534
