
*** ChampSim Multicore Out-of-Order Simulator ***

Warmup Instructions: 10000000
Simulation Instructions: 100000000
Configuration: 2
Number of CPUs: 1
LLC sets: 2048
LLC ways: 16
Off-chip DRAM Channels: 1 Width: 64-bit Data Rate: 1600 MT/s

CPU 0 runs /datasets/cs240c-wi22-a00-public/data/Assignment2-gz/bzip2_259B.trace.gz
CPU 0 L1D next line prefetcher
CPU 0 L2C IP-based stride prefetcher
Heartbeat CPU 0 instructions: 1000002 cycles: 428875 heartbeat IPC: 2.33169 cumulative IPC: 2.33169 (Simulation time: 0 hr 0 min 41 sec) 
Heartbeat CPU 0 instructions: 2000003 cycles: 861057 heartbeat IPC: 2.31384 cumulative IPC: 2.32273 (Simulation time: 0 hr 1 min 14 sec) 
Heartbeat CPU 0 instructions: 3000001 cycles: 1286790 heartbeat IPC: 2.34889 cumulative IPC: 2.33138 (Simulation time: 0 hr 1 min 49 sec) 
Heartbeat CPU 0 instructions: 4000000 cycles: 1685064 heartbeat IPC: 2.51083 cumulative IPC: 2.3738 (Simulation time: 0 hr 2 min 23 sec) 
Heartbeat CPU 0 instructions: 5000001 cycles: 2103497 heartbeat IPC: 2.38987 cumulative IPC: 2.37699 (Simulation time: 0 hr 2 min 59 sec) 
Heartbeat CPU 0 instructions: 6000001 cycles: 2532860 heartbeat IPC: 2.32903 cumulative IPC: 2.36886 (Simulation time: 0 hr 3 min 35 sec) 
Heartbeat CPU 0 instructions: 7000003 cycles: 2961908 heartbeat IPC: 2.33075 cumulative IPC: 2.36334 (Simulation time: 0 hr 4 min 15 sec) 
Heartbeat CPU 0 instructions: 8000000 cycles: 3391721 heartbeat IPC: 2.32659 cumulative IPC: 2.35868 (Simulation time: 0 hr 4 min 50 sec) 
Heartbeat CPU 0 instructions: 9000000 cycles: 3819847 heartbeat IPC: 2.33576 cumulative IPC: 2.35612 (Simulation time: 0 hr 5 min 24 sec) 
Heartbeat CPU 0 instructions: 10000002 cycles: 4193920 heartbeat IPC: 2.67328 cumulative IPC: 2.3844 (Simulation time: 0 hr 5 min 56 sec) 

Warmup complete CPU 0 instructions: 10000002 cycles: 4193920 (Simulation time: 0 hr 5 min 56 sec) 

Heartbeat CPU 0 instructions: 11000002 cycles: 5025719 heartbeat IPC: 1.20221 cumulative IPC: 1.20221 (Simulation time: 0 hr 6 min 33 sec) 
Heartbeat CPU 0 instructions: 12000000 cycles: 6121869 heartbeat IPC: 0.912282 cumulative IPC: 1.03737 (Simulation time: 0 hr 7 min 16 sec) 
Heartbeat CPU 0 instructions: 13000002 cycles: 7040784 heartbeat IPC: 1.08824 cumulative IPC: 1.05379 (Simulation time: 0 hr 8 min 1 sec) 
Heartbeat CPU 0 instructions: 14000003 cycles: 8011783 heartbeat IPC: 1.02987 cumulative IPC: 1.04771 (Simulation time: 0 hr 8 min 39 sec) 
Heartbeat CPU 0 instructions: 15000002 cycles: 9037213 heartbeat IPC: 0.9752 cumulative IPC: 1.03236 (Simulation time: 0 hr 9 min 17 sec) 
Heartbeat CPU 0 instructions: 16000000 cycles: 9996155 heartbeat IPC: 1.04281 cumulative IPC: 1.03408 (Simulation time: 0 hr 9 min 53 sec) 
Heartbeat CPU 0 instructions: 17000002 cycles: 11093391 heartbeat IPC: 0.911383 cumulative IPC: 1.01457 (Simulation time: 0 hr 10 min 33 sec) 
Heartbeat CPU 0 instructions: 18000001 cycles: 12201773 heartbeat IPC: 0.902215 cumulative IPC: 0.999019 (Simulation time: 0 hr 11 min 12 sec) 
Heartbeat CPU 0 instructions: 19000003 cycles: 13201054 heartbeat IPC: 1.00072 cumulative IPC: 0.999208 (Simulation time: 0 hr 11 min 54 sec) 
Heartbeat CPU 0 instructions: 20000000 cycles: 14223802 heartbeat IPC: 0.977755 cumulative IPC: 0.99702 (Simulation time: 0 hr 12 min 38 sec) 
Heartbeat CPU 0 instructions: 21000001 cycles: 15146678 heartbeat IPC: 1.08357 cumulative IPC: 1.00431 (Simulation time: 0 hr 13 min 27 sec) 
Heartbeat CPU 0 instructions: 22000001 cycles: 16065146 heartbeat IPC: 1.08877 cumulative IPC: 1.01085 (Simulation time: 0 hr 14 min 19 sec) 
Heartbeat CPU 0 instructions: 23000002 cycles: 16978032 heartbeat IPC: 1.09543 cumulative IPC: 1.01689 (Simulation time: 0 hr 15 min 4 sec) 
Heartbeat CPU 0 instructions: 24000000 cycles: 17889592 heartbeat IPC: 1.09702 cumulative IPC: 1.02222 (Simulation time: 0 hr 15 min 48 sec) 
Heartbeat CPU 0 instructions: 25000000 cycles: 18792617 heartbeat IPC: 1.10739 cumulative IPC: 1.02749 (Simulation time: 0 hr 16 min 27 sec) 
Heartbeat CPU 0 instructions: 26000000 cycles: 19753290 heartbeat IPC: 1.04094 cumulative IPC: 1.02832 (Simulation time: 0 hr 17 min 4 sec) 
Heartbeat CPU 0 instructions: 27000003 cycles: 20720729 heartbeat IPC: 1.03366 cumulative IPC: 1.02863 (Simulation time: 0 hr 17 min 42 sec) 
Heartbeat CPU 0 instructions: 28000000 cycles: 21644161 heartbeat IPC: 1.08291 cumulative IPC: 1.0315 (Simulation time: 0 hr 18 min 19 sec) 
Heartbeat CPU 0 instructions: 29000000 cycles: 22557323 heartbeat IPC: 1.0951 cumulative IPC: 1.03467 (Simulation time: 0 hr 18 min 56 sec) 
Heartbeat CPU 0 instructions: 30000001 cycles: 23537270 heartbeat IPC: 1.02046 cumulative IPC: 1.03395 (Simulation time: 0 hr 19 min 29 sec) 
Heartbeat CPU 0 instructions: 31000001 cycles: 24445451 heartbeat IPC: 1.1011 cumulative IPC: 1.03696 (Simulation time: 0 hr 20 min 1 sec) 
Heartbeat CPU 0 instructions: 32000000 cycles: 25339546 heartbeat IPC: 1.11845 cumulative IPC: 1.0404 (Simulation time: 0 hr 20 min 34 sec) 
Heartbeat CPU 0 instructions: 33000002 cycles: 26538905 heartbeat IPC: 0.83378 cumulative IPC: 1.02931 (Simulation time: 0 hr 21 min 11 sec) 
Heartbeat CPU 0 instructions: 34000003 cycles: 27934684 heartbeat IPC: 0.716447 cumulative IPC: 1.01092 (Simulation time: 0 hr 21 min 48 sec) 
Heartbeat CPU 0 instructions: 35000001 cycles: 29043442 heartbeat IPC: 0.901908 cumulative IPC: 1.00606 (Simulation time: 0 hr 22 min 27 sec) 
Heartbeat CPU 0 instructions: 36000000 cycles: 30220955 heartbeat IPC: 0.849247 cumulative IPC: 0.998961 (Simulation time: 0 hr 22 min 57 sec) 
Heartbeat CPU 0 instructions: 37000002 cycles: 31263996 heartbeat IPC: 0.958737 cumulative IPC: 0.997411 (Simulation time: 0 hr 23 min 27 sec) 
Heartbeat CPU 0 instructions: 38000003 cycles: 32378564 heartbeat IPC: 0.89721 cumulative IPC: 0.993449 (Simulation time: 0 hr 23 min 59 sec) 
Heartbeat CPU 0 instructions: 39000001 cycles: 33522541 heartbeat IPC: 0.874142 cumulative IPC: 0.988795 (Simulation time: 0 hr 24 min 30 sec) 
Heartbeat CPU 0 instructions: 40000000 cycles: 34591089 heartbeat IPC: 0.935848 cumulative IPC: 0.986934 (Simulation time: 0 hr 25 min 3 sec) 
Heartbeat CPU 0 instructions: 41000001 cycles: 35780731 heartbeat IPC: 0.84059 cumulative IPC: 0.981422 (Simulation time: 0 hr 25 min 34 sec) 
Heartbeat CPU 0 instructions: 42000000 cycles: 36989069 heartbeat IPC: 0.827582 cumulative IPC: 0.975754 (Simulation time: 0 hr 26 min 9 sec) 
Heartbeat CPU 0 instructions: 43000003 cycles: 38205614 heartbeat IPC: 0.822002 cumulative IPC: 0.970255 (Simulation time: 0 hr 26 min 42 sec) 
Heartbeat CPU 0 instructions: 44000000 cycles: 39418188 heartbeat IPC: 0.824689 cumulative IPC: 0.965244 (Simulation time: 0 hr 27 min 16 sec) 
Heartbeat CPU 0 instructions: 45000000 cycles: 40639936 heartbeat IPC: 0.818499 cumulative IPC: 0.960324 (Simulation time: 0 hr 27 min 48 sec) 
Heartbeat CPU 0 instructions: 46000002 cycles: 41878549 heartbeat IPC: 0.807356 cumulative IPC: 0.955297 (Simulation time: 0 hr 28 min 22 sec) 
Heartbeat CPU 0 instructions: 47000000 cycles: 43108644 heartbeat IPC: 0.812944 cumulative IPC: 0.950797 (Simulation time: 0 hr 28 min 54 sec) 
Heartbeat CPU 0 instructions: 48000000 cycles: 44346529 heartbeat IPC: 0.807829 cumulative IPC: 0.946389 (Simulation time: 0 hr 29 min 26 sec) 
Heartbeat CPU 0 instructions: 49000003 cycles: 45614616 heartbeat IPC: 0.788592 cumulative IPC: 0.941558 (Simulation time: 0 hr 29 min 57 sec) 
Heartbeat CPU 0 instructions: 50000001 cycles: 46653654 heartbeat IPC: 0.962427 cumulative IPC: 0.942069 (Simulation time: 0 hr 30 min 30 sec) 
Heartbeat CPU 0 instructions: 51000002 cycles: 47817243 heartbeat IPC: 0.859411 cumulative IPC: 0.939864 (Simulation time: 0 hr 31 min 1 sec) 
Heartbeat CPU 0 instructions: 52000000 cycles: 48935406 heartbeat IPC: 0.894322 cumulative IPC: 0.938726 (Simulation time: 0 hr 31 min 34 sec) 
Heartbeat CPU 0 instructions: 53000001 cycles: 50130371 heartbeat IPC: 0.836845 cumulative IPC: 0.936076 (Simulation time: 0 hr 32 min 9 sec) 
Heartbeat CPU 0 instructions: 54000000 cycles: 51354885 heartbeat IPC: 0.81665 cumulative IPC: 0.932975 (Simulation time: 0 hr 32 min 43 sec) 
Heartbeat CPU 0 instructions: 55000000 cycles: 52506679 heartbeat IPC: 0.868211 cumulative IPC: 0.931431 (Simulation time: 0 hr 33 min 15 sec) 
Heartbeat CPU 0 instructions: 56000000 cycles: 53730293 heartbeat IPC: 0.817251 cumulative IPC: 0.928611 (Simulation time: 0 hr 33 min 48 sec) 
Heartbeat CPU 0 instructions: 57000000 cycles: 54951350 heartbeat IPC: 0.818963 cumulative IPC: 0.925973 (Simulation time: 0 hr 34 min 24 sec) 
Heartbeat CPU 0 instructions: 58000002 cycles: 55981868 heartbeat IPC: 0.970388 cumulative IPC: 0.926857 (Simulation time: 0 hr 34 min 58 sec) 
Heartbeat CPU 0 instructions: 59000000 cycles: 57083534 heartbeat IPC: 0.907714 cumulative IPC: 0.926458 (Simulation time: 0 hr 35 min 32 sec) 
Heartbeat CPU 0 instructions: 60000000 cycles: 58262200 heartbeat IPC: 0.848417 cumulative IPC: 0.924757 (Simulation time: 0 hr 36 min 5 sec) 
Heartbeat CPU 0 instructions: 61000000 cycles: 59407011 heartbeat IPC: 0.873507 cumulative IPC: 0.923694 (Simulation time: 0 hr 36 min 38 sec) 
Heartbeat CPU 0 instructions: 62000002 cycles: 60250458 heartbeat IPC: 1.18561 cumulative IPC: 0.927635 (Simulation time: 0 hr 37 min 10 sec) 
Heartbeat CPU 0 instructions: 63000003 cycles: 61147650 heartbeat IPC: 1.11459 cumulative IPC: 0.93058 (Simulation time: 0 hr 37 min 46 sec) 
Heartbeat CPU 0 instructions: 64000000 cycles: 62192593 heartbeat IPC: 0.956987 cumulative IPC: 0.931056 (Simulation time: 0 hr 38 min 28 sec) 
Heartbeat CPU 0 instructions: 65000003 cycles: 63163628 heartbeat IPC: 1.02983 cumulative IPC: 0.932682 (Simulation time: 0 hr 39 min 9 sec) 
Heartbeat CPU 0 instructions: 66000003 cycles: 64107942 heartbeat IPC: 1.05897 cumulative IPC: 0.934673 (Simulation time: 0 hr 39 min 49 sec) 
Heartbeat CPU 0 instructions: 67000003 cycles: 65149046 heartbeat IPC: 0.960519 cumulative IPC: 0.935114 (Simulation time: 0 hr 40 min 31 sec) 
Heartbeat CPU 0 instructions: 68000000 cycles: 66205364 heartbeat IPC: 0.946682 cumulative IPC: 0.935311 (Simulation time: 0 hr 41 min 13 sec) 
Heartbeat CPU 0 instructions: 69000003 cycles: 67308041 heartbeat IPC: 0.906887 cumulative IPC: 0.934815 (Simulation time: 0 hr 41 min 53 sec) 
Heartbeat CPU 0 instructions: 70000003 cycles: 68578346 heartbeat IPC: 0.787212 cumulative IPC: 0.931902 (Simulation time: 0 hr 42 min 35 sec) 
Heartbeat CPU 0 instructions: 71000000 cycles: 70028279 heartbeat IPC: 0.689685 cumulative IPC: 0.926568 (Simulation time: 0 hr 43 min 13 sec) 
Heartbeat CPU 0 instructions: 72000000 cycles: 71224238 heartbeat IPC: 0.836149 cumulative IPC: 0.924955 (Simulation time: 0 hr 43 min 50 sec) 
Heartbeat CPU 0 instructions: 73000003 cycles: 72526929 heartbeat IPC: 0.767644 cumulative IPC: 0.921956 (Simulation time: 0 hr 44 min 27 sec) 
Heartbeat CPU 0 instructions: 74000001 cycles: 73805119 heartbeat IPC: 0.782355 cumulative IPC: 0.919392 (Simulation time: 0 hr 45 min 6 sec) 
Heartbeat CPU 0 instructions: 75000000 cycles: 74986363 heartbeat IPC: 0.846564 cumulative IPC: 0.918177 (Simulation time: 0 hr 45 min 44 sec) 
Heartbeat CPU 0 instructions: 76000000 cycles: 76091135 heartbeat IPC: 0.905164 cumulative IPC: 0.917977 (Simulation time: 0 hr 46 min 20 sec) 
Heartbeat CPU 0 instructions: 77000003 cycles: 77063181 heartbeat IPC: 1.02876 cumulative IPC: 0.919455 (Simulation time: 0 hr 46 min 56 sec) 
Heartbeat CPU 0 instructions: 78000000 cycles: 78032215 heartbeat IPC: 1.03195 cumulative IPC: 0.920931 (Simulation time: 0 hr 47 min 29 sec) 
Heartbeat CPU 0 instructions: 79000003 cycles: 79124827 heartbeat IPC: 0.915241 cumulative IPC: 0.920848 (Simulation time: 0 hr 48 min 5 sec) 
Heartbeat CPU 0 instructions: 80000000 cycles: 80420081 heartbeat IPC: 0.772047 cumulative IPC: 0.91832 (Simulation time: 0 hr 48 min 42 sec) 
Heartbeat CPU 0 instructions: 81000001 cycles: 81663903 heartbeat IPC: 0.803974 cumulative IPC: 0.916484 (Simulation time: 0 hr 49 min 20 sec) 
Heartbeat CPU 0 instructions: 82000000 cycles: 82825428 heartbeat IPC: 0.860936 cumulative IPC: 0.915663 (Simulation time: 0 hr 49 min 57 sec) 
Heartbeat CPU 0 instructions: 83000002 cycles: 83908648 heartbeat IPC: 0.923175 cumulative IPC: 0.915766 (Simulation time: 0 hr 50 min 33 sec) 
Heartbeat CPU 0 instructions: 84000000 cycles: 84866005 heartbeat IPC: 1.04454 cumulative IPC: 0.917294 (Simulation time: 0 hr 51 min 6 sec) 
Heartbeat CPU 0 instructions: 85000003 cycles: 85823559 heartbeat IPC: 1.04433 cumulative IPC: 0.918784 (Simulation time: 0 hr 51 min 40 sec) 
Heartbeat CPU 0 instructions: 86000003 cycles: 86899224 heartbeat IPC: 0.929657 cumulative IPC: 0.918925 (Simulation time: 0 hr 52 min 12 sec) 
Heartbeat CPU 0 instructions: 87000002 cycles: 88011428 heartbeat IPC: 0.899115 cumulative IPC: 0.918662 (Simulation time: 0 hr 52 min 47 sec) 
Heartbeat CPU 0 instructions: 88000000 cycles: 89119760 heartbeat IPC: 0.902255 cumulative IPC: 0.918448 (Simulation time: 0 hr 53 min 20 sec) 
Heartbeat CPU 0 instructions: 89000002 cycles: 90126130 heartbeat IPC: 0.993672 cumulative IPC: 0.919329 (Simulation time: 0 hr 53 min 53 sec) 
Heartbeat CPU 0 instructions: 90000001 cycles: 91249759 heartbeat IPC: 0.889973 cumulative IPC: 0.91895 (Simulation time: 0 hr 54 min 28 sec) 
Heartbeat CPU 0 instructions: 91000002 cycles: 92362593 heartbeat IPC: 0.898607 cumulative IPC: 0.918694 (Simulation time: 0 hr 54 min 59 sec) 
Heartbeat CPU 0 instructions: 92000000 cycles: 93401038 heartbeat IPC: 0.962976 cumulative IPC: 0.919209 (Simulation time: 0 hr 55 min 29 sec) 
Heartbeat CPU 0 instructions: 93000000 cycles: 94589357 heartbeat IPC: 0.841525 cumulative IPC: 0.918188 (Simulation time: 0 hr 55 min 59 sec) 
Heartbeat CPU 0 instructions: 94000003 cycles: 95765552 heartbeat IPC: 0.850202 cumulative IPC: 0.917315 (Simulation time: 0 hr 56 min 29 sec) 
Heartbeat CPU 0 instructions: 95000002 cycles: 96949964 heartbeat IPC: 0.8443 cumulative IPC: 0.916382 (Simulation time: 0 hr 57 min 0 sec) 
Heartbeat CPU 0 instructions: 96000000 cycles: 98119098 heartbeat IPC: 0.855332 cumulative IPC: 0.915622 (Simulation time: 0 hr 57 min 29 sec) 
Heartbeat CPU 0 instructions: 97000002 cycles: 99336019 heartbeat IPC: 0.821748 cumulative IPC: 0.914422 (Simulation time: 0 hr 57 min 58 sec) 
Heartbeat CPU 0 instructions: 98000000 cycles: 100567936 heartbeat IPC: 0.811741 cumulative IPC: 0.913109 (Simulation time: 0 hr 58 min 25 sec) 
Heartbeat CPU 0 instructions: 99000000 cycles: 101807278 heartbeat IPC: 0.80688 cumulative IPC: 0.91176 (Simulation time: 0 hr 58 min 54 sec) 
Heartbeat CPU 0 instructions: 100000000 cycles: 103049337 heartbeat IPC: 0.805115 cumulative IPC: 0.91042 (Simulation time: 0 hr 59 min 24 sec) 
Heartbeat CPU 0 instructions: 101000003 cycles: 104197145 heartbeat IPC: 0.871228 cumulative IPC: 0.909971 (Simulation time: 0 hr 59 min 50 sec) 
Heartbeat CPU 0 instructions: 102000000 cycles: 105316377 heartbeat IPC: 0.893467 cumulative IPC: 0.909788 (Simulation time: 1 hr 0 min 19 sec) 
Heartbeat CPU 0 instructions: 103000000 cycles: 106417733 heartbeat IPC: 0.907972 cumulative IPC: 0.909768 (Simulation time: 1 hr 0 min 49 sec) 
Heartbeat CPU 0 instructions: 104000000 cycles: 107570513 heartbeat IPC: 0.867468 cumulative IPC: 0.909297 (Simulation time: 1 hr 1 min 17 sec) 
Heartbeat CPU 0 instructions: 105000002 cycles: 108782404 heartbeat IPC: 0.825158 cumulative IPC: 0.908322 (Simulation time: 1 hr 1 min 45 sec) 
Heartbeat CPU 0 instructions: 106000001 cycles: 109915963 heartbeat IPC: 0.882176 cumulative IPC: 0.908041 (Simulation time: 1 hr 2 min 12 sec) 
Heartbeat CPU 0 instructions: 107000000 cycles: 111119675 heartbeat IPC: 0.830763 cumulative IPC: 0.907171 (Simulation time: 1 hr 2 min 43 sec) 
Heartbeat CPU 0 instructions: 108000000 cycles: 112318022 heartbeat IPC: 0.834483 cumulative IPC: 0.906366 (Simulation time: 1 hr 3 min 15 sec) 
Heartbeat CPU 0 instructions: 109000000 cycles: 113330374 heartbeat IPC: 0.987799 cumulative IPC: 0.907121 (Simulation time: 1 hr 3 min 43 sec) 
Heartbeat CPU 0 instructions: 110000000 cycles: 114490963 heartbeat IPC: 0.861631 cumulative IPC: 0.906643 (Simulation time: 1 hr 4 min 15 sec) 
Finished CPU 0 instructions: 100000002 cycles: 110297045 cummulative IPC: 0.906643 (Simulation time: 1 hr 4 min 15 sec) 

ChampSim completed all CPUs

Region of Interest Statistics

CPU 0 cummulative IPC: 0.906643 instructions: 100000002 cycles: 110297045
LLC TOTAL     ACCESS:    1373503  HIT:     990461  MISS:     383042
LLC LOAD      ACCESS:     396195  HIT:     335080  MISS:      61115
LLC RFO       ACCESS:     104383  HIT:      36252  MISS:      68131
LLC PREFETCH  ACCESS:     675943  HIT:     476312  MISS:     199631
LLC WRITEBACK ACCESS:     196982  HIT:     142817  MISS:      54165
