
*** ChampSim Multicore Out-of-Order Simulator ***

Warmup Instructions: 10000000
Simulation Instructions: 100000000
Configuration: 2
Number of CPUs: 1
LLC sets: 2048
LLC ways: 16
Off-chip DRAM Channels: 1 Width: 64-bit Data Rate: 1600 MT/s

CPU 0 runs /datasets/cs240c-wi22-a00-public/data/Assignment2-gz/cactusADM_734B.trace.gz
CPU 0 L1D next line prefetcher
CPU 0 L2C IP-based stride prefetcher
Heartbeat CPU 0 instructions: 1000003 cycles: 592726 heartbeat IPC: 1.68713 cumulative IPC: 1.68713 (Simulation time: 0 hr 0 min 50 sec) 
Heartbeat CPU 0 instructions: 2000001 cycles: 1185927 heartbeat IPC: 1.68577 cumulative IPC: 1.68645 (Simulation time: 0 hr 1 min 38 sec) 
Heartbeat CPU 0 instructions: 3000003 cycles: 1778979 heartbeat IPC: 1.6862 cumulative IPC: 1.68636 (Simulation time: 0 hr 2 min 28 sec) 
Heartbeat CPU 0 instructions: 4000000 cycles: 2371929 heartbeat IPC: 1.68648 cumulative IPC: 1.68639 (Simulation time: 0 hr 3 min 17 sec) 
Heartbeat CPU 0 instructions: 5000000 cycles: 2965279 heartbeat IPC: 1.68535 cumulative IPC: 1.68618 (Simulation time: 0 hr 4 min 5 sec) 
Heartbeat CPU 0 instructions: 6000002 cycles: 3558551 heartbeat IPC: 1.68557 cumulative IPC: 1.68608 (Simulation time: 0 hr 4 min 56 sec) 
Heartbeat CPU 0 instructions: 7000000 cycles: 4151394 heartbeat IPC: 1.68678 cumulative IPC: 1.68618 (Simulation time: 0 hr 5 min 47 sec) 
Heartbeat CPU 0 instructions: 8000000 cycles: 4744343 heartbeat IPC: 1.68649 cumulative IPC: 1.68622 (Simulation time: 0 hr 6 min 37 sec) 
Heartbeat CPU 0 instructions: 9000001 cycles: 5337493 heartbeat IPC: 1.68592 cumulative IPC: 1.68619 (Simulation time: 0 hr 7 min 26 sec) 
Heartbeat CPU 0 instructions: 10000003 cycles: 5958967 heartbeat IPC: 1.60908 cumulative IPC: 1.67814 (Simulation time: 0 hr 8 min 24 sec) 

Warmup complete CPU 0 instructions: 10000003 cycles: 5958967 (Simulation time: 0 hr 8 min 24 sec) 

Heartbeat CPU 0 instructions: 11000002 cycles: 12560137 heartbeat IPC: 0.151488 cumulative IPC: 0.151488 (Simulation time: 0 hr 9 min 41 sec) 
Heartbeat CPU 0 instructions: 12000000 cycles: 14302410 heartbeat IPC: 0.573962 cumulative IPC: 0.239709 (Simulation time: 0 hr 10 min 47 sec) 
Heartbeat CPU 0 instructions: 13000002 cycles: 15990183 heartbeat IPC: 0.592498 cumulative IPC: 0.299066 (Simulation time: 0 hr 11 min 50 sec) 
Heartbeat CPU 0 instructions: 14000000 cycles: 17675720 heartbeat IPC: 0.593282 cumulative IPC: 0.341391 (Simulation time: 0 hr 12 min 59 sec) 
Heartbeat CPU 0 instructions: 15000003 cycles: 19415381 heartbeat IPC: 0.574826 cumulative IPC: 0.37157 (Simulation time: 0 hr 14 min 15 sec) 
Heartbeat CPU 0 instructions: 16000000 cycles: 21157943 heartbeat IPC: 0.573866 cumulative IPC: 0.394763 (Simulation time: 0 hr 15 min 19 sec) 
Heartbeat CPU 0 instructions: 17000002 cycles: 22892119 heartbeat IPC: 0.576644 cumulative IPC: 0.41339 (Simulation time: 0 hr 16 min 24 sec) 
Heartbeat CPU 0 instructions: 18000001 cycles: 24550198 heartbeat IPC: 0.603107 cumulative IPC: 0.43031 (Simulation time: 0 hr 17 min 29 sec) 
Heartbeat CPU 0 instructions: 19000000 cycles: 26267148 heartbeat IPC: 0.582428 cumulative IPC: 0.443171 (Simulation time: 0 hr 18 min 35 sec) 
Heartbeat CPU 0 instructions: 20000000 cycles: 28010017 heartbeat IPC: 0.573767 cumulative IPC: 0.453493 (Simulation time: 0 hr 19 min 38 sec) 
Heartbeat CPU 0 instructions: 21000002 cycles: 29753478 heartbeat IPC: 0.573573 cumulative IPC: 0.462291 (Simulation time: 0 hr 20 min 38 sec) 
Heartbeat CPU 0 instructions: 22000000 cycles: 31462722 heartbeat IPC: 0.585053 cumulative IPC: 0.470519 (Simulation time: 0 hr 21 min 42 sec) 
Heartbeat CPU 0 instructions: 23000001 cycles: 33127018 heartbeat IPC: 0.600855 cumulative IPC: 0.478503 (Simulation time: 0 hr 22 min 45 sec) 
Heartbeat CPU 0 instructions: 24000000 cycles: 40800630 heartbeat IPC: 0.130317 cumulative IPC: 0.401818 (Simulation time: 0 hr 23 min 55 sec) 
Heartbeat CPU 0 instructions: 25000000 cycles: 42541999 heartbeat IPC: 0.574261 cumulative IPC: 0.410026 (Simulation time: 0 hr 24 min 54 sec) 
Heartbeat CPU 0 instructions: 26000002 cycles: 44276653 heartbeat IPC: 0.576485 cumulative IPC: 0.417562 (Simulation time: 0 hr 25 min 47 sec) 
Heartbeat CPU 0 instructions: 27000002 cycles: 45940477 heartbeat IPC: 0.601025 cumulative IPC: 0.425197 (Simulation time: 0 hr 26 min 41 sec) 
Heartbeat CPU 0 instructions: 28000000 cycles: 47666432 heartbeat IPC: 0.579388 cumulative IPC: 0.431577 (Simulation time: 0 hr 27 min 30 sec) 
Heartbeat CPU 0 instructions: 29000001 cycles: 49425619 heartbeat IPC: 0.568445 cumulative IPC: 0.437117 (Simulation time: 0 hr 28 min 19 sec) 
Heartbeat CPU 0 instructions: 30000001 cycles: 51167872 heartbeat IPC: 0.573969 cumulative IPC: 0.442391 (Simulation time: 0 hr 29 min 9 sec) 
Heartbeat CPU 0 instructions: 31000003 cycles: 52880702 heartbeat IPC: 0.58383 cumulative IPC: 0.447554 (Simulation time: 0 hr 29 min 58 sec) 
Heartbeat CPU 0 instructions: 32000000 cycles: 54539352 heartbeat IPC: 0.602898 cumulative IPC: 0.452858 (Simulation time: 0 hr 30 min 48 sec) 
Heartbeat CPU 0 instructions: 33000000 cycles: 56274597 heartbeat IPC: 0.576288 cumulative IPC: 0.457114 (Simulation time: 0 hr 31 min 38 sec) 
Heartbeat CPU 0 instructions: 34000001 cycles: 58018832 heartbeat IPC: 0.573318 cumulative IPC: 0.461008 (Simulation time: 0 hr 32 min 26 sec) 
Heartbeat CPU 0 instructions: 35000000 cycles: 59756997 heartbeat IPC: 0.575319 cumulative IPC: 0.464701 (Simulation time: 0 hr 33 min 14 sec) 
Heartbeat CPU 0 instructions: 36000000 cycles: 61440079 heartbeat IPC: 0.594148 cumulative IPC: 0.468628 (Simulation time: 0 hr 34 min 4 sec) 
Heartbeat CPU 0 instructions: 37000003 cycles: 69057057 heartbeat IPC: 0.131286 cumulative IPC: 0.427905 (Simulation time: 0 hr 35 min 5 sec) 
Heartbeat CPU 0 instructions: 38000001 cycles: 70798272 heartbeat IPC: 0.57431 cumulative IPC: 0.431837 (Simulation time: 0 hr 35 min 56 sec) 
Heartbeat CPU 0 instructions: 39000001 cycles: 72539135 heartbeat IPC: 0.574428 cumulative IPC: 0.435565 (Simulation time: 0 hr 36 min 48 sec) 
Heartbeat CPU 0 instructions: 40000000 cycles: 74256824 heartbeat IPC: 0.582177 cumulative IPC: 0.439252 (Simulation time: 0 hr 37 min 36 sec) 
Heartbeat CPU 0 instructions: 41000001 cycles: 75912264 heartbeat IPC: 0.60407 cumulative IPC: 0.443153 (Simulation time: 0 hr 38 min 25 sec) 
Heartbeat CPU 0 instructions: 42000002 cycles: 77648257 heartbeat IPC: 0.57604 cumulative IPC: 0.446371 (Simulation time: 0 hr 39 min 16 sec) 
Heartbeat CPU 0 instructions: 43000000 cycles: 79389624 heartbeat IPC: 0.57426 cumulative IPC: 0.449404 (Simulation time: 0 hr 40 min 5 sec) 
Heartbeat CPU 0 instructions: 44000000 cycles: 81129914 heartbeat IPC: 0.574617 cumulative IPC: 0.452302 (Simulation time: 0 hr 40 min 57 sec) 
Heartbeat CPU 0 instructions: 45000000 cycles: 82815503 heartbeat IPC: 0.593264 cumulative IPC: 0.455394 (Simulation time: 0 hr 41 min 55 sec) 
Heartbeat CPU 0 instructions: 46000003 cycles: 84498987 heartbeat IPC: 0.594008 cumulative IPC: 0.458365 (Simulation time: 0 hr 42 min 51 sec) 
Heartbeat CPU 0 instructions: 47000001 cycles: 86237395 heartbeat IPC: 0.575238 cumulative IPC: 0.460896 (Simulation time: 0 hr 43 min 44 sec) 
Heartbeat CPU 0 instructions: 48000000 cycles: 87978576 heartbeat IPC: 0.574322 cumulative IPC: 0.463304 (Simulation time: 0 hr 44 min 36 sec) 
Heartbeat CPU 0 instructions: 49000000 cycles: 89715084 heartbeat IPC: 0.575868 cumulative IPC: 0.465638 (Simulation time: 0 hr 45 min 29 sec) 
Heartbeat CPU 0 instructions: 50000001 cycles: 97241714 heartbeat IPC: 0.132862 cumulative IPC: 0.438199 (Simulation time: 0 hr 46 min 38 sec) 
Heartbeat CPU 0 instructions: 51000000 cycles: 98972354 heartbeat IPC: 0.57782 cumulative IPC: 0.440797 (Simulation time: 0 hr 47 min 29 sec) 
Heartbeat CPU 0 instructions: 52000000 cycles: 100712538 heartbeat IPC: 0.574652 cumulative IPC: 0.443255 (Simulation time: 0 hr 48 min 26 sec) 
Heartbeat CPU 0 instructions: 53000003 cycles: 102451990 heartbeat IPC: 0.574895 cumulative IPC: 0.445628 (Simulation time: 0 hr 49 min 21 sec) 
Heartbeat CPU 0 instructions: 54000000 cycles: 104140329 heartbeat IPC: 0.592296 cumulative IPC: 0.44815 (Simulation time: 0 hr 50 min 22 sec) 
Heartbeat CPU 0 instructions: 55000001 cycles: 105817327 heartbeat IPC: 0.596304 cumulative IPC: 0.450638 (Simulation time: 0 hr 51 min 36 sec) 
Heartbeat CPU 0 instructions: 56000000 cycles: 107569348 heartbeat IPC: 0.570769 cumulative IPC: 0.45271 (Simulation time: 0 hr 52 min 35 sec) 
Heartbeat CPU 0 instructions: 57000000 cycles: 109318618 heartbeat IPC: 0.571667 cumulative IPC: 0.454723 (Simulation time: 0 hr 53 min 29 sec) 
Heartbeat CPU 0 instructions: 58000001 cycles: 111052895 heartbeat IPC: 0.57661 cumulative IPC: 0.456734 (Simulation time: 0 hr 54 min 23 sec) 
Heartbeat CPU 0 instructions: 59000000 cycles: 112711416 heartbeat IPC: 0.602946 cumulative IPC: 0.459006 (Simulation time: 0 hr 55 min 19 sec) 
Heartbeat CPU 0 instructions: 60000000 cycles: 114417958 heartbeat IPC: 0.58598 cumulative IPC: 0.461004 (Simulation time: 0 hr 56 min 14 sec) 
Heartbeat CPU 0 instructions: 61000002 cycles: 116157279 heartbeat IPC: 0.574938 cumulative IPC: 0.462802 (Simulation time: 0 hr 57 min 15 sec) 
Heartbeat CPU 0 instructions: 62000002 cycles: 117897199 heartbeat IPC: 0.574739 cumulative IPC: 0.464542 (Simulation time: 0 hr 58 min 9 sec) 
Heartbeat CPU 0 instructions: 63000002 cycles: 125348575 heartbeat IPC: 0.134203 cumulative IPC: 0.443925 (Simulation time: 0 hr 59 min 13 sec) 
Heartbeat CPU 0 instructions: 64000000 cycles: 127301926 heartbeat IPC: 0.51194 cumulative IPC: 0.44502 (Simulation time: 1 hr 0 min 4 sec) 
Heartbeat CPU 0 instructions: 65000003 cycles: 129038506 heartbeat IPC: 0.575846 cumulative IPC: 0.446865 (Simulation time: 1 hr 0 min 56 sec) 
Heartbeat CPU 0 instructions: 66000001 cycles: 130779657 heartbeat IPC: 0.574332 cumulative IPC: 0.448644 (Simulation time: 1 hr 1 min 48 sec) 
Heartbeat CPU 0 instructions: 67000000 cycles: 132516277 heartbeat IPC: 0.575831 cumulative IPC: 0.450389 (Simulation time: 1 hr 2 min 39 sec) 
Heartbeat CPU 0 instructions: 68000000 cycles: 134179607 heartbeat IPC: 0.601204 cumulative IPC: 0.452345 (Simulation time: 1 hr 3 min 29 sec) 
Heartbeat CPU 0 instructions: 69000000 cycles: 135880827 heartbeat IPC: 0.587813 cumulative IPC: 0.454119 (Simulation time: 1 hr 4 min 19 sec) 
Heartbeat CPU 0 instructions: 70000001 cycles: 137621987 heartbeat IPC: 0.57433 cumulative IPC: 0.455709 (Simulation time: 1 hr 5 min 9 sec) 
Heartbeat CPU 0 instructions: 71000001 cycles: 139364145 heartbeat IPC: 0.574001 cumulative IPC: 0.457254 (Simulation time: 1 hr 5 min 58 sec) 
Heartbeat CPU 0 instructions: 72000000 cycles: 141085403 heartbeat IPC: 0.58097 cumulative IPC: 0.45883 (Simulation time: 1 hr 6 min 46 sec) 
Heartbeat CPU 0 instructions: 73000003 cycles: 142734978 heartbeat IPC: 0.606219 cumulative IPC: 0.460607 (Simulation time: 1 hr 7 min 32 sec) 
Heartbeat CPU 0 instructions: 74000002 cycles: 144467895 heartbeat IPC: 0.577061 cumulative IPC: 0.462064 (Simulation time: 1 hr 8 min 16 sec) 
Heartbeat CPU 0 instructions: 75000002 cycles: 146208446 heartbeat IPC: 0.574531 cumulative IPC: 0.46346 (Simulation time: 1 hr 8 min 59 sec) 
Heartbeat CPU 0 instructions: 76000000 cycles: 152450314 heartbeat IPC: 0.160208 cumulative IPC: 0.450539 (Simulation time: 1 hr 9 min 48 sec) 
Heartbeat CPU 0 instructions: 77000000 cycles: 155645891 heartbeat IPC: 0.312933 cumulative IPC: 0.447601 (Simulation time: 1 hr 10 min 36 sec) 
Heartbeat CPU 0 instructions: 78000002 cycles: 157343063 heartbeat IPC: 0.589217 cumulative IPC: 0.449189 (Simulation time: 1 hr 11 min 15 sec) 
Heartbeat CPU 0 instructions: 79000002 cycles: 159084941 heartbeat IPC: 0.574093 cumulative IPC: 0.450609 (Simulation time: 1 hr 11 min 56 sec) 
Heartbeat CPU 0 instructions: 80000000 cycles: 160824026 heartbeat IPC: 0.575014 cumulative IPC: 0.452006 (Simulation time: 1 hr 12 min 34 sec) 
Heartbeat CPU 0 instructions: 81000000 cycles: 162552771 heartbeat IPC: 0.578454 cumulative IPC: 0.453402 (Simulation time: 1 hr 13 min 5 sec) 
Heartbeat CPU 0 instructions: 82000003 cycles: 164199120 heartbeat IPC: 0.607406 cumulative IPC: 0.455005 (Simulation time: 1 hr 13 min 38 sec) 
Heartbeat CPU 0 instructions: 83000003 cycles: 165930344 heartbeat IPC: 0.577626 cumulative IPC: 0.456332 (Simulation time: 1 hr 14 min 13 sec) 
Heartbeat CPU 0 instructions: 84000000 cycles: 167670320 heartbeat IPC: 0.574719 cumulative IPC: 0.457605 (Simulation time: 1 hr 14 min 47 sec) 
Heartbeat CPU 0 instructions: 85000003 cycles: 169410358 heartbeat IPC: 0.574702 cumulative IPC: 0.458852 (Simulation time: 1 hr 15 min 21 sec) 
Heartbeat CPU 0 instructions: 86000000 cycles: 171105455 heartbeat IPC: 0.589935 cumulative IPC: 0.460197 (Simulation time: 1 hr 15 min 54 sec) 
Heartbeat CPU 0 instructions: 87000000 cycles: 172779829 heartbeat IPC: 0.597238 cumulative IPC: 0.461573 (Simulation time: 1 hr 16 min 20 sec) 
Heartbeat CPU 0 instructions: 88000000 cycles: 174546859 heartbeat IPC: 0.565921 cumulative IPC: 0.462667 (Simulation time: 1 hr 16 min 47 sec) 
Heartbeat CPU 0 instructions: 89000002 cycles: 179700464 heartbeat IPC: 0.194039 cumulative IPC: 0.454699 (Simulation time: 1 hr 17 min 18 sec) 
Heartbeat CPU 0 instructions: 90000002 cycles: 183997437 heartbeat IPC: 0.232722 cumulative IPC: 0.449341 (Simulation time: 1 hr 17 min 48 sec) 
Heartbeat CPU 0 instructions: 91000003 cycles: 185646774 heartbeat IPC: 0.606305 cumulative IPC: 0.450782 (Simulation time: 1 hr 18 min 14 sec) 
Heartbeat CPU 0 instructions: 92000000 cycles: 187375699 heartbeat IPC: 0.578392 cumulative IPC: 0.451998 (Simulation time: 1 hr 18 min 41 sec) 
Heartbeat CPU 0 instructions: 93000000 cycles: 189116733 heartbeat IPC: 0.574371 cumulative IPC: 0.453161 (Simulation time: 1 hr 19 min 2 sec) 
Heartbeat CPU 0 instructions: 94000003 cycles: 190860095 heartbeat IPC: 0.573606 cumulative IPC: 0.454297 (Simulation time: 1 hr 19 min 23 sec) 
Heartbeat CPU 0 instructions: 95000000 cycles: 192561408 heartbeat IPC: 0.58778 cumulative IPC: 0.455514 (Simulation time: 1 hr 19 min 44 sec) 
Heartbeat CPU 0 instructions: 96000000 cycles: 194232463 heartbeat IPC: 0.598424 cumulative IPC: 0.456782 (Simulation time: 1 hr 20 min 3 sec) 
Heartbeat CPU 0 instructions: 97000001 cycles: 195969731 heartbeat IPC: 0.575617 cumulative IPC: 0.457869 (Simulation time: 1 hr 20 min 22 sec) 
Heartbeat CPU 0 instructions: 98000000 cycles: 197711550 heartbeat IPC: 0.574112 cumulative IPC: 0.458925 (Simulation time: 1 hr 20 min 39 sec) 
Heartbeat CPU 0 instructions: 99000001 cycles: 199450584 heartbeat IPC: 0.575032 cumulative IPC: 0.459968 (Simulation time: 1 hr 20 min 56 sec) 
Heartbeat CPU 0 instructions: 100000000 cycles: 201120164 heartbeat IPC: 0.598952 cumulative IPC: 0.461157 (Simulation time: 1 hr 21 min 12 sec) 
Heartbeat CPU 0 instructions: 101000000 cycles: 202821793 heartbeat IPC: 0.587672 cumulative IPC: 0.462251 (Simulation time: 1 hr 21 min 29 sec) 
Heartbeat CPU 0 instructions: 102000002 cycles: 206872039 heartbeat IPC: 0.246899 cumulative IPC: 0.457909 (Simulation time: 1 hr 21 min 46 sec) 
Heartbeat CPU 0 instructions: 103000000 cycles: 212274546 heartbeat IPC: 0.185099 cumulative IPC: 0.450766 (Simulation time: 1 hr 22 min 3 sec) 
Heartbeat CPU 0 instructions: 104000000 cycles: 213979695 heartbeat IPC: 0.586459 cumulative IPC: 0.451878 (Simulation time: 1 hr 22 min 16 sec) 
Heartbeat CPU 0 instructions: 105000000 cycles: 215645026 heartbeat IPC: 0.600481 cumulative IPC: 0.453058 (Simulation time: 1 hr 22 min 27 sec) 
Heartbeat CPU 0 instructions: 106000002 cycles: 217379906 heartbeat IPC: 0.57641 cumulative IPC: 0.45407 (Simulation time: 1 hr 22 min 38 sec) 
Heartbeat CPU 0 instructions: 107000001 cycles: 219122099 heartbeat IPC: 0.573989 cumulative IPC: 0.455051 (Simulation time: 1 hr 22 min 48 sec) 
Heartbeat CPU 0 instructions: 108000000 cycles: 220858944 heartbeat IPC: 0.575756 cumulative IPC: 0.456026 (Simulation time: 1 hr 22 min 56 sec) 
Heartbeat CPU 0 instructions: 109000001 cycles: 222532826 heartbeat IPC: 0.597414 cumulative IPC: 0.457119 (Simulation time: 1 hr 23 min 4 sec) 
Heartbeat CPU 0 instructions: 110000003 cycles: 224227126 heartbeat IPC: 0.590215 cumulative IPC: 0.458152 (Simulation time: 1 hr 23 min 12 sec) 
Finished CPU 0 instructions: 100000000 cycles: 218268159 cummulative IPC: 0.458152 (Simulation time: 1 hr 23 min 12 sec) 

ChampSim completed all CPUs

Region of Interest Statistics

CPU 0 cummulative IPC: 0.458152 instructions: 100000000 cycles: 218268159
LLC TOTAL     ACCESS:    1167517  HIT:     370047  MISS:     797470
LLC LOAD      ACCESS:      25987  HIT:       1079  MISS:      24908
LLC RFO       ACCESS:     264086  HIT:        274  MISS:     263812
LLC PREFETCH  ACCESS:     611336  HIT:     110078  MISS:     501258
LLC WRITEBACK ACCESS:     266108  HIT:     258616  MISS:       7492
