Initialize SIGNATURE TABLE
ST_SET: 1
ST_WAY: 256
ST_TAG_BIT: 16
ST_TAG_MASK: ffff

Initialize PATTERN TABLE
PT_SET: 512
PT_WAY: 4
SIG_DELTA_BIT: 7
C_SIG_BIT: 4
C_DELTA_BIT: 4

Initialize PREFETCH FILTER
FILTER_SET: 1024

*** ChampSim Multicore Out-of-Order Simulator ***

Warmup Instructions: 50000000
Simulation Instructions: 50000000
Number of CPUs: 1
LLC sets: 2048
LLC ways: 16
Off-chip DRAM Size: 4096 MB Channels: 1 Width: 64-bit Data Rate: 3200 MT/s

CPU 0 runs /Users/gandhardeshpande/Desktop/CSE240C/HW1/ChampSim/ipc1_public/client_007.champsimtrace.xz
CPU 0 L1I next line prefetcher
CPU 0 L1D next line prefetcher
Heartbeat CPU 0 instructions: 10000001 cycles: 3641711 heartbeat IPC: 2.74596 cumulative IPC: 2.74596 (Simulation time: 0 hr 0 min 14 sec) 
Heartbeat CPU 0 instructions: 20000003 cycles: 7032966 heartbeat IPC: 2.94876 cumulative IPC: 2.84375 (Simulation time: 0 hr 0 min 26 sec) 
Heartbeat CPU 0 instructions: 30000000 cycles: 10904025 heartbeat IPC: 2.58327 cumulative IPC: 2.75128 (Simulation time: 0 hr 0 min 43 sec) 
Heartbeat CPU 0 instructions: 40000003 cycles: 15064191 heartbeat IPC: 2.40375 cumulative IPC: 2.6553 (Simulation time: 0 hr 0 min 58 sec) 
Heartbeat CPU 0 instructions: 50000002 cycles: 18468561 heartbeat IPC: 2.9374 cumulative IPC: 2.7073 (Simulation time: 0 hr 1 min 12 sec) 

Warmup complete CPU 0 instructions: 50000002 cycles: 18468561 (Simulation time: 0 hr 1 min 12 sec) 

Heartbeat CPU 0 instructions: 60000003 cycles: 25356996 heartbeat IPC: 1.45171 cumulative IPC: 1.45171 (Simulation time: 0 hr 1 min 26 sec) 
Heartbeat CPU 0 instructions: 70000003 cycles: 34222782 heartbeat IPC: 1.12793 cumulative IPC: 1.2695 (Simulation time: 0 hr 1 min 40 sec) 
Heartbeat CPU 0 instructions: 80000002 cycles: 39525169 heartbeat IPC: 1.88594 cumulative IPC: 1.42473 (Simulation time: 0 hr 1 min 50 sec) 
Heartbeat CPU 0 instructions: 90000002 cycles: 47124917 heartbeat IPC: 1.31583 cumulative IPC: 1.39585 (Simulation time: 0 hr 2 min 3 sec) 
Heartbeat CPU 0 instructions: 100000002 cycles: 56043729 heartbeat IPC: 1.12123 cumulative IPC: 1.33067 (Simulation time: 0 hr 2 min 15 sec) 
Finished CPU 0 instructions: 50000000 cycles: 37575168 cumulative IPC: 1.33067 (Simulation time: 0 hr 2 min 15 sec) 

ChampSim completed all CPUs

Region of Interest Statistics

CPU 0 cumulative IPC: 1.33067 instructions: 50000000 cycles: 37575168
L1D TOTAL     ACCESS:   21200654  HIT:   20031570  MISS:    1169084
L1D LOAD      ACCESS:    8371264  HIT:    7831397  MISS:     539867
L1D RFO       ACCESS:    4868925  HIT:    4777856  MISS:      91069
L1D PREFETCH  ACCESS:    7960465  HIT:    7422317  MISS:     538148
L1D WRITEBACK ACCESS:          0  HIT:          0  MISS:          0
L1D PREFETCH  REQUESTED:    8423597  ISSUED:    8179557  USEFUL:     157626  USELESS:     380537
L1D AVERAGE MISS LATENCY: 34.4042 cycles
L1I TOTAL     ACCESS:   10643161  HIT:    9504507  MISS:    1138654
L1I LOAD      ACCESS:    9127900  HIT:    9098643  MISS:      29257
L1I RFO       ACCESS:          0  HIT:          0  MISS:          0
L1I PREFETCH  ACCESS:    1515261  HIT:     405864  MISS:    1109397
L1I WRITEBACK ACCESS:          0  HIT:          0  MISS:          0
L1I PREFETCH  REQUESTED:    1538404  ISSUED:    1538404  USEFUL:     853536  USELESS:     255932
L1I AVERAGE MISS LATENCY: 16.3171 cycles
L2C TOTAL     ACCESS:    3291418  HIT:    3082477  MISS:     208941
L2C LOAD      ACCESS:     535482  HIT:     465324  MISS:      70158
L2C RFO       ACCESS:      89517  HIT:      48136  MISS:      41381
L2C PREFETCH  ACCESS:    2338759  HIT:    2241441  MISS:      97318
L2C WRITEBACK ACCESS:     327660  HIT:     327576  MISS:         84
L2C PREFETCH  REQUESTED:    2678759  ISSUED:    2674809  USEFUL:       9372  USELESS:      88141
L2C AVERAGE MISS LATENCY: 123.619 cycles
LLC TOTAL     ACCESS:    1006078  HIT:     838041  MISS:     168037
LLC LOAD      ACCESS:      70060  HIT:      34931  MISS:      35129
LLC RFO       ACCESS:      41381  HIT:       6940  MISS:      34441
LLC PREFETCH  ACCESS:     820559  HIT:     722378  MISS:      98181
LLC WRITEBACK ACCESS:      74078  HIT:      73792  MISS:        286
LLC PREFETCH  REQUESTED:          0  ISSUED:          0  USEFUL:      18483  USELESS:      80474
LLC AVERAGE MISS LATENCY: 181.263 cycles
Major fault: 0 Minor fault: 4407
I-Shadow cache 408 bytes
Touched + WorthPF tables 24576 bytes 
MMA filter 174 bytes 
FNL filter 272 bytes 
TOTAL PREFETCHER STORAGE SIZE: 98134 bytes
CPU 0 L1I next line prefetcher final stats
CPU 0 L1D next line prefetcher final stats

DRAM Statistics
 CHANNEL 0
 RQ ROW_BUFFER_HIT:      35819  ROW_BUFFER_MISS:     131926
 DBUS_CONGESTED:      94613
 WQ ROW_BUFFER_HIT:      13031  ROW_BUFFER_MISS:      45083  FULL:          0

 AVG_CONGESTED_CYCLE: 5

CPU 0 Branch Prediction Accuracy: 98.8607% MPKI: 1.8623 Average ROB Occupancy at Mispredict: 113.314

Branch types
NOT_BRANCH: 41826773 83.6535%
BRANCH_DIRECT_JUMP: 735330 1.47066%
BRANCH_INDIRECT: 269194 0.538388%
BRANCH_CONDITIONAL: 5957947 11.9159%
BRANCH_DIRECT_CALL: 368758 0.737516%
BRANCH_INDIRECT_CALL: 226975 0.45395%
BRANCH_RETURN: 614696 1.22939%
BRANCH_OTHER: 0 0%

