Initialize SIGNATURE TABLE
ST_SET: 1
ST_WAY: 256
ST_TAG_BIT: 16
ST_TAG_MASK: ffff

Initialize PATTERN TABLE
PT_SET: 512
PT_WAY: 4
SIG_DELTA_BIT: 7
C_SIG_BIT: 4
C_DELTA_BIT: 4

Initialize PREFETCH FILTER
FILTER_SET: 1024

*** ChampSim Multicore Out-of-Order Simulator ***

Warmup Instructions: 50000000
Simulation Instructions: 50000000
Number of CPUs: 1
LLC sets: 2048
LLC ways: 16
Off-chip DRAM Size: 4096 MB Channels: 1 Width: 64-bit Data Rate: 3200 MT/s

CPU 0 runs /Users/gandhardeshpande/Desktop/CSE240C/HW1/ChampSim/ipc1_public/server_023.champsimtrace.xz
CPU 0 L1I next line prefetcher
CPU 0 L1D next line prefetcher
Heartbeat CPU 0 instructions: 10000000 cycles: 3502573 heartbeat IPC: 2.85504 cumulative IPC: 2.85504 (Simulation time: 0 hr 0 min 15 sec) 
Heartbeat CPU 0 instructions: 20000000 cycles: 7004105 heartbeat IPC: 2.85589 cumulative IPC: 2.85547 (Simulation time: 0 hr 0 min 29 sec) 
Heartbeat CPU 0 instructions: 30000001 cycles: 10498176 heartbeat IPC: 2.86199 cumulative IPC: 2.85764 (Simulation time: 0 hr 0 min 44 sec) 
Heartbeat CPU 0 instructions: 40000003 cycles: 13998828 heartbeat IPC: 2.85661 cumulative IPC: 2.85738 (Simulation time: 0 hr 0 min 59 sec) 
Heartbeat CPU 0 instructions: 50000001 cycles: 17500331 heartbeat IPC: 2.85592 cumulative IPC: 2.85709 (Simulation time: 0 hr 1 min 13 sec) 

Warmup complete CPU 0 instructions: 50000001 cycles: 17500331 (Simulation time: 0 hr 1 min 13 sec) 

Heartbeat CPU 0 instructions: 60000002 cycles: 24258943 heartbeat IPC: 1.47959 cumulative IPC: 1.47959 (Simulation time: 0 hr 1 min 28 sec) 
Heartbeat CPU 0 instructions: 70000002 cycles: 31216299 heartbeat IPC: 1.43733 cumulative IPC: 1.45815 (Simulation time: 0 hr 1 min 43 sec) 
Heartbeat CPU 0 instructions: 80000000 cycles: 38090283 heartbeat IPC: 1.45476 cumulative IPC: 1.45702 (Simulation time: 0 hr 1 min 58 sec) 
Heartbeat CPU 0 instructions: 90000000 cycles: 44988077 heartbeat IPC: 1.44974 cumulative IPC: 1.45519 (Simulation time: 0 hr 2 min 11 sec) 
Heartbeat CPU 0 instructions: 100000001 cycles: 51834034 heartbeat IPC: 1.46072 cumulative IPC: 1.4563 (Simulation time: 0 hr 2 min 26 sec) 
Finished CPU 0 instructions: 50000000 cycles: 34333703 cumulative IPC: 1.4563 (Simulation time: 0 hr 2 min 26 sec) 

ChampSim completed all CPUs

Region of Interest Statistics

CPU 0 cumulative IPC: 1.4563 instructions: 50000000 cycles: 34333703
L1D TOTAL     ACCESS:   19359617  HIT:   17892849  MISS:    1466768
L1D LOAD      ACCESS:    6849149  HIT:    6188244  MISS:     660905
L1D RFO       ACCESS:    5982759  HIT:    5721156  MISS:     261603
L1D PREFETCH  ACCESS:    6527709  HIT:    5983449  MISS:     544260
L1D WRITEBACK ACCESS:          0  HIT:          0  MISS:          0
L1D PREFETCH  REQUESTED:    6899056  ISSUED:    6777582  USEFUL:     129930  USELESS:     414337
L1D AVERAGE MISS LATENCY: 25.022 cycles
L1I TOTAL     ACCESS:   13911685  HIT:   10626283  MISS:    3285402
L1I LOAD      ACCESS:    9436437  HIT:    9347697  MISS:      88740
L1I RFO       ACCESS:          0  HIT:          0  MISS:          0
L1I PREFETCH  ACCESS:    4475248  HIT:    1278586  MISS:    3196662
L1I WRITEBACK ACCESS:          0  HIT:          0  MISS:          0
L1I PREFETCH  REQUESTED:    4657359  ISSUED:    4656578  USEFUL:    2402030  USELESS:     794642
L1I AVERAGE MISS LATENCY: 18.5693 cycles
L2C TOTAL     ACCESS:    6384941  HIT:    5627158  MISS:     757783
L2C LOAD      ACCESS:     638504  HIT:     499705  MISS:     138799
L2C RFO       ACCESS:     259361  HIT:     172233  MISS:      87128
L2C PREFETCH  ACCESS:    4987832  HIT:    4459281  MISS:     528551
L2C WRITEBACK ACCESS:     499244  HIT:     495939  MISS:       3305
L2C PREFETCH  REQUESTED:    6236165  ISSUED:    6225015  USEFUL:      15378  USELESS:     513267
L2C AVERAGE MISS LATENCY: 41.5803 cycles
LLC TOTAL     ACCESS:    2371549  HIT:    2320401  MISS:      51148
LLC LOAD      ACCESS:     138532  HIT:     132258  MISS:       6274
LLC RFO       ACCESS:      87119  HIT:      69329  MISS:      17790
LLC PREFETCH  ACCESS:    1996437  HIT:    1969598  MISS:      26839
LLC WRITEBACK ACCESS:     149461  HIT:     149216  MISS:        245
LLC PREFETCH  REQUESTED:          0  ISSUED:          0  USEFUL:       2624  USELESS:      24445
LLC AVERAGE MISS LATENCY: 180.29 cycles
Major fault: 0 Minor fault: 2767
I-Shadow cache 408 bytes
Touched + WorthPF tables 24576 bytes 
MMA filter 174 bytes 
FNL filter 272 bytes 
TOTAL PREFETCHER STORAGE SIZE: 98134 bytes
CPU 0 L1I next line prefetcher final stats
CPU 0 L1D next line prefetcher final stats

DRAM Statistics
 CHANNEL 0
 RQ ROW_BUFFER_HIT:      15585  ROW_BUFFER_MISS:      35306
 DBUS_CONGESTED:      32745
 WQ ROW_BUFFER_HIT:       2395  ROW_BUFFER_MISS:      18644  FULL:          0

 AVG_CONGESTED_CYCLE: 6

CPU 0 Branch Prediction Accuracy: 99.6798% MPKI: 0.58608 Average ROB Occupancy at Mispredict: 147.003

Branch types
NOT_BRANCH: 40848322 81.6966%
BRANCH_DIRECT_JUMP: 548372 1.09674%
BRANCH_INDIRECT: 189802 0.379604%
BRANCH_CONDITIONAL: 6372772 12.7455%
BRANCH_DIRECT_CALL: 862207 1.72441%
BRANCH_INDIRECT_CALL: 158149 0.316298%
BRANCH_RETURN: 1020345 2.04069%
BRANCH_OTHER: 0 0%

