Initialize SIGNATURE TABLE
ST_SET: 1
ST_WAY: 256
ST_TAG_BIT: 16
ST_TAG_MASK: ffff

Initialize PATTERN TABLE
PT_SET: 512
PT_WAY: 4
SIG_DELTA_BIT: 7
C_SIG_BIT: 4
C_DELTA_BIT: 4

Initialize PREFETCH FILTER
FILTER_SET: 1024

*** ChampSim Multicore Out-of-Order Simulator ***

Warmup Instructions: 50000000
Simulation Instructions: 50000000
Number of CPUs: 1
LLC sets: 2048
LLC ways: 16
Off-chip DRAM Size: 4096 MB Channels: 1 Width: 64-bit Data Rate: 3200 MT/s

CPU 0 runs /Users/gandhardeshpande/Desktop/CSE240C/HW1/ChampSim/ipc1_public/server_024.champsimtrace.xz
CPU 0 L1I next line prefetcher
CPU 0 L1D next line prefetcher
Heartbeat CPU 0 instructions: 10000000 cycles: 3500620 heartbeat IPC: 2.85664 cumulative IPC: 2.85664 (Simulation time: 0 hr 0 min 14 sec) 
Heartbeat CPU 0 instructions: 20000002 cycles: 6993796 heartbeat IPC: 2.86273 cumulative IPC: 2.85968 (Simulation time: 0 hr 0 min 29 sec) 
Heartbeat CPU 0 instructions: 30000000 cycles: 10498457 heartbeat IPC: 2.85334 cumulative IPC: 2.85756 (Simulation time: 0 hr 0 min 44 sec) 
Heartbeat CPU 0 instructions: 40000000 cycles: 14000034 heartbeat IPC: 2.85586 cumulative IPC: 2.85714 (Simulation time: 0 hr 0 min 59 sec) 
Heartbeat CPU 0 instructions: 50000001 cycles: 17491175 heartbeat IPC: 2.86439 cumulative IPC: 2.85858 (Simulation time: 0 hr 1 min 13 sec) 

Warmup complete CPU 0 instructions: 50000001 cycles: 17491175 (Simulation time: 0 hr 1 min 13 sec) 

Heartbeat CPU 0 instructions: 60000003 cycles: 24294295 heartbeat IPC: 1.46991 cumulative IPC: 1.46991 (Simulation time: 0 hr 1 min 28 sec) 
Heartbeat CPU 0 instructions: 70000000 cycles: 31124825 heartbeat IPC: 1.46401 cumulative IPC: 1.46696 (Simulation time: 0 hr 1 min 43 sec) 
*** Reached end of trace for Core: 0 Repeating trace: /Users/gandhardeshpande/Desktop/CSE240C/HW1/ChampSim/ipc1_public/server_024.champsimtrace.xz
Heartbeat CPU 0 instructions: 80000003 cycles: 37926876 heartbeat IPC: 1.47015 cumulative IPC: 1.46802 (Simulation time: 0 hr 1 min 58 sec) 
Heartbeat CPU 0 instructions: 90000003 cycles: 44786501 heartbeat IPC: 1.45781 cumulative IPC: 1.46545 (Simulation time: 0 hr 2 min 13 sec) 
Heartbeat CPU 0 instructions: 100000002 cycles: 51609584 heartbeat IPC: 1.46561 cumulative IPC: 1.46548 (Simulation time: 0 hr 2 min 28 sec) 
Finished CPU 0 instructions: 50000001 cycles: 34118409 cumulative IPC: 1.46548 (Simulation time: 0 hr 2 min 28 sec) 

ChampSim completed all CPUs

Region of Interest Statistics

CPU 0 cumulative IPC: 1.46548 instructions: 50000001 cycles: 34118409
L1D TOTAL     ACCESS:   19671436  HIT:   18154011  MISS:    1517425
L1D LOAD      ACCESS:    6926069  HIT:    6245304  MISS:     680765
L1D RFO       ACCESS:    6149019  HIT:    5875144  MISS:     273875
L1D PREFETCH  ACCESS:    6596348  HIT:    6033563  MISS:     562785
L1D WRITEBACK ACCESS:          0  HIT:          0  MISS:          0
L1D PREFETCH  REQUESTED:    6979963  ISSUED:    6858347  USEFUL:     135453  USELESS:     427337
L1D AVERAGE MISS LATENCY: 25.8125 cycles
L1I TOTAL     ACCESS:   14024056  HIT:   10550492  MISS:    3473564
L1I LOAD      ACCESS:    9335146  HIT:    9255405  MISS:      79741
L1I RFO       ACCESS:          0  HIT:          0  MISS:          0
L1I PREFETCH  ACCESS:    4688910  HIT:    1295087  MISS:    3393823
L1I WRITEBACK ACCESS:          0  HIT:          0  MISS:          0
L1I PREFETCH  REQUESTED:    4877842  ISSUED:    4877312  USEFUL:    2518531  USELESS:     875283
L1I AVERAGE MISS LATENCY: 18.8069 cycles
L2C TOTAL     ACCESS:    6729262  HIT:    5909514  MISS:     819748
L2C LOAD      ACCESS:     646544  HIT:     506369  MISS:     140175
L2C RFO       ACCESS:     272165  HIT:     180650  MISS:      91515
L2C PREFETCH  ACCESS:    5290331  HIT:    4708879  MISS:     581452
L2C WRITEBACK ACCESS:     520222  HIT:     513616  MISS:       6606
L2C PREFETCH  REQUESTED:    6594894  ISSUED:    6584113  USEFUL:      13343  USELESS:     567664
L2C AVERAGE MISS LATENCY: 42.7988 cycles
LLC TOTAL     ACCESS:    2481861  HIT:    2427850  MISS:      54011
LLC LOAD      ACCESS:     139790  HIT:     134227  MISS:       5563
LLC RFO       ACCESS:      91495  HIT:      69465  MISS:      22030
LLC PREFETCH  ACCESS:    2096660  HIT:    2070530  MISS:      26130
LLC WRITEBACK ACCESS:     153916  HIT:     153628  MISS:        288
LLC PREFETCH  REQUESTED:          0  ISSUED:          0  USEFUL:       2251  USELESS:      23898
LLC AVERAGE MISS LATENCY: 194.673 cycles
Major fault: 0 Minor fault: 2363
I-Shadow cache 408 bytes
Touched + WorthPF tables 24576 bytes 
MMA filter 174 bytes 
FNL filter 272 bytes 
TOTAL PREFETCHER STORAGE SIZE: 98134 bytes
CPU 0 L1I next line prefetcher final stats
CPU 0 L1D next line prefetcher final stats

DRAM Statistics
 CHANNEL 0
 RQ ROW_BUFFER_HIT:      18155  ROW_BUFFER_MISS:      35555
 DBUS_CONGESTED:      38796
 WQ ROW_BUFFER_HIT:       2673  ROW_BUFFER_MISS:      22679  FULL:          0

 AVG_CONGESTED_CYCLE: 6

CPU 0 Branch Prediction Accuracy: 99.7477% MPKI: 0.46156 Average ROB Occupancy at Mispredict: 175.226

Branch types
NOT_BRANCH: 40853709 81.7074%
BRANCH_DIRECT_JUMP: 566821 1.13364%
BRANCH_INDIRECT: 197171 0.394342%
BRANCH_CONDITIONAL: 6308430 12.6169%
BRANCH_DIRECT_CALL: 876400 1.7528%
BRANCH_INDIRECT_CALL: 160491 0.320982%
BRANCH_RETURN: 1036885 2.07377%
BRANCH_OTHER: 0 0%

