Initialize SIGNATURE TABLE
ST_SET: 1
ST_WAY: 256
ST_TAG_BIT: 16
ST_TAG_MASK: ffff

Initialize PATTERN TABLE
PT_SET: 512
PT_WAY: 4
SIG_DELTA_BIT: 7
C_SIG_BIT: 4
C_DELTA_BIT: 4

Initialize PREFETCH FILTER
FILTER_SET: 1024

*** ChampSim Multicore Out-of-Order Simulator ***

Warmup Instructions: 50000000
Simulation Instructions: 50000000
Number of CPUs: 1
LLC sets: 2048
LLC ways: 16
Off-chip DRAM Size: 4096 MB Channels: 1 Width: 64-bit Data Rate: 3200 MT/s

CPU 0 runs /Users/gandhardeshpande/Desktop/CSE240C/HW1/ChampSim/ipc1_public/client_002.champsimtrace.xz
CPU 0 L1I next line prefetcher
Running FNL-MMA for L1I
CPU 0 L1D next line prefetcher
Heartbeat CPU 0 instructions: 10000000 cycles: 3405026 heartbeat IPC: 2.93684 cumulative IPC: 2.93684 (Simulation time: 0 hr 0 min 14 sec) 
Heartbeat CPU 0 instructions: 20000002 cycles: 6860623 heartbeat IPC: 2.89386 cumulative IPC: 2.91519 (Simulation time: 0 hr 0 min 27 sec) 
Heartbeat CPU 0 instructions: 30000001 cycles: 10293399 heartbeat IPC: 2.91309 cumulative IPC: 2.91449 (Simulation time: 0 hr 0 min 41 sec) 
Heartbeat CPU 0 instructions: 40000002 cycles: 13726025 heartbeat IPC: 2.91322 cumulative IPC: 2.91417 (Simulation time: 0 hr 0 min 55 sec) 
Heartbeat CPU 0 instructions: 50000002 cycles: 17166669 heartbeat IPC: 2.90643 cumulative IPC: 2.91262 (Simulation time: 0 hr 1 min 8 sec) 

Warmup complete CPU 0 instructions: 50000002 cycles: 17166669 (Simulation time: 0 hr 1 min 8 sec) 

Heartbeat CPU 0 instructions: 60000002 cycles: 23163629 heartbeat IPC: 1.66751 cumulative IPC: 1.66751 (Simulation time: 0 hr 1 min 20 sec) 
Heartbeat CPU 0 instructions: 70000001 cycles: 29217970 heartbeat IPC: 1.65171 cumulative IPC: 1.65957 (Simulation time: 0 hr 1 min 32 sec) 
Heartbeat CPU 0 instructions: 80000002 cycles: 35156913 heartbeat IPC: 1.6838 cumulative IPC: 1.66757 (Simulation time: 0 hr 1 min 44 sec) 
Heartbeat CPU 0 instructions: 90000000 cycles: 41653339 heartbeat IPC: 1.53931 cumulative IPC: 1.63354 (Simulation time: 0 hr 1 min 55 sec) 
Heartbeat CPU 0 instructions: 100000003 cycles: 47640169 heartbeat IPC: 1.67033 cumulative IPC: 1.64077 (Simulation time: 0 hr 2 min 7 sec) 
Finished CPU 0 instructions: 50000001 cycles: 30473500 cumulative IPC: 1.64077 (Simulation time: 0 hr 2 min 7 sec) 

ChampSim completed all CPUs

Region of Interest Statistics

CPU 0 cumulative IPC: 1.64077 instructions: 50000001 cycles: 30473500
L1D TOTAL     ACCESS:   19160049  HIT:   18820725  MISS:     339324
L1D LOAD      ACCESS:    6500593  HIT:    6383952  MISS:     116641
L1D RFO       ACCESS:    6420136  HIT:    6330432  MISS:      89704
L1D PREFETCH  ACCESS:    6239320  HIT:    6106341  MISS:     132979
L1D WRITEBACK ACCESS:          0  HIT:          0  MISS:          0
L1D PREFETCH  REQUESTED:    6510566  ISSUED:    6308264  USEFUL:      54100  USELESS:      79022
L1D AVERAGE MISS LATENCY: 48.8937 cycles
L1I TOTAL     ACCESS:   12264207  HIT:   11236716  MISS:    1027491
L1I LOAD      ACCESS:    9533683  HIT:    9420985  MISS:     112698
L1I RFO       ACCESS:          0  HIT:          0  MISS:          0
L1I PREFETCH  ACCESS:    2730524  HIT:    1815731  MISS:     914793
L1I WRITEBACK ACCESS:          0  HIT:          0  MISS:          0
L1I PREFETCH  REQUESTED:    2823564  ISSUED:    2823500  USEFUL:     619048  USELESS:     295788
L1I AVERAGE MISS LATENCY: 17.9542 cycles
L2C TOTAL     ACCESS:    1925541  HIT:    1678814  MISS:     246727
L2C LOAD      ACCESS:     204046  HIT:     152229  MISS:      51817
L2C RFO       ACCESS:      88783  HIT:      22780  MISS:      66003
L2C PREFETCH  ACCESS:    1507202  HIT:    1378693  MISS:     128509
L2C WRITEBACK ACCESS:     125510  HIT:     125112  MISS:        398
L2C PREFETCH  REQUESTED:    1509827  ISSUED:    1509312  USEFUL:      16457  USELESS:     111560
L2C AVERAGE MISS LATENCY: 63.9561 cycles
LLC TOTAL     ACCESS:     664358  HIT:     600449  MISS:      63909
LLC LOAD      ACCESS:      51817  HIT:      45813  MISS:       6004
LLC RFO       ACCESS:      66003  HIT:      36669  MISS:      29334
LLC PREFETCH  ACCESS:     462130  HIT:     433832  MISS:      28298
LLC WRITEBACK ACCESS:      84408  HIT:      84135  MISS:        273
LLC PREFETCH  REQUESTED:          0  ISSUED:          0  USEFUL:       6194  USELESS:      20892
LLC AVERAGE MISS LATENCY: 177.881 cycles
Major fault: 0 Minor fault: 3094
I-Shadow cache 408 bytes
Touched + WorthPF tables 12288 bytes 
MMA filter 174 bytes 
FNL filter 272 bytes 
TOTAL PREFETCHER STORAGE SIZE: 49494 bytes
CPU 0 L1I next line prefetcher final stats
CPU 0 L1D next line prefetcher final stats

DRAM Statistics
 CHANNEL 0
 RQ ROW_BUFFER_HIT:      22151  ROW_BUFFER_MISS:      41483
 DBUS_CONGESTED:      44710
 WQ ROW_BUFFER_HIT:       8882  ROW_BUFFER_MISS:      28209  FULL:          0

 AVG_CONGESTED_CYCLE: 6

CPU 0 Branch Prediction Accuracy: 99.2117% MPKI: 1.49752 Average ROB Occupancy at Mispredict: 110.67

Branch types
NOT_BRANCH: 40501616 81.0032%
BRANCH_DIRECT_JUMP: 517397 1.03479%
BRANCH_INDIRECT: 112348 0.224696%
BRANCH_CONDITIONAL: 6698737 13.3975%
BRANCH_DIRECT_CALL: 960974 1.92195%
BRANCH_INDIRECT_CALL: 123707 0.247414%
BRANCH_RETURN: 1084929 2.16986%
BRANCH_OTHER: 0 0%

