Initialize SIGNATURE TABLE
ST_SET: 1
ST_WAY: 256
ST_TAG_BIT: 16
ST_TAG_MASK: ffff

Initialize PATTERN TABLE
PT_SET: 512
PT_WAY: 4
SIG_DELTA_BIT: 7
C_SIG_BIT: 4
C_DELTA_BIT: 4

Initialize PREFETCH FILTER
FILTER_SET: 1024

*** ChampSim Multicore Out-of-Order Simulator ***

Warmup Instructions: 50000000
Simulation Instructions: 50000000
Number of CPUs: 1
LLC sets: 2048
LLC ways: 16
Off-chip DRAM Size: 4096 MB Channels: 1 Width: 64-bit Data Rate: 3200 MT/s

CPU 0 runs /Users/gandhardeshpande/Desktop/CSE240C/HW1/ChampSim/ipc1_public/server_025.champsimtrace.xz
CPU 0 L1I next line prefetcher
Running FNL-MMA for L1I
CPU 0 L1D next line prefetcher
Heartbeat CPU 0 instructions: 10000003 cycles: 3529280 heartbeat IPC: 2.83344 cumulative IPC: 2.83344 (Simulation time: 0 hr 0 min 15 sec) 
Heartbeat CPU 0 instructions: 20000000 cycles: 7065146 heartbeat IPC: 2.82816 cumulative IPC: 2.8308 (Simulation time: 0 hr 0 min 30 sec) 
Heartbeat CPU 0 instructions: 30000001 cycles: 10593242 heartbeat IPC: 2.83439 cumulative IPC: 2.83199 (Simulation time: 0 hr 0 min 44 sec) 
Heartbeat CPU 0 instructions: 40000003 cycles: 14127582 heartbeat IPC: 2.82938 cumulative IPC: 2.83134 (Simulation time: 0 hr 0 min 59 sec) 
Heartbeat CPU 0 instructions: 50000001 cycles: 17659239 heartbeat IPC: 2.83153 cumulative IPC: 2.83138 (Simulation time: 0 hr 1 min 14 sec) 

Warmup complete CPU 0 instructions: 50000001 cycles: 17659239 (Simulation time: 0 hr 1 min 14 sec) 

Heartbeat CPU 0 instructions: 60000002 cycles: 24564247 heartbeat IPC: 1.44822 cumulative IPC: 1.44822 (Simulation time: 0 hr 1 min 30 sec) 
Heartbeat CPU 0 instructions: 70000000 cycles: 31590227 heartbeat IPC: 1.42329 cumulative IPC: 1.43565 (Simulation time: 0 hr 1 min 45 sec) 
Heartbeat CPU 0 instructions: 80000002 cycles: 38526685 heartbeat IPC: 1.44166 cumulative IPC: 1.43765 (Simulation time: 0 hr 2 min 1 sec) 
Heartbeat CPU 0 instructions: 90000001 cycles: 45109646 heartbeat IPC: 1.51907 cumulative IPC: 1.45717 (Simulation time: 0 hr 2 min 16 sec) 
Heartbeat CPU 0 instructions: 100000003 cycles: 51378937 heartbeat IPC: 1.59508 cumulative IPC: 1.48281 (Simulation time: 0 hr 2 min 31 sec) 
Finished CPU 0 instructions: 50000002 cycles: 33719698 cumulative IPC: 1.48281 (Simulation time: 0 hr 2 min 31 sec) 

ChampSim completed all CPUs

Region of Interest Statistics

CPU 0 cumulative IPC: 1.48281 instructions: 50000002 cycles: 33719698
L1D TOTAL     ACCESS:   19993912  HIT:   18568603  MISS:    1425309
L1D LOAD      ACCESS:    6964086  HIT:    6344271  MISS:     619815
L1D RFO       ACCESS:    6379949  HIT:    6131908  MISS:     248041
L1D PREFETCH  ACCESS:    6649877  HIT:    6092424  MISS:     557453
L1D WRITEBACK ACCESS:          0  HIT:          0  MISS:          0
L1D PREFETCH  REQUESTED:    7005220  ISSUED:    6830953  USEFUL:     130215  USELESS:     427232
L1D AVERAGE MISS LATENCY: 24.3726 cycles
L1I TOTAL     ACCESS:   14327433  HIT:   10765935  MISS:    3561498
L1I LOAD      ACCESS:    9506034  HIT:    9410793  MISS:      95241
L1I RFO       ACCESS:          0  HIT:          0  MISS:          0
L1I PREFETCH  ACCESS:    4821399  HIT:    1355142  MISS:    3466257
L1I WRITEBACK ACCESS:          0  HIT:          0  MISS:          0
L1I PREFETCH  REQUESTED:    5025664  ISSUED:    5022324  USEFUL:    2445168  USELESS:    1021109
L1I AVERAGE MISS LATENCY: 19.2767 cycles
L2C TOTAL     ACCESS:    6575662  HIT:    5694847  MISS:     880815
L2C LOAD      ACCESS:     624391  HIT:     483988  MISS:     140403
L2C RFO       ACCESS:     246536  HIT:     163593  MISS:      82943
L2C PREFETCH  ACCESS:    5207983  HIT:    4556329  MISS:     651654
L2C WRITEBACK ACCESS:     496752  HIT:     490937  MISS:       5815
L2C PREFETCH  REQUESTED:    5902910  ISSUED:    5891037  USEFUL:      12658  USELESS:     638775
L2C AVERAGE MISS LATENCY: 37.7823 cycles
LLC TOTAL     ACCESS:    2400581  HIT:    2370754  MISS:      29827
LLC LOAD      ACCESS:     140251  HIT:     137006  MISS:       3245
LLC RFO       ACCESS:      82843  HIT:      72118  MISS:      10725
LLC PREFETCH  ACCESS:    2031629  HIT:    2015947  MISS:      15682
LLC WRITEBACK ACCESS:     145858  HIT:     145683  MISS:        175
LLC PREFETCH  REQUESTED:          0  ISSUED:          0  USEFUL:       1206  USELESS:      13307
LLC AVERAGE MISS LATENCY: 180.265 cycles
Major fault: 0 Minor fault: 2459
I-Shadow cache 408 bytes
Touched + WorthPF tables 12288 bytes 
MMA filter 174 bytes 
FNL filter 272 bytes 
TOTAL PREFETCHER STORAGE SIZE: 49494 bytes
CPU 0 L1I next line prefetcher final stats
CPU 0 L1D next line prefetcher final stats

DRAM Statistics
 CHANNEL 0
 RQ ROW_BUFFER_HIT:       9437  ROW_BUFFER_MISS:      20211
 DBUS_CONGESTED:      19375
 WQ ROW_BUFFER_HIT:       1428  ROW_BUFFER_MISS:      11995  FULL:          0

 AVG_CONGESTED_CYCLE: 6

CPU 0 Branch Prediction Accuracy: 99.8142% MPKI: 0.34676 Average ROB Occupancy at Mispredict: 200.971

Branch types
NOT_BRANCH: 40668908 81.3378%
BRANCH_DIRECT_JUMP: 531700 1.0634%
BRANCH_INDIRECT: 199025 0.39805%
BRANCH_CONDITIONAL: 6211496 12.423%
BRANCH_DIRECT_CALL: 1010911 2.02182%
BRANCH_INDIRECT_CALL: 183501 0.367002%
BRANCH_RETURN: 1194415 2.38883%
BRANCH_OTHER: 0 0%

