Initialize SIGNATURE TABLE
ST_SET: 1
ST_WAY: 256
ST_TAG_BIT: 16
ST_TAG_MASK: ffff

Initialize PATTERN TABLE
PT_SET: 512
PT_WAY: 4
SIG_DELTA_BIT: 7
C_SIG_BIT: 4
C_DELTA_BIT: 4

Initialize PREFETCH FILTER
FILTER_SET: 1024

*** ChampSim Multicore Out-of-Order Simulator ***

Warmup Instructions: 50000000
Simulation Instructions: 50000000
Number of CPUs: 1
LLC sets: 2048
LLC ways: 16
Off-chip DRAM Size: 4096 MB Channels: 1 Width: 64-bit Data Rate: 3200 MT/s

CPU 0 runs /Users/gandhardeshpande/Desktop/CSE240C/HW1/ChampSim/ipc1_public/server_009.champsimtrace.xz
CPU 0 L1I next line prefetcher
Running FNL-MMA for L1I
CPU 0 L1D next line prefetcher
Heartbeat CPU 0 instructions: 10000003 cycles: 3196872 heartbeat IPC: 3.12806 cumulative IPC: 3.12806 (Simulation time: 0 hr 0 min 14 sec) 
Heartbeat CPU 0 instructions: 20000001 cycles: 6386494 heartbeat IPC: 3.13517 cumulative IPC: 3.13161 (Simulation time: 0 hr 0 min 27 sec) 
Heartbeat CPU 0 instructions: 30000002 cycles: 9590623 heartbeat IPC: 3.12097 cumulative IPC: 3.12806 (Simulation time: 0 hr 0 min 41 sec) 
Heartbeat CPU 0 instructions: 40000003 cycles: 12791083 heartbeat IPC: 3.12455 cumulative IPC: 3.12718 (Simulation time: 0 hr 0 min 54 sec) 
Heartbeat CPU 0 instructions: 50000000 cycles: 16048339 heartbeat IPC: 3.07007 cumulative IPC: 3.11559 (Simulation time: 0 hr 1 min 8 sec) 

Warmup complete CPU 0 instructions: 50000004 cycles: 16048340 (Simulation time: 0 hr 1 min 8 sec) 

Heartbeat CPU 0 instructions: 60000002 cycles: 31732348 heartbeat IPC: 0.637592 cumulative IPC: 0.637592 (Simulation time: 0 hr 1 min 25 sec) 
Heartbeat CPU 0 instructions: 70000003 cycles: 52782213 heartbeat IPC: 0.475062 cumulative IPC: 0.544457 (Simulation time: 0 hr 1 min 46 sec) 
Heartbeat CPU 0 instructions: 80000000 cycles: 59981652 heartbeat IPC: 1.389 cumulative IPC: 0.682853 (Simulation time: 0 hr 1 min 58 sec) 
Heartbeat CPU 0 instructions: 90000001 cycles: 67320006 heartbeat IPC: 1.3627 cumulative IPC: 0.780158 (Simulation time: 0 hr 2 min 11 sec) 
Heartbeat CPU 0 instructions: 100000003 cycles: 74541256 heartbeat IPC: 1.3848 cumulative IPC: 0.854804 (Simulation time: 0 hr 2 min 23 sec) 
Finished CPU 0 instructions: 50000003 cycles: 58492917 cumulative IPC: 0.854804 (Simulation time: 0 hr 2 min 23 sec) 

ChampSim completed all CPUs

Region of Interest Statistics

CPU 0 cumulative IPC: 0.854804 instructions: 50000003 cycles: 58492917
L1D TOTAL     ACCESS:   21623384  HIT:   17043856  MISS:    4579528
L1D LOAD      ACCESS:    8628668  HIT:    6347867  MISS:    2280801
L1D RFO       ACCESS:    4580543  HIT:    4476105  MISS:     104438
L1D PREFETCH  ACCESS:    8414173  HIT:    6219884  MISS:    2194289
L1D WRITEBACK ACCESS:          0  HIT:          0  MISS:          0
L1D PREFETCH  REQUESTED:    8661157  ISSUED:    8564125  USEFUL:     105828  USELESS:    2088460
L1D AVERAGE MISS LATENCY: 20.4858 cycles
L1I TOTAL     ACCESS:   13100554  HIT:   11501189  MISS:    1599365
L1I LOAD      ACCESS:   10755875  HIT:   10618949  MISS:     136926
L1I RFO       ACCESS:          0  HIT:          0  MISS:          0
L1I PREFETCH  ACCESS:    2344679  HIT:     882240  MISS:    1462439
L1I WRITEBACK ACCESS:          0  HIT:          0  MISS:          0
L1I PREFETCH  REQUESTED:    2486410  ISSUED:    2485721  USEFUL:     989785  USELESS:     472628
L1I AVERAGE MISS LATENCY: 30.4477 cycles
L2C TOTAL     ACCESS:    7931579  HIT:    6832895  MISS:    1098684
L2C LOAD      ACCESS:    2313221  HIT:    2090039  MISS:     223182
L2C RFO       ACCESS:     103493  HIT:      63100  MISS:      40393
L2C PREFETCH  ACCESS:    5257989  HIT:    4424337  MISS:     833652
L2C WRITEBACK ACCESS:     256876  HIT:     255419  MISS:       1457
L2C PREFETCH  REQUESTED:    8116476  ISSUED:    8114914  USEFUL:      25196  USELESS:     807545
L2C AVERAGE MISS LATENCY: 48.3697 cycles
LLC TOTAL     ACCESS:    2419255  HIT:    2280672  MISS:     138583
LLC LOAD      ACCESS:     222890  HIT:     202364  MISS:      20526
LLC RFO       ACCESS:      40389  HIT:      30800  MISS:       9589
LLC PREFETCH  ACCESS:    2017470  HIT:    1909287  MISS:     108183
LLC WRITEBACK ACCESS:     138506  HIT:     138221  MISS:        285
LLC PREFETCH  REQUESTED:          0  ISSUED:          0  USEFUL:      10298  USELESS:      95684
LLC AVERAGE MISS LATENCY: 173.821 cycles
Major fault: 0 Minor fault: 6357
I-Shadow cache 408 bytes
Touched + WorthPF tables 12288 bytes 
MMA filter 174 bytes 
FNL filter 272 bytes 
TOTAL PREFETCHER STORAGE SIZE: 49494 bytes
CPU 0 L1I next line prefetcher final stats
CPU 0 L1D next line prefetcher final stats

DRAM Statistics
 CHANNEL 0
 RQ ROW_BUFFER_HIT:      26105  ROW_BUFFER_MISS:     112187
 DBUS_CONGESTED:      60827
 WQ ROW_BUFFER_HIT:       9123  ROW_BUFFER_MISS:      38397  FULL:          0

 AVG_CONGESTED_CYCLE: 5

CPU 0 Branch Prediction Accuracy: 99.4713% MPKI: 1.11484 Average ROB Occupancy at Mispredict: 116.611

Branch types
NOT_BRANCH: 39456615 78.9132%
BRANCH_DIRECT_JUMP: 445350 0.8907%
BRANCH_INDIRECT: 131149 0.262298%
BRANCH_CONDITIONAL: 8130196 16.2604%
BRANCH_DIRECT_CALL: 732485 1.46497%
BRANCH_INDIRECT_CALL: 172369 0.344738%
BRANCH_RETURN: 931558 1.86312%
BRANCH_OTHER: 0 0%

