Initialize SIGNATURE TABLE
ST_SET: 1
ST_WAY: 256
ST_TAG_BIT: 16
ST_TAG_MASK: ffff

Initialize PATTERN TABLE
PT_SET: 512
PT_WAY: 4
SIG_DELTA_BIT: 7
C_SIG_BIT: 4
C_DELTA_BIT: 4

Initialize PREFETCH FILTER
FILTER_SET: 1024

*** ChampSim Multicore Out-of-Order Simulator ***

Warmup Instructions: 50000000
Simulation Instructions: 50000000
Number of CPUs: 1
LLC sets: 2048
LLC ways: 16
Off-chip DRAM Size: 4096 MB Channels: 1 Width: 64-bit Data Rate: 3200 MT/s

CPU 0 runs /Users/gandhardeshpande/Desktop/CSE240C/HW1/ChampSim/ipc1_public/spec_gobmk_001.champsimtrace.xz
CPU 0 L1I next line prefetcher
Running FNL-MMA for L1I
CPU 0 L1D next line prefetcher
Heartbeat CPU 0 instructions: 10000003 cycles: 3507013 heartbeat IPC: 2.85143 cumulative IPC: 2.85143 (Simulation time: 0 hr 0 min 13 sec) 
Heartbeat CPU 0 instructions: 20000002 cycles: 6987357 heartbeat IPC: 2.87328 cumulative IPC: 2.86231 (Simulation time: 0 hr 0 min 25 sec) 
Heartbeat CPU 0 instructions: 30000002 cycles: 10506226 heartbeat IPC: 2.84182 cumulative IPC: 2.85545 (Simulation time: 0 hr 0 min 37 sec) 
Heartbeat CPU 0 instructions: 40000001 cycles: 14025332 heartbeat IPC: 2.84163 cumulative IPC: 2.85198 (Simulation time: 0 hr 0 min 49 sec) 
Heartbeat CPU 0 instructions: 50000001 cycles: 17565511 heartbeat IPC: 2.82472 cumulative IPC: 2.84649 (Simulation time: 0 hr 1 min 2 sec) 

Warmup complete CPU 0 instructions: 50000001 cycles: 17565511 (Simulation time: 0 hr 1 min 2 sec) 

Heartbeat CPU 0 instructions: 60000000 cycles: 26428992 heartbeat IPC: 1.12822 cumulative IPC: 1.12822 (Simulation time: 0 hr 1 min 11 sec) 
Heartbeat CPU 0 instructions: 70000002 cycles: 34949594 heartbeat IPC: 1.17363 cumulative IPC: 1.15048 (Simulation time: 0 hr 1 min 20 sec) 
Heartbeat CPU 0 instructions: 80000003 cycles: 43885964 heartbeat IPC: 1.11902 cumulative IPC: 1.1398 (Simulation time: 0 hr 1 min 29 sec) 
Heartbeat CPU 0 instructions: 90000001 cycles: 52465259 heartbeat IPC: 1.1656 cumulative IPC: 1.14614 (Simulation time: 0 hr 1 min 37 sec) 
Heartbeat CPU 0 instructions: 100000003 cycles: 61366465 heartbeat IPC: 1.12344 cumulative IPC: 1.14153 (Simulation time: 0 hr 1 min 47 sec) 
Finished CPU 0 instructions: 50000002 cycles: 43800954 cumulative IPC: 1.14153 (Simulation time: 0 hr 1 min 47 sec) 

ChampSim completed all CPUs

Region of Interest Statistics

CPU 0 cumulative IPC: 1.14153 instructions: 50000002 cycles: 43800954
L1D TOTAL     ACCESS:   18020988  HIT:   17641420  MISS:     379568
L1D LOAD      ACCESS:    7228668  HIT:    7093958  MISS:     134710
L1D RFO       ACCESS:    3702429  HIT:    3597894  MISS:     104535
L1D PREFETCH  ACCESS:    7089891  HIT:    6949568  MISS:     140323
L1D WRITEBACK ACCESS:          0  HIT:          0  MISS:          0
L1D PREFETCH  REQUESTED:    7233972  ISSUED:    7151137  USEFUL:      45597  USELESS:      94731
L1D AVERAGE MISS LATENCY: 32.8021 cycles
L1I TOTAL     ACCESS:   12089712  HIT:   10963384  MISS:    1126328
L1I LOAD      ACCESS:    8956750  HIT:    8810094  MISS:     146656
L1I RFO       ACCESS:          0  HIT:          0  MISS:          0
L1I PREFETCH  ACCESS:    3132962  HIT:    2153290  MISS:     979672
L1I WRITEBACK ACCESS:          0  HIT:          0  MISS:          0
L1I PREFETCH  REQUESTED:    3254981  ISSUED:    3254969  USEFUL:     538977  USELESS:     440673
L1I AVERAGE MISS LATENCY: 14.9947 cycles
L2C TOTAL     ACCESS:    2291088  HIT:    2165472  MISS:     125616
L2C LOAD      ACCESS:     237507  HIT:     201288  MISS:      36219
L2C RFO       ACCESS:     104205  HIT:      70680  MISS:      33525
L2C PREFETCH  ACCESS:    1810076  HIT:    1754215  MISS:      55861
L2C WRITEBACK ACCESS:     139300  HIT:     139289  MISS:         11
L2C PREFETCH  REQUESTED:    1734607  ISSUED:    1734453  USEFUL:       5044  USELESS:      51228
L2C AVERAGE MISS LATENCY: 62.7649 cycles
LLC TOTAL     ACCESS:     333250  HIT:     296043  MISS:      37207
LLC LOAD      ACCESS:      36216  HIT:      28051  MISS:       8165
LLC RFO       ACCESS:      33525  HIT:      28069  MISS:       5456
LLC PREFETCH  ACCESS:     219488  HIT:     196166  MISS:      23322
LLC WRITEBACK ACCESS:      44021  HIT:      43757  MISS:        264
LLC PREFETCH  REQUESTED:          0  ISSUED:          0  USEFUL:       1557  USELESS:      19920
LLC AVERAGE MISS LATENCY: 179.453 cycles
Major fault: 0 Minor fault: 4157
I-Shadow cache 408 bytes
Touched + WorthPF tables 12288 bytes 
MMA filter 174 bytes 
FNL filter 272 bytes 
TOTAL PREFETCHER STORAGE SIZE: 49494 bytes
CPU 0 L1I next line prefetcher final stats
CPU 0 L1D next line prefetcher final stats

DRAM Statistics
 CHANNEL 0
 RQ ROW_BUFFER_HIT:       3821  ROW_BUFFER_MISS:      33122
 DBUS_CONGESTED:      22847
 WQ ROW_BUFFER_HIT:       1308  ROW_BUFFER_MISS:      14404  FULL:          0

 AVG_CONGESTED_CYCLE: 4

CPU 0 Branch Prediction Accuracy: 94.7729% MPKI: 9.72684 Average ROB Occupancy at Mispredict: 53.129

Branch types
NOT_BRANCH: 40695383 81.3908%
BRANCH_DIRECT_JUMP: 422107 0.844214%
BRANCH_INDIRECT: 65 0.00013%
BRANCH_CONDITIONAL: 8105005 16.21%
BRANCH_DIRECT_CALL: 374913 0.749826%
BRANCH_INDIRECT_CALL: 13657 0.027314%
BRANCH_RETURN: 388556 0.777112%
BRANCH_OTHER: 0 0%

