Initialize SIGNATURE TABLE
ST_SET: 1
ST_WAY: 256
ST_TAG_BIT: 16
ST_TAG_MASK: ffff

Initialize PATTERN TABLE
PT_SET: 512
PT_WAY: 4
SIG_DELTA_BIT: 7
C_SIG_BIT: 4
C_DELTA_BIT: 4

Initialize PREFETCH FILTER
FILTER_SET: 1024

*** ChampSim Multicore Out-of-Order Simulator ***

Warmup Instructions: 50000000
Simulation Instructions: 50000000
Number of CPUs: 1
LLC sets: 2048
LLC ways: 16
Off-chip DRAM Size: 4096 MB Channels: 1 Width: 64-bit Data Rate: 3200 MT/s

CPU 0 runs /Users/gandhardeshpande/Desktop/CSE240C/HW1/ChampSim/ipc1_public/spec_gcc_002.champsimtrace.xz
CPU 0 L1I next line prefetcher
Running FNL-MMA for L1I
CPU 0 L1D next line prefetcher
Heartbeat CPU 0 instructions: 10000002 cycles: 3601040 heartbeat IPC: 2.77698 cumulative IPC: 2.77698 (Simulation time: 0 hr 0 min 11 sec) 
Heartbeat CPU 0 instructions: 20000000 cycles: 7184120 heartbeat IPC: 2.79089 cumulative IPC: 2.78392 (Simulation time: 0 hr 0 min 22 sec) 
Heartbeat CPU 0 instructions: 30000000 cycles: 10900782 heartbeat IPC: 2.69059 cumulative IPC: 2.7521 (Simulation time: 0 hr 0 min 34 sec) 
Heartbeat CPU 0 instructions: 40000000 cycles: 14474550 heartbeat IPC: 2.79817 cumulative IPC: 2.76347 (Simulation time: 0 hr 0 min 45 sec) 
Heartbeat CPU 0 instructions: 50000002 cycles: 17941742 heartbeat IPC: 2.88418 cumulative IPC: 2.7868 (Simulation time: 0 hr 0 min 55 sec) 

Warmup complete CPU 0 instructions: 50000002 cycles: 17941742 (Simulation time: 0 hr 0 min 55 sec) 

Heartbeat CPU 0 instructions: 60000001 cycles: 49793868 heartbeat IPC: 0.313951 cumulative IPC: 0.313951 (Simulation time: 0 hr 1 min 19 sec) 
Heartbeat CPU 0 instructions: 70000001 cycles: 80593814 heartbeat IPC: 0.324676 cumulative IPC: 0.319223 (Simulation time: 0 hr 1 min 41 sec) 
Heartbeat CPU 0 instructions: 80000002 cycles: 126471328 heartbeat IPC: 0.217972 cumulative IPC: 0.276422 (Simulation time: 0 hr 2 min 11 sec) 
Heartbeat CPU 0 instructions: 90000001 cycles: 167746575 heartbeat IPC: 0.242276 cumulative IPC: 0.267014 (Simulation time: 0 hr 2 min 38 sec) 
Heartbeat CPU 0 instructions: 100000000 cycles: 191075428 heartbeat IPC: 0.428654 cumulative IPC: 0.288794 (Simulation time: 0 hr 2 min 58 sec) 
Finished CPU 0 instructions: 50000002 cycles: 173133694 cumulative IPC: 0.288794 (Simulation time: 0 hr 2 min 58 sec) 

ChampSim completed all CPUs

Region of Interest Statistics

CPU 0 cumulative IPC: 0.288794 instructions: 50000002 cycles: 173133694
L1D TOTAL     ACCESS:   18332657  HIT:   13099106  MISS:    5233551
L1D LOAD      ACCESS:    6359715  HIT:    5346689  MISS:    1013026
L1D RFO       ACCESS:    7073078  HIT:    3472535  MISS:    3600543
L1D PREFETCH  ACCESS:    4899864  HIT:    4279882  MISS:     619982
L1D WRITEBACK ACCESS:          0  HIT:          0  MISS:          0
L1D PREFETCH  REQUESTED:    6379845  ISSUED:    6309453  USEFUL:     460246  USELESS:     159952
L1D AVERAGE MISS LATENCY: 316.316 cycles
L1I TOTAL     ACCESS:   13922486  HIT:   12835913  MISS:    1086573
L1I LOAD      ACCESS:   12008326  HIT:   11892153  MISS:     116173
L1I RFO       ACCESS:          0  HIT:          0  MISS:          0
L1I PREFETCH  ACCESS:    1914160  HIT:     943760  MISS:     970400
L1I WRITEBACK ACCESS:          0  HIT:          0  MISS:          0
L1I PREFETCH  REQUESTED:    2036992  ISSUED:    2032580  USEFUL:     595742  USELESS:     374643
L1I AVERAGE MISS LATENCY: 51.5914 cycles
L2C TOTAL     ACCESS:   10449003  HIT:    5081533  MISS:    5367470
L2C LOAD      ACCESS:     337813  HIT:     148936  MISS:     188877
L2C RFO       ACCESS:    3599051  HIT:      11013  MISS:    3588038
L2C PREFETCH  ACCESS:    2786653  HIT:    1196289  MISS:    1590364
L2C WRITEBACK ACCESS:    3725486  HIT:    3725295  MISS:        191
L2C PREFETCH  REQUESTED:    3698045  ISSUED:    3697606  USEFUL:      40402  USELESS:    1550108
L2C AVERAGE MISS LATENCY: 316.87 cycles
LLC TOTAL     ACCESS:   10254351  HIT:    7060182  MISS:    3194169
LLC LOAD      ACCESS:     188767  HIT:     139561  MISS:      49206
LLC RFO       ACCESS:    3588038  HIT:     949287  MISS:    2638751
LLC PREFETCH  ACCESS:    2804096  HIT:    2297884  MISS:     506212
LLC WRITEBACK ACCESS:    3673450  HIT:    3673450  MISS:          0
LLC PREFETCH  REQUESTED:          0  ISSUED:          0  USEFUL:     190271  USELESS:     316658
LLC AVERAGE MISS LATENCY: 499.698 cycles
Major fault: 0 Minor fault: 4153
I-Shadow cache 408 bytes
Touched + WorthPF tables 12288 bytes 
MMA filter 174 bytes 
FNL filter 272 bytes 
TOTAL PREFETCHER STORAGE SIZE: 49494 bytes
CPU 0 L1I next line prefetcher final stats
CPU 0 L1D next line prefetcher final stats

DRAM Statistics
 CHANNEL 0
 RQ ROW_BUFFER_HIT:     867124  ROW_BUFFER_MISS:    2325212
 DBUS_CONGESTED:    4934889
 WQ ROW_BUFFER_HIT:     809437  ROW_BUFFER_MISS:    2034572  FULL:          0

 AVG_CONGESTED_CYCLE: 6

CPU 0 Branch Prediction Accuracy: 99.5987% MPKI: 0.82446 Average ROB Occupancy at Mispredict: 128.008

Branch types
NOT_BRANCH: 39726800 79.4536%
BRANCH_DIRECT_JUMP: 391438 0.782876%
BRANCH_INDIRECT: 62076 0.124152%
BRANCH_CONDITIONAL: 8421539 16.8431%
BRANCH_DIRECT_CALL: 672961 1.34592%
BRANCH_INDIRECT_CALL: 26115 0.05223%
BRANCH_RETURN: 699082 1.39816%
BRANCH_OTHER: 0 0%

