
*** ChampSim Multicore Out-of-Order Simulator ***

Warmup Instructions: 10000000
Simulation Instructions: 100000000
Configuration: 2
Number of CPUs: 1
LLC sets: 2048
LLC ways: 16
Off-chip DRAM Channels: 1 Width: 64-bit Data Rate: 1600 MT/s

CPU 0 runs /datasets/cs240c-wi22-a00-public/data/Assignment2-gz/milc_360B.trace.gz
CPU 0 L1D next line prefetcher
CPU 0 L2C IP-based stride prefetcher
Heartbeat CPU 0 instructions: 1000001 cycles: 549511 heartbeat IPC: 1.8198 cumulative IPC: 1.8198 (Simulation time: 0 hr 0 min 26 sec) 
select_counter is 521
Heartbeat CPU 0 instructions: 2000003 cycles: 1099026 heartbeat IPC: 1.81979 cumulative IPC: 1.8198 (Simulation time: 0 hr 0 min 50 sec) 
select_counter is 623
Heartbeat CPU 0 instructions: 3000001 cycles: 1648486 heartbeat IPC: 1.81997 cumulative IPC: 1.81985 (Simulation time: 0 hr 1 min 15 sec) 
select_counter is 491
Heartbeat CPU 0 instructions: 4000000 cycles: 2197959 heartbeat IPC: 1.81992 cumulative IPC: 1.81987 (Simulation time: 0 hr 1 min 39 sec) 
select_counter is 395
Heartbeat CPU 0 instructions: 5000002 cycles: 2747468 heartbeat IPC: 1.81981 cumulative IPC: 1.81986 (Simulation time: 0 hr 2 min 1 sec) 
select_counter is 331
Heartbeat CPU 0 instructions: 6000001 cycles: 3296983 heartbeat IPC: 1.81978 cumulative IPC: 1.81985 (Simulation time: 0 hr 2 min 24 sec) 
select_counter is 249
Heartbeat CPU 0 instructions: 7000000 cycles: 3846462 heartbeat IPC: 1.8199 cumulative IPC: 1.81985 (Simulation time: 0 hr 2 min 47 sec) 
select_counter is 113
Heartbeat CPU 0 instructions: 8000000 cycles: 4395923 heartbeat IPC: 1.81997 cumulative IPC: 1.81987 (Simulation time: 0 hr 3 min 12 sec) 
select_counter is 1009
Heartbeat CPU 0 instructions: 9000001 cycles: 4945436 heartbeat IPC: 1.8198 cumulative IPC: 1.81986 (Simulation time: 0 hr 3 min 34 sec) 
select_counter is 942
Heartbeat CPU 0 instructions: 10000001 cycles: 5494911 heartbeat IPC: 1.81992 cumulative IPC: 1.81987 (Simulation time: 0 hr 3 min 58 sec) 
select_counter is 823

Warmup complete CPU 0 instructions: 10000001 cycles: 5494911 (Simulation time: 0 hr 3 min 58 sec) 

Heartbeat CPU 0 instructions: 11000001 cycles: 7182024 heartbeat IPC: 0.592728 cumulative IPC: 0.592728 (Simulation time: 0 hr 4 min 24 sec) 
select_counter is 722
Heartbeat CPU 0 instructions: 12000000 cycles: 8869644 heartbeat IPC: 0.59255 cumulative IPC: 0.592639 (Simulation time: 0 hr 4 min 52 sec) 
select_counter is 602
Heartbeat CPU 0 instructions: 13000001 cycles: 10558257 heartbeat IPC: 0.592203 cumulative IPC: 0.592494 (Simulation time: 0 hr 5 min 18 sec) 
select_counter is 522
Heartbeat CPU 0 instructions: 14000001 cycles: 12252876 heartbeat IPC: 0.590103 cumulative IPC: 0.591894 (Simulation time: 0 hr 5 min 45 sec) 
select_counter is 447
Heartbeat CPU 0 instructions: 15000003 cycles: 13946927 heartbeat IPC: 0.590302 cumulative IPC: 0.591575 (Simulation time: 0 hr 6 min 11 sec) 
select_counter is 372
Heartbeat CPU 0 instructions: 16000000 cycles: 15654508 heartbeat IPC: 0.585622 cumulative IPC: 0.590575 (Simulation time: 0 hr 6 min 41 sec) 
select_counter is 201
Heartbeat CPU 0 instructions: 17000003 cycles: 17348940 heartbeat IPC: 0.59017 cumulative IPC: 0.590517 (Simulation time: 0 hr 7 min 10 sec) 
select_counter is 102
Heartbeat CPU 0 instructions: 18000002 cycles: 19042907 heartbeat IPC: 0.59033 cumulative IPC: 0.590493 (Simulation time: 0 hr 7 min 41 sec) 
select_counter is 979
Heartbeat CPU 0 instructions: 19000000 cycles: 20733549 heartbeat IPC: 0.59149 cumulative IPC: 0.590604 (Simulation time: 0 hr 8 min 9 sec) 
select_counter is 840
Heartbeat CPU 0 instructions: 20000000 cycles: 22413513 heartbeat IPC: 0.595251 cumulative IPC: 0.591065 (Simulation time: 0 hr 8 min 36 sec) 
select_counter is 701
Heartbeat CPU 0 instructions: 21000002 cycles: 24091319 heartbeat IPC: 0.596018 cumulative IPC: 0.591512 (Simulation time: 0 hr 9 min 2 sec) 
select_counter is 662
Heartbeat CPU 0 instructions: 22000003 cycles: 25763855 heartbeat IPC: 0.597895 cumulative IPC: 0.592039 (Simulation time: 0 hr 9 min 28 sec) 
select_counter is 502
Heartbeat CPU 0 instructions: 23000001 cycles: 27451513 heartbeat IPC: 0.592536 cumulative IPC: 0.592077 (Simulation time: 0 hr 9 min 55 sec) 
select_counter is 325
Heartbeat CPU 0 instructions: 24000000 cycles: 29141148 heartbeat IPC: 0.591843 cumulative IPC: 0.59206 (Simulation time: 0 hr 10 min 20 sec) 
select_counter is 190
Heartbeat CPU 0 instructions: 25000003 cycles: 30832731 heartbeat IPC: 0.591164 cumulative IPC: 0.592 (Simulation time: 0 hr 10 min 45 sec) 
select_counter is 43
Heartbeat CPU 0 instructions: 26000001 cycles: 32521623 heartbeat IPC: 0.592103 cumulative IPC: 0.592007 (Simulation time: 0 hr 11 min 14 sec) 
select_counter is 920
Heartbeat CPU 0 instructions: 27000001 cycles: 34199115 heartbeat IPC: 0.596128 cumulative IPC: 0.592248 (Simulation time: 0 hr 11 min 42 sec) 
select_counter is 806
Heartbeat CPU 0 instructions: 28000000 cycles: 35877903 heartbeat IPC: 0.595667 cumulative IPC: 0.592437 (Simulation time: 0 hr 12 min 9 sec) 
select_counter is 712
Heartbeat CPU 0 instructions: 29000001 cycles: 37557302 heartbeat IPC: 0.595452 cumulative IPC: 0.592595 (Simulation time: 0 hr 12 min 35 sec) 
select_counter is 658
Heartbeat CPU 0 instructions: 30000000 cycles: 39231532 heartbeat IPC: 0.597289 cumulative IPC: 0.592828 (Simulation time: 0 hr 13 min 1 sec) 
select_counter is 523
Heartbeat CPU 0 instructions: 31000003 cycles: 40919622 heartbeat IPC: 0.592387 cumulative IPC: 0.592807 (Simulation time: 0 hr 13 min 28 sec) 
select_counter is 450
Heartbeat CPU 0 instructions: 32000000 cycles: 42599560 heartbeat IPC: 0.595258 cumulative IPC: 0.592918 (Simulation time: 0 hr 13 min 56 sec) 
select_counter is 365
Heartbeat CPU 0 instructions: 33000000 cycles: 44285196 heartbeat IPC: 0.593248 cumulative IPC: 0.592932 (Simulation time: 0 hr 14 min 24 sec) 
select_counter is 213
Heartbeat CPU 0 instructions: 34000003 cycles: 45974361 heartbeat IPC: 0.59201 cumulative IPC: 0.592893 (Simulation time: 0 hr 14 min 54 sec) 
select_counter is 117
Heartbeat CPU 0 instructions: 35000001 cycles: 47659766 heartbeat IPC: 0.593328 cumulative IPC: 0.592911 (Simulation time: 0 hr 15 min 22 sec) 
select_counter is 1001
Heartbeat CPU 0 instructions: 36000000 cycles: 49340632 heartbeat IPC: 0.594931 cumulative IPC: 0.592988 (Simulation time: 0 hr 15 min 48 sec) 
select_counter is 881
Heartbeat CPU 0 instructions: 37000000 cycles: 51015819 heartbeat IPC: 0.596948 cumulative IPC: 0.593134 (Simulation time: 0 hr 16 min 16 sec) 
select_counter is 786
Heartbeat CPU 0 instructions: 38000001 cycles: 52694021 heartbeat IPC: 0.595876 cumulative IPC: 0.593231 (Simulation time: 0 hr 16 min 42 sec) 
select_counter is 697
Heartbeat CPU 0 instructions: 39000000 cycles: 54376916 heartbeat IPC: 0.594214 cumulative IPC: 0.593265 (Simulation time: 0 hr 17 min 12 sec) 
select_counter is 629
Heartbeat CPU 0 instructions: 40000000 cycles: 56057282 heartbeat IPC: 0.595108 cumulative IPC: 0.593327 (Simulation time: 0 hr 17 min 40 sec) 
select_counter is 510
Heartbeat CPU 0 instructions: 41000001 cycles: 57742852 heartbeat IPC: 0.593272 cumulative IPC: 0.593325 (Simulation time: 0 hr 18 min 9 sec) 
select_counter is 458
Heartbeat CPU 0 instructions: 42000001 cycles: 59431714 heartbeat IPC: 0.592115 cumulative IPC: 0.593287 (Simulation time: 0 hr 18 min 45 sec) 
select_counter is 334
Heartbeat CPU 0 instructions: 43000000 cycles: 61119570 heartbeat IPC: 0.592467 cumulative IPC: 0.593262 (Simulation time: 0 hr 19 min 13 sec) 
select_counter is 292
Heartbeat CPU 0 instructions: 44000000 cycles: 63043392 heartbeat IPC: 0.519799 cumulative IPC: 0.590806 (Simulation time: 0 hr 19 min 48 sec) 
select_counter is 713
Heartbeat CPU 0 instructions: 45000002 cycles: 65235832 heartbeat IPC: 0.456114 cumulative IPC: 0.585863 (Simulation time: 0 hr 20 min 26 sec) 
select_counter is 654
Heartbeat CPU 0 instructions: 46000001 cycles: 67374437 heartbeat IPC: 0.467594 cumulative IPC: 0.581776 (Simulation time: 0 hr 20 min 57 sec) 
select_counter is 676
Heartbeat CPU 0 instructions: 47000002 cycles: 69551979 heartbeat IPC: 0.459234 cumulative IPC: 0.57761 (Simulation time: 0 hr 21 min 26 sec) 
select_counter is 675
Heartbeat CPU 0 instructions: 48000000 cycles: 71692990 heartbeat IPC: 0.467068 cumulative IPC: 0.574035 (Simulation time: 0 hr 21 min 57 sec) 
select_counter is 695
Heartbeat CPU 0 instructions: 49000003 cycles: 73804182 heartbeat IPC: 0.473667 cumulative IPC: 0.570933 (Simulation time: 0 hr 22 min 28 sec) 
select_counter is 705
Heartbeat CPU 0 instructions: 50000002 cycles: 75704695 heartbeat IPC: 0.526173 cumulative IPC: 0.569721 (Simulation time: 0 hr 22 min 58 sec) 
select_counter is 721
Heartbeat CPU 0 instructions: 51000002 cycles: 76721466 heartbeat IPC: 0.983506 cumulative IPC: 0.575628 (Simulation time: 0 hr 23 min 23 sec) 
select_counter is 773
Heartbeat CPU 0 instructions: 52000000 cycles: 78530227 heartbeat IPC: 0.552864 cumulative IPC: 0.575064 (Simulation time: 0 hr 23 min 49 sec) 
select_counter is 847
Heartbeat CPU 0 instructions: 53000002 cycles: 80742313 heartbeat IPC: 0.452063 cumulative IPC: 0.571448 (Simulation time: 0 hr 24 min 13 sec) 
select_counter is 568
Heartbeat CPU 0 instructions: 54000003 cycles: 82976049 heartbeat IPC: 0.447681 cumulative IPC: 0.56788 (Simulation time: 0 hr 24 min 38 sec) 
select_counter is 223
Heartbeat CPU 0 instructions: 55000003 cycles: 85213289 heartbeat IPC: 0.446979 cumulative IPC: 0.564487 (Simulation time: 0 hr 25 min 3 sec) 
select_counter is 835
Heartbeat CPU 0 instructions: 56000000 cycles: 87449297 heartbeat IPC: 0.447224 cumulative IPC: 0.561288 (Simulation time: 0 hr 25 min 28 sec) 
select_counter is 482
Heartbeat CPU 0 instructions: 57000000 cycles: 89686553 heartbeat IPC: 0.446976 cumulative IPC: 0.55825 (Simulation time: 0 hr 25 min 55 sec) 
select_counter is 57
Heartbeat CPU 0 instructions: 58000000 cycles: 91910493 heartbeat IPC: 0.449652 cumulative IPC: 0.555455 (Simulation time: 0 hr 26 min 27 sec) 
select_counter is 652
Heartbeat CPU 0 instructions: 59000001 cycles: 94150173 heartbeat IPC: 0.446493 cumulative IPC: 0.552703 (Simulation time: 0 hr 26 min 55 sec) 
select_counter is 329
Heartbeat CPU 0 instructions: 60000000 cycles: 96374180 heartbeat IPC: 0.449638 cumulative IPC: 0.55018 (Simulation time: 0 hr 27 min 23 sec) 
select_counter is 939
Heartbeat CPU 0 instructions: 61000000 cycles: 98601690 heartbeat IPC: 0.448932 cumulative IPC: 0.547758 (Simulation time: 0 hr 27 min 53 sec) 
select_counter is 685
Heartbeat CPU 0 instructions: 62000003 cycles: 100835063 heartbeat IPC: 0.447755 cumulative IPC: 0.545416 (Simulation time: 0 hr 28 min 21 sec) 
select_counter is 341
Heartbeat CPU 0 instructions: 63000003 cycles: 103065017 heartbeat IPC: 0.44844 cumulative IPC: 0.543199 (Simulation time: 0 hr 28 min 48 sec) 
select_counter is 845
Heartbeat CPU 0 instructions: 64000000 cycles: 105292374 heartbeat IPC: 0.448961 cumulative IPC: 0.541096 (Simulation time: 0 hr 29 min 14 sec) 
select_counter is 536
Heartbeat CPU 0 instructions: 65000001 cycles: 107532187 heartbeat IPC: 0.446466 cumulative IPC: 0.539019 (Simulation time: 0 hr 29 min 41 sec) 
select_counter is 126
Heartbeat CPU 0 instructions: 66000001 cycles: 109757121 heartbeat IPC: 0.449452 cumulative IPC: 0.537107 (Simulation time: 0 hr 30 min 10 sec) 
select_counter is 736
Heartbeat CPU 0 instructions: 67000002 cycles: 111989882 heartbeat IPC: 0.447876 cumulative IPC: 0.535237 (Simulation time: 0 hr 30 min 42 sec) 
select_counter is 375
Heartbeat CPU 0 instructions: 68000000 cycles: 114219238 heartbeat IPC: 0.448559 cumulative IPC: 0.533459 (Simulation time: 0 hr 31 min 13 sec) 
select_counter is 995
Heartbeat CPU 0 instructions: 69000001 cycles: 116443521 heartbeat IPC: 0.449584 cumulative IPC: 0.531778 (Simulation time: 0 hr 31 min 40 sec) 
select_counter is 697
Heartbeat CPU 0 instructions: 70000000 cycles: 118676147 heartbeat IPC: 0.447903 cumulative IPC: 0.530123 (Simulation time: 0 hr 32 min 7 sec) 
select_counter is 376
Heartbeat CPU 0 instructions: 71000000 cycles: 120910048 heartbeat IPC: 0.447647 cumulative IPC: 0.528527 (Simulation time: 0 hr 32 min 35 sec) 
select_counter is 32
Heartbeat CPU 0 instructions: 72000000 cycles: 123129358 heartbeat IPC: 0.45059 cumulative IPC: 0.527057 (Simulation time: 0 hr 33 min 7 sec) 
select_counter is 775
Heartbeat CPU 0 instructions: 73000001 cycles: 125350588 heartbeat IPC: 0.450201 cumulative IPC: 0.525632 (Simulation time: 0 hr 33 min 37 sec) 
select_counter is 436
Heartbeat CPU 0 instructions: 74000002 cycles: 126943265 heartbeat IPC: 0.627874 cumulative IPC: 0.526973 (Simulation time: 0 hr 34 min 8 sec) 
select_counter is 837
Heartbeat CPU 0 instructions: 75000003 cycles: 128523428 heartbeat IPC: 0.632847 cumulative IPC: 0.528333 (Simulation time: 0 hr 34 min 35 sec) 
select_counter is 1022
Heartbeat CPU 0 instructions: 76000000 cycles: 130093020 heartbeat IPC: 0.637106 cumulative IPC: 0.529703 (Simulation time: 0 hr 35 min 4 sec) 
select_counter is 1023
Heartbeat CPU 0 instructions: 77000000 cycles: 131668345 heartbeat IPC: 0.63479 cumulative IPC: 0.531015 (Simulation time: 0 hr 35 min 30 sec) 
select_counter is 1023
Heartbeat CPU 0 instructions: 78000000 cycles: 133245679 heartbeat IPC: 0.633981 cumulative IPC: 0.532286 (Simulation time: 0 hr 36 min 0 sec) 
select_counter is 1021
Heartbeat CPU 0 instructions: 79000000 cycles: 134823988 heartbeat IPC: 0.63359 cumulative IPC: 0.533523 (Simulation time: 0 hr 36 min 28 sec) 
select_counter is 1023
Heartbeat CPU 0 instructions: 80000000 cycles: 136407503 heartbeat IPC: 0.631507 cumulative IPC: 0.534708 (Simulation time: 0 hr 37 min 4 sec) 
select_counter is 1020
Heartbeat CPU 0 instructions: 81000003 cycles: 137989034 heartbeat IPC: 0.632301 cumulative IPC: 0.535873 (Simulation time: 0 hr 37 min 29 sec) 
select_counter is 1021
Heartbeat CPU 0 instructions: 82000003 cycles: 139569286 heartbeat IPC: 0.63281 cumulative IPC: 0.537015 (Simulation time: 0 hr 37 min 56 sec) 
select_counter is 1023
Heartbeat CPU 0 instructions: 83000002 cycles: 141150539 heartbeat IPC: 0.632409 cumulative IPC: 0.538127 (Simulation time: 0 hr 38 min 23 sec) 
select_counter is 1016
Heartbeat CPU 0 instructions: 84000000 cycles: 142731242 heartbeat IPC: 0.632629 cumulative IPC: 0.539216 (Simulation time: 0 hr 38 min 50 sec) 
select_counter is 1023
Heartbeat CPU 0 instructions: 85000000 cycles: 144314382 heartbeat IPC: 0.631656 cumulative IPC: 0.54027 (Simulation time: 0 hr 39 min 15 sec) 
select_counter is 1012
Heartbeat CPU 0 instructions: 86000000 cycles: 145899112 heartbeat IPC: 0.631022 cumulative IPC: 0.541294 (Simulation time: 0 hr 39 min 42 sec) 
select_counter is 1023
Heartbeat CPU 0 instructions: 87000000 cycles: 147478379 heartbeat IPC: 0.633205 cumulative IPC: 0.542317 (Simulation time: 0 hr 40 min 7 sec) 
select_counter is 1019
Heartbeat CPU 0 instructions: 88000000 cycles: 149061060 heartbeat IPC: 0.631839 cumulative IPC: 0.543304 (Simulation time: 0 hr 40 min 35 sec) 
select_counter is 1023
Heartbeat CPU 0 instructions: 89000002 cycles: 150641876 heartbeat IPC: 0.632586 cumulative IPC: 0.544276 (Simulation time: 0 hr 41 min 7 sec) 
select_counter is 1022
Heartbeat CPU 0 instructions: 90000002 cycles: 152218126 heartbeat IPC: 0.634417 cumulative IPC: 0.545244 (Simulation time: 0 hr 41 min 32 sec) 
select_counter is 1023
Heartbeat CPU 0 instructions: 91000003 cycles: 153802525 heartbeat IPC: 0.631155 cumulative IPC: 0.546162 (Simulation time: 0 hr 41 min 53 sec) 
select_counter is 1019
Heartbeat CPU 0 instructions: 92000000 cycles: 155386143 heartbeat IPC: 0.631464 cumulative IPC: 0.547063 (Simulation time: 0 hr 42 min 13 sec) 
select_counter is 1023
Heartbeat CPU 0 instructions: 93000000 cycles: 156966356 heartbeat IPC: 0.632826 cumulative IPC: 0.547958 (Simulation time: 0 hr 42 min 32 sec) 
select_counter is 1023
Heartbeat CPU 0 instructions: 94000000 cycles: 158551110 heartbeat IPC: 0.631013 cumulative IPC: 0.548818 (Simulation time: 0 hr 42 min 50 sec) 
select_counter is 1021
Heartbeat CPU 0 instructions: 95000000 cycles: 160128835 heartbeat IPC: 0.633824 cumulative IPC: 0.549685 (Simulation time: 0 hr 43 min 11 sec) 
select_counter is 1019
Heartbeat CPU 0 instructions: 96000000 cycles: 161711657 heartbeat IPC: 0.631783 cumulative IPC: 0.550517 (Simulation time: 0 hr 43 min 27 sec) 
select_counter is 1020
Heartbeat CPU 0 instructions: 97000002 cycles: 163281813 heartbeat IPC: 0.636881 cumulative IPC: 0.551377 (Simulation time: 0 hr 43 min 45 sec) 
select_counter is 1023
Heartbeat CPU 0 instructions: 98000003 cycles: 164857134 heartbeat IPC: 0.634792 cumulative IPC: 0.552201 (Simulation time: 0 hr 44 min 1 sec) 
select_counter is 1018
Heartbeat CPU 0 instructions: 99000000 cycles: 166428760 heartbeat IPC: 0.636282 cumulative IPC: 0.553022 (Simulation time: 0 hr 44 min 17 sec) 
select_counter is 1023
Heartbeat CPU 0 instructions: 100000000 cycles: 168005561 heartbeat IPC: 0.634195 cumulative IPC: 0.55381 (Simulation time: 0 hr 44 min 32 sec) 
select_counter is 1021
Heartbeat CPU 0 instructions: 101000002 cycles: 169584396 heartbeat IPC: 0.63338 cumulative IPC: 0.554575 (Simulation time: 0 hr 44 min 47 sec) 
select_counter is 1023
Heartbeat CPU 0 instructions: 102000000 cycles: 171157380 heartbeat IPC: 0.635733 cumulative IPC: 0.555346 (Simulation time: 0 hr 45 min 2 sec) 
select_counter is 1023
Heartbeat CPU 0 instructions: 103000002 cycles: 172732566 heartbeat IPC: 0.634847 cumulative IPC: 0.556095 (Simulation time: 0 hr 45 min 18 sec) 
select_counter is 1023
Heartbeat CPU 0 instructions: 104000000 cycles: 174305588 heartbeat IPC: 0.635718 cumulative IPC: 0.556837 (Simulation time: 0 hr 45 min 35 sec) 
select_counter is 1023
Heartbeat CPU 0 instructions: 105000003 cycles: 175880500 heartbeat IPC: 0.634958 cumulative IPC: 0.557559 (Simulation time: 0 hr 45 min 51 sec) 
select_counter is 1023
Heartbeat CPU 0 instructions: 106000002 cycles: 177461585 heartbeat IPC: 0.632476 cumulative IPC: 0.558248 (Simulation time: 0 hr 46 min 7 sec) 
select_counter is 1021
Heartbeat CPU 0 instructions: 107000000 cycles: 179036775 heartbeat IPC: 0.634843 cumulative IPC: 0.558943 (Simulation time: 0 hr 46 min 21 sec) 
select_counter is 1020
Heartbeat CPU 0 instructions: 108000000 cycles: 180611030 heartbeat IPC: 0.635221 cumulative IPC: 0.559629 (Simulation time: 0 hr 46 min 33 sec) 
select_counter is 1023
Heartbeat CPU 0 instructions: 109000002 cycles: 182181991 heartbeat IPC: 0.636554 cumulative IPC: 0.560313 (Simulation time: 0 hr 46 min 44 sec) 
select_counter is 1022
Heartbeat CPU 0 instructions: 110000000 cycles: 183756446 heartbeat IPC: 0.635139 cumulative IPC: 0.560974 (Simulation time: 0 hr 46 min 55 sec) 
select_counter is 1023
Finished CPU 0 instructions: 100000003 cycles: 178261536 cummulative IPC: 0.560974 (Simulation time: 0 hr 46 min 55 sec) 

ChampSim completed all CPUs

Region of Interest Statistics

CPU 0 cummulative IPC: 0.560974 instructions: 100000003 cycles: 178261536
LLC TOTAL     ACCESS:    3481390  HIT:     242878  MISS:    3238512
LLC LOAD      ACCESS:    1002108  HIT:         20  MISS:    1002088
LLC RFO       ACCESS:     140009  HIT:         61  MISS:     139948
LLC PREFETCH  ACCESS:    1596602  HIT:      21569  MISS:    1575033
LLC WRITEBACK ACCESS:     742671  HIT:     221228  MISS:     521443
Ship samples: size is 64
13, 35, 78, 99, 143, 171, 195, 230, 263, 300, 321, 358, 393, 425, 449, 487, 522, 557, 585, 615, 650, 673, 707, 736, 775, 815, 839, 867, 906, 935, 970, 998, 1038, 1062, 1099, 1124, 1154, 1194, 1225, 1263, 1281, 1317, 1359, 1389, 1422, 1451, 1484, 1505, 1544, 1572, 1603, 1636, 1679, 1711, 1739, 1770, 1803, 1831, 1870, 1893, 1922, 1967, 1999, 2017, 
Ship duel samples: size is 128
13, 22, 35, 51, 78, 85, 99, 119, 143, 154, 171, 179, 195, 223, 230, 250, 263, 276, 300, 308, 321, 340, 358, 370, 393, 406, 425, 433, 449, 470, 487, 501, 522, 533, 557, 572, 585, 600, 615, 637, 650, 668, 673, 692, 707, 725, 736, 759, 775, 789, 815, 829, 839, 857, 867, 880, 906, 917, 935, 945, 970, 977, 998, 1012, 1038, 1042, 1062, 1082, 1099, 1105, 1124, 1143, 1154, 1176, 1194, 1208, 1225, 1234, 1263, 1278, 1281, 1308, 1317, 1338, 1359, 1366, 1389, 1397, 1422, 1438, 1451, 1459, 1484, 1502, 1505, 1523, 1544, 1564, 1572, 1596, 1603, 1623, 1636, 1661, 1679, 1693, 1711, 1726, 1739, 1745, 1770, 1777, 1803, 1817, 1831, 1840, 1870, 1876, 1893, 1916, 1922, 1937, 1967, 1982, 1999, 2000, 2017, 2039, 
Lime duel samples: size is 128
5, 19, 32, 62, 71, 93, 101, 117, 129, 156, 170, 183, 194, 210, 224, 245, 269, 273, 296, 318, 322, 346, 360, 380, 385, 402, 420, 444, 454, 465, 482, 507, 516, 530, 554, 571, 576, 607, 608, 625, 651, 667, 680, 702, 717, 728, 739, 762, 778, 796, 809, 828, 838, 849, 873, 887, 899, 925, 931, 953, 974, 982, 996, 1011, 1032, 1054, 1070, 1080, 1102, 1119, 1129, 1145, 1162, 1169, 1191, 1207, 1226, 1243, 1249, 1268, 1287, 1306, 1312, 1341, 1355, 1369, 1380, 1406, 1415, 1431, 1447, 1461, 1485, 1500, 1512, 1526, 1546, 1559, 1582, 1592, 1606, 1624, 1634, 1648, 1673, 1689, 1703, 1715, 1732, 1752, 1767, 1787, 1795, 1816, 1832, 1854, 1857, 1884, 1901, 1912, 1924, 1940, 1966, 1969, 1984, 2006, 2023, 2043, 
Lime samples: size is 15
5, 129, 269, 385, 516, 651, 778, 899, 1032, 1162, 1287, 1415, 1546, 1673, 1795, 
Insertion Distribution: 
	LOAD 0 0 0 0 0 0 9196 333474 
	RFO 0 0 0 0 0 0 2781 51425 
	PREF 0 0 0 0 0 0 31494 497691 
	WRITEBACK 0 0 0 0 0 0 0 209360 
Total Prefetch Downgrades: 53
