
*** ChampSim Multicore Out-of-Order Simulator ***

Warmup Instructions: 10000000
Simulation Instructions: 100000000
Configuration: 2
Number of CPUs: 1
LLC sets: 2048
LLC ways: 16
Off-chip DRAM Channels: 1 Width: 64-bit Data Rate: 1600 MT/s

CPU 0 runs /datasets/cs240c-wi22-a00-public/data/Assignment2-gz/bzip2_183B.trace.gz
CPU 0 L1D next line prefetcher
CPU 0 L2C IP-based stride prefetcher
Heartbeat CPU 0 instructions: 1000000 cycles: 447984 heartbeat IPC: 2.23222 cumulative IPC: 2.23222 (Simulation time: 0 hr 0 min 26 sec) 
select_counter is 495
Heartbeat CPU 0 instructions: 2000001 cycles: 951255 heartbeat IPC: 1.987 cumulative IPC: 2.10249 (Simulation time: 0 hr 0 min 53 sec) 
select_counter is 497
Heartbeat CPU 0 instructions: 3000001 cycles: 1457939 heartbeat IPC: 1.97362 cumulative IPC: 2.0577 (Simulation time: 0 hr 1 min 17 sec) 
select_counter is 477
Heartbeat CPU 0 instructions: 4000000 cycles: 1928651 heartbeat IPC: 2.12444 cumulative IPC: 2.07399 (Simulation time: 0 hr 1 min 40 sec) 
select_counter is 263
Heartbeat CPU 0 instructions: 5000000 cycles: 2425967 heartbeat IPC: 2.01079 cumulative IPC: 2.06103 (Simulation time: 0 hr 2 min 4 sec) 
select_counter is 139
Heartbeat CPU 0 instructions: 6000001 cycles: 2887578 heartbeat IPC: 2.16633 cumulative IPC: 2.07787 (Simulation time: 0 hr 2 min 26 sec) 
select_counter is 16
Heartbeat CPU 0 instructions: 7000002 cycles: 3343479 heartbeat IPC: 2.19346 cumulative IPC: 2.09363 (Simulation time: 0 hr 2 min 49 sec) 
select_counter is 841
Heartbeat CPU 0 instructions: 8000000 cycles: 3813069 heartbeat IPC: 2.12951 cumulative IPC: 2.09805 (Simulation time: 0 hr 3 min 13 sec) 
select_counter is 820
Heartbeat CPU 0 instructions: 9000003 cycles: 4278317 heartbeat IPC: 2.1494 cumulative IPC: 2.10363 (Simulation time: 0 hr 3 min 39 sec) 
select_counter is 733
Heartbeat CPU 0 instructions: 10000000 cycles: 4746778 heartbeat IPC: 2.13464 cumulative IPC: 2.10669 (Simulation time: 0 hr 4 min 1 sec) 
select_counter is 670

Warmup complete CPU 0 instructions: 10000001 cycles: 4746779 (Simulation time: 0 hr 4 min 1 sec) 

Heartbeat CPU 0 instructions: 11000000 cycles: 6262912 heartbeat IPC: 0.659572 cumulative IPC: 0.659572 (Simulation time: 0 hr 4 min 21 sec) 
select_counter is 671
Heartbeat CPU 0 instructions: 12000000 cycles: 7725967 heartbeat IPC: 0.683501 cumulative IPC: 0.671324 (Simulation time: 0 hr 4 min 41 sec) 
select_counter is 629
Heartbeat CPU 0 instructions: 13000000 cycles: 8940868 heartbeat IPC: 0.823112 cumulative IPC: 0.715292 (Simulation time: 0 hr 5 min 5 sec) 
select_counter is 603
Heartbeat CPU 0 instructions: 14000003 cycles: 9992204 heartbeat IPC: 0.951174 cumulative IPC: 0.76257 (Simulation time: 0 hr 5 min 31 sec) 
select_counter is 552
Heartbeat CPU 0 instructions: 15000000 cycles: 11386866 heartbeat IPC: 0.717017 cumulative IPC: 0.753002 (Simulation time: 0 hr 5 min 52 sec) 
select_counter is 512
Heartbeat CPU 0 instructions: 16000000 cycles: 12368964 heartbeat IPC: 1.01823 cumulative IPC: 0.787176 (Simulation time: 0 hr 6 min 14 sec) 
select_counter is 496
Heartbeat CPU 0 instructions: 17000003 cycles: 13270896 heartbeat IPC: 1.10873 cumulative IPC: 0.8212 (Simulation time: 0 hr 6 min 34 sec) 
select_counter is 485
Heartbeat CPU 0 instructions: 18000001 cycles: 14193112 heartbeat IPC: 1.08434 cumulative IPC: 0.846889 (Simulation time: 0 hr 6 min 54 sec) 
select_counter is 479
Heartbeat CPU 0 instructions: 19000002 cycles: 15156151 heartbeat IPC: 1.03838 cumulative IPC: 0.864606 (Simulation time: 0 hr 7 min 14 sec) 
select_counter is 473
Heartbeat CPU 0 instructions: 20000000 cycles: 16364309 heartbeat IPC: 0.827705 cumulative IPC: 0.860768 (Simulation time: 0 hr 7 min 33 sec) 
select_counter is 456
Heartbeat CPU 0 instructions: 21000000 cycles: 17876086 heartbeat IPC: 0.661473 cumulative IPC: 0.83782 (Simulation time: 0 hr 8 min 1 sec) 
select_counter is 374
Heartbeat CPU 0 instructions: 22000000 cycles: 19303672 heartbeat IPC: 0.700483 cumulative IPC: 0.824352 (Simulation time: 0 hr 8 min 26 sec) 
select_counter is 341
Heartbeat CPU 0 instructions: 23000000 cycles: 20460672 heartbeat IPC: 0.864304 cumulative IPC: 0.827293 (Simulation time: 0 hr 8 min 49 sec) 
select_counter is 287
Heartbeat CPU 0 instructions: 24000000 cycles: 21724991 heartbeat IPC: 0.79094 cumulative IPC: 0.824586 (Simulation time: 0 hr 9 min 7 sec) 
select_counter is 261
Heartbeat CPU 0 instructions: 25000001 cycles: 23079468 heartbeat IPC: 0.738293 cumulative IPC: 0.818211 (Simulation time: 0 hr 9 min 28 sec) 
select_counter is 223
Heartbeat CPU 0 instructions: 26000002 cycles: 24066478 heartbeat IPC: 1.01316 cumulative IPC: 0.82817 (Simulation time: 0 hr 9 min 51 sec) 
select_counter is 221
Heartbeat CPU 0 instructions: 27000000 cycles: 25070595 heartbeat IPC: 0.995898 cumulative IPC: 0.836457 (Simulation time: 0 hr 10 min 10 sec) 
select_counter is 219
Heartbeat CPU 0 instructions: 28000000 cycles: 26360012 heartbeat IPC: 0.775544 cumulative IPC: 0.832823 (Simulation time: 0 hr 10 min 31 sec) 
select_counter is 176
Heartbeat CPU 0 instructions: 29000003 cycles: 27433944 heartbeat IPC: 0.93116 cumulative IPC: 0.837478 (Simulation time: 0 hr 10 min 52 sec) 
select_counter is 166
Heartbeat CPU 0 instructions: 30000000 cycles: 28755048 heartbeat IPC: 0.75694 cumulative IPC: 0.833046 (Simulation time: 0 hr 11 min 11 sec) 
select_counter is 113
Heartbeat CPU 0 instructions: 31000000 cycles: 30051176 heartbeat IPC: 0.771529 cumulative IPC: 0.829895 (Simulation time: 0 hr 11 min 30 sec) 
select_counter is 72
Heartbeat CPU 0 instructions: 32000000 cycles: 31669575 heartbeat IPC: 0.617895 cumulative IPC: 0.817151 (Simulation time: 0 hr 11 min 48 sec) 
select_counter is 52
Heartbeat CPU 0 instructions: 33000000 cycles: 32732035 heartbeat IPC: 0.941212 cumulative IPC: 0.821861 (Simulation time: 0 hr 12 min 9 sec) 
select_counter is 1015
Heartbeat CPU 0 instructions: 34000001 cycles: 33738545 heartbeat IPC: 0.993533 cumulative IPC: 0.827821 (Simulation time: 0 hr 12 min 30 sec) 
select_counter is 1012
Heartbeat CPU 0 instructions: 35000003 cycles: 34751599 heartbeat IPC: 0.987116 cumulative IPC: 0.8332 (Simulation time: 0 hr 12 min 58 sec) 
select_counter is 988
Heartbeat CPU 0 instructions: 36000000 cycles: 35760654 heartbeat IPC: 0.991023 cumulative IPC: 0.838334 (Simulation time: 0 hr 13 min 19 sec) 
select_counter is 997
Heartbeat CPU 0 instructions: 37000003 cycles: 36999434 heartbeat IPC: 0.807248 cumulative IPC: 0.83714 (Simulation time: 0 hr 13 min 38 sec) 
select_counter is 956
Heartbeat CPU 0 instructions: 38000001 cycles: 38522165 heartbeat IPC: 0.656713 cumulative IPC: 0.829006 (Simulation time: 0 hr 13 min 57 sec) 
select_counter is 921
Heartbeat CPU 0 instructions: 39000002 cycles: 39641160 heartbeat IPC: 0.89366 cumulative IPC: 0.831079 (Simulation time: 0 hr 14 min 16 sec) 
select_counter is 902
Heartbeat CPU 0 instructions: 40000000 cycles: 40681249 heartbeat IPC: 0.961454 cumulative IPC: 0.834853 (Simulation time: 0 hr 14 min 36 sec) 
select_counter is 900
Heartbeat CPU 0 instructions: 41000002 cycles: 42161818 heartbeat IPC: 0.675417 cumulative IPC: 0.828544 (Simulation time: 0 hr 14 min 55 sec) 
select_counter is 871
Heartbeat CPU 0 instructions: 42000000 cycles: 43451330 heartbeat IPC: 0.775486 cumulative IPC: 0.826776 (Simulation time: 0 hr 15 min 13 sec) 
select_counter is 861
Heartbeat CPU 0 instructions: 43000001 cycles: 44611861 heartbeat IPC: 0.861675 cumulative IPC: 0.827792 (Simulation time: 0 hr 15 min 33 sec) 
select_counter is 821
Heartbeat CPU 0 instructions: 44000000 cycles: 45769124 heartbeat IPC: 0.864107 cumulative IPC: 0.828817 (Simulation time: 0 hr 15 min 52 sec) 
select_counter is 815
Heartbeat CPU 0 instructions: 45000000 cycles: 46844913 heartbeat IPC: 0.92955 cumulative IPC: 0.831391 (Simulation time: 0 hr 16 min 14 sec) 
select_counter is 809
Heartbeat CPU 0 instructions: 46000000 cycles: 47967042 heartbeat IPC: 0.891163 cumulative IPC: 0.832943 (Simulation time: 0 hr 16 min 43 sec) 
select_counter is 786
Heartbeat CPU 0 instructions: 47000003 cycles: 48972742 heartbeat IPC: 0.994335 cumulative IPC: 0.836613 (Simulation time: 0 hr 17 min 6 sec) 
select_counter is 775
Heartbeat CPU 0 instructions: 48000000 cycles: 50556390 heartbeat IPC: 0.631452 cumulative IPC: 0.82952 (Simulation time: 0 hr 17 min 25 sec) 
select_counter is 754
Heartbeat CPU 0 instructions: 49000003 cycles: 52166894 heartbeat IPC: 0.620925 cumulative IPC: 0.822436 (Simulation time: 0 hr 17 min 45 sec) 
select_counter is 725
Heartbeat CPU 0 instructions: 50000000 cycles: 53314211 heartbeat IPC: 0.871596 cumulative IPC: 0.823597 (Simulation time: 0 hr 18 min 11 sec) 
select_counter is 715
Heartbeat CPU 0 instructions: 51000000 cycles: 54347659 heartbeat IPC: 0.967635 cumulative IPC: 0.826598 (Simulation time: 0 hr 18 min 30 sec) 
select_counter is 717
Heartbeat CPU 0 instructions: 52000000 cycles: 55371493 heartbeat IPC: 0.976721 cumulative IPC: 0.829634 (Simulation time: 0 hr 18 min 50 sec) 
select_counter is 711
Heartbeat CPU 0 instructions: 53000001 cycles: 56362047 heartbeat IPC: 1.00954 cumulative IPC: 0.833087 (Simulation time: 0 hr 19 min 14 sec) 
select_counter is 698
Heartbeat CPU 0 instructions: 54000001 cycles: 57374255 heartbeat IPC: 0.987939 cumulative IPC: 0.836065 (Simulation time: 0 hr 19 min 36 sec) 
select_counter is 692
Heartbeat CPU 0 instructions: 55000001 cycles: 58612706 heartbeat IPC: 0.80746 cumulative IPC: 0.835407 (Simulation time: 0 hr 20 min 1 sec) 
select_counter is 686
Heartbeat CPU 0 instructions: 56000000 cycles: 59808733 heartbeat IPC: 0.836101 cumulative IPC: 0.835423 (Simulation time: 0 hr 20 min 23 sec) 
select_counter is 645
Heartbeat CPU 0 instructions: 57000003 cycles: 61209048 heartbeat IPC: 0.714127 cumulative IPC: 0.832414 (Simulation time: 0 hr 20 min 45 sec) 
select_counter is 613
Heartbeat CPU 0 instructions: 58000001 cycles: 62795586 heartbeat IPC: 0.630302 cumulative IPC: 0.82689 (Simulation time: 0 hr 21 min 4 sec) 
select_counter is 593
Heartbeat CPU 0 instructions: 59000003 cycles: 64108430 heartbeat IPC: 0.761707 cumulative IPC: 0.825449 (Simulation time: 0 hr 21 min 23 sec) 
select_counter is 586
Heartbeat CPU 0 instructions: 60000000 cycles: 65697689 heartbeat IPC: 0.629222 cumulative IPC: 0.820332 (Simulation time: 0 hr 21 min 46 sec) 
select_counter is 555
Heartbeat CPU 0 instructions: 61000003 cycles: 67438863 heartbeat IPC: 0.574327 cumulative IPC: 0.8135 (Simulation time: 0 hr 22 min 4 sec) 
select_counter is 526
Heartbeat CPU 0 instructions: 62000002 cycles: 68991637 heartbeat IPC: 0.644008 cumulative IPC: 0.809403 (Simulation time: 0 hr 22 min 23 sec) 
select_counter is 516
Heartbeat CPU 0 instructions: 63000003 cycles: 70392110 heartbeat IPC: 0.714045 cumulative IPC: 0.807369 (Simulation time: 0 hr 22 min 43 sec) 
select_counter is 491
Heartbeat CPU 0 instructions: 64000000 cycles: 71966054 heartbeat IPC: 0.635345 cumulative IPC: 0.803341 (Simulation time: 0 hr 23 min 2 sec) 
select_counter is 473
Heartbeat CPU 0 instructions: 65000003 cycles: 73230776 heartbeat IPC: 0.79069 cumulative IPC: 0.803107 (Simulation time: 0 hr 23 min 20 sec) 
select_counter is 456
Heartbeat CPU 0 instructions: 66000000 cycles: 74566151 heartbeat IPC: 0.748851 cumulative IPC: 0.80207 (Simulation time: 0 hr 23 min 41 sec) 
select_counter is 420
Heartbeat CPU 0 instructions: 67000000 cycles: 75508887 heartbeat IPC: 1.06074 cumulative IPC: 0.805516 (Simulation time: 0 hr 23 min 59 sec) 
select_counter is 406
Heartbeat CPU 0 instructions: 68000000 cycles: 76916308 heartbeat IPC: 0.710519 cumulative IPC: 0.803663 (Simulation time: 0 hr 24 min 18 sec) 
select_counter is 392
Heartbeat CPU 0 instructions: 69000000 cycles: 78490477 heartbeat IPC: 0.635256 cumulative IPC: 0.800068 (Simulation time: 0 hr 24 min 37 sec) 
select_counter is 380
Heartbeat CPU 0 instructions: 70000002 cycles: 79967665 heartbeat IPC: 0.676963 cumulative IPC: 0.797651 (Simulation time: 0 hr 25 min 1 sec) 
select_counter is 285
Heartbeat CPU 0 instructions: 71000000 cycles: 81534745 heartbeat IPC: 0.638128 cumulative IPC: 0.794395 (Simulation time: 0 hr 25 min 20 sec) 
select_counter is 248
Heartbeat CPU 0 instructions: 72000000 cycles: 82906971 heartbeat IPC: 0.728743 cumulative IPC: 0.793243 (Simulation time: 0 hr 25 min 39 sec) 
select_counter is 230
Heartbeat CPU 0 instructions: 73000001 cycles: 84194291 heartbeat IPC: 0.776808 cumulative IPC: 0.792976 (Simulation time: 0 hr 26 min 4 sec) 
select_counter is 209
Heartbeat CPU 0 instructions: 74000000 cycles: 85353692 heartbeat IPC: 0.862513 cumulative IPC: 0.793977 (Simulation time: 0 hr 26 min 28 sec) 
select_counter is 151
Heartbeat CPU 0 instructions: 75000001 cycles: 86769864 heartbeat IPC: 0.70613 cumulative IPC: 0.79246 (Simulation time: 0 hr 26 min 49 sec) 
select_counter is 135
Heartbeat CPU 0 instructions: 76000000 cycles: 87909448 heartbeat IPC: 0.877512 cumulative IPC: 0.793625 (Simulation time: 0 hr 27 min 13 sec) 
select_counter is 112
Heartbeat CPU 0 instructions: 77000003 cycles: 89086075 heartbeat IPC: 0.84989 cumulative IPC: 0.79441 (Simulation time: 0 hr 27 min 33 sec) 
select_counter is 104
Heartbeat CPU 0 instructions: 78000000 cycles: 90418272 heartbeat IPC: 0.750637 cumulative IPC: 0.79373 (Simulation time: 0 hr 27 min 54 sec) 
select_counter is 79
Heartbeat CPU 0 instructions: 79000000 cycles: 91761118 heartbeat IPC: 0.744687 cumulative IPC: 0.792973 (Simulation time: 0 hr 28 min 17 sec) 
select_counter is 1013
Heartbeat CPU 0 instructions: 80000000 cycles: 93148763 heartbeat IPC: 0.720645 cumulative IPC: 0.791837 (Simulation time: 0 hr 28 min 39 sec) 
select_counter is 1001
Heartbeat CPU 0 instructions: 81000000 cycles: 94842097 heartbeat IPC: 0.590551 cumulative IPC: 0.788054 (Simulation time: 0 hr 29 min 1 sec) 
select_counter is 987
Heartbeat CPU 0 instructions: 82000002 cycles: 96391235 heartbeat IPC: 0.645522 cumulative IPC: 0.785645 (Simulation time: 0 hr 29 min 22 sec) 
select_counter is 970
Heartbeat CPU 0 instructions: 83000000 cycles: 97551711 heartbeat IPC: 0.861714 cumulative IPC: 0.786596 (Simulation time: 0 hr 29 min 45 sec) 
select_counter is 1005
Heartbeat CPU 0 instructions: 84000000 cycles: 98505055 heartbeat IPC: 1.04894 cumulative IPC: 0.789264 (Simulation time: 0 hr 30 min 6 sec) 
select_counter is 991
Heartbeat CPU 0 instructions: 85000002 cycles: 99550596 heartbeat IPC: 0.956445 cumulative IPC: 0.791107 (Simulation time: 0 hr 30 min 28 sec) 
select_counter is 994
Heartbeat CPU 0 instructions: 86000002 cycles: 100530267 heartbeat IPC: 1.02075 cumulative IPC: 0.793456 (Simulation time: 0 hr 30 min 51 sec) 
select_counter is 985
Heartbeat CPU 0 instructions: 87000001 cycles: 101547944 heartbeat IPC: 0.982629 cumulative IPC: 0.795445 (Simulation time: 0 hr 31 min 16 sec) 
select_counter is 937
Heartbeat CPU 0 instructions: 88000000 cycles: 102843786 heartbeat IPC: 0.771698 cumulative IPC: 0.795131 (Simulation time: 0 hr 31 min 40 sec) 
select_counter is 928
Heartbeat CPU 0 instructions: 89000000 cycles: 104376314 heartbeat IPC: 0.652517 cumulative IPC: 0.792938 (Simulation time: 0 hr 32 min 8 sec) 
select_counter is 898
Heartbeat CPU 0 instructions: 90000002 cycles: 105879918 heartbeat IPC: 0.66507 cumulative IPC: 0.791036 (Simulation time: 0 hr 32 min 29 sec) 
select_counter is 882
Heartbeat CPU 0 instructions: 91000000 cycles: 107588968 heartbeat IPC: 0.585119 cumulative IPC: 0.787615 (Simulation time: 0 hr 32 min 51 sec) 
select_counter is 868
Heartbeat CPU 0 instructions: 92000000 cycles: 109087818 heartbeat IPC: 0.667178 cumulative IPC: 0.785884 (Simulation time: 0 hr 33 min 13 sec) 
select_counter is 844
Heartbeat CPU 0 instructions: 93000001 cycles: 110363562 heartbeat IPC: 0.783857 cumulative IPC: 0.78586 (Simulation time: 0 hr 33 min 41 sec) 
select_counter is 850
Heartbeat CPU 0 instructions: 94000000 cycles: 112116774 heartbeat IPC: 0.570381 cumulative IPC: 0.782341 (Simulation time: 0 hr 34 min 2 sec) 
select_counter is 831
Heartbeat CPU 0 instructions: 95000002 cycles: 113730763 heartbeat IPC: 0.619584 cumulative IPC: 0.779931 (Simulation time: 0 hr 34 min 26 sec) 
select_counter is 792
Heartbeat CPU 0 instructions: 96000000 cycles: 115345765 heartbeat IPC: 0.619193 cumulative IPC: 0.777584 (Simulation time: 0 hr 34 min 47 sec) 
select_counter is 771
Heartbeat CPU 0 instructions: 97000000 cycles: 116758989 heartbeat IPC: 0.707602 cumulative IPC: 0.776701 (Simulation time: 0 hr 35 min 9 sec) 
select_counter is 721
Heartbeat CPU 0 instructions: 98000000 cycles: 118038891 heartbeat IPC: 0.78131 cumulative IPC: 0.776753 (Simulation time: 0 hr 35 min 29 sec) 
select_counter is 703
Heartbeat CPU 0 instructions: 99000003 cycles: 119177810 heartbeat IPC: 0.878028 cumulative IPC: 0.777761 (Simulation time: 0 hr 35 min 54 sec) 
select_counter is 688
Heartbeat CPU 0 instructions: 100000000 cycles: 120692387 heartbeat IPC: 0.660248 cumulative IPC: 0.776226 (Simulation time: 0 hr 36 min 15 sec) 
select_counter is 641
Heartbeat CPU 0 instructions: 101000000 cycles: 122202169 heartbeat IPC: 0.662347 cumulative IPC: 0.774762 (Simulation time: 0 hr 36 min 35 sec) 
select_counter is 632
Heartbeat CPU 0 instructions: 102000001 cycles: 123899517 heartbeat IPC: 0.589155 cumulative IPC: 0.772118 (Simulation time: 0 hr 36 min 58 sec) 
select_counter is 618
Heartbeat CPU 0 instructions: 103000002 cycles: 125236004 heartbeat IPC: 0.748231 cumulative IPC: 0.771853 (Simulation time: 0 hr 37 min 19 sec) 
select_counter is 647
Heartbeat CPU 0 instructions: 104000000 cycles: 126957500 heartbeat IPC: 0.580889 cumulative IPC: 0.769163 (Simulation time: 0 hr 37 min 40 sec) 
select_counter is 627
Heartbeat CPU 0 instructions: 105000002 cycles: 127929373 heartbeat IPC: 1.02894 cumulative IPC: 0.771213 (Simulation time: 0 hr 38 min 1 sec) 
select_counter is 631
Heartbeat CPU 0 instructions: 106000000 cycles: 129466846 heartbeat IPC: 0.650417 cumulative IPC: 0.769724 (Simulation time: 0 hr 38 min 19 sec) 
select_counter is 618
Heartbeat CPU 0 instructions: 107000002 cycles: 131035425 heartbeat IPC: 0.637521 cumulative IPC: 0.768082 (Simulation time: 0 hr 38 min 39 sec) 
select_counter is 600
Heartbeat CPU 0 instructions: 108000000 cycles: 132373266 heartbeat IPC: 0.747472 cumulative IPC: 0.767866 (Simulation time: 0 hr 39 min 1 sec) 
select_counter is 587
Heartbeat CPU 0 instructions: 109000002 cycles: 134085775 heartbeat IPC: 0.58394 cumulative IPC: 0.76543 (Simulation time: 0 hr 39 min 21 sec) 
select_counter is 562
Heartbeat CPU 0 instructions: 110000000 cycles: 135316154 heartbeat IPC: 0.812756 cumulative IPC: 0.765876 (Simulation time: 0 hr 39 min 40 sec) 
select_counter is 550
Finished CPU 0 instructions: 100000003 cycles: 130569376 cummulative IPC: 0.765876 (Simulation time: 0 hr 39 min 40 sec) 

ChampSim completed all CPUs

Region of Interest Statistics

CPU 0 cummulative IPC: 0.765876 instructions: 100000003 cycles: 130569376
LLC TOTAL     ACCESS:    1571231  HIT:    1393690  MISS:     177541
LLC LOAD      ACCESS:     429805  HIT:     400487  MISS:      29318
LLC RFO       ACCESS:     294159  HIT:     238926  MISS:      55233
LLC PREFETCH  ACCESS:     521298  HIT:     450630  MISS:      70668
LLC WRITEBACK ACCESS:     325969  HIT:     303647  MISS:      22322
Ship samples: size is 64
6, 43, 64, 98, 137, 168, 197, 236, 265, 288, 326, 364, 386, 416, 461, 483, 519, 550, 579, 621, 642, 677, 718, 736, 774, 800, 844, 866, 905, 939, 974, 1004, 1034, 1071, 1098, 1129, 1154, 1188, 1231, 1255, 1285, 1314, 1348, 1388, 1419, 1444, 1481, 1504, 1546, 1578, 1607, 1643, 1672, 1710, 1734, 1767, 1796, 1830, 1859, 1902, 1927, 1953, 1999, 2018, 
Ship duel samples: size is 128
6, 25, 43, 56, 64, 87, 98, 115, 137, 154, 168, 184, 197, 216, 236, 248, 265, 277, 288, 313, 326, 347, 364, 373, 386, 413, 416, 445, 461, 476, 483, 502, 519, 539, 550, 570, 579, 600, 621, 636, 642, 662, 677, 696, 718, 721, 736, 759, 774, 784, 800, 828, 844, 860, 866, 894, 905, 914, 939, 950, 974, 990, 1004, 1013, 1034, 1042, 1071, 1085, 1098, 1116, 1129, 1148, 1154, 1182, 1188, 1200, 1231, 1237, 1255, 1269, 1285, 1303, 1314, 1331, 1348, 1360, 1388, 1398, 1419, 1426, 1444, 1466, 1481, 1492, 1504, 1528, 1546, 1556, 1578, 1591, 1607, 1625, 1643, 1655, 1672, 1695, 1710, 1718, 1734, 1744, 1767, 1786, 1796, 1815, 1830, 1850, 1859, 1881, 1902, 1917, 1927, 1943, 1953, 1976, 1999, 2002, 2018, 2035, 
Lime duel samples: size is 128
7, 24, 47, 63, 79, 83, 111, 127, 139, 148, 166, 185, 196, 209, 238, 252, 259, 272, 298, 317, 329, 337, 361, 375, 390, 402, 419, 438, 450, 472, 487, 505, 512, 534, 552, 560, 585, 599, 623, 628, 651, 661, 685, 703, 710, 731, 748, 762, 780, 790, 807, 821, 839, 849, 876, 893, 899, 927, 932, 949, 967, 987, 1006, 1016, 1025, 1046, 1064, 1082, 1101, 1111, 1134, 1145, 1164, 1179, 1192, 1203, 1222, 1236, 1261, 1266, 1290, 1300, 1320, 1329, 1349, 1364, 1391, 1400, 1412, 1427, 1453, 1467, 1486, 1499, 1507, 1535, 1537, 1563, 1577, 1599, 1602, 1623, 1640, 1663, 1666, 1680, 1698, 1720, 1733, 1759, 1771, 1791, 1795, 1811, 1825, 1849, 1863, 1872, 1889, 1915, 1923, 1951, 1959, 1969, 1994, 2010, 2016, 2044, 
Lime samples: size is 15
7, 139, 259, 390, 512, 651, 780, 899, 1025, 1164, 1290, 1412, 1537, 1666, 1795, 
Insertion Distribution: 
	LOAD 10977 0 0 0 0 0 3899 112 
	RFO 13539 0 0 0 0 0 6947 3809 
	PREF 0 9516 0 0 0 0 9162 9194 
	WRITEBACK 0 0 0 0 0 0 0 4520 
Total Prefetch Downgrades: 11437
