
*** ChampSim Multicore Out-of-Order Simulator ***

Warmup Instructions: 10000000
Simulation Instructions: 100000000
Configuration: 2
Number of CPUs: 1
LLC sets: 2048
LLC ways: 16
Off-chip DRAM Channels: 1 Width: 64-bit Data Rate: 1600 MT/s

CPU 0 runs /datasets/cs240c-wi22-a00-public/data/Assignment2-gz/leslie3d_1116B.trace.gz
CPU 0 L1D next line prefetcher
CPU 0 L2C IP-based stride prefetcher
Heartbeat CPU 0 instructions: 1000003 cycles: 535311 heartbeat IPC: 1.86808 cumulative IPC: 1.86808 (Simulation time: 0 hr 0 min 24 sec) 
select_counter is 505
Heartbeat CPU 0 instructions: 2000003 cycles: 1071188 heartbeat IPC: 1.8661 cumulative IPC: 1.86709 (Simulation time: 0 hr 0 min 46 sec) 
select_counter is 528
Heartbeat CPU 0 instructions: 3000003 cycles: 1607882 heartbeat IPC: 1.86326 cumulative IPC: 1.86581 (Simulation time: 0 hr 1 min 11 sec) 
select_counter is 632
Heartbeat CPU 0 instructions: 4000000 cycles: 2143232 heartbeat IPC: 1.86793 cumulative IPC: 1.86634 (Simulation time: 0 hr 1 min 39 sec) 
select_counter is 620
Heartbeat CPU 0 instructions: 5000001 cycles: 2678336 heartbeat IPC: 1.8688 cumulative IPC: 1.86683 (Simulation time: 0 hr 2 min 14 sec) 
select_counter is 380
Heartbeat CPU 0 instructions: 6000001 cycles: 3213782 heartbeat IPC: 1.8676 cumulative IPC: 1.86696 (Simulation time: 0 hr 2 min 38 sec) 
select_counter is 338
Heartbeat CPU 0 instructions: 7000001 cycles: 3749751 heartbeat IPC: 1.86578 cumulative IPC: 1.86679 (Simulation time: 0 hr 3 min 3 sec) 
select_counter is 457
Heartbeat CPU 0 instructions: 8000000 cycles: 4285782 heartbeat IPC: 1.86556 cumulative IPC: 1.86664 (Simulation time: 0 hr 3 min 26 sec) 
select_counter is 420
Heartbeat CPU 0 instructions: 9000003 cycles: 4820940 heartbeat IPC: 1.86861 cumulative IPC: 1.86686 (Simulation time: 0 hr 3 min 51 sec) 
select_counter is 307
Heartbeat CPU 0 instructions: 10000002 cycles: 5356011 heartbeat IPC: 1.86891 cumulative IPC: 1.86706 (Simulation time: 0 hr 4 min 17 sec) 
select_counter is 265

Warmup complete CPU 0 instructions: 10000002 cycles: 5356011 (Simulation time: 0 hr 4 min 17 sec) 

Heartbeat CPU 0 instructions: 11000001 cycles: 6427173 heartbeat IPC: 0.933565 cumulative IPC: 0.933565 (Simulation time: 0 hr 4 min 43 sec) 
select_counter is 275
Heartbeat CPU 0 instructions: 12000000 cycles: 7476346 heartbeat IPC: 0.953131 cumulative IPC: 0.943246 (Simulation time: 0 hr 5 min 8 sec) 
select_counter is 177
Heartbeat CPU 0 instructions: 13000002 cycles: 8513170 heartbeat IPC: 0.964486 cumulative IPC: 0.950221 (Simulation time: 0 hr 5 min 37 sec) 
select_counter is 979
Heartbeat CPU 0 instructions: 14000003 cycles: 9557311 heartbeat IPC: 0.957726 cumulative IPC: 0.952087 (Simulation time: 0 hr 6 min 8 sec) 
select_counter is 869
Heartbeat CPU 0 instructions: 15000000 cycles: 10629981 heartbeat IPC: 0.93225 cumulative IPC: 0.948052 (Simulation time: 0 hr 6 min 34 sec) 
select_counter is 767
Heartbeat CPU 0 instructions: 16000000 cycles: 11685441 heartbeat IPC: 0.947454 cumulative IPC: 0.947952 (Simulation time: 0 hr 6 min 59 sec) 
select_counter is 565
Heartbeat CPU 0 instructions: 17000003 cycles: 12740227 heartbeat IPC: 0.948062 cumulative IPC: 0.947968 (Simulation time: 0 hr 7 min 29 sec) 
select_counter is 392
Heartbeat CPU 0 instructions: 18000001 cycles: 13816987 heartbeat IPC: 0.92871 cumulative IPC: 0.945517 (Simulation time: 0 hr 7 min 56 sec) 
select_counter is 250
Heartbeat CPU 0 instructions: 19000001 cycles: 14900235 heartbeat IPC: 0.92315 cumulative IPC: 0.942979 (Simulation time: 0 hr 8 min 23 sec) 
select_counter is 139
Heartbeat CPU 0 instructions: 20000000 cycles: 15952406 heartbeat IPC: 0.950415 cumulative IPC: 0.943717 (Simulation time: 0 hr 8 min 49 sec) 
select_counter is 952
Heartbeat CPU 0 instructions: 21000000 cycles: 17025336 heartbeat IPC: 0.932027 cumulative IPC: 0.942642 (Simulation time: 0 hr 9 min 17 sec) 
select_counter is 792
Heartbeat CPU 0 instructions: 22000000 cycles: 18095022 heartbeat IPC: 0.934854 cumulative IPC: 0.941988 (Simulation time: 0 hr 9 min 43 sec) 
select_counter is 660
Heartbeat CPU 0 instructions: 23000003 cycles: 19158200 heartbeat IPC: 0.940579 cumulative IPC: 0.94188 (Simulation time: 0 hr 10 min 8 sec) 
select_counter is 498
Heartbeat CPU 0 instructions: 24000000 cycles: 20223575 heartbeat IPC: 0.938634 cumulative IPC: 0.941647 (Simulation time: 0 hr 10 min 41 sec) 
select_counter is 356
Heartbeat CPU 0 instructions: 25000001 cycles: 21295765 heartbeat IPC: 0.932671 cumulative IPC: 0.941043 (Simulation time: 0 hr 11 min 10 sec) 
select_counter is 243
Heartbeat CPU 0 instructions: 26000002 cycles: 22398311 heartbeat IPC: 0.906993 cumulative IPC: 0.93884 (Simulation time: 0 hr 11 min 44 sec) 
select_counter is 125
Heartbeat CPU 0 instructions: 27000001 cycles: 23461133 heartbeat IPC: 0.94089 cumulative IPC: 0.938961 (Simulation time: 0 hr 12 min 20 sec) 
select_counter is 939
Heartbeat CPU 0 instructions: 28000000 cycles: 24501760 heartbeat IPC: 0.960958 cumulative IPC: 0.940156 (Simulation time: 0 hr 12 min 54 sec) 
select_counter is 757
Heartbeat CPU 0 instructions: 29000003 cycles: 25543349 heartbeat IPC: 0.960074 cumulative IPC: 0.941184 (Simulation time: 0 hr 13 min 22 sec) 
select_counter is 557
Heartbeat CPU 0 instructions: 30000000 cycles: 26632392 heartbeat IPC: 0.918235 cumulative IPC: 0.940009 (Simulation time: 0 hr 13 min 47 sec) 
select_counter is 337
Heartbeat CPU 0 instructions: 31000001 cycles: 27689852 heartbeat IPC: 0.945663 cumulative IPC: 0.940277 (Simulation time: 0 hr 14 min 13 sec) 
select_counter is 102
Heartbeat CPU 0 instructions: 32000000 cycles: 28742418 heartbeat IPC: 0.950058 cumulative IPC: 0.940717 (Simulation time: 0 hr 14 min 38 sec) 
select_counter is 891
Heartbeat CPU 0 instructions: 33000002 cycles: 29795926 heartbeat IPC: 0.949212 cumulative IPC: 0.941083 (Simulation time: 0 hr 15 min 1 sec) 
select_counter is 717
Heartbeat CPU 0 instructions: 34000002 cycles: 30846936 heartbeat IPC: 0.951466 cumulative IPC: 0.941512 (Simulation time: 0 hr 15 min 25 sec) 
select_counter is 514
Heartbeat CPU 0 instructions: 35000000 cycles: 31915974 heartbeat IPC: 0.935419 cumulative IPC: 0.941266 (Simulation time: 0 hr 15 min 48 sec) 
select_counter is 285
Heartbeat CPU 0 instructions: 36000000 cycles: 32993248 heartbeat IPC: 0.928269 cumulative IPC: 0.94076 (Simulation time: 0 hr 16 min 13 sec) 
select_counter is 65
Heartbeat CPU 0 instructions: 37000003 cycles: 34330903 heartbeat IPC: 0.747579 cumulative IPC: 0.931841 (Simulation time: 0 hr 16 min 48 sec) 
select_counter is 1022
Heartbeat CPU 0 instructions: 38000003 cycles: 35753924 heartbeat IPC: 0.70273 cumulative IPC: 0.921116 (Simulation time: 0 hr 17 min 14 sec) 
select_counter is 1022
Heartbeat CPU 0 instructions: 39000003 cycles: 37280989 heartbeat IPC: 0.654851 cumulative IPC: 0.90838 (Simulation time: 0 hr 17 min 44 sec) 
select_counter is 1021
Heartbeat CPU 0 instructions: 40000000 cycles: 38871900 heartbeat IPC: 0.628569 cumulative IPC: 0.895098 (Simulation time: 0 hr 18 min 11 sec) 
select_counter is 1022
Heartbeat CPU 0 instructions: 41000002 cycles: 40447308 heartbeat IPC: 0.634757 cumulative IPC: 0.88341 (Simulation time: 0 hr 18 min 38 sec) 
select_counter is 1022
Heartbeat CPU 0 instructions: 42000001 cycles: 42033768 heartbeat IPC: 0.630334 cumulative IPC: 0.872463 (Simulation time: 0 hr 19 min 4 sec) 
select_counter is 1023
Heartbeat CPU 0 instructions: 43000003 cycles: 43569691 heartbeat IPC: 0.651076 cumulative IPC: 0.863565 (Simulation time: 0 hr 19 min 29 sec) 
select_counter is 1021
Heartbeat CPU 0 instructions: 44000000 cycles: 45053321 heartbeat IPC: 0.67402 cumulative IPC: 0.856481 (Simulation time: 0 hr 19 min 54 sec) 
select_counter is 1003
Heartbeat CPU 0 instructions: 45000002 cycles: 46513592 heartbeat IPC: 0.684806 cumulative IPC: 0.85039 (Simulation time: 0 hr 20 min 20 sec) 
select_counter is 990
Heartbeat CPU 0 instructions: 46000002 cycles: 47981252 heartbeat IPC: 0.681357 cumulative IPC: 0.84457 (Simulation time: 0 hr 20 min 45 sec) 
select_counter is 999
Heartbeat CPU 0 instructions: 47000001 cycles: 49455805 heartbeat IPC: 0.678171 cumulative IPC: 0.839006 (Simulation time: 0 hr 21 min 11 sec) 
select_counter is 1018
Heartbeat CPU 0 instructions: 48000000 cycles: 50915262 heartbeat IPC: 0.685186 cumulative IPC: 0.834079 (Simulation time: 0 hr 21 min 37 sec) 
select_counter is 1018
Heartbeat CPU 0 instructions: 49000000 cycles: 53092477 heartbeat IPC: 0.459302 cumulative IPC: 0.816985 (Simulation time: 0 hr 22 min 7 sec) 
select_counter is 920
Heartbeat CPU 0 instructions: 50000000 cycles: 55609920 heartbeat IPC: 0.397228 cumulative IPC: 0.795958 (Simulation time: 0 hr 22 min 44 sec) 
select_counter is 990
Heartbeat CPU 0 instructions: 51000003 cycles: 58090200 heartbeat IPC: 0.403181 cumulative IPC: 0.777484 (Simulation time: 0 hr 23 min 15 sec) 
select_counter is 1020
Heartbeat CPU 0 instructions: 52000000 cycles: 60591053 heartbeat IPC: 0.399862 cumulative IPC: 0.760387 (Simulation time: 0 hr 23 min 47 sec) 
select_counter is 1023
Heartbeat CPU 0 instructions: 53000003 cycles: 63079281 heartbeat IPC: 0.401894 cumulative IPC: 0.744934 (Simulation time: 0 hr 24 min 22 sec) 
select_counter is 970
Heartbeat CPU 0 instructions: 54000000 cycles: 65426236 heartbeat IPC: 0.426083 cumulative IPC: 0.732476 (Simulation time: 0 hr 25 min 14 sec) 
select_counter is 917
Heartbeat CPU 0 instructions: 55000002 cycles: 67765284 heartbeat IPC: 0.427525 cumulative IPC: 0.721047 (Simulation time: 0 hr 26 min 0 sec) 
select_counter is 1018
Heartbeat CPU 0 instructions: 56000000 cycles: 70153024 heartbeat IPC: 0.418805 cumulative IPC: 0.709909 (Simulation time: 0 hr 26 min 42 sec) 
select_counter is 1018
Heartbeat CPU 0 instructions: 57000001 cycles: 72487338 heartbeat IPC: 0.428392 cumulative IPC: 0.70012 (Simulation time: 0 hr 27 min 19 sec) 
select_counter is 881
Heartbeat CPU 0 instructions: 58000001 cycles: 74748781 heartbeat IPC: 0.442196 cumulative IPC: 0.691715 (Simulation time: 0 hr 27 min 59 sec) 
select_counter is 780
Heartbeat CPU 0 instructions: 59000000 cycles: 76050791 heartbeat IPC: 0.768043 cumulative IPC: 0.69312 (Simulation time: 0 hr 28 min 30 sec) 
select_counter is 632
Heartbeat CPU 0 instructions: 60000000 cycles: 77353819 heartbeat IPC: 0.767443 cumulative IPC: 0.694466 (Simulation time: 0 hr 29 min 4 sec) 
select_counter is 571
Heartbeat CPU 0 instructions: 61000000 cycles: 78726746 heartbeat IPC: 0.728371 cumulative IPC: 0.6951 (Simulation time: 0 hr 29 min 39 sec) 
select_counter is 700
Heartbeat CPU 0 instructions: 62000002 cycles: 80122587 heartbeat IPC: 0.716415 cumulative IPC: 0.695498 (Simulation time: 0 hr 30 min 14 sec) 
select_counter is 844
Heartbeat CPU 0 instructions: 63000003 cycles: 81372174 heartbeat IPC: 0.800265 cumulative IPC: 0.69722 (Simulation time: 0 hr 30 min 45 sec) 
select_counter is 817
Heartbeat CPU 0 instructions: 64000000 cycles: 82637404 heartbeat IPC: 0.790368 cumulative IPC: 0.698745 (Simulation time: 0 hr 31 min 16 sec) 
select_counter is 803
Heartbeat CPU 0 instructions: 65000001 cycles: 84108192 heartbeat IPC: 0.679908 cumulative IPC: 0.698393 (Simulation time: 0 hr 31 min 46 sec) 
select_counter is 1021
Heartbeat CPU 0 instructions: 66000000 cycles: 85329153 heartbeat IPC: 0.819026 cumulative IPC: 0.700235 (Simulation time: 0 hr 32 min 19 sec) 
select_counter is 1008
Heartbeat CPU 0 instructions: 67000001 cycles: 86568232 heartbeat IPC: 0.807052 cumulative IPC: 0.701865 (Simulation time: 0 hr 32 min 52 sec) 
select_counter is 1016
Heartbeat CPU 0 instructions: 68000000 cycles: 87986868 heartbeat IPC: 0.704902 cumulative IPC: 0.701917 (Simulation time: 0 hr 33 min 21 sec) 
select_counter is 1023
Heartbeat CPU 0 instructions: 69000002 cycles: 89265320 heartbeat IPC: 0.782198 cumulative IPC: 0.70314 (Simulation time: 0 hr 33 min 54 sec) 
select_counter is 1012
Heartbeat CPU 0 instructions: 70000000 cycles: 90475954 heartbeat IPC: 0.826012 cumulative IPC: 0.704888 (Simulation time: 0 hr 34 min 21 sec) 
select_counter is 1019
Heartbeat CPU 0 instructions: 71000002 cycles: 91707810 heartbeat IPC: 0.811785 cumulative IPC: 0.706413 (Simulation time: 0 hr 34 min 54 sec) 
select_counter is 1022
Heartbeat CPU 0 instructions: 72000000 cycles: 93125047 heartbeat IPC: 0.705597 cumulative IPC: 0.706399 (Simulation time: 0 hr 35 min 23 sec) 
select_counter is 1015
Heartbeat CPU 0 instructions: 73000000 cycles: 94350941 heartbeat IPC: 0.815731 cumulative IPC: 0.707905 (Simulation time: 0 hr 35 min 53 sec) 
select_counter is 1018
Heartbeat CPU 0 instructions: 74000000 cycles: 95568708 heartbeat IPC: 0.821175 cumulative IPC: 0.709435 (Simulation time: 0 hr 36 min 22 sec) 
select_counter is 1020
Heartbeat CPU 0 instructions: 75000002 cycles: 96999912 heartbeat IPC: 0.698714 cumulative IPC: 0.709267 (Simulation time: 0 hr 36 min 50 sec) 
select_counter is 1003
Heartbeat CPU 0 instructions: 76000000 cycles: 98213532 heartbeat IPC: 0.823979 cumulative IPC: 0.710766 (Simulation time: 0 hr 37 min 18 sec) 
select_counter is 1015
Heartbeat CPU 0 instructions: 77000001 cycles: 99417659 heartbeat IPC: 0.830478 cumulative IPC: 0.712299 (Simulation time: 0 hr 37 min 48 sec) 
select_counter is 1017
Heartbeat CPU 0 instructions: 78000000 cycles: 100728121 heartbeat IPC: 0.763089 cumulative IPC: 0.712997 (Simulation time: 0 hr 38 min 18 sec) 
select_counter is 1020
Heartbeat CPU 0 instructions: 79000001 cycles: 102043929 heartbeat IPC: 0.75999 cumulative IPC: 0.713636 (Simulation time: 0 hr 38 min 44 sec) 
select_counter is 1020
Heartbeat CPU 0 instructions: 80000000 cycles: 103258660 heartbeat IPC: 0.823227 cumulative IPC: 0.714996 (Simulation time: 0 hr 39 min 11 sec) 
select_counter is 1011
Heartbeat CPU 0 instructions: 81000003 cycles: 104468089 heartbeat IPC: 0.826839 cumulative IPC: 0.716361 (Simulation time: 0 hr 39 min 40 sec) 
select_counter is 1023
Heartbeat CPU 0 instructions: 82000000 cycles: 105876425 heartbeat IPC: 0.710056 cumulative IPC: 0.716272 (Simulation time: 0 hr 40 min 9 sec) 
select_counter is 1014
Heartbeat CPU 0 instructions: 83000001 cycles: 107081430 heartbeat IPC: 0.829873 cumulative IPC: 0.717618 (Simulation time: 0 hr 40 min 36 sec) 
select_counter is 1012
Heartbeat CPU 0 instructions: 84000000 cycles: 108296957 heartbeat IPC: 0.822688 cumulative IPC: 0.718859 (Simulation time: 0 hr 41 min 9 sec) 
select_counter is 1011
Heartbeat CPU 0 instructions: 85000003 cycles: 109689221 heartbeat IPC: 0.718257 cumulative IPC: 0.718851 (Simulation time: 0 hr 41 min 38 sec) 
select_counter is 1021
Heartbeat CPU 0 instructions: 86000002 cycles: 110909515 heartbeat IPC: 0.819474 cumulative IPC: 0.720014 (Simulation time: 0 hr 42 min 0 sec) 
select_counter is 1017
Heartbeat CPU 0 instructions: 87000001 cycles: 112114533 heartbeat IPC: 0.829862 cumulative IPC: 0.721254 (Simulation time: 0 hr 42 min 21 sec) 
select_counter is 1016
Heartbeat CPU 0 instructions: 88000000 cycles: 113345522 heartbeat IPC: 0.812354 cumulative IPC: 0.722292 (Simulation time: 0 hr 42 min 40 sec) 
select_counter is 1021
Heartbeat CPU 0 instructions: 89000001 cycles: 114734935 heartbeat IPC: 0.719729 cumulative IPC: 0.72226 (Simulation time: 0 hr 42 min 58 sec) 
select_counter is 1010
Heartbeat CPU 0 instructions: 90000003 cycles: 115939559 heartbeat IPC: 0.830136 cumulative IPC: 0.723435 (Simulation time: 0 hr 43 min 16 sec) 
select_counter is 1018
Heartbeat CPU 0 instructions: 91000000 cycles: 117160928 heartbeat IPC: 0.818751 cumulative IPC: 0.724476 (Simulation time: 0 hr 43 min 34 sec) 
select_counter is 1021
Heartbeat CPU 0 instructions: 92000000 cycles: 118583974 heartbeat IPC: 0.702718 cumulative IPC: 0.724203 (Simulation time: 0 hr 43 min 51 sec) 
select_counter is 1015
Heartbeat CPU 0 instructions: 93000002 cycles: 119794206 heartbeat IPC: 0.82629 cumulative IPC: 0.725282 (Simulation time: 0 hr 44 min 7 sec) 
select_counter is 993
Heartbeat CPU 0 instructions: 94000000 cycles: 121013182 heartbeat IPC: 0.820359 cumulative IPC: 0.726284 (Simulation time: 0 hr 44 min 23 sec) 
select_counter is 1017
Heartbeat CPU 0 instructions: 95000003 cycles: 122352544 heartbeat IPC: 0.746626 cumulative IPC: 0.726517 (Simulation time: 0 hr 44 min 39 sec) 
select_counter is 1019
Heartbeat CPU 0 instructions: 96000000 cycles: 123671390 heartbeat IPC: 0.758236 cumulative IPC: 0.726871 (Simulation time: 0 hr 44 min 54 sec) 
select_counter is 996
Heartbeat CPU 0 instructions: 97000000 cycles: 124876478 heartbeat IPC: 0.829815 cumulative IPC: 0.727909 (Simulation time: 0 hr 45 min 10 sec) 
select_counter is 989
Heartbeat CPU 0 instructions: 98000000 cycles: 126108014 heartbeat IPC: 0.811994 cumulative IPC: 0.728766 (Simulation time: 0 hr 45 min 25 sec) 
select_counter is 989
Heartbeat CPU 0 instructions: 99000003 cycles: 127525639 heartbeat IPC: 0.705407 cumulative IPC: 0.728495 (Simulation time: 0 hr 45 min 39 sec) 
select_counter is 1008
Heartbeat CPU 0 instructions: 100000000 cycles: 128761321 heartbeat IPC: 0.809267 cumulative IPC: 0.729304 (Simulation time: 0 hr 45 min 54 sec) 
select_counter is 992
Heartbeat CPU 0 instructions: 101000001 cycles: 129987862 heartbeat IPC: 0.815302 cumulative IPC: 0.73015 (Simulation time: 0 hr 46 min 9 sec) 
select_counter is 984
Heartbeat CPU 0 instructions: 102000003 cycles: 131410919 heartbeat IPC: 0.702714 cumulative IPC: 0.729841 (Simulation time: 0 hr 46 min 21 sec) 
select_counter is 1002
Heartbeat CPU 0 instructions: 103000002 cycles: 132640766 heartbeat IPC: 0.813108 cumulative IPC: 0.730645 (Simulation time: 0 hr 46 min 34 sec) 
select_counter is 1002
Heartbeat CPU 0 instructions: 104000000 cycles: 133870519 heartbeat IPC: 0.81317 cumulative IPC: 0.731435 (Simulation time: 0 hr 46 min 47 sec) 
select_counter is 1012
Heartbeat CPU 0 instructions: 105000000 cycles: 135129295 heartbeat IPC: 0.794423 cumulative IPC: 0.732046 (Simulation time: 0 hr 46 min 58 sec) 
select_counter is 1015
Heartbeat CPU 0 instructions: 106000003 cycles: 137017518 heartbeat IPC: 0.5296 cumulative IPC: 0.729142 (Simulation time: 0 hr 47 min 9 sec) 
select_counter is 665
Heartbeat CPU 0 instructions: 107000002 cycles: 139034262 heartbeat IPC: 0.495848 cumulative IPC: 0.725623 (Simulation time: 0 hr 47 min 20 sec) 
select_counter is 766
Heartbeat CPU 0 instructions: 108000000 cycles: 141123710 heartbeat IPC: 0.478594 cumulative IPC: 0.721821 (Simulation time: 0 hr 47 min 30 sec) 
select_counter is 1020
Heartbeat CPU 0 instructions: 109000003 cycles: 143166484 heartbeat IPC: 0.489532 cumulative IPC: 0.718378 (Simulation time: 0 hr 47 min 40 sec) 
select_counter is 735
Heartbeat CPU 0 instructions: 110000003 cycles: 145163528 heartbeat IPC: 0.50074 cumulative IPC: 0.715269 (Simulation time: 0 hr 47 min 49 sec) 
select_counter is 491
Finished CPU 0 instructions: 100000001 cycles: 139807517 cummulative IPC: 0.715269 (Simulation time: 0 hr 47 min 49 sec) 

ChampSim completed all CPUs

Region of Interest Statistics

CPU 0 cummulative IPC: 0.715269 instructions: 100000001 cycles: 139807517
LLC TOTAL     ACCESS:    3583960  HIT:     776571  MISS:    2807389
LLC LOAD      ACCESS:     297288  HIT:      43755  MISS:     253533
LLC RFO       ACCESS:     622461  HIT:     115062  MISS:     507399
LLC PREFETCH  ACCESS:    1900925  HIT:     192643  MISS:    1708282
LLC WRITEBACK ACCESS:     763286  HIT:     425111  MISS:     338175
Ship samples: size is 64
4, 35, 79, 98, 140, 168, 199, 225, 257, 288, 322, 362, 393, 423, 452, 484, 515, 557, 584, 612, 646, 672, 719, 738, 775, 804, 839, 867, 911, 939, 963, 992, 1038, 1057, 1096, 1135, 1159, 1199, 1216, 1252, 1293, 1315, 1355, 1376, 1421, 1449, 1476, 1505, 1539, 1572, 1603, 1633, 1669, 1706, 1733, 1768, 1806, 1837, 1869, 1898, 1933, 1963, 1992, 2018, 
Ship duel samples: size is 128
4, 22, 35, 53, 79, 81, 98, 122, 140, 153, 168, 185, 199, 218, 225, 247, 257, 274, 288, 314, 322, 338, 362, 372, 393, 400, 423, 440, 452, 477, 484, 504, 515, 535, 557, 563, 584, 607, 612, 632, 646, 669, 672, 688, 719, 727, 738, 753, 775, 796, 804, 825, 839, 856, 867, 887, 911, 923, 939, 957, 963, 982, 992, 1011, 1038, 1055, 1057, 1074, 1096, 1111, 1135, 1144, 1159, 1182, 1199, 1209, 1216, 1239, 1252, 1264, 1293, 1308, 1315, 1332, 1355, 1374, 1376, 1400, 1421, 1427, 1449, 1459, 1476, 1500, 1505, 1523, 1539, 1563, 1572, 1587, 1603, 1628, 1633, 1651, 1669, 1681, 1706, 1723, 1733, 1754, 1768, 1777, 1806, 1821, 1837, 1852, 1869, 1877, 1898, 1918, 1933, 1940, 1963, 1983, 1992, 2008, 2018, 2035, 
Lime duel samples: size is 128
10, 30, 34, 63, 67, 93, 110, 114, 143, 154, 174, 188, 200, 211, 233, 255, 269, 287, 290, 319, 320, 342, 363, 380, 391, 410, 424, 444, 459, 474, 494, 501, 520, 528, 549, 571, 589, 595, 621, 636, 653, 667, 680, 694, 718, 721, 741, 764, 769, 792, 811, 817, 846, 854, 877, 886, 897, 917, 930, 956, 975, 976, 993, 1015, 1024, 1046, 1059, 1085, 1097, 1104, 1129, 1143, 1164, 1169, 1197, 1210, 1219, 1234, 1254, 1268, 1290, 1298, 1317, 1337, 1352, 1362, 1391, 1401, 1415, 1425, 1445, 1462, 1474, 1495, 1517, 1522, 1549, 1552, 1568, 1591, 1601, 1625, 1646, 1661, 1675, 1691, 1703, 1726, 1741, 1758, 1762, 1784, 1792, 1815, 1825, 1848, 1865, 1872, 1890, 1904, 1921, 1943, 1958, 1971, 1998, 2003, 2022, 2044, 
Lime samples: size is 15
10, 143, 269, 391, 520, 653, 769, 897, 1024, 1164, 1290, 1415, 1549, 1675, 1792, 
Insertion Distribution: 
	LOAD 2008 0 0 0 0 0 2765 25404 
	RFO 0 0 0 0 0 0 6328 79372 
	PREF 0 4881 0 0 0 0 55144 259617 
	WRITEBACK 0 0 0 0 0 0 0 75144 
Total Prefetch Downgrades: 1587
