
*** ChampSim Multicore Out-of-Order Simulator ***

Warmup Instructions: 10000000
Simulation Instructions: 100000000
Configuration: 2
Number of CPUs: 1
LLC sets: 2048
LLC ways: 16
Off-chip DRAM Channels: 1 Width: 64-bit Data Rate: 1600 MT/s

CPU 0 runs /datasets/cs240c-wi22-a00-public/data/Assignment2-gz/lbm_1004B.trace.gz
CPU 0 L1D next line prefetcher
CPU 0 L2C IP-based stride prefetcher
Heartbeat CPU 0 instructions: 1000002 cycles: 391414 heartbeat IPC: 2.55484 cumulative IPC: 2.55484 (Simulation time: 0 hr 0 min 21 sec) 
select_counter is 558
Heartbeat CPU 0 instructions: 2000001 cycles: 782838 heartbeat IPC: 2.55477 cumulative IPC: 2.55481 (Simulation time: 0 hr 0 min 43 sec) 
select_counter is 1020
Heartbeat CPU 0 instructions: 3000001 cycles: 1174187 heartbeat IPC: 2.55526 cumulative IPC: 2.55496 (Simulation time: 0 hr 1 min 5 sec) 
select_counter is 1022
Heartbeat CPU 0 instructions: 4000000 cycles: 1570380 heartbeat IPC: 2.52402 cumulative IPC: 2.54715 (Simulation time: 0 hr 1 min 28 sec) 
select_counter is 847
Heartbeat CPU 0 instructions: 5000002 cycles: 1961798 heartbeat IPC: 2.55482 cumulative IPC: 2.54868 (Simulation time: 0 hr 1 min 50 sec) 
select_counter is 899
Heartbeat CPU 0 instructions: 6000002 cycles: 2353166 heartbeat IPC: 2.55514 cumulative IPC: 2.54976 (Simulation time: 0 hr 2 min 12 sec) 
select_counter is 1023
Heartbeat CPU 0 instructions: 7000003 cycles: 2749274 heartbeat IPC: 2.52457 cumulative IPC: 2.54613 (Simulation time: 0 hr 2 min 35 sec) 
select_counter is 974
Heartbeat CPU 0 instructions: 8000000 cycles: 3140635 heartbeat IPC: 2.55518 cumulative IPC: 2.54726 (Simulation time: 0 hr 2 min 56 sec) 
select_counter is 214
Heartbeat CPU 0 instructions: 9000003 cycles: 3532082 heartbeat IPC: 2.55463 cumulative IPC: 2.54807 (Simulation time: 0 hr 3 min 16 sec) 
select_counter is 215
Heartbeat CPU 0 instructions: 10000000 cycles: 3923456 heartbeat IPC: 2.55509 cumulative IPC: 2.54877 (Simulation time: 0 hr 3 min 36 sec) 
select_counter is 441

Warmup complete CPU 0 instructions: 10000004 cycles: 3923457 (Simulation time: 0 hr 3 min 36 sec) 

Heartbeat CPU 0 instructions: 11000002 cycles: 5295095 heartbeat IPC: 0.729056 cumulative IPC: 0.729054 (Simulation time: 0 hr 4 min 0 sec) 
select_counter is 861
Heartbeat CPU 0 instructions: 12000000 cycles: 6655168 heartbeat IPC: 0.735253 cumulative IPC: 0.73214 (Simulation time: 0 hr 4 min 27 sec) 
select_counter is 1008
Heartbeat CPU 0 instructions: 13000002 cycles: 8109302 heartbeat IPC: 0.687696 cumulative IPC: 0.716701 (Simulation time: 0 hr 4 min 52 sec) 
select_counter is 1015
Heartbeat CPU 0 instructions: 14000003 cycles: 9628293 heartbeat IPC: 0.658332 cumulative IPC: 0.701159 (Simulation time: 0 hr 5 min 19 sec) 
select_counter is 1022
Heartbeat CPU 0 instructions: 15000003 cycles: 11001748 heartbeat IPC: 0.728091 cumulative IPC: 0.706385 (Simulation time: 0 hr 5 min 48 sec) 
select_counter is 1020
Heartbeat CPU 0 instructions: 16000000 cycles: 12319870 heartbeat IPC: 0.758653 cumulative IPC: 0.71459 (Simulation time: 0 hr 6 min 19 sec) 
select_counter is 1021
Heartbeat CPU 0 instructions: 17000000 cycles: 13824037 heartbeat IPC: 0.66482 cumulative IPC: 0.707029 (Simulation time: 0 hr 6 min 50 sec) 
select_counter is 1022
Heartbeat CPU 0 instructions: 18000002 cycles: 15205236 heartbeat IPC: 0.72401 cumulative IPC: 0.709108 (Simulation time: 0 hr 7 min 16 sec) 
select_counter is 1018
Heartbeat CPU 0 instructions: 19000002 cycles: 16527200 heartbeat IPC: 0.75645 cumulative IPC: 0.714073 (Simulation time: 0 hr 7 min 41 sec) 
select_counter is 1022
Heartbeat CPU 0 instructions: 20000000 cycles: 17908833 heartbeat IPC: 0.72378 cumulative IPC: 0.715032 (Simulation time: 0 hr 8 min 5 sec) 
select_counter is 1022
Heartbeat CPU 0 instructions: 21000003 cycles: 19348119 heartbeat IPC: 0.694791 cumulative IPC: 0.713144 (Simulation time: 0 hr 8 min 30 sec) 
select_counter is 1023
Heartbeat CPU 0 instructions: 22000002 cycles: 20736447 heartbeat IPC: 0.72029 cumulative IPC: 0.713734 (Simulation time: 0 hr 8 min 56 sec) 
select_counter is 1020
Heartbeat CPU 0 instructions: 23000001 cycles: 22054942 heartbeat IPC: 0.75844 cumulative IPC: 0.716985 (Simulation time: 0 hr 9 min 21 sec) 
select_counter is 1020
Heartbeat CPU 0 instructions: 24000000 cycles: 23454258 heartbeat IPC: 0.714634 cumulative IPC: 0.716816 (Simulation time: 0 hr 9 min 46 sec) 
select_counter is 1019
Heartbeat CPU 0 instructions: 25000003 cycles: 24814223 heartbeat IPC: 0.735315 cumulative IPC: 0.718021 (Simulation time: 0 hr 10 min 11 sec) 
select_counter is 1020
Heartbeat CPU 0 instructions: 26000003 cycles: 26197300 heartbeat IPC: 0.723026 cumulative IPC: 0.718331 (Simulation time: 0 hr 10 min 37 sec) 
select_counter is 1017
Heartbeat CPU 0 instructions: 27000001 cycles: 27559537 heartbeat IPC: 0.734085 cumulative IPC: 0.719239 (Simulation time: 0 hr 11 min 0 sec) 
select_counter is 1022
Heartbeat CPU 0 instructions: 28000000 cycles: 28974533 heartbeat IPC: 0.706715 cumulative IPC: 0.718532 (Simulation time: 0 hr 11 min 23 sec) 
select_counter is 1022
Heartbeat CPU 0 instructions: 29000002 cycles: 30344226 heartbeat IPC: 0.730092 cumulative IPC: 0.719131 (Simulation time: 0 hr 11 min 54 sec) 
select_counter is 1022
Heartbeat CPU 0 instructions: 30000003 cycles: 31728906 heartbeat IPC: 0.722189 cumulative IPC: 0.719283 (Simulation time: 0 hr 12 min 24 sec) 
select_counter is 1022
Heartbeat CPU 0 instructions: 31000001 cycles: 33140664 heartbeat IPC: 0.708335 cumulative IPC: 0.718754 (Simulation time: 0 hr 12 min 53 sec) 
select_counter is 1014
Heartbeat CPU 0 instructions: 32000000 cycles: 34520169 heartbeat IPC: 0.724897 cumulative IPC: 0.719031 (Simulation time: 0 hr 13 min 19 sec) 
select_counter is 1018
Heartbeat CPU 0 instructions: 33000000 cycles: 35883596 heartbeat IPC: 0.733446 cumulative IPC: 0.719646 (Simulation time: 0 hr 13 min 54 sec) 
select_counter is 1019
Heartbeat CPU 0 instructions: 34000002 cycles: 37322458 heartbeat IPC: 0.694995 cumulative IPC: 0.718584 (Simulation time: 0 hr 14 min 25 sec) 
select_counter is 1017
Heartbeat CPU 0 instructions: 35000001 cycles: 38686118 heartbeat IPC: 0.73332 cumulative IPC: 0.719162 (Simulation time: 0 hr 14 min 54 sec) 
select_counter is 1020
Heartbeat CPU 0 instructions: 36000000 cycles: 40046486 heartbeat IPC: 0.735094 cumulative IPC: 0.719762 (Simulation time: 0 hr 15 min 18 sec) 
select_counter is 1023
Heartbeat CPU 0 instructions: 37000002 cycles: 41433694 heartbeat IPC: 0.720874 cumulative IPC: 0.719803 (Simulation time: 0 hr 15 min 42 sec) 
select_counter is 1019
Heartbeat CPU 0 instructions: 38000000 cycles: 42861360 heartbeat IPC: 0.700443 cumulative IPC: 0.719094 (Simulation time: 0 hr 16 min 8 sec) 
select_counter is 1021
Heartbeat CPU 0 instructions: 39000003 cycles: 44214542 heartbeat IPC: 0.739001 cumulative IPC: 0.719762 (Simulation time: 0 hr 16 min 37 sec) 
select_counter is 1019
Heartbeat CPU 0 instructions: 40000000 cycles: 45540744 heartbeat IPC: 0.754031 cumulative IPC: 0.720854 (Simulation time: 0 hr 17 min 2 sec) 
select_counter is 1020
Heartbeat CPU 0 instructions: 41000002 cycles: 46943378 heartbeat IPC: 0.712946 cumulative IPC: 0.720596 (Simulation time: 0 hr 17 min 28 sec) 
select_counter is 1020
Heartbeat CPU 0 instructions: 42000000 cycles: 48311200 heartbeat IPC: 0.731088 cumulative IPC: 0.72092 (Simulation time: 0 hr 17 min 52 sec) 
select_counter is 1020
Heartbeat CPU 0 instructions: 43000002 cycles: 49688592 heartbeat IPC: 0.726011 cumulative IPC: 0.721073 (Simulation time: 0 hr 18 min 16 sec) 
select_counter is 1023
Heartbeat CPU 0 instructions: 44000000 cycles: 51128979 heartbeat IPC: 0.694256 cumulative IPC: 0.720255 (Simulation time: 0 hr 18 min 39 sec) 
select_counter is 1023
Heartbeat CPU 0 instructions: 45000000 cycles: 52515948 heartbeat IPC: 0.720997 cumulative IPC: 0.720276 (Simulation time: 0 hr 19 min 7 sec) 
select_counter is 1018
Heartbeat CPU 0 instructions: 46000003 cycles: 53880223 heartbeat IPC: 0.732992 cumulative IPC: 0.720623 (Simulation time: 0 hr 19 min 34 sec) 
select_counter is 1023
Heartbeat CPU 0 instructions: 47000002 cycles: 55245641 heartbeat IPC: 0.732376 cumulative IPC: 0.720936 (Simulation time: 0 hr 19 min 57 sec) 
select_counter is 1023
Heartbeat CPU 0 instructions: 48000000 cycles: 56679361 heartbeat IPC: 0.697485 cumulative IPC: 0.720298 (Simulation time: 0 hr 20 min 24 sec) 
select_counter is 1014
Heartbeat CPU 0 instructions: 49000000 cycles: 58025334 heartbeat IPC: 0.742957 cumulative IPC: 0.720862 (Simulation time: 0 hr 20 min 52 sec) 
select_counter is 1022
Heartbeat CPU 0 instructions: 50000003 cycles: 59366686 heartbeat IPC: 0.745519 cumulative IPC: 0.721459 (Simulation time: 0 hr 21 min 16 sec) 
select_counter is 1021
Heartbeat CPU 0 instructions: 51000001 cycles: 60773688 heartbeat IPC: 0.71073 cumulative IPC: 0.721193 (Simulation time: 0 hr 21 min 39 sec) 
select_counter is 1022
Heartbeat CPU 0 instructions: 52000000 cycles: 62134845 heartbeat IPC: 0.734668 cumulative IPC: 0.721508 (Simulation time: 0 hr 22 min 3 sec) 
select_counter is 1017
Heartbeat CPU 0 instructions: 53000002 cycles: 63510362 heartbeat IPC: 0.727001 cumulative IPC: 0.721635 (Simulation time: 0 hr 22 min 36 sec) 
select_counter is 1021
Heartbeat CPU 0 instructions: 54000002 cycles: 64857959 heartbeat IPC: 0.742062 cumulative IPC: 0.722087 (Simulation time: 0 hr 23 min 0 sec) 
select_counter is 1014
Heartbeat CPU 0 instructions: 55000001 cycles: 66261776 heartbeat IPC: 0.712343 cumulative IPC: 0.721867 (Simulation time: 0 hr 23 min 25 sec) 
select_counter is 1021
Heartbeat CPU 0 instructions: 56000000 cycles: 67647463 heartbeat IPC: 0.721663 cumulative IPC: 0.721863 (Simulation time: 0 hr 23 min 49 sec) 
select_counter is 1021
Heartbeat CPU 0 instructions: 57000003 cycles: 68992703 heartbeat IPC: 0.743364 cumulative IPC: 0.722307 (Simulation time: 0 hr 24 min 12 sec) 
select_counter is 1023
Heartbeat CPU 0 instructions: 58000003 cycles: 70392857 heartbeat IPC: 0.714207 cumulative IPC: 0.722137 (Simulation time: 0 hr 24 min 36 sec) 
select_counter is 1021
Heartbeat CPU 0 instructions: 59000002 cycles: 71789700 heartbeat IPC: 0.715899 cumulative IPC: 0.722008 (Simulation time: 0 hr 25 min 0 sec) 
select_counter is 1014
Heartbeat CPU 0 instructions: 60000000 cycles: 73150672 heartbeat IPC: 0.734767 cumulative IPC: 0.722259 (Simulation time: 0 hr 25 min 22 sec) 
select_counter is 1021
Heartbeat CPU 0 instructions: 61000003 cycles: 74576839 heartbeat IPC: 0.701182 cumulative IPC: 0.721834 (Simulation time: 0 hr 25 min 46 sec) 
select_counter is 1022
Heartbeat CPU 0 instructions: 62000001 cycles: 75957670 heartbeat IPC: 0.7242 cumulative IPC: 0.721879 (Simulation time: 0 hr 26 min 14 sec) 
select_counter is 1022
Heartbeat CPU 0 instructions: 63000001 cycles: 77309607 heartbeat IPC: 0.739679 cumulative IPC: 0.722207 (Simulation time: 0 hr 26 min 39 sec) 
select_counter is 1020
Heartbeat CPU 0 instructions: 64000000 cycles: 78655539 heartbeat IPC: 0.742979 cumulative IPC: 0.722581 (Simulation time: 0 hr 27 min 5 sec) 
select_counter is 1020
Heartbeat CPU 0 instructions: 65000000 cycles: 80108292 heartbeat IPC: 0.688348 cumulative IPC: 0.721928 (Simulation time: 0 hr 27 min 33 sec) 
select_counter is 1018
Heartbeat CPU 0 instructions: 66000000 cycles: 81480368 heartbeat IPC: 0.728823 cumulative IPC: 0.72205 (Simulation time: 0 hr 27 min 58 sec) 
select_counter is 1016
Heartbeat CPU 0 instructions: 67000000 cycles: 82815865 heartbeat IPC: 0.748785 cumulative IPC: 0.722503 (Simulation time: 0 hr 28 min 26 sec) 
select_counter is 1021
Heartbeat CPU 0 instructions: 68000000 cycles: 84236465 heartbeat IPC: 0.703928 cumulative IPC: 0.722174 (Simulation time: 0 hr 28 min 54 sec) 
select_counter is 1018
Heartbeat CPU 0 instructions: 69000000 cycles: 85627352 heartbeat IPC: 0.718966 cumulative IPC: 0.72212 (Simulation time: 0 hr 29 min 24 sec) 
select_counter is 1021
Heartbeat CPU 0 instructions: 70000000 cycles: 86999021 heartbeat IPC: 0.729039 cumulative IPC: 0.722234 (Simulation time: 0 hr 29 min 51 sec) 
select_counter is 1011
Heartbeat CPU 0 instructions: 71000002 cycles: 88371944 heartbeat IPC: 0.728374 cumulative IPC: 0.722334 (Simulation time: 0 hr 30 min 19 sec) 
select_counter is 1023
Heartbeat CPU 0 instructions: 72000000 cycles: 90573325 heartbeat IPC: 0.454259 cumulative IPC: 0.715523 (Simulation time: 0 hr 31 min 0 sec) 
select_counter is 1023
Heartbeat CPU 0 instructions: 73000002 cycles: 93542602 heartbeat IPC: 0.336783 cumulative IPC: 0.702975 (Simulation time: 0 hr 31 min 50 sec) 
select_counter is 1021
Heartbeat CPU 0 instructions: 74000002 cycles: 99903440 heartbeat IPC: 0.157212 cumulative IPC: 0.666806 (Simulation time: 0 hr 33 min 7 sec) 
select_counter is 1009
Heartbeat CPU 0 instructions: 75000000 cycles: 101892704 heartbeat IPC: 0.502697 cumulative IPC: 0.663473 (Simulation time: 0 hr 33 min 45 sec) 
select_counter is 1021
Heartbeat CPU 0 instructions: 76000000 cycles: 103764078 heartbeat IPC: 0.534367 cumulative IPC: 0.661054 (Simulation time: 0 hr 34 min 23 sec) 
select_counter is 1022
Heartbeat CPU 0 instructions: 77000000 cycles: 105222157 heartbeat IPC: 0.685834 cumulative IPC: 0.66141 (Simulation time: 0 hr 34 min 49 sec) 
select_counter is 1021
Heartbeat CPU 0 instructions: 78000002 cycles: 106666996 heartbeat IPC: 0.69212 cumulative IPC: 0.661842 (Simulation time: 0 hr 35 min 15 sec) 
select_counter is 1014
Heartbeat CPU 0 instructions: 79000002 cycles: 108139581 heartbeat IPC: 0.679078 cumulative IPC: 0.662086 (Simulation time: 0 hr 35 min 40 sec) 
select_counter is 945
Heartbeat CPU 0 instructions: 80000000 cycles: 109581483 heartbeat IPC: 0.693527 cumulative IPC: 0.662515 (Simulation time: 0 hr 36 min 10 sec) 
select_counter is 1014
Heartbeat CPU 0 instructions: 81000001 cycles: 110951402 heartbeat IPC: 0.729971 cumulative IPC: 0.663378 (Simulation time: 0 hr 36 min 37 sec) 
select_counter is 1022
Heartbeat CPU 0 instructions: 82000002 cycles: 112323784 heartbeat IPC: 0.728661 cumulative IPC: 0.664205 (Simulation time: 0 hr 37 min 4 sec) 
select_counter is 997
Heartbeat CPU 0 instructions: 83000003 cycles: 113750316 heartbeat IPC: 0.701001 cumulative IPC: 0.664683 (Simulation time: 0 hr 37 min 28 sec) 
select_counter is 1020
Heartbeat CPU 0 instructions: 84000000 cycles: 115037118 heartbeat IPC: 0.777118 cumulative IPC: 0.665985 (Simulation time: 0 hr 37 min 54 sec) 
select_counter is 1022
Heartbeat CPU 0 instructions: 85000000 cycles: 116385840 heartbeat IPC: 0.741443 cumulative IPC: 0.66689 (Simulation time: 0 hr 38 min 18 sec) 
select_counter is 1020
Heartbeat CPU 0 instructions: 86000002 cycles: 117880471 heartbeat IPC: 0.669063 cumulative IPC: 0.666918 (Simulation time: 0 hr 38 min 46 sec) 
select_counter is 1022
Heartbeat CPU 0 instructions: 87000002 cycles: 119218256 heartbeat IPC: 0.747504 cumulative IPC: 0.667853 (Simulation time: 0 hr 39 min 11 sec) 
select_counter is 1016
Heartbeat CPU 0 instructions: 88000000 cycles: 120515363 heartbeat IPC: 0.770945 cumulative IPC: 0.669 (Simulation time: 0 hr 39 min 34 sec) 
select_counter is 1022
Heartbeat CPU 0 instructions: 89000003 cycles: 121874606 heartbeat IPC: 0.735706 cumulative IPC: 0.669769 (Simulation time: 0 hr 39 min 56 sec) 
select_counter is 1019
Heartbeat CPU 0 instructions: 90000002 cycles: 123266760 heartbeat IPC: 0.718311 cumulative IPC: 0.670335 (Simulation time: 0 hr 40 min 20 sec) 
select_counter is 1022
Heartbeat CPU 0 instructions: 91000001 cycles: 124583670 heartbeat IPC: 0.759353 cumulative IPC: 0.671307 (Simulation time: 0 hr 40 min 42 sec) 
select_counter is 1018
Heartbeat CPU 0 instructions: 92000000 cycles: 125908587 heartbeat IPC: 0.754763 cumulative IPC: 0.672213 (Simulation time: 0 hr 41 min 3 sec) 
select_counter is 1023
Heartbeat CPU 0 instructions: 93000003 cycles: 127373337 heartbeat IPC: 0.682712 cumulative IPC: 0.672338 (Simulation time: 0 hr 41 min 24 sec) 
select_counter is 1011
Heartbeat CPU 0 instructions: 94000003 cycles: 128770757 heartbeat IPC: 0.715604 cumulative IPC: 0.672822 (Simulation time: 0 hr 41 min 43 sec) 
select_counter is 1017
Heartbeat CPU 0 instructions: 95000000 cycles: 130073689 heartbeat IPC: 0.767497 cumulative IPC: 0.6738 (Simulation time: 0 hr 42 min 5 sec) 
select_counter is 1023
Heartbeat CPU 0 instructions: 96000000 cycles: 131508889 heartbeat IPC: 0.696767 cumulative IPC: 0.674058 (Simulation time: 0 hr 42 min 31 sec) 
select_counter is 1017
Heartbeat CPU 0 instructions: 97000002 cycles: 132931088 heartbeat IPC: 0.703138 cumulative IPC: 0.674379 (Simulation time: 0 hr 42 min 47 sec) 
select_counter is 1010
Heartbeat CPU 0 instructions: 98000001 cycles: 134269824 heartbeat IPC: 0.746973 cumulative IPC: 0.675124 (Simulation time: 0 hr 43 min 4 sec) 
select_counter is 1021
Heartbeat CPU 0 instructions: 99000000 cycles: 135611577 heartbeat IPC: 0.745293 cumulative IPC: 0.675839 (Simulation time: 0 hr 43 min 20 sec) 
select_counter is 1023
Heartbeat CPU 0 instructions: 100000000 cycles: 137029840 heartbeat IPC: 0.705088 cumulative IPC: 0.676151 (Simulation time: 0 hr 43 min 35 sec) 
select_counter is 1021
Heartbeat CPU 0 instructions: 101000000 cycles: 138398370 heartbeat IPC: 0.730711 cumulative IPC: 0.676706 (Simulation time: 0 hr 43 min 51 sec) 
select_counter is 1017
Heartbeat CPU 0 instructions: 102000000 cycles: 139757698 heartbeat IPC: 0.735658 cumulative IPC: 0.677296 (Simulation time: 0 hr 44 min 6 sec) 
select_counter is 1019
Heartbeat CPU 0 instructions: 103000001 cycles: 141200807 heartbeat IPC: 0.692949 cumulative IPC: 0.677461 (Simulation time: 0 hr 44 min 21 sec) 
select_counter is 1019
Heartbeat CPU 0 instructions: 104000000 cycles: 142559154 heartbeat IPC: 0.736188 cumulative IPC: 0.678036 (Simulation time: 0 hr 44 min 35 sec) 
select_counter is 1023
Heartbeat CPU 0 instructions: 105000001 cycles: 143926944 heartbeat IPC: 0.731107 cumulative IPC: 0.678555 (Simulation time: 0 hr 44 min 50 sec) 
select_counter is 1017
Heartbeat CPU 0 instructions: 106000000 cycles: 145272607 heartbeat IPC: 0.743127 cumulative IPC: 0.679169 (Simulation time: 0 hr 45 min 4 sec) 
select_counter is 1018
Heartbeat CPU 0 instructions: 107000000 cycles: 146709447 heartbeat IPC: 0.695972 cumulative IPC: 0.679338 (Simulation time: 0 hr 45 min 19 sec) 
select_counter is 1019
Heartbeat CPU 0 instructions: 108000000 cycles: 148108915 heartbeat IPC: 0.714557 cumulative IPC: 0.67968 (Simulation time: 0 hr 45 min 33 sec) 
select_counter is 1014
Heartbeat CPU 0 instructions: 109000003 cycles: 149457364 heartbeat IPC: 0.741595 cumulative IPC: 0.680254 (Simulation time: 0 hr 45 min 45 sec) 
select_counter is 1016
Heartbeat CPU 0 instructions: 110000001 cycles: 150890546 heartbeat IPC: 0.697747 cumulative IPC: 0.680424 (Simulation time: 0 hr 46 min 2 sec) 
select_counter is 1017
Finished CPU 0 instructions: 100000001 cycles: 146967090 cummulative IPC: 0.680424 (Simulation time: 0 hr 46 min 2 sec) 

ChampSim completed all CPUs

Region of Interest Statistics

CPU 0 cummulative IPC: 0.680424 instructions: 100000001 cycles: 146967090
LLC TOTAL     ACCESS:    5792494  HIT:    1552554  MISS:    4239940
LLC LOAD      ACCESS:     415889  HIT:        381  MISS:     415508
LLC RFO       ACCESS:    2473118  HIT:     497254  MISS:    1975864
LLC PREFETCH  ACCESS:     430351  HIT:        531  MISS:     429820
LLC WRITEBACK ACCESS:    2473136  HIT:    1054388  MISS:    1418748
Ship samples: size is 64
4, 37, 71, 99, 136, 160, 202, 236, 264, 290, 322, 355, 397, 423, 462, 490, 518, 552, 583, 623, 652, 674, 704, 737, 779, 807, 833, 873, 903, 931, 974, 995, 1038, 1060, 1089, 1131, 1164, 1195, 1221, 1250, 1284, 1321, 1346, 1387, 1417, 1440, 1482, 1506, 1548, 1575, 1609, 1647, 1665, 1700, 1731, 1772, 1807, 1825, 1866, 1899, 1926, 1955, 1991, 2026, 
Ship duel samples: size is 128
4, 24, 37, 53, 71, 84, 99, 127, 136, 154, 160, 181, 202, 210, 236, 247, 264, 281, 290, 304, 322, 340, 355, 381, 397, 410, 423, 436, 462, 479, 490, 500, 518, 532, 552, 567, 583, 599, 623, 631, 652, 665, 674, 696, 704, 731, 737, 754, 779, 788, 807, 830, 833, 852, 873, 889, 903, 919, 931, 955, 974, 983, 995, 1013, 1038, 1050, 1060, 1087, 1089, 1113, 1131, 1146, 1164, 1172, 1195, 1207, 1221, 1245, 1250, 1273, 1284, 1307, 1321, 1338, 1346, 1361, 1387, 1405, 1417, 1436, 1440, 1470, 1482, 1499, 1506, 1529, 1548, 1557, 1575, 1592, 1609, 1618, 1647, 1663, 1665, 1688, 1700, 1714, 1731, 1757, 1772, 1782, 1807, 1822, 1825, 1844, 1866, 1872, 1899, 1914, 1926, 1947, 1955, 1971, 1991, 2008, 2026, 2047, 
Lime duel samples: size is 128
10, 25, 38, 61, 64, 90, 96, 112, 142, 156, 170, 183, 201, 215, 237, 251, 266, 272, 288, 305, 320, 351, 359, 370, 399, 415, 418, 442, 449, 467, 482, 507, 525, 536, 553, 573, 579, 601, 621, 625, 645, 664, 680, 702, 719, 725, 746, 761, 774, 794, 811, 822, 841, 850, 872, 888, 897, 922, 930, 947, 973, 980, 1006, 1018, 1037, 1047, 1063, 1072, 1088, 1109, 1121, 1142, 1165, 1177, 1188, 1212, 1231, 1246, 1254, 1269, 1288, 1297, 1323, 1330, 1347, 1363, 1386, 1397, 1421, 1437, 1448, 1466, 1473, 1494, 1509, 1534, 1550, 1564, 1582, 1598, 1601, 1631, 1636, 1662, 1673, 1689, 1707, 1720, 1735, 1745, 1773, 1776, 1794, 1816, 1826, 1845, 1867, 1884, 1898, 1912, 1929, 1938, 1954, 1979, 1993, 2007, 2025, 2039, 
Lime samples: size is 15
10, 142, 266, 399, 525, 645, 774, 897, 1037, 1165, 1288, 1421, 1550, 1673, 1794, 
Insertion Distribution: 
	LOAD 0 0 0 0 0 0 336 33964 
	RFO 12372 0 0 0 0 0 28602 158399 
	PREF 0 694 0 0 0 0 3705 34790 
	WRITEBACK 0 0 0 0 0 0 0 162860 
Total Prefetch Downgrades: 371
