
*** ChampSim Multicore Out-of-Order Simulator ***

Warmup Instructions: 10000000
Simulation Instructions: 100000000
Configuration: 2
Number of CPUs: 1
LLC sets: 2048
LLC ways: 16
Off-chip DRAM Channels: 1 Width: 64-bit Data Rate: 1600 MT/s

CPU 0 runs /datasets/cs240c-wi22-a00-public/data/Assignment2-gz/leslie3d_94B.trace.gz
CPU 0 L1D next line prefetcher
CPU 0 L2C IP-based stride prefetcher
Heartbeat CPU 0 instructions: 1000003 cycles: 597056 heartbeat IPC: 1.67489 cumulative IPC: 1.67489 (Simulation time: 0 hr 0 min 28 sec) 
select_counter is 258
Heartbeat CPU 0 instructions: 2000002 cycles: 1215914 heartbeat IPC: 1.61588 cumulative IPC: 1.64485 (Simulation time: 0 hr 0 min 57 sec) 
select_counter is 766
Heartbeat CPU 0 instructions: 3000003 cycles: 1867681 heartbeat IPC: 1.53429 cumulative IPC: 1.60627 (Simulation time: 0 hr 1 min 25 sec) 
select_counter is 588
Heartbeat CPU 0 instructions: 4000000 cycles: 2518915 heartbeat IPC: 1.53554 cumulative IPC: 1.58799 (Simulation time: 0 hr 1 min 51 sec) 
select_counter is 313
Heartbeat CPU 0 instructions: 5000002 cycles: 3083914 heartbeat IPC: 1.76992 cumulative IPC: 1.62132 (Simulation time: 0 hr 2 min 15 sec) 
select_counter is 407
Heartbeat CPU 0 instructions: 6000002 cycles: 3734557 heartbeat IPC: 1.53694 cumulative IPC: 1.60662 (Simulation time: 0 hr 2 min 40 sec) 
select_counter is 388
Heartbeat CPU 0 instructions: 7000000 cycles: 4385267 heartbeat IPC: 1.53678 cumulative IPC: 1.59625 (Simulation time: 0 hr 3 min 7 sec) 
select_counter is 357
Heartbeat CPU 0 instructions: 8000000 cycles: 4950249 heartbeat IPC: 1.76997 cumulative IPC: 1.61608 (Simulation time: 0 hr 3 min 37 sec) 
select_counter is 350
Heartbeat CPU 0 instructions: 9000000 cycles: 5601096 heartbeat IPC: 1.53646 cumulative IPC: 1.60683 (Simulation time: 0 hr 4 min 11 sec) 
select_counter is 315
Heartbeat CPU 0 instructions: 10000001 cycles: 6252298 heartbeat IPC: 1.53562 cumulative IPC: 1.59941 (Simulation time: 0 hr 4 min 40 sec) 
select_counter is 293

Warmup complete CPU 0 instructions: 10000001 cycles: 6252298 (Simulation time: 0 hr 4 min 40 sec) 

Heartbeat CPU 0 instructions: 11000000 cycles: 7493921 heartbeat IPC: 0.805397 cumulative IPC: 0.805397 (Simulation time: 0 hr 5 min 8 sec) 
select_counter is 220
Heartbeat CPU 0 instructions: 12000000 cycles: 9337315 heartbeat IPC: 0.542478 cumulative IPC: 0.648294 (Simulation time: 0 hr 5 min 41 sec) 
select_counter is 891
Heartbeat CPU 0 instructions: 13000000 cycles: 11312786 heartbeat IPC: 0.506208 cumulative IPC: 0.592828 (Simulation time: 0 hr 6 min 13 sec) 
select_counter is 905
Heartbeat CPU 0 instructions: 14000001 cycles: 13368785 heartbeat IPC: 0.486382 cumulative IPC: 0.562075 (Simulation time: 0 hr 6 min 45 sec) 
select_counter is 1022
Heartbeat CPU 0 instructions: 15000001 cycles: 15416262 heartbeat IPC: 0.488406 cumulative IPC: 0.545615 (Simulation time: 0 hr 7 min 32 sec) 
select_counter is 1021
Heartbeat CPU 0 instructions: 16000000 cycles: 17405483 heartbeat IPC: 0.502709 cumulative IPC: 0.537963 (Simulation time: 0 hr 8 min 4 sec) 
select_counter is 969
Heartbeat CPU 0 instructions: 17000000 cycles: 19363113 heartbeat IPC: 0.510822 cumulative IPC: 0.53391 (Simulation time: 0 hr 8 min 35 sec) 
select_counter is 957
Heartbeat CPU 0 instructions: 18000002 cycles: 21360461 heartbeat IPC: 0.500665 cumulative IPC: 0.529515 (Simulation time: 0 hr 9 min 11 sec) 
select_counter is 920
Heartbeat CPU 0 instructions: 19000001 cycles: 23373046 heartbeat IPC: 0.496873 cumulative IPC: 0.525678 (Simulation time: 0 hr 9 min 45 sec) 
select_counter is 977
Heartbeat CPU 0 instructions: 20000000 cycles: 25356470 heartbeat IPC: 0.504178 cumulative IPC: 0.523446 (Simulation time: 0 hr 10 min 17 sec) 
select_counter is 938
Heartbeat CPU 0 instructions: 21000002 cycles: 27309691 heartbeat IPC: 0.511976 cumulative IPC: 0.522382 (Simulation time: 0 hr 10 min 56 sec) 
select_counter is 812
Heartbeat CPU 0 instructions: 22000002 cycles: 29599308 heartbeat IPC: 0.436754 cumulative IPC: 0.513985 (Simulation time: 0 hr 11 min 28 sec) 
select_counter is 1021
Heartbeat CPU 0 instructions: 23000000 cycles: 32031798 heartbeat IPC: 0.411101 cumulative IPC: 0.504277 (Simulation time: 0 hr 12 min 3 sec) 
select_counter is 1022
Heartbeat CPU 0 instructions: 24000000 cycles: 34481525 heartbeat IPC: 0.408209 cumulative IPC: 0.49594 (Simulation time: 0 hr 12 min 33 sec) 
select_counter is 1022
Heartbeat CPU 0 instructions: 25000000 cycles: 36903974 heartbeat IPC: 0.412805 cumulative IPC: 0.48937 (Simulation time: 0 hr 13 min 6 sec) 
select_counter is 1019
Heartbeat CPU 0 instructions: 26000002 cycles: 39194338 heartbeat IPC: 0.436613 cumulative IPC: 0.485702 (Simulation time: 0 hr 13 min 48 sec) 
select_counter is 1020
Heartbeat CPU 0 instructions: 27000001 cycles: 41539485 heartbeat IPC: 0.426412 cumulative IPC: 0.481761 (Simulation time: 0 hr 14 min 22 sec) 
select_counter is 1019
Heartbeat CPU 0 instructions: 28000000 cycles: 43915242 heartbeat IPC: 0.420918 cumulative IPC: 0.477923 (Simulation time: 0 hr 14 min 57 sec) 
select_counter is 1015
Heartbeat CPU 0 instructions: 29000000 cycles: 46250841 heartbeat IPC: 0.428156 cumulative IPC: 0.475017 (Simulation time: 0 hr 15 min 34 sec) 
select_counter is 983
Heartbeat CPU 0 instructions: 30000000 cycles: 47684968 heartbeat IPC: 0.697288 cumulative IPC: 0.482711 (Simulation time: 0 hr 16 min 3 sec) 
select_counter is 842
Heartbeat CPU 0 instructions: 31000002 cycles: 49022845 heartbeat IPC: 0.747454 cumulative IPC: 0.490992 (Simulation time: 0 hr 16 min 31 sec) 
select_counter is 699
Heartbeat CPU 0 instructions: 32000000 cycles: 50381064 heartbeat IPC: 0.736257 cumulative IPC: 0.498541 (Simulation time: 0 hr 17 min 2 sec) 
select_counter is 539
Heartbeat CPU 0 instructions: 33000001 cycles: 51741310 heartbeat IPC: 0.735162 cumulative IPC: 0.505617 (Simulation time: 0 hr 17 min 34 sec) 
select_counter is 311
Heartbeat CPU 0 instructions: 34000003 cycles: 53062044 heartbeat IPC: 0.757156 cumulative IPC: 0.512714 (Simulation time: 0 hr 18 min 9 sec) 
select_counter is 987
Heartbeat CPU 0 instructions: 35000000 cycles: 54345224 heartbeat IPC: 0.779312 cumulative IPC: 0.519827 (Simulation time: 0 hr 18 min 37 sec) 
select_counter is 753
Heartbeat CPU 0 instructions: 36000000 cycles: 55715057 heartbeat IPC: 0.730016 cumulative IPC: 0.525648 (Simulation time: 0 hr 19 min 5 sec) 
select_counter is 607
Heartbeat CPU 0 instructions: 37000003 cycles: 57076315 heartbeat IPC: 0.734617 cumulative IPC: 0.531245 (Simulation time: 0 hr 19 min 31 sec) 
select_counter is 513
Heartbeat CPU 0 instructions: 38000000 cycles: 58397065 heartbeat IPC: 0.757143 cumulative IPC: 0.536967 (Simulation time: 0 hr 20 min 0 sec) 
select_counter is 327
Heartbeat CPU 0 instructions: 39000002 cycles: 59706076 heartbeat IPC: 0.763937 cumulative IPC: 0.542525 (Simulation time: 0 hr 20 min 25 sec) 
select_counter is 87
Heartbeat CPU 0 instructions: 40000000 cycles: 60975110 heartbeat IPC: 0.787999 cumulative IPC: 0.548217 (Simulation time: 0 hr 20 min 51 sec) 
select_counter is 864
Heartbeat CPU 0 instructions: 41000002 cycles: 62326775 heartbeat IPC: 0.73983 cumulative IPC: 0.552836 (Simulation time: 0 hr 21 min 19 sec) 
select_counter is 702
Heartbeat CPU 0 instructions: 42000002 cycles: 63662506 heartbeat IPC: 0.748654 cumulative IPC: 0.557392 (Simulation time: 0 hr 21 min 45 sec) 
select_counter is 636
Heartbeat CPU 0 instructions: 43000002 cycles: 65046778 heartbeat IPC: 0.722401 cumulative IPC: 0.561277 (Simulation time: 0 hr 22 min 12 sec) 
select_counter is 437
Heartbeat CPU 0 instructions: 44000000 cycles: 66336883 heartbeat IPC: 0.775129 cumulative IPC: 0.565869 (Simulation time: 0 hr 22 min 39 sec) 
select_counter is 128
Heartbeat CPU 0 instructions: 45000003 cycles: 67631681 heartbeat IPC: 0.772324 cumulative IPC: 0.570224 (Simulation time: 0 hr 23 min 6 sec) 
select_counter is 796
Heartbeat CPU 0 instructions: 46000001 cycles: 69006011 heartbeat IPC: 0.727626 cumulative IPC: 0.573671 (Simulation time: 0 hr 23 min 34 sec) 
select_counter is 577
Heartbeat CPU 0 instructions: 47000000 cycles: 70352364 heartbeat IPC: 0.742747 cumulative IPC: 0.577222 (Simulation time: 0 hr 24 min 1 sec) 
select_counter is 458
Heartbeat CPU 0 instructions: 48000000 cycles: 71698743 heartbeat IPC: 0.742733 cumulative IPC: 0.580627 (Simulation time: 0 hr 24 min 28 sec) 
select_counter is 210
Heartbeat CPU 0 instructions: 49000001 cycles: 72980679 heartbeat IPC: 0.780071 cumulative IPC: 0.584459 (Simulation time: 0 hr 24 min 55 sec) 
select_counter is 904
Heartbeat CPU 0 instructions: 50000001 cycles: 74310612 heartbeat IPC: 0.751918 cumulative IPC: 0.587731 (Simulation time: 0 hr 25 min 29 sec) 
select_counter is 715
Heartbeat CPU 0 instructions: 51000003 cycles: 75640808 heartbeat IPC: 0.75177 cumulative IPC: 0.590876 (Simulation time: 0 hr 25 min 57 sec) 
select_counter is 584
Heartbeat CPU 0 instructions: 52000000 cycles: 76959670 heartbeat IPC: 0.758227 cumulative IPC: 0.593997 (Simulation time: 0 hr 26 min 28 sec) 
select_counter is 376
Heartbeat CPU 0 instructions: 53000002 cycles: 78295546 heartbeat IPC: 0.748574 cumulative IPC: 0.596864 (Simulation time: 0 hr 27 min 5 sec) 
select_counter is 99
Heartbeat CPU 0 instructions: 54000001 cycles: 79574975 heartbeat IPC: 0.781598 cumulative IPC: 0.600087 (Simulation time: 0 hr 27 min 39 sec) 
select_counter is 868
Heartbeat CPU 0 instructions: 55000000 cycles: 80923174 heartbeat IPC: 0.741729 cumulative IPC: 0.602645 (Simulation time: 0 hr 28 min 13 sec) 
select_counter is 716
Heartbeat CPU 0 instructions: 56000000 cycles: 82267345 heartbeat IPC: 0.743953 cumulative IPC: 0.605143 (Simulation time: 0 hr 28 min 45 sec) 
select_counter is 614
Heartbeat CPU 0 instructions: 57000000 cycles: 83630579 heartbeat IPC: 0.73355 cumulative IPC: 0.607406 (Simulation time: 0 hr 29 min 18 sec) 
select_counter is 547
Heartbeat CPU 0 instructions: 58000001 cycles: 84969829 heartbeat IPC: 0.746687 cumulative IPC: 0.609775 (Simulation time: 0 hr 29 min 52 sec) 
select_counter is 357
Heartbeat CPU 0 instructions: 59000000 cycles: 86244831 heartbeat IPC: 0.784312 cumulative IPC: 0.612557 (Simulation time: 0 hr 30 min 28 sec) 
select_counter is 131
Heartbeat CPU 0 instructions: 60000000 cycles: 87549523 heartbeat IPC: 0.766464 cumulative IPC: 0.615027 (Simulation time: 0 hr 30 min 57 sec) 
select_counter is 838
Heartbeat CPU 0 instructions: 61000001 cycles: 88856042 heartbeat IPC: 0.765393 cumulative IPC: 0.617405 (Simulation time: 0 hr 31 min 26 sec) 
select_counter is 641
Heartbeat CPU 0 instructions: 62000000 cycles: 90194788 heartbeat IPC: 0.746967 cumulative IPC: 0.619472 (Simulation time: 0 hr 31 min 54 sec) 
select_counter is 541
Heartbeat CPU 0 instructions: 63000000 cycles: 91515485 heartbeat IPC: 0.757176 cumulative IPC: 0.621605 (Simulation time: 0 hr 32 min 22 sec) 
select_counter is 339
Heartbeat CPU 0 instructions: 64000000 cycles: 92828376 heartbeat IPC: 0.761678 cumulative IPC: 0.623729 (Simulation time: 0 hr 32 min 54 sec) 
select_counter is 101
Heartbeat CPU 0 instructions: 65000000 cycles: 94132289 heartbeat IPC: 0.766922 cumulative IPC: 0.625853 (Simulation time: 0 hr 33 min 27 sec) 
select_counter is 897
Heartbeat CPU 0 instructions: 66000000 cycles: 95472618 heartbeat IPC: 0.746085 cumulative IPC: 0.62766 (Simulation time: 0 hr 33 min 58 sec) 
select_counter is 796
Heartbeat CPU 0 instructions: 67000003 cycles: 96828352 heartbeat IPC: 0.73761 cumulative IPC: 0.629305 (Simulation time: 0 hr 34 min 28 sec) 
select_counter is 651
Heartbeat CPU 0 instructions: 68000000 cycles: 98172885 heartbeat IPC: 0.74375 cumulative IPC: 0.630979 (Simulation time: 0 hr 35 min 3 sec) 
select_counter is 589
Heartbeat CPU 0 instructions: 69000000 cycles: 99514118 heartbeat IPC: 0.745583 cumulative IPC: 0.632628 (Simulation time: 0 hr 35 min 32 sec) 
select_counter is 511
Heartbeat CPU 0 instructions: 70000001 cycles: 100832049 heartbeat IPC: 0.758766 cumulative IPC: 0.634385 (Simulation time: 0 hr 36 min 1 sec) 
select_counter is 350
Heartbeat CPU 0 instructions: 71000002 cycles: 102158352 heartbeat IPC: 0.753976 cumulative IPC: 0.636039 (Simulation time: 0 hr 36 min 32 sec) 
select_counter is 170
Heartbeat CPU 0 instructions: 72000000 cycles: 103439760 heartbeat IPC: 0.78039 cumulative IPC: 0.637942 (Simulation time: 0 hr 37 min 1 sec) 
select_counter is 962
Heartbeat CPU 0 instructions: 73000000 cycles: 104759884 heartbeat IPC: 0.757505 cumulative IPC: 0.639545 (Simulation time: 0 hr 37 min 34 sec) 
select_counter is 812
Heartbeat CPU 0 instructions: 74000000 cycles: 106082173 heartbeat IPC: 0.756264 cumulative IPC: 0.641091 (Simulation time: 0 hr 38 min 3 sec) 
select_counter is 704
Heartbeat CPU 0 instructions: 75000002 cycles: 107404008 heartbeat IPC: 0.756526 cumulative IPC: 0.642599 (Simulation time: 0 hr 38 min 33 sec) 
select_counter is 582
Heartbeat CPU 0 instructions: 76000000 cycles: 108764323 heartbeat IPC: 0.735122 cumulative IPC: 0.643827 (Simulation time: 0 hr 39 min 1 sec) 
select_counter is 467
Heartbeat CPU 0 instructions: 77000000 cycles: 110066218 heartbeat IPC: 0.768111 cumulative IPC: 0.645386 (Simulation time: 0 hr 39 min 30 sec) 
select_counter is 310
Heartbeat CPU 0 instructions: 78000003 cycles: 111412745 heartbeat IPC: 0.742653 cumulative IPC: 0.646631 (Simulation time: 0 hr 39 min 56 sec) 
select_counter is 65
Heartbeat CPU 0 instructions: 79000000 cycles: 112880505 heartbeat IPC: 0.681308 cumulative IPC: 0.647108 (Simulation time: 0 hr 40 min 24 sec) 
select_counter is 1018
Heartbeat CPU 0 instructions: 80000000 cycles: 114491817 heartbeat IPC: 0.620612 cumulative IPC: 0.646714 (Simulation time: 0 hr 40 min 48 sec) 
select_counter is 1019
Heartbeat CPU 0 instructions: 81000002 cycles: 116094101 heartbeat IPC: 0.62411 cumulative IPC: 0.646384 (Simulation time: 0 hr 41 min 11 sec) 
select_counter is 1019
Heartbeat CPU 0 instructions: 82000003 cycles: 117751178 heartbeat IPC: 0.603473 cumulative IPC: 0.645746 (Simulation time: 0 hr 41 min 34 sec) 
select_counter is 1021
Heartbeat CPU 0 instructions: 83000000 cycles: 119421260 heartbeat IPC: 0.598771 cumulative IPC: 0.645053 (Simulation time: 0 hr 41 min 57 sec) 
select_counter is 1020
Heartbeat CPU 0 instructions: 84000000 cycles: 121044956 heartbeat IPC: 0.615879 cumulative IPC: 0.644641 (Simulation time: 0 hr 42 min 19 sec) 
select_counter is 1019
Heartbeat CPU 0 instructions: 85000001 cycles: 122694573 heartbeat IPC: 0.606202 cumulative IPC: 0.644096 (Simulation time: 0 hr 42 min 41 sec) 
select_counter is 1018
Heartbeat CPU 0 instructions: 86000002 cycles: 124317143 heartbeat IPC: 0.616307 cumulative IPC: 0.643714 (Simulation time: 0 hr 42 min 58 sec) 
select_counter is 1013
Heartbeat CPU 0 instructions: 87000000 cycles: 125957944 heartbeat IPC: 0.609457 cumulative IPC: 0.643245 (Simulation time: 0 hr 43 min 19 sec) 
select_counter is 1003
Heartbeat CPU 0 instructions: 88000000 cycles: 127624314 heartbeat IPC: 0.600107 cumulative IPC: 0.642652 (Simulation time: 0 hr 43 min 36 sec) 
select_counter is 1000
Heartbeat CPU 0 instructions: 89000002 cycles: 129257791 heartbeat IPC: 0.612192 cumulative IPC: 0.642248 (Simulation time: 0 hr 43 min 53 sec) 
select_counter is 980
Heartbeat CPU 0 instructions: 90000001 cycles: 130897688 heartbeat IPC: 0.609794 cumulative IPC: 0.641821 (Simulation time: 0 hr 44 min 10 sec) 
select_counter is 946
Heartbeat CPU 0 instructions: 91000003 cycles: 132528919 heartbeat IPC: 0.613035 cumulative IPC: 0.641449 (Simulation time: 0 hr 44 min 26 sec) 
select_counter is 922
Heartbeat CPU 0 instructions: 92000000 cycles: 134169553 heartbeat IPC: 0.609519 cumulative IPC: 0.641039 (Simulation time: 0 hr 44 min 42 sec) 
select_counter is 886
Heartbeat CPU 0 instructions: 93000001 cycles: 135837802 heartbeat IPC: 0.599432 cumulative IPC: 0.640504 (Simulation time: 0 hr 44 min 57 sec) 
select_counter is 833
Heartbeat CPU 0 instructions: 94000003 cycles: 137491202 heartbeat IPC: 0.604816 cumulative IPC: 0.640054 (Simulation time: 0 hr 45 min 13 sec) 
select_counter is 804
Heartbeat CPU 0 instructions: 95000002 cycles: 139194700 heartbeat IPC: 0.587027 cumulative IPC: 0.639375 (Simulation time: 0 hr 45 min 29 sec) 
select_counter is 768
Heartbeat CPU 0 instructions: 96000000 cycles: 140839697 heartbeat IPC: 0.607903 cumulative IPC: 0.63899 (Simulation time: 0 hr 45 min 44 sec) 
select_counter is 733
Heartbeat CPU 0 instructions: 97000003 cycles: 142839931 heartbeat IPC: 0.499943 cumulative IPC: 0.636954 (Simulation time: 0 hr 46 min 1 sec) 
select_counter is 803
Heartbeat CPU 0 instructions: 98000002 cycles: 148485311 heartbeat IPC: 0.177136 cumulative IPC: 0.618703 (Simulation time: 0 hr 46 min 33 sec) 
select_counter is 1023
Heartbeat CPU 0 instructions: 99000000 cycles: 151638257 heartbeat IPC: 0.317163 cumulative IPC: 0.612164 (Simulation time: 0 hr 46 min 56 sec) 
select_counter is 1023
Heartbeat CPU 0 instructions: 100000000 cycles: 153251240 heartbeat IPC: 0.619969 cumulative IPC: 0.612249 (Simulation time: 0 hr 47 min 6 sec) 
select_counter is 994
Heartbeat CPU 0 instructions: 101000002 cycles: 154515383 heartbeat IPC: 0.791051 cumulative IPC: 0.613774 (Simulation time: 0 hr 47 min 14 sec) 
select_counter is 962
Heartbeat CPU 0 instructions: 102000003 cycles: 155921894 heartbeat IPC: 0.71098 cumulative IPC: 0.614687 (Simulation time: 0 hr 47 min 22 sec) 
select_counter is 1022
Heartbeat CPU 0 instructions: 103000002 cycles: 157392356 heartbeat IPC: 0.680058 cumulative IPC: 0.615323 (Simulation time: 0 hr 47 min 30 sec) 
select_counter is 1021
Heartbeat CPU 0 instructions: 104000000 cycles: 158877802 heartbeat IPC: 0.673197 cumulative IPC: 0.615887 (Simulation time: 0 hr 47 min 38 sec) 
select_counter is 1023
Heartbeat CPU 0 instructions: 105000001 cycles: 160419373 heartbeat IPC: 0.64869 cumulative IPC: 0.616215 (Simulation time: 0 hr 47 min 46 sec) 
select_counter is 1023
Heartbeat CPU 0 instructions: 106000001 cycles: 161967165 heartbeat IPC: 0.646082 cumulative IPC: 0.616511 (Simulation time: 0 hr 47 min 53 sec) 
select_counter is 1023
Heartbeat CPU 0 instructions: 107000002 cycles: 163506462 heartbeat IPC: 0.649648 cumulative IPC: 0.616836 (Simulation time: 0 hr 48 min 0 sec) 
select_counter is 1022
Heartbeat CPU 0 instructions: 108000000 cycles: 165053326 heartbeat IPC: 0.646468 cumulative IPC: 0.617124 (Simulation time: 0 hr 48 min 5 sec) 
select_counter is 1020
Heartbeat CPU 0 instructions: 109000001 cycles: 166538947 heartbeat IPC: 0.67312 cumulative IPC: 0.617643 (Simulation time: 0 hr 48 min 10 sec) 
select_counter is 1012
Heartbeat CPU 0 instructions: 110000001 cycles: 168014630 heartbeat IPC: 0.677652 cumulative IPC: 0.618191 (Simulation time: 0 hr 48 min 15 sec) 
select_counter is 990
Finished CPU 0 instructions: 100000000 cycles: 161762332 cummulative IPC: 0.618191 (Simulation time: 0 hr 48 min 15 sec) 

ChampSim completed all CPUs

Region of Interest Statistics

CPU 0 cummulative IPC: 0.618191 instructions: 100000000 cycles: 161762332
LLC TOTAL     ACCESS:    4606634  HIT:    1011669  MISS:    3594965
LLC LOAD      ACCESS:     464313  HIT:      67972  MISS:     396341
LLC RFO       ACCESS:     743079  HIT:      94700  MISS:     648379
LLC PREFETCH  ACCESS:    2299374  HIT:     229939  MISS:    2069435
LLC WRITEBACK ACCESS:    1099868  HIT:     619058  MISS:     480810
Ship samples: size is 64
8, 44, 70, 108, 139, 173, 197, 226, 268, 300, 334, 366, 386, 418, 455, 481, 519, 557, 584, 615, 651, 681, 706, 746, 783, 811, 843, 875, 898, 931, 969, 1005, 1028, 1068, 1100, 1121, 1155, 1184, 1221, 1251, 1285, 1319, 1344, 1381, 1408, 1454, 1477, 1506, 1551, 1577, 1603, 1636, 1664, 1710, 1736, 1768, 1807, 1834, 1856, 1892, 1934, 1965, 1989, 2020, 
Ship duel samples: size is 128
8, 25, 44, 63, 70, 85, 108, 115, 139, 153, 173, 191, 197, 222, 226, 242, 268, 280, 300, 311, 334, 338, 366, 381, 386, 413, 418, 441, 455, 475, 481, 503, 519, 541, 557, 570, 584, 598, 615, 631, 651, 661, 681, 702, 706, 721, 746, 761, 783, 798, 811, 829, 843, 861, 875, 887, 898, 920, 931, 944, 969, 986, 1005, 1014, 1028, 1045, 1068, 1084, 1100, 1112, 1121, 1142, 1155, 1174, 1184, 1212, 1221, 1240, 1251, 1274, 1285, 1310, 1319, 1340, 1344, 1360, 1381, 1396, 1408, 1438, 1454, 1469, 1477, 1491, 1506, 1521, 1551, 1566, 1577, 1584, 1603, 1631, 1636, 1657, 1664, 1680, 1710, 1726, 1736, 1745, 1768, 1790, 1807, 1808, 1834, 1840, 1856, 1887, 1892, 1904, 1934, 1938, 1965, 1971, 1989, 2015, 2020, 2036, 
Lime duel samples: size is 128
11, 19, 37, 49, 67, 87, 98, 122, 141, 145, 175, 187, 192, 221, 233, 251, 259, 283, 302, 306, 335, 339, 363, 374, 393, 403, 423, 443, 454, 478, 494, 497, 513, 531, 546, 564, 586, 597, 622, 632, 646, 670, 675, 695, 715, 733, 738, 767, 776, 784, 801, 824, 836, 860, 878, 893, 896, 917, 936, 950, 963, 983, 999, 1012, 1034, 1050, 1064, 1077, 1103, 1111, 1133, 1141, 1157, 1168, 1196, 1200, 1229, 1246, 1263, 1270, 1295, 1296, 1326, 1331, 1357, 1372, 1376, 1405, 1409, 1433, 1443, 1460, 1472, 1498, 1512, 1530, 1540, 1552, 1583, 1587, 1607, 1628, 1641, 1660, 1677, 1685, 1709, 1722, 1732, 1756, 1760, 1779, 1805, 1822, 1830, 1850, 1866, 1878, 1895, 1915, 1935, 1946, 1967, 1983, 1988, 2007, 2026, 2041, 
Lime samples: size is 15
11, 141, 259, 393, 513, 646, 776, 896, 1034, 1157, 1295, 1409, 1540, 1677, 1805, 
Insertion Distribution: 
	LOAD 4923 0 0 0 0 0 8112 61757 
	RFO 203 0 0 0 0 0 6921 39345 
	PREF 0 25083 0 0 0 0 64356 420455 
	WRITEBACK 0 0 0 0 0 0 0 113783 
Total Prefetch Downgrades: 21565
