
*** ChampSim Multicore Out-of-Order Simulator ***

Warmup Instructions: 10000000
Simulation Instructions: 100000000
Configuration: 2
Number of CPUs: 1
LLC sets: 2048
LLC ways: 16
Off-chip DRAM Channels: 1 Width: 64-bit Data Rate: 1600 MT/s

CPU 0 runs /datasets/cs240c-wi22-a00-public/data/Assignment2-gz/GemsFDTD_109B.trace.gz
CPU 0 L1D next line prefetcher
CPU 0 L2C IP-based stride prefetcher
Heartbeat CPU 0 instructions: 1000002 cycles: 579772 heartbeat IPC: 1.72482 cumulative IPC: 1.72482 (Simulation time: 0 hr 0 min 33 sec) 
select_counter is 937
Heartbeat CPU 0 instructions: 2000001 cycles: 1159543 heartbeat IPC: 1.72482 cumulative IPC: 1.72482 (Simulation time: 0 hr 1 min 9 sec) 
select_counter is 850
Heartbeat CPU 0 instructions: 3000000 cycles: 1738738 heartbeat IPC: 1.72653 cumulative IPC: 1.72539 (Simulation time: 0 hr 1 min 39 sec) 
select_counter is 740
Heartbeat CPU 0 instructions: 4000000 cycles: 2317764 heartbeat IPC: 1.72704 cumulative IPC: 1.7258 (Simulation time: 0 hr 2 min 10 sec) 
select_counter is 578
Heartbeat CPU 0 instructions: 5000000 cycles: 2897606 heartbeat IPC: 1.72461 cumulative IPC: 1.72556 (Simulation time: 0 hr 2 min 40 sec) 
select_counter is 564
Heartbeat CPU 0 instructions: 6000002 cycles: 3478341 heartbeat IPC: 1.72196 cumulative IPC: 1.72496 (Simulation time: 0 hr 3 min 7 sec) 
select_counter is 582
Heartbeat CPU 0 instructions: 7000001 cycles: 4059041 heartbeat IPC: 1.72206 cumulative IPC: 1.72455 (Simulation time: 0 hr 3 min 40 sec) 
select_counter is 579
Heartbeat CPU 0 instructions: 8000000 cycles: 4639223 heartbeat IPC: 1.7236 cumulative IPC: 1.72443 (Simulation time: 0 hr 4 min 8 sec) 
select_counter is 590
Heartbeat CPU 0 instructions: 9000002 cycles: 5219386 heartbeat IPC: 1.72366 cumulative IPC: 1.72434 (Simulation time: 0 hr 4 min 36 sec) 
select_counter is 610
Heartbeat CPU 0 instructions: 10000001 cycles: 5799579 heartbeat IPC: 1.72356 cumulative IPC: 1.72426 (Simulation time: 0 hr 5 min 4 sec) 
select_counter is 586

Warmup complete CPU 0 instructions: 10000001 cycles: 5799579 (Simulation time: 0 hr 5 min 4 sec) 

Heartbeat CPU 0 instructions: 11000002 cycles: 6849107 heartbeat IPC: 0.95281 cumulative IPC: 0.95281 (Simulation time: 0 hr 5 min 34 sec) 
select_counter is 567
Heartbeat CPU 0 instructions: 12000000 cycles: 7902671 heartbeat IPC: 0.949157 cumulative IPC: 0.95098 (Simulation time: 0 hr 6 min 6 sec) 
select_counter is 548
Heartbeat CPU 0 instructions: 13000001 cycles: 8987120 heartbeat IPC: 0.922128 cumulative IPC: 0.941164 (Simulation time: 0 hr 6 min 35 sec) 
select_counter is 523
Heartbeat CPU 0 instructions: 14000002 cycles: 10050118 heartbeat IPC: 0.940736 cumulative IPC: 0.941057 (Simulation time: 0 hr 7 min 11 sec) 
select_counter is 485
Heartbeat CPU 0 instructions: 15000000 cycles: 11122375 heartbeat IPC: 0.93261 cumulative IPC: 0.939356 (Simulation time: 0 hr 7 min 42 sec) 
select_counter is 442
Heartbeat CPU 0 instructions: 16000000 cycles: 12187080 heartbeat IPC: 0.939227 cumulative IPC: 0.939334 (Simulation time: 0 hr 8 min 15 sec) 
select_counter is 398
Heartbeat CPU 0 instructions: 17000000 cycles: 13274202 heartbeat IPC: 0.91986 cumulative IPC: 0.936502 (Simulation time: 0 hr 8 min 46 sec) 
select_counter is 353
Heartbeat CPU 0 instructions: 18000003 cycles: 14325492 heartbeat IPC: 0.951215 cumulative IPC: 0.938316 (Simulation time: 0 hr 9 min 15 sec) 
select_counter is 303
Heartbeat CPU 0 instructions: 19000001 cycles: 15399552 heartbeat IPC: 0.931045 cumulative IPC: 0.937503 (Simulation time: 0 hr 9 min 47 sec) 
select_counter is 236
Heartbeat CPU 0 instructions: 20000000 cycles: 16633645 heartbeat IPC: 0.810311 cumulative IPC: 0.923014 (Simulation time: 0 hr 10 min 13 sec) 
select_counter is 285
Heartbeat CPU 0 instructions: 21000001 cycles: 17911944 heartbeat IPC: 0.78229 cumulative IPC: 0.908163 (Simulation time: 0 hr 10 min 43 sec) 
select_counter is 296
Heartbeat CPU 0 instructions: 22000001 cycles: 21354150 heartbeat IPC: 0.290511 cumulative IPC: 0.771477 (Simulation time: 0 hr 11 min 14 sec) 
select_counter is 692
Heartbeat CPU 0 instructions: 23000001 cycles: 22619397 heartbeat IPC: 0.790359 cumulative IPC: 0.772898 (Simulation time: 0 hr 11 min 44 sec) 
select_counter is 690
Heartbeat CPU 0 instructions: 24000000 cycles: 26228336 heartbeat IPC: 0.277089 cumulative IPC: 0.685308 (Simulation time: 0 hr 12 min 19 sec) 
select_counter is 890
Heartbeat CPU 0 instructions: 25000003 cycles: 27475356 heartbeat IPC: 0.801914 cumulative IPC: 0.692017 (Simulation time: 0 hr 12 min 47 sec) 
select_counter is 891
Heartbeat CPU 0 instructions: 26000000 cycles: 31117455 heartbeat IPC: 0.274566 cumulative IPC: 0.631965 (Simulation time: 0 hr 13 min 19 sec) 
select_counter is 900
Heartbeat CPU 0 instructions: 27000000 cycles: 32332596 heartbeat IPC: 0.82295 cumulative IPC: 0.640711 (Simulation time: 0 hr 13 min 44 sec) 
select_counter is 898
Heartbeat CPU 0 instructions: 28000000 cycles: 35823896 heartbeat IPC: 0.286426 cumulative IPC: 0.599514 (Simulation time: 0 hr 14 min 15 sec) 
select_counter is 910
Heartbeat CPU 0 instructions: 29000000 cycles: 37044354 heartbeat IPC: 0.819365 cumulative IPC: 0.608102 (Simulation time: 0 hr 14 min 43 sec) 
select_counter is 913
Heartbeat CPU 0 instructions: 30000003 cycles: 38387497 heartbeat IPC: 0.744525 cumulative IPC: 0.613724 (Simulation time: 0 hr 15 min 8 sec) 
select_counter is 772
Heartbeat CPU 0 instructions: 31000002 cycles: 39553916 heartbeat IPC: 0.857324 cumulative IPC: 0.622142 (Simulation time: 0 hr 15 min 36 sec) 
select_counter is 773
Heartbeat CPU 0 instructions: 32000000 cycles: 40864876 heartbeat IPC: 0.762798 cumulative IPC: 0.627401 (Simulation time: 0 hr 16 min 13 sec) 
select_counter is 689
Heartbeat CPU 0 instructions: 33000003 cycles: 42027098 heartbeat IPC: 0.860423 cumulative IPC: 0.634877 (Simulation time: 0 hr 16 min 39 sec) 
select_counter is 687
Heartbeat CPU 0 instructions: 34000002 cycles: 43341464 heartbeat IPC: 0.760822 cumulative IPC: 0.639286 (Simulation time: 0 hr 17 min 11 sec) 
select_counter is 589
Heartbeat CPU 0 instructions: 35000003 cycles: 44522064 heartbeat IPC: 0.847028 cumulative IPC: 0.64562 (Simulation time: 0 hr 17 min 42 sec) 
select_counter is 598
Heartbeat CPU 0 instructions: 36000000 cycles: 45939024 heartbeat IPC: 0.705734 cumulative IPC: 0.647742 (Simulation time: 0 hr 18 min 8 sec) 
select_counter is 494
Heartbeat CPU 0 instructions: 37000000 cycles: 47268520 heartbeat IPC: 0.752165 cumulative IPC: 0.65109 (Simulation time: 0 hr 18 min 40 sec) 
select_counter is 494
Heartbeat CPU 0 instructions: 38000001 cycles: 48598058 heartbeat IPC: 0.752142 cumulative IPC: 0.654229 (Simulation time: 0 hr 19 min 11 sec) 
select_counter is 494
Heartbeat CPU 0 instructions: 39000000 cycles: 49927447 heartbeat IPC: 0.752225 cumulative IPC: 0.657181 (Simulation time: 0 hr 19 min 43 sec) 
select_counter is 494
Heartbeat CPU 0 instructions: 40000000 cycles: 51256987 heartbeat IPC: 0.75214 cumulative IPC: 0.659958 (Simulation time: 0 hr 20 min 12 sec) 
select_counter is 494
Heartbeat CPU 0 instructions: 41000000 cycles: 52591039 heartbeat IPC: 0.749596 cumulative IPC: 0.662514 (Simulation time: 0 hr 20 min 44 sec) 
select_counter is 245
Heartbeat CPU 0 instructions: 42000000 cycles: 53920520 heartbeat IPC: 0.752173 cumulative IPC: 0.664991 (Simulation time: 0 hr 21 min 11 sec) 
select_counter is 245
Heartbeat CPU 0 instructions: 43000002 cycles: 55250189 heartbeat IPC: 0.752068 cumulative IPC: 0.667333 (Simulation time: 0 hr 21 min 43 sec) 
select_counter is 245
Heartbeat CPU 0 instructions: 44000000 cycles: 56579690 heartbeat IPC: 0.75216 cumulative IPC: 0.669553 (Simulation time: 0 hr 22 min 12 sec) 
select_counter is 245
Heartbeat CPU 0 instructions: 45000001 cycles: 57909015 heartbeat IPC: 0.752262 cumulative IPC: 0.671663 (Simulation time: 0 hr 22 min 44 sec) 
select_counter is 245
Heartbeat CPU 0 instructions: 46000002 cycles: 59303554 heartbeat IPC: 0.717084 cumulative IPC: 0.672847 (Simulation time: 0 hr 23 min 14 sec) 
select_counter is 167
Heartbeat CPU 0 instructions: 47000001 cycles: 60412174 heartbeat IPC: 0.902021 cumulative IPC: 0.677499 (Simulation time: 0 hr 23 min 35 sec) 
select_counter is 913
Heartbeat CPU 0 instructions: 48000000 cycles: 61760488 heartbeat IPC: 0.741666 cumulative IPC: 0.679045 (Simulation time: 0 hr 23 min 55 sec) 
select_counter is 686
Heartbeat CPU 0 instructions: 49000003 cycles: 71360805 heartbeat IPC: 0.104164 cumulative IPC: 0.594864 (Simulation time: 0 hr 24 min 41 sec) 
select_counter is 936
Heartbeat CPU 0 instructions: 50000001 cycles: 73191886 heartbeat IPC: 0.546124 cumulative IPC: 0.59354 (Simulation time: 0 hr 25 min 11 sec) 
select_counter is 552
Heartbeat CPU 0 instructions: 51000001 cycles: 74844240 heartbeat IPC: 0.605197 cumulative IPC: 0.593819 (Simulation time: 0 hr 25 min 40 sec) 
select_counter is 378
Heartbeat CPU 0 instructions: 52000000 cycles: 76459677 heartbeat IPC: 0.619027 cumulative IPC: 0.594395 (Simulation time: 0 hr 26 min 15 sec) 
select_counter is 261
Heartbeat CPU 0 instructions: 53000001 cycles: 78091935 heartbeat IPC: 0.612649 cumulative IPC: 0.594807 (Simulation time: 0 hr 26 min 47 sec) 
select_counter is 174
Heartbeat CPU 0 instructions: 54000000 cycles: 79721990 heartbeat IPC: 0.613476 cumulative IPC: 0.595219 (Simulation time: 0 hr 27 min 23 sec) 
select_counter is 94
Heartbeat CPU 0 instructions: 55000003 cycles: 81311186 heartbeat IPC: 0.629251 cumulative IPC: 0.595935 (Simulation time: 0 hr 27 min 59 sec) 
select_counter is 76
Heartbeat CPU 0 instructions: 56000000 cycles: 82908226 heartbeat IPC: 0.626157 cumulative IPC: 0.596561 (Simulation time: 0 hr 28 min 33 sec) 
select_counter is 1007
Heartbeat CPU 0 instructions: 57000003 cycles: 84542349 heartbeat IPC: 0.611951 cumulative IPC: 0.59688 (Simulation time: 0 hr 29 min 8 sec) 
select_counter is 933
Heartbeat CPU 0 instructions: 58000002 cycles: 86155334 heartbeat IPC: 0.619968 cumulative IPC: 0.597344 (Simulation time: 0 hr 29 min 48 sec) 
select_counter is 939
Heartbeat CPU 0 instructions: 59000001 cycles: 87768913 heartbeat IPC: 0.61974 cumulative IPC: 0.597785 (Simulation time: 0 hr 30 min 22 sec) 
select_counter is 925
Heartbeat CPU 0 instructions: 60000000 cycles: 89385402 heartbeat IPC: 0.618624 cumulative IPC: 0.598188 (Simulation time: 0 hr 30 min 56 sec) 
select_counter is 830
Heartbeat CPU 0 instructions: 61000000 cycles: 90979755 heartbeat IPC: 0.627214 cumulative IPC: 0.598731 (Simulation time: 0 hr 31 min 30 sec) 
select_counter is 812
Heartbeat CPU 0 instructions: 62000003 cycles: 92564728 heartbeat IPC: 0.630927 cumulative IPC: 0.599319 (Simulation time: 0 hr 32 min 4 sec) 
select_counter is 807
Heartbeat CPU 0 instructions: 63000000 cycles: 94164899 heartbeat IPC: 0.624931 cumulative IPC: 0.599783 (Simulation time: 0 hr 32 min 39 sec) 
select_counter is 777
Heartbeat CPU 0 instructions: 64000000 cycles: 95784777 heartbeat IPC: 0.61733 cumulative IPC: 0.600099 (Simulation time: 0 hr 33 min 16 sec) 
select_counter is 828
Heartbeat CPU 0 instructions: 65000003 cycles: 97420553 heartbeat IPC: 0.611332 cumulative IPC: 0.600299 (Simulation time: 0 hr 33 min 51 sec) 
select_counter is 766
Heartbeat CPU 0 instructions: 66000001 cycles: 99060744 heartbeat IPC: 0.609684 cumulative IPC: 0.600464 (Simulation time: 0 hr 34 min 27 sec) 
select_counter is 737
Heartbeat CPU 0 instructions: 67000001 cycles: 100672038 heartbeat IPC: 0.620619 cumulative IPC: 0.600807 (Simulation time: 0 hr 35 min 1 sec) 
select_counter is 738
Heartbeat CPU 0 instructions: 68000000 cycles: 102293305 heartbeat IPC: 0.616801 cumulative IPC: 0.601075 (Simulation time: 0 hr 35 min 33 sec) 
select_counter is 729
Heartbeat CPU 0 instructions: 69000000 cycles: 103902227 heartbeat IPC: 0.621534 cumulative IPC: 0.601411 (Simulation time: 0 hr 36 min 4 sec) 
select_counter is 677
Heartbeat CPU 0 instructions: 70000003 cycles: 105481097 heartbeat IPC: 0.633366 cumulative IPC: 0.601917 (Simulation time: 0 hr 36 min 34 sec) 
select_counter is 671
Heartbeat CPU 0 instructions: 71000003 cycles: 107098054 heartbeat IPC: 0.618446 cumulative IPC: 0.602181 (Simulation time: 0 hr 37 min 10 sec) 
select_counter is 675
Heartbeat CPU 0 instructions: 72000000 cycles: 108685012 heartbeat IPC: 0.630135 cumulative IPC: 0.602612 (Simulation time: 0 hr 37 min 43 sec) 
select_counter is 690
Heartbeat CPU 0 instructions: 73000002 cycles: 110309781 heartbeat IPC: 0.615473 cumulative IPC: 0.602812 (Simulation time: 0 hr 38 min 19 sec) 
select_counter is 700
Heartbeat CPU 0 instructions: 74000000 cycles: 111936728 heartbeat IPC: 0.614647 cumulative IPC: 0.602993 (Simulation time: 0 hr 38 min 50 sec) 
select_counter is 719
Heartbeat CPU 0 instructions: 75000000 cycles: 113572251 heartbeat IPC: 0.611425 cumulative IPC: 0.603121 (Simulation time: 0 hr 39 min 23 sec) 
select_counter is 719
Heartbeat CPU 0 instructions: 76000000 cycles: 115158200 heartbeat IPC: 0.630537 cumulative IPC: 0.603519 (Simulation time: 0 hr 39 min 51 sec) 
select_counter is 711
Heartbeat CPU 0 instructions: 77000002 cycles: 116795827 heartbeat IPC: 0.610641 cumulative IPC: 0.603624 (Simulation time: 0 hr 40 min 21 sec) 
select_counter is 694
Heartbeat CPU 0 instructions: 78000001 cycles: 118399922 heartbeat IPC: 0.623404 cumulative IPC: 0.603906 (Simulation time: 0 hr 40 min 47 sec) 
select_counter is 705
Heartbeat CPU 0 instructions: 79000001 cycles: 119994818 heartbeat IPC: 0.627 cumulative IPC: 0.604228 (Simulation time: 0 hr 41 min 14 sec) 
select_counter is 679
Heartbeat CPU 0 instructions: 80000000 cycles: 121596364 heartbeat IPC: 0.624396 cumulative IPC: 0.604507 (Simulation time: 0 hr 41 min 39 sec) 
select_counter is 652
Heartbeat CPU 0 instructions: 81000001 cycles: 123199384 heartbeat IPC: 0.623823 cumulative IPC: 0.604771 (Simulation time: 0 hr 42 min 3 sec) 
select_counter is 622
Heartbeat CPU 0 instructions: 82000000 cycles: 124804664 heartbeat IPC: 0.622944 cumulative IPC: 0.605016 (Simulation time: 0 hr 42 min 25 sec) 
select_counter is 608
Heartbeat CPU 0 instructions: 83000001 cycles: 126403945 heartbeat IPC: 0.625282 cumulative IPC: 0.605285 (Simulation time: 0 hr 42 min 45 sec) 
select_counter is 583
Heartbeat CPU 0 instructions: 84000000 cycles: 128002618 heartbeat IPC: 0.625518 cumulative IPC: 0.60555 (Simulation time: 0 hr 43 min 8 sec) 
select_counter is 587
Heartbeat CPU 0 instructions: 85000001 cycles: 129625906 heartbeat IPC: 0.616034 cumulative IPC: 0.605687 (Simulation time: 0 hr 43 min 29 sec) 
select_counter is 606
Heartbeat CPU 0 instructions: 86000001 cycles: 131240232 heartbeat IPC: 0.619454 cumulative IPC: 0.605864 (Simulation time: 0 hr 43 min 48 sec) 
select_counter is 625
Heartbeat CPU 0 instructions: 87000000 cycles: 132845907 heartbeat IPC: 0.62279 cumulative IPC: 0.606078 (Simulation time: 0 hr 44 min 12 sec) 
select_counter is 634
Heartbeat CPU 0 instructions: 88000000 cycles: 134474555 heartbeat IPC: 0.614006 cumulative IPC: 0.606178 (Simulation time: 0 hr 44 min 30 sec) 
select_counter is 626
Heartbeat CPU 0 instructions: 89000003 cycles: 136125002 heartbeat IPC: 0.605898 cumulative IPC: 0.606175 (Simulation time: 0 hr 44 min 47 sec) 
select_counter is 661
Heartbeat CPU 0 instructions: 90000002 cycles: 137775311 heartbeat IPC: 0.605947 cumulative IPC: 0.606172 (Simulation time: 0 hr 45 min 5 sec) 
select_counter is 650
Heartbeat CPU 0 instructions: 91000002 cycles: 139413640 heartbeat IPC: 0.610378 cumulative IPC: 0.606224 (Simulation time: 0 hr 45 min 22 sec) 
select_counter is 584
Heartbeat CPU 0 instructions: 92000000 cycles: 141032500 heartbeat IPC: 0.617717 cumulative IPC: 0.606361 (Simulation time: 0 hr 45 min 38 sec) 
select_counter is 580
Heartbeat CPU 0 instructions: 93000001 cycles: 142658178 heartbeat IPC: 0.615129 cumulative IPC: 0.606465 (Simulation time: 0 hr 45 min 57 sec) 
select_counter is 577
Heartbeat CPU 0 instructions: 94000000 cycles: 144258130 heartbeat IPC: 0.625018 cumulative IPC: 0.60668 (Simulation time: 0 hr 46 min 13 sec) 
select_counter is 550
Heartbeat CPU 0 instructions: 95000000 cycles: 145852927 heartbeat IPC: 0.627039 cumulative IPC: 0.606912 (Simulation time: 0 hr 46 min 27 sec) 
select_counter is 554
Heartbeat CPU 0 instructions: 96000000 cycles: 147467477 heartbeat IPC: 0.619368 cumulative IPC: 0.607054 (Simulation time: 0 hr 46 min 41 sec) 
select_counter is 558
Heartbeat CPU 0 instructions: 97000002 cycles: 149080152 heartbeat IPC: 0.620089 cumulative IPC: 0.6072 (Simulation time: 0 hr 46 min 54 sec) 
select_counter is 602
Heartbeat CPU 0 instructions: 98000000 cycles: 150705386 heartbeat IPC: 0.615295 cumulative IPC: 0.607291 (Simulation time: 0 hr 47 min 5 sec) 
select_counter is 568
Heartbeat CPU 0 instructions: 99000001 cycles: 152281378 heartbeat IPC: 0.634522 cumulative IPC: 0.607584 (Simulation time: 0 hr 47 min 16 sec) 
select_counter is 561
Heartbeat CPU 0 instructions: 100000000 cycles: 153906091 heartbeat IPC: 0.615493 cumulative IPC: 0.607671 (Simulation time: 0 hr 47 min 26 sec) 
select_counter is 551
Heartbeat CPU 0 instructions: 101000001 cycles: 155532394 heartbeat IPC: 0.614892 cumulative IPC: 0.607749 (Simulation time: 0 hr 47 min 36 sec) 
select_counter is 535
Heartbeat CPU 0 instructions: 102000000 cycles: 157156282 heartbeat IPC: 0.615805 cumulative IPC: 0.607836 (Simulation time: 0 hr 47 min 45 sec) 
select_counter is 541
Heartbeat CPU 0 instructions: 103000000 cycles: 158764297 heartbeat IPC: 0.621885 cumulative IPC: 0.607983 (Simulation time: 0 hr 47 min 54 sec) 
select_counter is 577
Heartbeat CPU 0 instructions: 104000000 cycles: 160385739 heartbeat IPC: 0.616735 cumulative IPC: 0.608075 (Simulation time: 0 hr 48 min 2 sec) 
select_counter is 573
Heartbeat CPU 0 instructions: 105000000 cycles: 162019314 heartbeat IPC: 0.612154 cumulative IPC: 0.608118 (Simulation time: 0 hr 48 min 8 sec) 
select_counter is 574
Heartbeat CPU 0 instructions: 106000001 cycles: 163644211 heartbeat IPC: 0.615424 cumulative IPC: 0.608193 (Simulation time: 0 hr 48 min 14 sec) 
select_counter is 557
Heartbeat CPU 0 instructions: 107000001 cycles: 165273822 heartbeat IPC: 0.613643 cumulative IPC: 0.608249 (Simulation time: 0 hr 48 min 19 sec) 
select_counter is 567
Heartbeat CPU 0 instructions: 108000000 cycles: 166898265 heartbeat IPC: 0.615595 cumulative IPC: 0.608323 (Simulation time: 0 hr 48 min 24 sec) 
select_counter is 600
Heartbeat CPU 0 instructions: 109000003 cycles: 168475629 heartbeat IPC: 0.633971 cumulative IPC: 0.608571 (Simulation time: 0 hr 48 min 28 sec) 
select_counter is 603
Heartbeat CPU 0 instructions: 110000002 cycles: 170090062 heartbeat IPC: 0.619412 cumulative IPC: 0.608678 (Simulation time: 0 hr 48 min 32 sec) 
select_counter is 601
Finished CPU 0 instructions: 100000001 cycles: 164290483 cummulative IPC: 0.608678 (Simulation time: 0 hr 48 min 32 sec) 

ChampSim completed all CPUs

Region of Interest Statistics

CPU 0 cummulative IPC: 0.608678 instructions: 100000001 cycles: 164290483
LLC TOTAL     ACCESS:    4812216  HIT:     585755  MISS:    4226461
LLC LOAD      ACCESS:     461993  HIT:      35387  MISS:     426606
LLC RFO       ACCESS:     126470  HIT:     107979  MISS:      18491
LLC PREFETCH  ACCESS:    2859464  HIT:     108502  MISS:    2750962
LLC WRITEBACK ACCESS:    1364289  HIT:     333887  MISS:    1030402
Ship samples: size is 64
0, 46, 76, 106, 134, 161, 202, 231, 269, 295, 330, 355, 388, 429, 459, 494, 522, 554, 581, 609, 642, 684, 706, 748, 781, 804, 834, 870, 900, 934, 969, 992, 1025, 1063, 1091, 1135, 1157, 1199, 1219, 1250, 1290, 1324, 1357, 1389, 1412, 1447, 1479, 1506, 1541, 1580, 1604, 1645, 1679, 1708, 1742, 1775, 1806, 1830, 1869, 1895, 1931, 1954, 1996, 2027, 
Ship duel samples: size is 128
0, 16, 46, 62, 76, 94, 106, 122, 134, 156, 161, 186, 202, 221, 231, 250, 269, 279, 295, 307, 330, 341, 355, 371, 388, 408, 429, 442, 459, 474, 494, 508, 522, 540, 554, 567, 581, 593, 609, 625, 642, 667, 684, 703, 706, 726, 748, 761, 781, 799, 804, 818, 834, 855, 870, 890, 900, 913, 934, 946, 969, 988, 992, 1014, 1025, 1041, 1063, 1075, 1091, 1106, 1135, 1139, 1157, 1173, 1199, 1214, 1219, 1247, 1250, 1265, 1290, 1308, 1324, 1342, 1357, 1362, 1389, 1404, 1412, 1431, 1447, 1456, 1479, 1502, 1506, 1529, 1541, 1557, 1580, 1592, 1604, 1631, 1645, 1657, 1679, 1691, 1708, 1726, 1742, 1746, 1775, 1784, 1806, 1819, 1830, 1851, 1869, 1876, 1895, 1905, 1931, 1950, 1954, 1970, 1996, 2004, 2027, 2034, 
Lime duel samples: size is 128
12, 23, 47, 56, 70, 82, 105, 125, 128, 158, 170, 187, 203, 219, 225, 242, 270, 275, 296, 304, 321, 347, 356, 374, 393, 410, 416, 447, 458, 471, 489, 503, 526, 536, 559, 565, 587, 600, 610, 635, 647, 669, 679, 690, 712, 728, 741, 758, 780, 797, 806, 829, 840, 858, 867, 882, 901, 915, 929, 959, 971, 987, 998, 1017, 1027, 1045, 1070, 1086, 1102, 1105, 1130, 1141, 1166, 1169, 1191, 1206, 1225, 1244, 1260, 1269, 1289, 1298, 1315, 1330, 1356, 1366, 1380, 1393, 1418, 1429, 1441, 1461, 1472, 1495, 1518, 1524, 1549, 1565, 1570, 1595, 1614, 1628, 1632, 1660, 1677, 1687, 1698, 1719, 1732, 1758, 1772, 1789, 1792, 1823, 1839, 1852, 1862, 1875, 1902, 1904, 1929, 1951, 1957, 1977, 1990, 2003, 2029, 2035, 
Lime samples: size is 15
12, 128, 270, 393, 526, 647, 780, 901, 1027, 1166, 1289, 1418, 1549, 1677, 1792, 
Insertion Distribution: 
	LOAD 3511 0 0 0 0 0 23084 32208 
	RFO 17 0 0 0 0 0 7445 1290 
	PREF 0 466 0 0 0 0 54801 478826 
	WRITEBACK 0 0 0 0 0 0 0 215089 
Total Prefetch Downgrades: 2445
