
*** ChampSim Multicore Out-of-Order Simulator ***

Warmup Instructions: 10000000
Simulation Instructions: 100000000
Configuration: 2
Number of CPUs: 1
LLC sets: 2048
LLC ways: 16
Off-chip DRAM Channels: 1 Width: 64-bit Data Rate: 1600 MT/s

CPU 0 runs /datasets/cs240c-wi22-a00-public/data/Assignment2-gz/lbm_564B.trace.gz
CPU 0 L1D next line prefetcher
CPU 0 L2C IP-based stride prefetcher
Heartbeat CPU 0 instructions: 1000000 cycles: 390168 heartbeat IPC: 2.563 cumulative IPC: 2.563 (Simulation time: 0 hr 0 min 21 sec) 
select_counter is 598
Heartbeat CPU 0 instructions: 2000003 cycles: 785204 heartbeat IPC: 2.53142 cumulative IPC: 2.54711 (Simulation time: 0 hr 0 min 46 sec) 
select_counter is 1023
Heartbeat CPU 0 instructions: 3000002 cycles: 1175399 heartbeat IPC: 2.56282 cumulative IPC: 2.55233 (Simulation time: 0 hr 1 min 7 sec) 
select_counter is 1021
Heartbeat CPU 0 instructions: 4000000 cycles: 1565583 heartbeat IPC: 2.56289 cumulative IPC: 2.55496 (Simulation time: 0 hr 1 min 33 sec) 
select_counter is 879
Heartbeat CPU 0 instructions: 5000000 cycles: 1960700 heartbeat IPC: 2.5309 cumulative IPC: 2.55011 (Simulation time: 0 hr 1 min 56 sec) 
select_counter is 737
Heartbeat CPU 0 instructions: 6000002 cycles: 2350856 heartbeat IPC: 2.56308 cumulative IPC: 2.55226 (Simulation time: 0 hr 2 min 16 sec) 
select_counter is 1021
Heartbeat CPU 0 instructions: 7000001 cycles: 2741115 heartbeat IPC: 2.5624 cumulative IPC: 2.55371 (Simulation time: 0 hr 2 min 38 sec) 
select_counter is 936
Heartbeat CPU 0 instructions: 8000000 cycles: 3136112 heartbeat IPC: 2.53166 cumulative IPC: 2.55093 (Simulation time: 0 hr 2 min 58 sec) 
select_counter is 447
Heartbeat CPU 0 instructions: 9000000 cycles: 3526362 heartbeat IPC: 2.56246 cumulative IPC: 2.55221 (Simulation time: 0 hr 3 min 19 sec) 
select_counter is 892
Heartbeat CPU 0 instructions: 10000002 cycles: 3916509 heartbeat IPC: 2.56314 cumulative IPC: 2.55329 (Simulation time: 0 hr 3 min 40 sec) 
select_counter is 1007

Warmup complete CPU 0 instructions: 10000002 cycles: 3916509 (Simulation time: 0 hr 3 min 40 sec) 

Heartbeat CPU 0 instructions: 11000000 cycles: 5254894 heartbeat IPC: 0.747168 cumulative IPC: 0.747168 (Simulation time: 0 hr 4 min 6 sec) 
select_counter is 1009
Heartbeat CPU 0 instructions: 12000000 cycles: 6635651 heartbeat IPC: 0.72424 cumulative IPC: 0.735525 (Simulation time: 0 hr 4 min 31 sec) 
select_counter is 1022
Heartbeat CPU 0 instructions: 13000001 cycles: 8020174 heartbeat IPC: 0.722271 cumulative IPC: 0.731054 (Simulation time: 0 hr 4 min 55 sec) 
select_counter is 1019
Heartbeat CPU 0 instructions: 14000003 cycles: 9479842 heartbeat IPC: 0.685089 cumulative IPC: 0.718994 (Simulation time: 0 hr 5 min 22 sec) 
select_counter is 1023
Heartbeat CPU 0 instructions: 15000000 cycles: 10857000 heartbeat IPC: 0.726131 cumulative IPC: 0.72041 (Simulation time: 0 hr 5 min 50 sec) 
select_counter is 1022
Heartbeat CPU 0 instructions: 16000000 cycles: 12226887 heartbeat IPC: 0.729987 cumulative IPC: 0.721989 (Simulation time: 0 hr 6 min 14 sec) 
select_counter is 1020
Heartbeat CPU 0 instructions: 17000000 cycles: 13642988 heartbeat IPC: 0.706164 cumulative IPC: 0.719685 (Simulation time: 0 hr 6 min 41 sec) 
select_counter is 1022
Heartbeat CPU 0 instructions: 18000000 cycles: 15068465 heartbeat IPC: 0.70152 cumulative IPC: 0.717363 (Simulation time: 0 hr 7 min 10 sec) 
select_counter is 1017
Heartbeat CPU 0 instructions: 19000003 cycles: 16367992 heartbeat IPC: 0.769513 cumulative IPC: 0.722806 (Simulation time: 0 hr 7 min 39 sec) 
select_counter is 1023
Heartbeat CPU 0 instructions: 20000000 cycles: 17753753 heartbeat IPC: 0.721623 cumulative IPC: 0.722687 (Simulation time: 0 hr 8 min 5 sec) 
select_counter is 1022
Heartbeat CPU 0 instructions: 21000003 cycles: 19138584 heartbeat IPC: 0.722112 cumulative IPC: 0.722635 (Simulation time: 0 hr 8 min 29 sec) 
select_counter is 1023
Heartbeat CPU 0 instructions: 22000003 cycles: 21087029 heartbeat IPC: 0.51323 cumulative IPC: 0.698872 (Simulation time: 0 hr 8 min 58 sec) 
select_counter is 1016
Heartbeat CPU 0 instructions: 23000000 cycles: 23255282 heartbeat IPC: 0.461199 cumulative IPC: 0.672225 (Simulation time: 0 hr 9 min 39 sec) 
select_counter is 1023
Heartbeat CPU 0 instructions: 24000000 cycles: 30262496 heartbeat IPC: 0.14271 cumulative IPC: 0.53139 (Simulation time: 0 hr 10 min 46 sec) 
select_counter is 1020
Heartbeat CPU 0 instructions: 25000003 cycles: 32793583 heartbeat IPC: 0.395088 cumulative IPC: 0.519443 (Simulation time: 0 hr 11 min 36 sec) 
select_counter is 1023
Heartbeat CPU 0 instructions: 26000002 cycles: 34878917 heartbeat IPC: 0.479539 cumulative IPC: 0.516756 (Simulation time: 0 hr 12 min 9 sec) 
select_counter is 1022
Heartbeat CPU 0 instructions: 27000001 cycles: 36285854 heartbeat IPC: 0.710763 cumulative IPC: 0.525188 (Simulation time: 0 hr 12 min 32 sec) 
select_counter is 1012
Heartbeat CPU 0 instructions: 28000000 cycles: 37710120 heartbeat IPC: 0.702115 cumulative IPC: 0.532645 (Simulation time: 0 hr 12 min 57 sec) 
select_counter is 1022
Heartbeat CPU 0 instructions: 29000003 cycles: 39130604 heartbeat IPC: 0.703988 cumulative IPC: 0.539557 (Simulation time: 0 hr 13 min 22 sec) 
select_counter is 995
Heartbeat CPU 0 instructions: 30000000 cycles: 40574801 heartbeat IPC: 0.692424 cumulative IPC: 0.545579 (Simulation time: 0 hr 13 min 46 sec) 
select_counter is 1021
Heartbeat CPU 0 instructions: 31000000 cycles: 41898404 heartbeat IPC: 0.755514 cumulative IPC: 0.552895 (Simulation time: 0 hr 14 min 9 sec) 
select_counter is 1023
Heartbeat CPU 0 instructions: 32000000 cycles: 43241399 heartbeat IPC: 0.744604 cumulative IPC: 0.559442 (Simulation time: 0 hr 14 min 38 sec) 
select_counter is 1017
Heartbeat CPU 0 instructions: 33000001 cycles: 44713658 heartbeat IPC: 0.679229 cumulative IPC: 0.563765 (Simulation time: 0 hr 15 min 4 sec) 
select_counter is 1017
Heartbeat CPU 0 instructions: 34000001 cycles: 46036397 heartbeat IPC: 0.756007 cumulative IPC: 0.569802 (Simulation time: 0 hr 15 min 27 sec) 
select_counter is 1021
Heartbeat CPU 0 instructions: 35000002 cycles: 47327206 heartbeat IPC: 0.774709 cumulative IPC: 0.575895 (Simulation time: 0 hr 15 min 52 sec) 
select_counter is 1023
Heartbeat CPU 0 instructions: 36000000 cycles: 48719334 heartbeat IPC: 0.718323 cumulative IPC: 0.58032 (Simulation time: 0 hr 16 min 15 sec) 
select_counter is 1016
Heartbeat CPU 0 instructions: 37000000 cycles: 50174388 heartbeat IPC: 0.68726 cumulative IPC: 0.583684 (Simulation time: 0 hr 16 min 39 sec) 
select_counter is 1023
Heartbeat CPU 0 instructions: 38000003 cycles: 51479710 heartbeat IPC: 0.766097 cumulative IPC: 0.58869 (Simulation time: 0 hr 17 min 2 sec) 
select_counter is 1016
Heartbeat CPU 0 instructions: 39000002 cycles: 52834986 heartbeat IPC: 0.737856 cumulative IPC: 0.592823 (Simulation time: 0 hr 17 min 26 sec) 
select_counter is 1020
Heartbeat CPU 0 instructions: 40000000 cycles: 54334997 heartbeat IPC: 0.66666 cumulative IPC: 0.59502 (Simulation time: 0 hr 17 min 50 sec) 
select_counter is 984
Heartbeat CPU 0 instructions: 41000000 cycles: 55683544 heartbeat IPC: 0.741539 cumulative IPC: 0.598837 (Simulation time: 0 hr 18 min 14 sec) 
select_counter is 1019
Heartbeat CPU 0 instructions: 42000002 cycles: 57008064 heartbeat IPC: 0.754992 cumulative IPC: 0.602732 (Simulation time: 0 hr 18 min 42 sec) 
select_counter is 1010
Heartbeat CPU 0 instructions: 43000001 cycles: 58456420 heartbeat IPC: 0.690437 cumulative IPC: 0.605061 (Simulation time: 0 hr 19 min 5 sec) 
select_counter is 1005
Heartbeat CPU 0 instructions: 44000000 cycles: 59869351 heartbeat IPC: 0.707748 cumulative IPC: 0.607655 (Simulation time: 0 hr 19 min 29 sec) 
select_counter is 1022
Heartbeat CPU 0 instructions: 45000001 cycles: 61170960 heartbeat IPC: 0.768281 cumulative IPC: 0.611306 (Simulation time: 0 hr 20 min 0 sec) 
select_counter is 1023
Heartbeat CPU 0 instructions: 46000002 cycles: 62487616 heartbeat IPC: 0.759501 cumulative IPC: 0.614637 (Simulation time: 0 hr 20 min 34 sec) 
select_counter is 1019
Heartbeat CPU 0 instructions: 47000001 cycles: 63960588 heartbeat IPC: 0.678899 cumulative IPC: 0.616214 (Simulation time: 0 hr 21 min 1 sec) 
select_counter is 1016
Heartbeat CPU 0 instructions: 48000000 cycles: 65330550 heartbeat IPC: 0.729947 cumulative IPC: 0.618751 (Simulation time: 0 hr 21 min 25 sec) 
select_counter is 1020
Heartbeat CPU 0 instructions: 49000001 cycles: 66678995 heartbeat IPC: 0.741596 cumulative IPC: 0.62139 (Simulation time: 0 hr 21 min 49 sec) 
select_counter is 1021
Heartbeat CPU 0 instructions: 50000001 cycles: 68091125 heartbeat IPC: 0.70815 cumulative IPC: 0.623299 (Simulation time: 0 hr 22 min 17 sec) 
select_counter is 1018
Heartbeat CPU 0 instructions: 51000002 cycles: 69485909 heartbeat IPC: 0.716958 cumulative IPC: 0.625292 (Simulation time: 0 hr 22 min 43 sec) 
select_counter is 1020
Heartbeat CPU 0 instructions: 52000000 cycles: 70865437 heartbeat IPC: 0.724884 cumulative IPC: 0.627344 (Simulation time: 0 hr 23 min 8 sec) 
select_counter is 1021
Heartbeat CPU 0 instructions: 53000001 cycles: 72231622 heartbeat IPC: 0.731966 cumulative IPC: 0.629436 (Simulation time: 0 hr 23 min 33 sec) 
select_counter is 1021
Heartbeat CPU 0 instructions: 54000001 cycles: 73654402 heartbeat IPC: 0.702849 cumulative IPC: 0.630934 (Simulation time: 0 hr 23 min 57 sec) 
select_counter is 1020
Heartbeat CPU 0 instructions: 55000003 cycles: 75035557 heartbeat IPC: 0.724033 cumulative IPC: 0.632742 (Simulation time: 0 hr 24 min 19 sec) 
select_counter is 1022
Heartbeat CPU 0 instructions: 56000000 cycles: 76422687 heartbeat IPC: 0.720911 cumulative IPC: 0.634429 (Simulation time: 0 hr 24 min 46 sec) 
select_counter is 1021
Heartbeat CPU 0 instructions: 57000001 cycles: 77829535 heartbeat IPC: 0.71081 cumulative IPC: 0.635882 (Simulation time: 0 hr 25 min 10 sec) 
select_counter is 1021
Heartbeat CPU 0 instructions: 58000002 cycles: 79264826 heartbeat IPC: 0.696724 cumulative IPC: 0.637041 (Simulation time: 0 hr 25 min 34 sec) 
select_counter is 1019
Heartbeat CPU 0 instructions: 59000001 cycles: 80670845 heartbeat IPC: 0.711227 cumulative IPC: 0.6384 (Simulation time: 0 hr 25 min 59 sec) 
select_counter is 1023
Heartbeat CPU 0 instructions: 60000000 cycles: 82080679 heartbeat IPC: 0.709303 cumulative IPC: 0.639679 (Simulation time: 0 hr 26 min 30 sec) 
select_counter is 1021
Heartbeat CPU 0 instructions: 61000003 cycles: 83522530 heartbeat IPC: 0.693555 cumulative IPC: 0.640655 (Simulation time: 0 hr 27 min 1 sec) 
select_counter is 1022
Heartbeat CPU 0 instructions: 62000001 cycles: 84950399 heartbeat IPC: 0.700343 cumulative IPC: 0.641707 (Simulation time: 0 hr 27 min 28 sec) 
select_counter is 1020
Heartbeat CPU 0 instructions: 63000000 cycles: 86397005 heartbeat IPC: 0.691273 cumulative IPC: 0.642576 (Simulation time: 0 hr 27 min 54 sec) 
select_counter is 1019
Heartbeat CPU 0 instructions: 64000000 cycles: 87838475 heartbeat IPC: 0.693736 cumulative IPC: 0.643455 (Simulation time: 0 hr 28 min 23 sec) 
select_counter is 1016
Heartbeat CPU 0 instructions: 65000003 cycles: 89240015 heartbeat IPC: 0.713503 cumulative IPC: 0.644606 (Simulation time: 0 hr 28 min 50 sec) 
select_counter is 1022
Heartbeat CPU 0 instructions: 66000001 cycles: 90588951 heartbeat IPC: 0.741324 cumulative IPC: 0.646111 (Simulation time: 0 hr 29 min 16 sec) 
select_counter is 1022
Heartbeat CPU 0 instructions: 67000001 cycles: 92011178 heartbeat IPC: 0.703123 cumulative IPC: 0.647031 (Simulation time: 0 hr 29 min 44 sec) 
select_counter is 1019
Heartbeat CPU 0 instructions: 68000000 cycles: 93513352 heartbeat IPC: 0.665701 cumulative IPC: 0.647344 (Simulation time: 0 hr 30 min 12 sec) 
select_counter is 1013
Heartbeat CPU 0 instructions: 69000003 cycles: 94898519 heartbeat IPC: 0.721937 cumulative IPC: 0.64848 (Simulation time: 0 hr 30 min 45 sec) 
select_counter is 1018
Heartbeat CPU 0 instructions: 70000003 cycles: 96305494 heartbeat IPC: 0.710745 cumulative IPC: 0.649428 (Simulation time: 0 hr 31 min 19 sec) 
select_counter is 1023
Heartbeat CPU 0 instructions: 71000000 cycles: 97833724 heartbeat IPC: 0.65435 cumulative IPC: 0.649508 (Simulation time: 0 hr 31 min 55 sec) 
select_counter is 1021
Heartbeat CPU 0 instructions: 72000000 cycles: 99234454 heartbeat IPC: 0.713913 cumulative IPC: 0.650455 (Simulation time: 0 hr 32 min 24 sec) 
select_counter is 1018
Heartbeat CPU 0 instructions: 73000003 cycles: 100638797 heartbeat IPC: 0.712079 cumulative IPC: 0.651349 (Simulation time: 0 hr 32 min 54 sec) 
select_counter is 1017
Heartbeat CPU 0 instructions: 74000002 cycles: 102154777 heartbeat IPC: 0.659639 cumulative IPC: 0.651477 (Simulation time: 0 hr 33 min 21 sec) 
select_counter is 1023
Heartbeat CPU 0 instructions: 75000002 cycles: 103553138 heartbeat IPC: 0.715123 cumulative IPC: 0.652371 (Simulation time: 0 hr 33 min 45 sec) 
select_counter is 1002
Heartbeat CPU 0 instructions: 76000000 cycles: 105012898 heartbeat IPC: 0.685043 cumulative IPC: 0.652842 (Simulation time: 0 hr 34 min 13 sec) 
select_counter is 1022
Heartbeat CPU 0 instructions: 77000001 cycles: 106569643 heartbeat IPC: 0.642367 cumulative IPC: 0.652683 (Simulation time: 0 hr 34 min 42 sec) 
select_counter is 1016
Heartbeat CPU 0 instructions: 78000002 cycles: 107952416 heartbeat IPC: 0.723185 cumulative IPC: 0.65362 (Simulation time: 0 hr 35 min 11 sec) 
select_counter is 1021
Heartbeat CPU 0 instructions: 79000000 cycles: 109403814 heartbeat IPC: 0.68899 cumulative IPC: 0.654107 (Simulation time: 0 hr 35 min 42 sec) 
select_counter is 1014
Heartbeat CPU 0 instructions: 80000000 cycles: 110999658 heartbeat IPC: 0.626628 cumulative IPC: 0.653698 (Simulation time: 0 hr 36 min 12 sec) 
select_counter is 1023
Heartbeat CPU 0 instructions: 81000003 cycles: 112386407 heartbeat IPC: 0.721113 cumulative IPC: 0.654559 (Simulation time: 0 hr 36 min 40 sec) 
select_counter is 1022
Heartbeat CPU 0 instructions: 82000001 cycles: 113820381 heartbeat IPC: 0.697361 cumulative IPC: 0.655118 (Simulation time: 0 hr 37 min 11 sec) 
select_counter is 1019
Heartbeat CPU 0 instructions: 83000001 cycles: 115384185 heartbeat IPC: 0.639466 cumulative IPC: 0.654898 (Simulation time: 0 hr 37 min 39 sec) 
select_counter is 1015
Heartbeat CPU 0 instructions: 84000000 cycles: 116839394 heartbeat IPC: 0.687186 cumulative IPC: 0.655314 (Simulation time: 0 hr 38 min 4 sec) 
select_counter is 1018
Heartbeat CPU 0 instructions: 85000002 cycles: 118217297 heartbeat IPC: 0.725742 cumulative IPC: 0.656163 (Simulation time: 0 hr 38 min 28 sec) 
select_counter is 1019
Heartbeat CPU 0 instructions: 86000001 cycles: 119827184 heartbeat IPC: 0.621161 cumulative IPC: 0.655677 (Simulation time: 0 hr 38 min 56 sec) 
select_counter is 1020
Heartbeat CPU 0 instructions: 87000003 cycles: 121297300 heartbeat IPC: 0.68022 cumulative IPC: 0.655985 (Simulation time: 0 hr 39 min 21 sec) 
select_counter is 1011
Heartbeat CPU 0 instructions: 88000000 cycles: 122645249 heartbeat IPC: 0.741866 cumulative IPC: 0.65696 (Simulation time: 0 hr 39 min 45 sec) 
select_counter is 1023
Heartbeat CPU 0 instructions: 89000003 cycles: 124221497 heartbeat IPC: 0.63442 cumulative IPC: 0.656664 (Simulation time: 0 hr 40 min 8 sec) 
select_counter is 1019
Heartbeat CPU 0 instructions: 90000001 cycles: 125697368 heartbeat IPC: 0.677565 cumulative IPC: 0.656918 (Simulation time: 0 hr 40 min 31 sec) 
select_counter is 1021
Heartbeat CPU 0 instructions: 91000000 cycles: 127063605 heartbeat IPC: 0.731937 cumulative IPC: 0.65775 (Simulation time: 0 hr 40 min 52 sec) 
select_counter is 1018
Heartbeat CPU 0 instructions: 92000000 cycles: 128664274 heartbeat IPC: 0.624739 cumulative IPC: 0.657326 (Simulation time: 0 hr 41 min 14 sec) 
select_counter is 1020
Heartbeat CPU 0 instructions: 93000003 cycles: 130151965 heartbeat IPC: 0.672185 cumulative IPC: 0.657502 (Simulation time: 0 hr 41 min 36 sec) 
select_counter is 1022
Heartbeat CPU 0 instructions: 94000002 cycles: 131496454 heartbeat IPC: 0.743776 cumulative IPC: 0.658411 (Simulation time: 0 hr 42 min 2 sec) 
select_counter is 1022
Heartbeat CPU 0 instructions: 95000001 cycles: 133083057 heartbeat IPC: 0.630277 cumulative IPC: 0.658065 (Simulation time: 0 hr 42 min 22 sec) 
select_counter is 1021
Heartbeat CPU 0 instructions: 96000000 cycles: 134610256 heartbeat IPC: 0.654793 cumulative IPC: 0.658027 (Simulation time: 0 hr 42 min 40 sec) 
select_counter is 1013
Heartbeat CPU 0 instructions: 97000002 cycles: 135969601 heartbeat IPC: 0.73565 cumulative IPC: 0.658826 (Simulation time: 0 hr 42 min 55 sec) 
select_counter is 1020
Heartbeat CPU 0 instructions: 98000000 cycles: 137594448 heartbeat IPC: 0.615441 cumulative IPC: 0.658299 (Simulation time: 0 hr 43 min 12 sec) 
select_counter is 1021
Heartbeat CPU 0 instructions: 99000001 cycles: 139117052 heartbeat IPC: 0.65677 cumulative IPC: 0.658281 (Simulation time: 0 hr 43 min 28 sec) 
select_counter is 1018
Heartbeat CPU 0 instructions: 100000000 cycles: 140506208 heartbeat IPC: 0.719861 cumulative IPC: 0.658908 (Simulation time: 0 hr 43 min 45 sec) 
select_counter is 1023
Heartbeat CPU 0 instructions: 101000002 cycles: 142165759 heartbeat IPC: 0.602574 cumulative IPC: 0.658231 (Simulation time: 0 hr 44 min 5 sec) 
select_counter is 1016
Heartbeat CPU 0 instructions: 102000002 cycles: 143664638 heartbeat IPC: 0.667165 cumulative IPC: 0.658327 (Simulation time: 0 hr 44 min 20 sec) 
select_counter is 1023
Heartbeat CPU 0 instructions: 103000001 cycles: 145035619 heartbeat IPC: 0.729404 cumulative IPC: 0.659018 (Simulation time: 0 hr 44 min 34 sec) 
select_counter is 1019
Heartbeat CPU 0 instructions: 104000000 cycles: 146681261 heartbeat IPC: 0.607665 cumulative IPC: 0.658426 (Simulation time: 0 hr 44 min 49 sec) 
select_counter is 1021
Heartbeat CPU 0 instructions: 105000001 cycles: 148215076 heartbeat IPC: 0.65197 cumulative IPC: 0.658357 (Simulation time: 0 hr 45 min 3 sec) 
select_counter is 1020
Heartbeat CPU 0 instructions: 106000001 cycles: 149589234 heartbeat IPC: 0.727718 cumulative IPC: 0.659011 (Simulation time: 0 hr 45 min 17 sec) 
select_counter is 1021
Heartbeat CPU 0 instructions: 107000001 cycles: 151249698 heartbeat IPC: 0.602241 cumulative IPC: 0.658372 (Simulation time: 0 hr 45 min 33 sec) 
select_counter is 1020
Heartbeat CPU 0 instructions: 108000000 cycles: 152780594 heartbeat IPC: 0.653212 cumulative IPC: 0.658319 (Simulation time: 0 hr 45 min 46 sec) 
select_counter is 1022
Heartbeat CPU 0 instructions: 109000003 cycles: 154143406 heartbeat IPC: 0.733779 cumulative IPC: 0.659003 (Simulation time: 0 hr 45 min 59 sec) 
select_counter is 1019
Heartbeat CPU 0 instructions: 110000001 cycles: 155814461 heartbeat IPC: 0.598423 cumulative IPC: 0.658337 (Simulation time: 0 hr 46 min 12 sec) 
select_counter is 1022
Finished CPU 0 instructions: 100000003 cycles: 151897953 cummulative IPC: 0.658337 (Simulation time: 0 hr 46 min 12 sec) 

ChampSim completed all CPUs

Region of Interest Statistics

CPU 0 cummulative IPC: 0.658337 instructions: 100000003 cycles: 151897953
LLC TOTAL     ACCESS:    6070233  HIT:    1621317  MISS:    4448916
LLC LOAD      ACCESS:     446011  HIT:        471  MISS:     445540
LLC RFO       ACCESS:    2591740  HIT:     521619  MISS:    2070121
LLC PREFETCH  ACCESS:     440505  HIT:        538  MISS:     439967
LLC WRITEBACK ACCESS:    2591977  HIT:    1098689  MISS:    1493288
Ship samples: size is 64
13, 32, 75, 111, 133, 165, 201, 225, 257, 294, 328, 360, 390, 419, 448, 482, 522, 546, 581, 615, 648, 676, 718, 740, 780, 805, 838, 873, 900, 937, 969, 995, 1038, 1069, 1098, 1131, 1152, 1187, 1229, 1248, 1284, 1325, 1353, 1377, 1410, 1447, 1477, 1513, 1538, 1583, 1615, 1640, 1665, 1701, 1741, 1765, 1796, 1828, 1865, 1889, 1928, 1958, 1995, 2029, 
Ship duel samples: size is 128
13, 17, 32, 61, 75, 90, 111, 116, 133, 150, 165, 185, 201, 218, 225, 254, 257, 282, 294, 311, 328, 337, 360, 378, 390, 415, 419, 432, 448, 477, 482, 504, 522, 541, 546, 570, 581, 607, 615, 634, 648, 656, 676, 698, 718, 725, 740, 756, 780, 796, 805, 820, 838, 851, 873, 892, 900, 913, 937, 950, 969, 980, 995, 1019, 1038, 1040, 1069, 1083, 1098, 1110, 1131, 1150, 1152, 1177, 1187, 1204, 1229, 1232, 1248, 1266, 1284, 1303, 1325, 1336, 1353, 1372, 1377, 1395, 1410, 1434, 1447, 1461, 1477, 1493, 1513, 1525, 1538, 1556, 1583, 1592, 1615, 1629, 1640, 1656, 1665, 1692, 1701, 1713, 1741, 1751, 1765, 1780, 1796, 1821, 1828, 1854, 1865, 1878, 1889, 1904, 1928, 1936, 1958, 1981, 1995, 2015, 2029, 2043, 
Lime duel samples: size is 128
0, 27, 45, 56, 66, 87, 109, 122, 131, 144, 167, 178, 197, 219, 227, 247, 265, 286, 288, 317, 329, 341, 355, 368, 396, 411, 431, 434, 455, 471, 493, 503, 514, 538, 559, 564, 577, 604, 622, 628, 653, 661, 678, 690, 705, 729, 745, 762, 776, 794, 807, 817, 847, 859, 865, 891, 902, 912, 941, 957, 967, 986, 996, 1018, 1028, 1044, 1070, 1077, 1088, 1117, 1129, 1149, 1154, 1183, 1199, 1203, 1225, 1241, 1261, 1265, 1283, 1301, 1314, 1330, 1344, 1363, 1390, 1398, 1411, 1435, 1443, 1466, 1478, 1495, 1508, 1530, 1547, 1555, 1568, 1596, 1600, 1625, 1641, 1650, 1673, 1689, 1702, 1714, 1730, 1747, 1763, 1781, 1800, 1813, 1831, 1848, 1864, 1877, 1902, 1915, 1921, 1937, 1957, 1975, 1993, 2010, 2017, 2036, 
Lime samples: size is 15
0, 131, 265, 396, 514, 653, 776, 902, 1028, 1154, 1283, 1411, 1547, 1673, 1800, 
Insertion Distribution: 
	LOAD 0 0 0 0 0 0 1125 30460 
	RFO 7355 0 0 0 0 0 34426 134431 
	PREF 0 573 0 0 0 0 5762 27023 
	WRITEBACK 0 0 0 0 0 0 0 141374 
Total Prefetch Downgrades: 520
