
*** ChampSim Multicore Out-of-Order Simulator ***

Warmup Instructions: 10000000
Simulation Instructions: 100000000
Configuration: 2
Number of CPUs: 1
LLC sets: 2048
LLC ways: 16
Off-chip DRAM Channels: 1 Width: 64-bit Data Rate: 1600 MT/s

CPU 0 runs /datasets/cs240c-wi22-a00-public/data/Assignment2-gz/mcf_46B.trace.gz
CPU 0 L1D next line prefetcher
CPU 0 L2C IP-based stride prefetcher
Heartbeat CPU 0 instructions: 1000002 cycles: 492470 heartbeat IPC: 2.03058 cumulative IPC: 2.03058 (Simulation time: 0 hr 0 min 29 sec) 
select_counter is 764
Heartbeat CPU 0 instructions: 2000002 cycles: 987624 heartbeat IPC: 2.01957 cumulative IPC: 2.02506 (Simulation time: 0 hr 1 min 4 sec) 
select_counter is 541
Heartbeat CPU 0 instructions: 3000003 cycles: 1514632 heartbeat IPC: 1.89751 cumulative IPC: 1.98068 (Simulation time: 0 hr 1 min 44 sec) 
select_counter is 979
Heartbeat CPU 0 instructions: 4000000 cycles: 2037582 heartbeat IPC: 1.91222 cumulative IPC: 1.96311 (Simulation time: 0 hr 2 min 13 sec) 
select_counter is 431
Heartbeat CPU 0 instructions: 5000000 cycles: 2531252 heartbeat IPC: 2.02564 cumulative IPC: 1.97531 (Simulation time: 0 hr 2 min 42 sec) 
select_counter is 657
Heartbeat CPU 0 instructions: 6000002 cycles: 3034047 heartbeat IPC: 1.98889 cumulative IPC: 1.97756 (Simulation time: 0 hr 3 min 11 sec) 
select_counter is 953
Heartbeat CPU 0 instructions: 7000001 cycles: 3578697 heartbeat IPC: 1.83604 cumulative IPC: 1.95602 (Simulation time: 0 hr 3 min 39 sec) 
select_counter is 978
Heartbeat CPU 0 instructions: 8000000 cycles: 4069004 heartbeat IPC: 2.03954 cumulative IPC: 1.96608 (Simulation time: 0 hr 4 min 8 sec) 
select_counter is 491
Heartbeat CPU 0 instructions: 9000001 cycles: 4552207 heartbeat IPC: 2.06953 cumulative IPC: 1.97706 (Simulation time: 0 hr 4 min 36 sec) 
select_counter is 724
Heartbeat CPU 0 instructions: 10000001 cycles: 5088136 heartbeat IPC: 1.86592 cumulative IPC: 1.96536 (Simulation time: 0 hr 5 min 9 sec) 
select_counter is 1009

Warmup complete CPU 0 instructions: 10000001 cycles: 5088136 (Simulation time: 0 hr 5 min 9 sec) 

Heartbeat CPU 0 instructions: 11000002 cycles: 16614351 heartbeat IPC: 0.0867588 cumulative IPC: 0.0867588 (Simulation time: 0 hr 6 min 7 sec) 
select_counter is 827
Heartbeat CPU 0 instructions: 12000000 cycles: 21170692 heartbeat IPC: 0.219474 cumulative IPC: 0.124358 (Simulation time: 0 hr 6 min 44 sec) 
select_counter is 1023
Heartbeat CPU 0 instructions: 13000000 cycles: 28993124 heartbeat IPC: 0.127837 cumulative IPC: 0.125497 (Simulation time: 0 hr 7 min 34 sec) 
select_counter is 435
Heartbeat CPU 0 instructions: 14000003 cycles: 43233832 heartbeat IPC: 0.0702214 cumulative IPC: 0.104861 (Simulation time: 0 hr 8 min 31 sec) 
select_counter is 741
Heartbeat CPU 0 instructions: 15000000 cycles: 47813641 heartbeat IPC: 0.218349 cumulative IPC: 0.117026 (Simulation time: 0 hr 9 min 9 sec) 
select_counter is 153
Heartbeat CPU 0 instructions: 16000000 cycles: 52190493 heartbeat IPC: 0.228475 cumulative IPC: 0.127382 (Simulation time: 0 hr 9 min 50 sec) 
select_counter is 647
Heartbeat CPU 0 instructions: 17000002 cycles: 67302523 heartbeat IPC: 0.0661726 cumulative IPC: 0.112514 (Simulation time: 0 hr 10 min 56 sec) 
select_counter is 949
Heartbeat CPU 0 instructions: 18000001 cycles: 72974402 heartbeat IPC: 0.176308 cumulative IPC: 0.117844 (Simulation time: 0 hr 11 min 36 sec) 
select_counter is 619
Heartbeat CPU 0 instructions: 19000002 cycles: 77712101 heartbeat IPC: 0.211073 cumulative IPC: 0.123926 (Simulation time: 0 hr 12 min 21 sec) 
select_counter is 144
Heartbeat CPU 0 instructions: 20000000 cycles: 91139320 heartbeat IPC: 0.0744754 cumulative IPC: 0.11621 (Simulation time: 0 hr 13 min 18 sec) 
select_counter is 813
Heartbeat CPU 0 instructions: 21000002 cycles: 106564342 heartbeat IPC: 0.0648299 cumulative IPC: 0.1084 (Simulation time: 0 hr 14 min 17 sec) 
select_counter is 661
Heartbeat CPU 0 instructions: 22000002 cycles: 111259392 heartbeat IPC: 0.21299 cumulative IPC: 0.113025 (Simulation time: 0 hr 14 min 54 sec) 
select_counter is 695
Heartbeat CPU 0 instructions: 23000001 cycles: 115479493 heartbeat IPC: 0.236961 cumulative IPC: 0.117763 (Simulation time: 0 hr 15 min 31 sec) 
select_counter is 947
Heartbeat CPU 0 instructions: 24000000 cycles: 128427965 heartbeat IPC: 0.0772291 cumulative IPC: 0.113508 (Simulation time: 0 hr 16 min 24 sec) 
select_counter is 1019
Heartbeat CPU 0 instructions: 25000002 cycles: 136293331 heartbeat IPC: 0.12714 cumulative IPC: 0.114325 (Simulation time: 0 hr 17 min 13 sec) 
select_counter is 541
Heartbeat CPU 0 instructions: 26000001 cycles: 140505262 heartbeat IPC: 0.237421 cumulative IPC: 0.118153 (Simulation time: 0 hr 17 min 53 sec) 
select_counter is 687
Heartbeat CPU 0 instructions: 27000000 cycles: 150284668 heartbeat IPC: 0.102256 cumulative IPC: 0.117083 (Simulation time: 0 hr 18 min 40 sec) 
select_counter is 688
Heartbeat CPU 0 instructions: 28000000 cycles: 161388017 heartbeat IPC: 0.0900629 cumulative IPC: 0.115163 (Simulation time: 0 hr 19 min 32 sec) 
select_counter is 755
Heartbeat CPU 0 instructions: 29000001 cycles: 166035726 heartbeat IPC: 0.21516 cumulative IPC: 0.118051 (Simulation time: 0 hr 20 min 12 sec) 
select_counter is 100
Heartbeat CPU 0 instructions: 30000000 cycles: 173561705 heartbeat IPC: 0.132873 cumulative IPC: 0.118713 (Simulation time: 0 hr 21 min 3 sec) 
select_counter is 817
Heartbeat CPU 0 instructions: 31000002 cycles: 186970534 heartbeat IPC: 0.0745779 cumulative IPC: 0.115459 (Simulation time: 0 hr 22 min 0 sec) 
select_counter is 869
Heartbeat CPU 0 instructions: 32000000 cycles: 191621881 heartbeat IPC: 0.214991 cumulative IPC: 0.117941 (Simulation time: 0 hr 22 min 49 sec) 
select_counter is 961
Heartbeat CPU 0 instructions: 33000000 cycles: 198293646 heartbeat IPC: 0.149885 cumulative IPC: 0.119044 (Simulation time: 0 hr 23 min 31 sec) 
select_counter is 646
Heartbeat CPU 0 instructions: 34000000 cycles: 212931938 heartbeat IPC: 0.068314 cumulative IPC: 0.115471 (Simulation time: 0 hr 24 min 29 sec) 
select_counter is 871
Heartbeat CPU 0 instructions: 35000000 cycles: 219333107 heartbeat IPC: 0.156221 cumulative IPC: 0.116689 (Simulation time: 0 hr 25 min 13 sec) 
select_counter is 976
Heartbeat CPU 0 instructions: 36000000 cycles: 226037743 heartbeat IPC: 0.149151 cumulative IPC: 0.117674 (Simulation time: 0 hr 25 min 58 sec) 
select_counter is 517
Heartbeat CPU 0 instructions: 37000002 cycles: 235941412 heartbeat IPC: 0.100973 cumulative IPC: 0.116957 (Simulation time: 0 hr 26 min 50 sec) 
select_counter is 1022
Heartbeat CPU 0 instructions: 38000001 cycles: 246936791 heartbeat IPC: 0.0909472 cumulative IPC: 0.115775 (Simulation time: 0 hr 27 min 53 sec) 
select_counter is 654
Heartbeat CPU 0 instructions: 39000000 cycles: 251362122 heartbeat IPC: 0.225972 cumulative IPC: 0.117755 (Simulation time: 0 hr 28 min 33 sec) 
select_counter is 875
Heartbeat CPU 0 instructions: 40000000 cycles: 257619185 heartbeat IPC: 0.159819 cumulative IPC: 0.118797 (Simulation time: 0 hr 29 min 19 sec) 
select_counter is 317
Heartbeat CPU 0 instructions: 41000000 cycles: 272662958 heartbeat IPC: 0.0664727 cumulative IPC: 0.115855 (Simulation time: 0 hr 30 min 29 sec) 
select_counter is 939
Heartbeat CPU 0 instructions: 42000001 cycles: 277750915 heartbeat IPC: 0.196543 cumulative IPC: 0.117361 (Simulation time: 0 hr 31 min 10 sec) 
select_counter is 38
Heartbeat CPU 0 instructions: 43000000 cycles: 282309375 heartbeat IPC: 0.219372 cumulative IPC: 0.119038 (Simulation time: 0 hr 31 min 54 sec) 
select_counter is 218
Heartbeat CPU 0 instructions: 44000000 cycles: 295478969 heartbeat IPC: 0.0759325 cumulative IPC: 0.117084 (Simulation time: 0 hr 33 min 7 sec) 
select_counter is 1017
Heartbeat CPU 0 instructions: 45000001 cycles: 303170996 heartbeat IPC: 0.130005 cumulative IPC: 0.117417 (Simulation time: 0 hr 33 min 58 sec) 
select_counter is 444
Heartbeat CPU 0 instructions: 46000001 cycles: 307747341 heartbeat IPC: 0.218515 cumulative IPC: 0.118946 (Simulation time: 0 hr 34 min 37 sec) 
select_counter is 603
Heartbeat CPU 0 instructions: 47000002 cycles: 317117186 heartbeat IPC: 0.106725 cumulative IPC: 0.118579 (Simulation time: 0 hr 35 min 26 sec) 
select_counter is 1013
Heartbeat CPU 0 instructions: 48000000 cycles: 328654030 heartbeat IPC: 0.0866786 cumulative IPC: 0.117441 (Simulation time: 0 hr 36 min 19 sec) 
select_counter is 726
Heartbeat CPU 0 instructions: 49000000 cycles: 333545495 heartbeat IPC: 0.204438 cumulative IPC: 0.118737 (Simulation time: 0 hr 36 min 55 sec) 
select_counter is 51
Heartbeat CPU 0 instructions: 50000001 cycles: 340198968 heartbeat IPC: 0.150298 cumulative IPC: 0.119363 (Simulation time: 0 hr 37 min 35 sec) 
select_counter is 298
Heartbeat CPU 0 instructions: 51000001 cycles: 354782234 heartbeat IPC: 0.0685717 cumulative IPC: 0.117245 (Simulation time: 0 hr 38 min 36 sec) 
select_counter is 806
Heartbeat CPU 0 instructions: 52000000 cycles: 359695044 heartbeat IPC: 0.203549 cumulative IPC: 0.118441 (Simulation time: 0 hr 39 min 14 sec) 
select_counter is 875
Heartbeat CPU 0 instructions: 53000000 cycles: 364179657 heartbeat IPC: 0.222985 cumulative IPC: 0.119747 (Simulation time: 0 hr 39 min 50 sec) 
select_counter is 1017
Heartbeat CPU 0 instructions: 54000002 cycles: 379700118 heartbeat IPC: 0.0644312 cumulative IPC: 0.117455 (Simulation time: 0 hr 40 min 46 sec) 
select_counter is 1018
Heartbeat CPU 0 instructions: 55000002 cycles: 385177149 heartbeat IPC: 0.182581 cumulative IPC: 0.118393 (Simulation time: 0 hr 41 min 27 sec) 
select_counter is 875
Heartbeat CPU 0 instructions: 56000000 cycles: 389819121 heartbeat IPC: 0.215425 cumulative IPC: 0.119564 (Simulation time: 0 hr 41 min 56 sec) 
select_counter is 768
Heartbeat CPU 0 instructions: 57000000 cycles: 403114350 heartbeat IPC: 0.075215 cumulative IPC: 0.118083 (Simulation time: 0 hr 42 min 40 sec) 
select_counter is 1016
Heartbeat CPU 0 instructions: 58000000 cycles: 410785922 heartbeat IPC: 0.130351 cumulative IPC: 0.118315 (Simulation time: 0 hr 43 min 8 sec) 
select_counter is 490
Heartbeat CPU 0 instructions: 59000002 cycles: 415387249 heartbeat IPC: 0.217329 cumulative IPC: 0.119425 (Simulation time: 0 hr 43 min 31 sec) 
select_counter is 595
Heartbeat CPU 0 instructions: 60000000 cycles: 427098016 heartbeat IPC: 0.0853913 cumulative IPC: 0.118481 (Simulation time: 0 hr 44 min 4 sec) 
select_counter is 1017
Heartbeat CPU 0 instructions: 61000002 cycles: 436885324 heartbeat IPC: 0.102173 cumulative IPC: 0.118111 (Simulation time: 0 hr 44 min 32 sec) 
select_counter is 648
Heartbeat CPU 0 instructions: 62000001 cycles: 441490829 heartbeat IPC: 0.217131 cumulative IPC: 0.119156 (Simulation time: 0 hr 44 min 53 sec) 
select_counter is 731
Heartbeat CPU 0 instructions: 63000001 cycles: 451547792 heartbeat IPC: 0.0994336 cumulative IPC: 0.118712 (Simulation time: 0 hr 45 min 20 sec) 
select_counter is 348
Heartbeat CPU 0 instructions: 64000000 cycles: 463095839 heartbeat IPC: 0.0865946 cumulative IPC: 0.117902 (Simulation time: 0 hr 45 min 48 sec) 
select_counter is 685
Heartbeat CPU 0 instructions: 65000002 cycles: 468717874 heartbeat IPC: 0.177872 cumulative IPC: 0.118629 (Simulation time: 0 hr 46 min 11 sec) 
select_counter is 118
Heartbeat CPU 0 instructions: 66000000 cycles: 475637253 heartbeat IPC: 0.144521 cumulative IPC: 0.11901 (Simulation time: 0 hr 46 min 30 sec) 
select_counter is 554
Heartbeat CPU 0 instructions: 67000002 cycles: 491517496 heartbeat IPC: 0.0629715 cumulative IPC: 0.11718 (Simulation time: 0 hr 47 min 1 sec) 
select_counter is 996
Heartbeat CPU 0 instructions: 68000000 cycles: 496449813 heartbeat IPC: 0.202744 cumulative IPC: 0.118039 (Simulation time: 0 hr 47 min 17 sec) 
select_counter is 291
Heartbeat CPU 0 instructions: 69000000 cycles: 500936191 heartbeat IPC: 0.222897 cumulative IPC: 0.118988 (Simulation time: 0 hr 47 min 29 sec) 
select_counter is 392
Heartbeat CPU 0 instructions: 70000002 cycles: 515163429 heartbeat IPC: 0.0702879 cumulative IPC: 0.11763 (Simulation time: 0 hr 47 min 48 sec) 
select_counter is 968
Heartbeat CPU 0 instructions: 71000002 cycles: 524162061 heartbeat IPC: 0.111128 cumulative IPC: 0.117517 (Simulation time: 0 hr 48 min 1 sec) 
select_counter is 621
Heartbeat CPU 0 instructions: 72000000 cycles: 529146237 heartbeat IPC: 0.200635 cumulative IPC: 0.118307 (Simulation time: 0 hr 48 min 9 sec) 
select_counter is 1000
Heartbeat CPU 0 instructions: 73000002 cycles: 538362510 heartbeat IPC: 0.108504 cumulative IPC: 0.118138 (Simulation time: 0 hr 48 min 18 sec) 
select_counter is 618
Heartbeat CPU 0 instructions: 74000001 cycles: 550542113 heartbeat IPC: 0.0821044 cumulative IPC: 0.117333 (Simulation time: 0 hr 48 min 26 sec) 
select_counter is 749
Heartbeat CPU 0 instructions: 75000001 cycles: 555467551 heartbeat IPC: 0.203028 cumulative IPC: 0.1181 (Simulation time: 0 hr 48 min 32 sec) 
select_counter is 828
Heartbeat CPU 0 instructions: 76000000 cycles: 561759056 heartbeat IPC: 0.158944 cumulative IPC: 0.118562 (Simulation time: 0 hr 48 min 37 sec) 
select_counter is 233
Heartbeat CPU 0 instructions: 77000001 cycles: 577742607 heartbeat IPC: 0.0625644 cumulative IPC: 0.116999 (Simulation time: 0 hr 48 min 45 sec) 
select_counter is 1020
Heartbeat CPU 0 instructions: 78000002 cycles: 582863117 heartbeat IPC: 0.195293 cumulative IPC: 0.117693 (Simulation time: 0 hr 48 min 49 sec) 
select_counter is 904
Heartbeat CPU 0 instructions: 79000001 cycles: 587501283 heartbeat IPC: 0.215602 cumulative IPC: 0.118473 (Simulation time: 0 hr 48 min 54 sec) 
select_counter is 998
Heartbeat CPU 0 instructions: 80000000 cycles: 600659988 heartbeat IPC: 0.0759952 cumulative IPC: 0.117534 (Simulation time: 0 hr 49 min 0 sec) 
select_counter is 1019
Heartbeat CPU 0 instructions: 81000000 cycles: 608423788 heartbeat IPC: 0.128803 cumulative IPC: 0.117679 (Simulation time: 0 hr 49 min 6 sec) 
select_counter is 446
Heartbeat CPU 0 instructions: 82000000 cycles: 613606425 heartbeat IPC: 0.192952 cumulative IPC: 0.11832 (Simulation time: 0 hr 49 min 10 sec) 
select_counter is 714
Heartbeat CPU 0 instructions: 83000001 cycles: 623370389 heartbeat IPC: 0.102418 cumulative IPC: 0.118069 (Simulation time: 0 hr 49 min 16 sec) 
select_counter is 998
Heartbeat CPU 0 instructions: 84000000 cycles: 635094119 heartbeat IPC: 0.085297 cumulative IPC: 0.117459 (Simulation time: 0 hr 49 min 22 sec) 
select_counter is 647
Heartbeat CPU 0 instructions: 85000001 cycles: 639806225 heartbeat IPC: 0.21222 cumulative IPC: 0.118163 (Simulation time: 0 hr 49 min 26 sec) 
select_counter is 690
Heartbeat CPU 0 instructions: 86000000 cycles: 648058419 heartbeat IPC: 0.12118 cumulative IPC: 0.118201 (Simulation time: 0 hr 49 min 32 sec) 
select_counter is 639
Heartbeat CPU 0 instructions: 87000000 cycles: 662658350 heartbeat IPC: 0.0684935 cumulative IPC: 0.117098 (Simulation time: 0 hr 49 min 39 sec) 
select_counter is 954
Heartbeat CPU 0 instructions: 88000000 cycles: 669281305 heartbeat IPC: 0.15099 cumulative IPC: 0.117436 (Simulation time: 0 hr 49 min 44 sec) 
select_counter is 175
Heartbeat CPU 0 instructions: 89000000 cycles: 673894183 heartbeat IPC: 0.216784 cumulative IPC: 0.118121 (Simulation time: 0 hr 49 min 49 sec) 
select_counter is 181
Heartbeat CPU 0 instructions: 90000003 cycles: 685781837 heartbeat IPC: 0.0841211 cumulative IPC: 0.117527 (Simulation time: 0 hr 49 min 55 sec) 
select_counter is 1015
Heartbeat CPU 0 instructions: 91000000 cycles: 694844051 heartbeat IPC: 0.110348 cumulative IPC: 0.117433 (Simulation time: 0 hr 50 min 1 sec) 
select_counter is 729
Heartbeat CPU 0 instructions: 92000000 cycles: 699346352 heartbeat IPC: 0.222109 cumulative IPC: 0.118112 (Simulation time: 0 hr 50 min 5 sec) 
select_counter is 852
Heartbeat CPU 0 instructions: 93000002 cycles: 708555773 heartbeat IPC: 0.108585 cumulative IPC: 0.117987 (Simulation time: 0 hr 50 min 11 sec) 
select_counter is 717
Heartbeat CPU 0 instructions: 94000002 cycles: 720082352 heartbeat IPC: 0.086756 cumulative IPC: 0.117483 (Simulation time: 0 hr 50 min 17 sec) 
select_counter is 630
Heartbeat CPU 0 instructions: 95000001 cycles: 726100003 heartbeat IPC: 0.166178 cumulative IPC: 0.11789 (Simulation time: 0 hr 50 min 22 sec) 
select_counter is 920
Heartbeat CPU 0 instructions: 96000000 cycles: 731938210 heartbeat IPC: 0.171285 cumulative IPC: 0.118319 (Simulation time: 0 hr 50 min 27 sec) 
select_counter is 1018
Heartbeat CPU 0 instructions: 97000000 cycles: 747048528 heartbeat IPC: 0.0661799 cumulative IPC: 0.117257 (Simulation time: 0 hr 50 min 34 sec) 
select_counter is 977
Heartbeat CPU 0 instructions: 98000002 cycles: 752024825 heartbeat IPC: 0.200953 cumulative IPC: 0.117815 (Simulation time: 0 hr 50 min 39 sec) 
select_counter is 920
Heartbeat CPU 0 instructions: 99000002 cycles: 757046260 heartbeat IPC: 0.199146 cumulative IPC: 0.118358 (Simulation time: 0 hr 50 min 43 sec) 
select_counter is 94
Heartbeat CPU 0 instructions: 100000000 cycles: 771045143 heartbeat IPC: 0.0714341 cumulative IPC: 0.1175 (Simulation time: 0 hr 50 min 50 sec) 
select_counter is 1014
Heartbeat CPU 0 instructions: 101000000 cycles: 778060246 heartbeat IPC: 0.14255 cumulative IPC: 0.117727 (Simulation time: 0 hr 50 min 55 sec) 
select_counter is 32
Heartbeat CPU 0 instructions: 102000003 cycles: 782632957 heartbeat IPC: 0.218689 cumulative IPC: 0.118321 (Simulation time: 0 hr 51 min 0 sec) 
select_counter is 979
Heartbeat CPU 0 instructions: 103000003 cycles: 794806790 heartbeat IPC: 0.0821434 cumulative IPC: 0.117763 (Simulation time: 0 hr 51 min 6 sec) 
select_counter is 980
Heartbeat CPU 0 instructions: 104000000 cycles: 806468140 heartbeat IPC: 0.0857531 cumulative IPC: 0.117298 (Simulation time: 0 hr 51 min 12 sec) 
select_counter is 602
Heartbeat CPU 0 instructions: 105000000 cycles: 811576470 heartbeat IPC: 0.195759 cumulative IPC: 0.117795 (Simulation time: 0 hr 51 min 17 sec) 
select_counter is 634
Heartbeat CPU 0 instructions: 106000000 cycles: 816180977 heartbeat IPC: 0.217179 cumulative IPC: 0.118359 (Simulation time: 0 hr 51 min 21 sec) 
select_counter is 544
Heartbeat CPU 0 instructions: 107000002 cycles: 831947823 heartbeat IPC: 0.0634244 cumulative IPC: 0.117311 (Simulation time: 0 hr 51 min 29 sec) 
select_counter is 500
Heartbeat CPU 0 instructions: 108000000 cycles: 837635875 heartbeat IPC: 0.175807 cumulative IPC: 0.117711 (Simulation time: 0 hr 51 min 33 sec) 
select_counter is 746
Heartbeat CPU 0 instructions: 109000001 cycles: 842346781 heartbeat IPC: 0.212274 cumulative IPC: 0.118243 (Simulation time: 0 hr 51 min 38 sec) 
select_counter is 649
Heartbeat CPU 0 instructions: 110000002 cycles: 852127180 heartbeat IPC: 0.102245 cumulative IPC: 0.118058 (Simulation time: 0 hr 51 min 44 sec) 
select_counter is 302
Finished CPU 0 instructions: 100000001 cycles: 847039044 cummulative IPC: 0.118058 (Simulation time: 0 hr 51 min 44 sec) 

ChampSim completed all CPUs

Region of Interest Statistics

CPU 0 cummulative IPC: 0.118058 instructions: 100000001 cycles: 847039044
LLC TOTAL     ACCESS:   18775440  HIT:    7408458  MISS:   11366982
LLC LOAD      ACCESS:    8475368  HIT:    3998155  MISS:    4477213
LLC RFO       ACCESS:     206396  HIT:     106050  MISS:     100346
LLC PREFETCH  ACCESS:    7985774  HIT:    2020651  MISS:    5965123
LLC WRITEBACK ACCESS:    2107902  HIT:    1283602  MISS:     824300
Ship samples: size is 64
14, 32, 70, 105, 142, 173, 197, 233, 268, 301, 322, 358, 388, 431, 457, 488, 515, 556, 578, 613, 655, 673, 704, 751, 780, 814, 846, 870, 907, 929, 972, 1004, 1032, 1060, 1101, 1133, 1158, 1199, 1217, 1260, 1289, 1324, 1358, 1382, 1410, 1450, 1483, 1513, 1536, 1572, 1610, 1636, 1664, 1703, 1737, 1769, 1794, 1824, 1864, 1899, 1927, 1964, 1990, 2026, 
Ship duel samples: size is 128
14, 28, 32, 52, 70, 90, 105, 124, 142, 154, 173, 176, 197, 222, 233, 250, 268, 273, 301, 306, 322, 338, 358, 376, 388, 406, 431, 447, 457, 470, 488, 504, 515, 536, 556, 569, 578, 597, 613, 625, 655, 658, 673, 693, 704, 730, 751, 764, 780, 796, 814, 830, 846, 852, 870, 882, 907, 917, 929, 948, 972, 985, 1004, 1023, 1032, 1048, 1060, 1085, 1101, 1109, 1133, 1151, 1158, 1170, 1199, 1200, 1217, 1243, 1260, 1277, 1289, 1306, 1324, 1329, 1358, 1369, 1382, 1392, 1410, 1433, 1450, 1457, 1483, 1490, 1513, 1535, 1536, 1558, 1572, 1597, 1610, 1631, 1636, 1658, 1664, 1695, 1703, 1725, 1737, 1745, 1769, 1783, 1794, 1816, 1824, 1849, 1864, 1885, 1899, 1905, 1927, 1949, 1964, 1978, 1990, 2011, 2026, 2045, 
Lime duel samples: size is 128
4, 26, 42, 58, 78, 92, 106, 125, 141, 150, 164, 183, 203, 215, 230, 254, 256, 278, 294, 307, 328, 348, 357, 382, 387, 412, 425, 435, 458, 475, 492, 511, 517, 535, 553, 563, 579, 596, 609, 624, 650, 661, 680, 694, 717, 734, 740, 765, 773, 794, 800, 829, 838, 853, 875, 890, 898, 916, 941, 956, 960, 986, 1003, 1013, 1025, 1045, 1065, 1076, 1097, 1114, 1124, 1139, 1167, 1180, 1193, 1212, 1227, 1245, 1257, 1264, 1288, 1305, 1325, 1342, 1359, 1368, 1384, 1393, 1421, 1430, 1453, 1469, 1472, 1497, 1506, 1521, 1550, 1563, 1573, 1591, 1605, 1625, 1642, 1653, 1670, 1684, 1697, 1713, 1729, 1755, 1761, 1785, 1796, 1822, 1832, 1843, 1862, 1872, 1892, 1907, 1926, 1938, 1952, 1974, 1995, 2003, 2023, 2041, 
Lime samples: size is 15
4, 141, 256, 387, 517, 650, 773, 898, 1025, 1167, 1288, 1421, 1550, 1670, 1796, 
Insertion Distribution: 
	LOAD 175755 0 0 0 0 0 103170 729740 
	RFO 9403 0 0 0 0 0 5803 13871 
	PREF 0 401208 0 0 0 0 318518 1202013 
	WRITEBACK 0 0 0 0 0 0 0 138984 
Total Prefetch Downgrades: 392208
