
*** ChampSim Multicore Out-of-Order Simulator ***

Warmup Instructions: 10000000
Simulation Instructions: 100000000
Configuration: 2
Number of CPUs: 1
LLC sets: 2048
LLC ways: 16
Off-chip DRAM Channels: 1 Width: 64-bit Data Rate: 1600 MT/s

CPU 0 runs /datasets/cs240c-wi22-a00-public/data/Assignment2-gz/GemsFDTD_716B.trace.gz
CPU 0 L1D next line prefetcher
CPU 0 L2C IP-based stride prefetcher
Heartbeat CPU 0 instructions: 1000000 cycles: 415045 heartbeat IPC: 2.40938 cumulative IPC: 2.40938 (Simulation time: 0 hr 0 min 21 sec) 
select_counter is 511
Heartbeat CPU 0 instructions: 2000003 cycles: 829979 heartbeat IPC: 2.41003 cumulative IPC: 2.4097 (Simulation time: 0 hr 0 min 43 sec) 
select_counter is 511
Heartbeat CPU 0 instructions: 3000000 cycles: 1280248 heartbeat IPC: 2.22089 cumulative IPC: 2.3433 (Simulation time: 0 hr 1 min 7 sec) 
select_counter is 983
Heartbeat CPU 0 instructions: 4000000 cycles: 1737277 heartbeat IPC: 2.18805 cumulative IPC: 2.30245 (Simulation time: 0 hr 1 min 27 sec) 
select_counter is 899
Heartbeat CPU 0 instructions: 5000000 cycles: 2152258 heartbeat IPC: 2.40975 cumulative IPC: 2.32314 (Simulation time: 0 hr 1 min 54 sec) 
select_counter is 904
Heartbeat CPU 0 instructions: 6000000 cycles: 2567274 heartbeat IPC: 2.40955 cumulative IPC: 2.33711 (Simulation time: 0 hr 2 min 14 sec) 
select_counter is 924
Heartbeat CPU 0 instructions: 7000000 cycles: 2982277 heartbeat IPC: 2.40962 cumulative IPC: 2.3472 (Simulation time: 0 hr 2 min 34 sec) 
select_counter is 941
Heartbeat CPU 0 instructions: 8000000 cycles: 3395204 heartbeat IPC: 2.42174 cumulative IPC: 2.35626 (Simulation time: 0 hr 2 min 56 sec) 
select_counter is 966
Heartbeat CPU 0 instructions: 9000003 cycles: 3840509 heartbeat IPC: 2.24566 cumulative IPC: 2.34344 (Simulation time: 0 hr 3 min 22 sec) 
select_counter is 769
Heartbeat CPU 0 instructions: 10000002 cycles: 4355331 heartbeat IPC: 1.94242 cumulative IPC: 2.29604 (Simulation time: 0 hr 3 min 50 sec) 
select_counter is 931

Warmup complete CPU 0 instructions: 10000002 cycles: 4355331 (Simulation time: 0 hr 3 min 50 sec) 

Heartbeat CPU 0 instructions: 11000000 cycles: 7847378 heartbeat IPC: 0.286364 cumulative IPC: 0.286364 (Simulation time: 0 hr 4 min 33 sec) 
select_counter is 651
Heartbeat CPU 0 instructions: 12000000 cycles: 11346716 heartbeat IPC: 0.285768 cumulative IPC: 0.286066 (Simulation time: 0 hr 5 min 18 sec) 
select_counter is 176
Heartbeat CPU 0 instructions: 13000000 cycles: 14835816 heartbeat IPC: 0.286607 cumulative IPC: 0.286246 (Simulation time: 0 hr 6 min 4 sec) 
select_counter is 526
Heartbeat CPU 0 instructions: 14000000 cycles: 18549759 heartbeat IPC: 0.269256 cumulative IPC: 0.281801 (Simulation time: 0 hr 6 min 51 sec) 
select_counter is 734
Heartbeat CPU 0 instructions: 15000000 cycles: 22397384 heartbeat IPC: 0.259901 cumulative IPC: 0.27713 (Simulation time: 0 hr 7 min 35 sec) 
select_counter is 706
Heartbeat CPU 0 instructions: 16000000 cycles: 26184436 heartbeat IPC: 0.264058 cumulative IPC: 0.274862 (Simulation time: 0 hr 8 min 21 sec) 
select_counter is 363
Heartbeat CPU 0 instructions: 17000002 cycles: 29944512 heartbeat IPC: 0.265953 cumulative IPC: 0.273553 (Simulation time: 0 hr 9 min 2 sec) 
select_counter is 671
Heartbeat CPU 0 instructions: 18000003 cycles: 33709568 heartbeat IPC: 0.265601 cumulative IPC: 0.272533 (Simulation time: 0 hr 9 min 47 sec) 
select_counter is 477
Heartbeat CPU 0 instructions: 19000000 cycles: 37495148 heartbeat IPC: 0.26416 cumulative IPC: 0.271577 (Simulation time: 0 hr 10 min 33 sec) 
select_counter is 766
Heartbeat CPU 0 instructions: 20000000 cycles: 40364296 heartbeat IPC: 0.348536 cumulative IPC: 0.277709 (Simulation time: 0 hr 11 min 26 sec) 
select_counter is 524
Heartbeat CPU 0 instructions: 21000000 cycles: 42855148 heartbeat IPC: 0.401469 cumulative IPC: 0.285716 (Simulation time: 0 hr 12 min 11 sec) 
select_counter is 102
Heartbeat CPU 0 instructions: 22000000 cycles: 45279696 heartbeat IPC: 0.412448 cumulative IPC: 0.293224 (Simulation time: 0 hr 12 min 49 sec) 
select_counter is 285
Heartbeat CPU 0 instructions: 23000002 cycles: 47700842 heartbeat IPC: 0.413028 cumulative IPC: 0.299916 (Simulation time: 0 hr 13 min 32 sec) 
select_counter is 54
Heartbeat CPU 0 instructions: 24000000 cycles: 50164321 heartbeat IPC: 0.405929 cumulative IPC: 0.305617 (Simulation time: 0 hr 14 min 19 sec) 
select_counter is 894
Heartbeat CPU 0 instructions: 25000002 cycles: 52690530 heartbeat IPC: 0.395851 cumulative IPC: 0.310333 (Simulation time: 0 hr 14 min 54 sec) 
select_counter is 622
Heartbeat CPU 0 instructions: 26000002 cycles: 54882515 heartbeat IPC: 0.456208 cumulative IPC: 0.316661 (Simulation time: 0 hr 15 min 28 sec) 
select_counter is 870
Heartbeat CPU 0 instructions: 27000002 cycles: 57028748 heartbeat IPC: 0.465933 cumulative IPC: 0.322743 (Simulation time: 0 hr 16 min 4 sec) 
select_counter is 425
Heartbeat CPU 0 instructions: 28000000 cycles: 59079444 heartbeat IPC: 0.487638 cumulative IPC: 0.328923 (Simulation time: 0 hr 16 min 39 sec) 
select_counter is 666
Heartbeat CPU 0 instructions: 29000003 cycles: 61196454 heartbeat IPC: 0.472366 cumulative IPC: 0.334265 (Simulation time: 0 hr 17 min 15 sec) 
select_counter is 223
Heartbeat CPU 0 instructions: 30000001 cycles: 63324742 heartbeat IPC: 0.46986 cumulative IPC: 0.339159 (Simulation time: 0 hr 17 min 51 sec) 
select_counter is 645
Heartbeat CPU 0 instructions: 31000002 cycles: 65040584 heartbeat IPC: 0.582805 cumulative IPC: 0.346048 (Simulation time: 0 hr 18 min 24 sec) 
select_counter is 1008
Heartbeat CPU 0 instructions: 32000000 cycles: 66610179 heartbeat IPC: 0.637106 cumulative IPC: 0.353386 (Simulation time: 0 hr 19 min 5 sec) 
select_counter is 675
Heartbeat CPU 0 instructions: 33000000 cycles: 68174092 heartbeat IPC: 0.639422 cumulative IPC: 0.360396 (Simulation time: 0 hr 19 min 38 sec) 
select_counter is 549
Heartbeat CPU 0 instructions: 34000001 cycles: 69765023 heartbeat IPC: 0.628563 cumulative IPC: 0.366918 (Simulation time: 0 hr 20 min 11 sec) 
select_counter is 465
Heartbeat CPU 0 instructions: 35000001 cycles: 71364414 heartbeat IPC: 0.625238 cumulative IPC: 0.373084 (Simulation time: 0 hr 20 min 45 sec) 
select_counter is 457
Heartbeat CPU 0 instructions: 36000000 cycles: 73042745 heartbeat IPC: 0.595829 cumulative IPC: 0.378526 (Simulation time: 0 hr 21 min 19 sec) 
select_counter is 31
Heartbeat CPU 0 instructions: 37000002 cycles: 74883043 heartbeat IPC: 0.543391 cumulative IPC: 0.382828 (Simulation time: 0 hr 21 min 52 sec) 
select_counter is 707
Heartbeat CPU 0 instructions: 38000002 cycles: 76485960 heartbeat IPC: 0.623863 cumulative IPC: 0.388185 (Simulation time: 0 hr 22 min 25 sec) 
select_counter is 760
Heartbeat CPU 0 instructions: 39000000 cycles: 78132603 heartbeat IPC: 0.607295 cumulative IPC: 0.393075 (Simulation time: 0 hr 22 min 59 sec) 
select_counter is 823
Heartbeat CPU 0 instructions: 40000000 cycles: 79753846 heartbeat IPC: 0.616811 cumulative IPC: 0.397886 (Simulation time: 0 hr 23 min 32 sec) 
select_counter is 824
Heartbeat CPU 0 instructions: 41000003 cycles: 81353883 heartbeat IPC: 0.624987 cumulative IPC: 0.402605 (Simulation time: 0 hr 24 min 5 sec) 
select_counter is 195
Heartbeat CPU 0 instructions: 42000000 cycles: 82926672 heartbeat IPC: 0.635811 cumulative IPC: 0.407273 (Simulation time: 0 hr 24 min 36 sec) 
select_counter is 996
Heartbeat CPU 0 instructions: 43000002 cycles: 85971846 heartbeat IPC: 0.328389 cumulative IPC: 0.40433 (Simulation time: 0 hr 25 min 15 sec) 
select_counter is 146
Heartbeat CPU 0 instructions: 44000000 cycles: 89458189 heartbeat IPC: 0.286833 cumulative IPC: 0.399517 (Simulation time: 0 hr 25 min 58 sec) 
select_counter is 780
Heartbeat CPU 0 instructions: 45000003 cycles: 92938243 heartbeat IPC: 0.287353 cumulative IPC: 0.39511 (Simulation time: 0 hr 26 min 47 sec) 
select_counter is 481
Heartbeat CPU 0 instructions: 46000000 cycles: 96436472 heartbeat IPC: 0.285858 cumulative IPC: 0.39096 (Simulation time: 0 hr 27 min 35 sec) 
select_counter is 850
Heartbeat CPU 0 instructions: 47000000 cycles: 99927098 heartbeat IPC: 0.286482 cumulative IPC: 0.387144 (Simulation time: 0 hr 28 min 23 sec) 
select_counter is 986
Heartbeat CPU 0 instructions: 48000000 cycles: 103707283 heartbeat IPC: 0.264537 cumulative IPC: 0.382479 (Simulation time: 0 hr 29 min 12 sec) 
select_counter is 255
Heartbeat CPU 0 instructions: 49000000 cycles: 107423966 heartbeat IPC: 0.269057 cumulative IPC: 0.378389 (Simulation time: 0 hr 29 min 59 sec) 
select_counter is 669
Heartbeat CPU 0 instructions: 50000001 cycles: 111173706 heartbeat IPC: 0.266685 cumulative IPC: 0.374467 (Simulation time: 0 hr 30 min 51 sec) 
select_counter is 220
Heartbeat CPU 0 instructions: 51000000 cycles: 114909600 heartbeat IPC: 0.267673 cumulative IPC: 0.370859 (Simulation time: 0 hr 31 min 44 sec) 
select_counter is 415
Heartbeat CPU 0 instructions: 52000000 cycles: 118679644 heartbeat IPC: 0.265249 cumulative IPC: 0.367376 (Simulation time: 0 hr 32 min 35 sec) 
select_counter is 900
Heartbeat CPU 0 instructions: 53000000 cycles: 122516446 heartbeat IPC: 0.260634 cumulative IPC: 0.36391 (Simulation time: 0 hr 33 min 23 sec) 
select_counter is 276
Heartbeat CPU 0 instructions: 54000001 cycles: 124578951 heartbeat IPC: 0.484848 cumulative IPC: 0.365985 (Simulation time: 0 hr 34 min 1 sec) 
select_counter is 873
Heartbeat CPU 0 instructions: 55000000 cycles: 126654609 heartbeat IPC: 0.481774 cumulative IPC: 0.36795 (Simulation time: 0 hr 34 min 41 sec) 
select_counter is 529
Heartbeat CPU 0 instructions: 56000000 cycles: 128787383 heartbeat IPC: 0.468873 cumulative IPC: 0.36968 (Simulation time: 0 hr 35 min 24 sec) 
select_counter is 934
Heartbeat CPU 0 instructions: 57000002 cycles: 130908086 heartbeat IPC: 0.471543 cumulative IPC: 0.371387 (Simulation time: 0 hr 36 min 1 sec) 
select_counter is 883
Heartbeat CPU 0 instructions: 58000001 cycles: 132966235 heartbeat IPC: 0.485873 cumulative IPC: 0.373219 (Simulation time: 0 hr 36 min 37 sec) 
select_counter is 254
Heartbeat CPU 0 instructions: 59000002 cycles: 135014637 heartbeat IPC: 0.488186 cumulative IPC: 0.375021 (Simulation time: 0 hr 37 min 21 sec) 
select_counter is 526
Heartbeat CPU 0 instructions: 60000000 cycles: 136856750 heartbeat IPC: 0.542854 cumulative IPC: 0.377354 (Simulation time: 0 hr 38 min 3 sec) 
select_counter is 611
Heartbeat CPU 0 instructions: 61000002 cycles: 138701659 heartbeat IPC: 0.542033 cumulative IPC: 0.379616 (Simulation time: 0 hr 38 min 40 sec) 
select_counter is 180
Heartbeat CPU 0 instructions: 62000000 cycles: 140546065 heartbeat IPC: 0.542179 cumulative IPC: 0.381817 (Simulation time: 0 hr 39 min 16 sec) 
select_counter is 934
Heartbeat CPU 0 instructions: 63000000 cycles: 142421163 heartbeat IPC: 0.533305 cumulative IPC: 0.383875 (Simulation time: 0 hr 39 min 51 sec) 
select_counter is 166
Heartbeat CPU 0 instructions: 64000000 cycles: 144525965 heartbeat IPC: 0.475104 cumulative IPC: 0.385245 (Simulation time: 0 hr 40 min 24 sec) 
select_counter is 647
Heartbeat CPU 0 instructions: 65000001 cycles: 146108987 heartbeat IPC: 0.631704 cumulative IPC: 0.387997 (Simulation time: 0 hr 40 min 52 sec) 
select_counter is 1009
Heartbeat CPU 0 instructions: 66000003 cycles: 147646302 heartbeat IPC: 0.650486 cumulative IPC: 0.390813 (Simulation time: 0 hr 41 min 19 sec) 
select_counter is 630
Heartbeat CPU 0 instructions: 67000003 cycles: 149192030 heartbeat IPC: 0.646944 cumulative IPC: 0.393547 (Simulation time: 0 hr 41 min 49 sec) 
select_counter is 495
Heartbeat CPU 0 instructions: 68000000 cycles: 150777272 heartbeat IPC: 0.630817 cumulative IPC: 0.396115 (Simulation time: 0 hr 42 min 16 sec) 
select_counter is 881
Heartbeat CPU 0 instructions: 69000002 cycles: 152361852 heartbeat IPC: 0.631083 cumulative IPC: 0.398631 (Simulation time: 0 hr 42 min 40 sec) 
select_counter is 609
Heartbeat CPU 0 instructions: 70000000 cycles: 154325709 heartbeat IPC: 0.509201 cumulative IPC: 0.400079 (Simulation time: 0 hr 43 min 3 sec) 
select_counter is 256
Heartbeat CPU 0 instructions: 71000000 cycles: 156018573 heartbeat IPC: 0.590715 cumulative IPC: 0.402207 (Simulation time: 0 hr 43 min 24 sec) 
select_counter is 244
Heartbeat CPU 0 instructions: 72000000 cycles: 157593755 heartbeat IPC: 0.634847 cumulative IPC: 0.404598 (Simulation time: 0 hr 43 min 46 sec) 
select_counter is 868
Heartbeat CPU 0 instructions: 73000001 cycles: 159178614 heartbeat IPC: 0.630972 cumulative IPC: 0.406916 (Simulation time: 0 hr 44 min 9 sec) 
select_counter is 411
Heartbeat CPU 0 instructions: 74000000 cycles: 160795428 heartbeat IPC: 0.6185 cumulative IPC: 0.409102 (Simulation time: 0 hr 44 min 30 sec) 
select_counter is 304
Heartbeat CPU 0 instructions: 75000000 cycles: 162404413 heartbeat IPC: 0.62151 cumulative IPC: 0.411265 (Simulation time: 0 hr 44 min 49 sec) 
select_counter is 659
Heartbeat CPU 0 instructions: 76000000 cycles: 164078831 heartbeat IPC: 0.597222 cumulative IPC: 0.413214 (Simulation time: 0 hr 45 min 8 sec) 
select_counter is 11
Heartbeat CPU 0 instructions: 77000001 cycles: 167556379 heartbeat IPC: 0.287559 cumulative IPC: 0.410537 (Simulation time: 0 hr 45 min 32 sec) 
select_counter is 514
Heartbeat CPU 0 instructions: 78000000 cycles: 171096890 heartbeat IPC: 0.282445 cumulative IPC: 0.407817 (Simulation time: 0 hr 45 min 54 sec) 
select_counter is 684
Heartbeat CPU 0 instructions: 79000002 cycles: 174659793 heartbeat IPC: 0.280671 cumulative IPC: 0.405157 (Simulation time: 0 hr 46 min 16 sec) 
select_counter is 774
Heartbeat CPU 0 instructions: 80000000 cycles: 178217051 heartbeat IPC: 0.281115 cumulative IPC: 0.402619 (Simulation time: 0 hr 46 min 35 sec) 
select_counter is 390
Heartbeat CPU 0 instructions: 81000000 cycles: 181744002 heartbeat IPC: 0.283531 cumulative IPC: 0.400251 (Simulation time: 0 hr 46 min 53 sec) 
select_counter is 496
Heartbeat CPU 0 instructions: 82000002 cycles: 185579570 heartbeat IPC: 0.260718 cumulative IPC: 0.397298 (Simulation time: 0 hr 47 min 9 sec) 
select_counter is 437
Heartbeat CPU 0 instructions: 83000002 cycles: 189351292 heartbeat IPC: 0.265131 cumulative IPC: 0.394603 (Simulation time: 0 hr 47 min 23 sec) 
select_counter is 932
Heartbeat CPU 0 instructions: 84000000 cycles: 193108850 heartbeat IPC: 0.26613 cumulative IPC: 0.392046 (Simulation time: 0 hr 47 min 37 sec) 
select_counter is 529
Heartbeat CPU 0 instructions: 85000000 cycles: 196894857 heartbeat IPC: 0.264131 cumulative IPC: 0.38953 (Simulation time: 0 hr 47 min 51 sec) 
select_counter is 646
Heartbeat CPU 0 instructions: 86000000 cycles: 200684442 heartbeat IPC: 0.263881 cumulative IPC: 0.387105 (Simulation time: 0 hr 48 min 2 sec) 
select_counter is 455
Heartbeat CPU 0 instructions: 87000000 cycles: 204128599 heartbeat IPC: 0.290347 cumulative IPC: 0.385437 (Simulation time: 0 hr 48 min 10 sec) 
select_counter is 510
Heartbeat CPU 0 instructions: 88000000 cycles: 206039879 heartbeat IPC: 0.52321 cumulative IPC: 0.386743 (Simulation time: 0 hr 48 min 18 sec) 
select_counter is 442
Heartbeat CPU 0 instructions: 89000001 cycles: 207934009 heartbeat IPC: 0.527947 cumulative IPC: 0.388056 (Simulation time: 0 hr 48 min 23 sec) 
select_counter is 481
Heartbeat CPU 0 instructions: 90000001 cycles: 209863652 heartbeat IPC: 0.518231 cumulative IPC: 0.389279 (Simulation time: 0 hr 48 min 29 sec) 
select_counter is 326
Heartbeat CPU 0 instructions: 91000001 cycles: 211768296 heartbeat IPC: 0.525033 cumulative IPC: 0.390525 (Simulation time: 0 hr 48 min 34 sec) 
select_counter is 56
Heartbeat CPU 0 instructions: 92000000 cycles: 213714285 heartbeat IPC: 0.513877 cumulative IPC: 0.391672 (Simulation time: 0 hr 48 min 39 sec) 
select_counter is 277
Heartbeat CPU 0 instructions: 93000002 cycles: 215577391 heartbeat IPC: 0.536739 cumulative IPC: 0.392951 (Simulation time: 0 hr 48 min 44 sec) 
select_counter is 48
Heartbeat CPU 0 instructions: 94000001 cycles: 217296141 heartbeat IPC: 0.581818 cumulative IPC: 0.394476 (Simulation time: 0 hr 48 min 48 sec) 
select_counter is 885
Heartbeat CPU 0 instructions: 95000000 cycles: 219059958 heartbeat IPC: 0.566952 cumulative IPC: 0.395893 (Simulation time: 0 hr 48 min 53 sec) 
select_counter is 133
Heartbeat CPU 0 instructions: 96000000 cycles: 220795210 heartbeat IPC: 0.576285 cumulative IPC: 0.397339 (Simulation time: 0 hr 48 min 57 sec) 
select_counter is 866
Heartbeat CPU 0 instructions: 97000001 cycles: 222570113 heartbeat IPC: 0.563412 cumulative IPC: 0.39869 (Simulation time: 0 hr 49 min 1 sec) 
select_counter is 813
Heartbeat CPU 0 instructions: 98000000 cycles: 224296471 heartbeat IPC: 0.579254 cumulative IPC: 0.400107 (Simulation time: 0 hr 49 min 6 sec) 
select_counter is 533
Heartbeat CPU 0 instructions: 99000001 cycles: 225887561 heartbeat IPC: 0.628501 cumulative IPC: 0.401747 (Simulation time: 0 hr 49 min 10 sec) 
select_counter is 507
Heartbeat CPU 0 instructions: 100000000 cycles: 227485866 heartbeat IPC: 0.625662 cumulative IPC: 0.403351 (Simulation time: 0 hr 49 min 14 sec) 
select_counter is 113
Heartbeat CPU 0 instructions: 101000002 cycles: 229084545 heartbeat IPC: 0.625518 cumulative IPC: 0.404932 (Simulation time: 0 hr 49 min 18 sec) 
select_counter is 66
Heartbeat CPU 0 instructions: 102000003 cycles: 230660100 heartbeat IPC: 0.634698 cumulative IPC: 0.406531 (Simulation time: 0 hr 49 min 22 sec) 
select_counter is 670
Heartbeat CPU 0 instructions: 103000002 cycles: 232262335 heartbeat IPC: 0.624128 cumulative IPC: 0.408061 (Simulation time: 0 hr 49 min 26 sec) 
select_counter is 410
Heartbeat CPU 0 instructions: 104000000 cycles: 233973791 heartbeat IPC: 0.584297 cumulative IPC: 0.409375 (Simulation time: 0 hr 49 min 31 sec) 
select_counter is 518
Heartbeat CPU 0 instructions: 105000003 cycles: 235589508 heartbeat IPC: 0.618922 cumulative IPC: 0.410839 (Simulation time: 0 hr 49 min 35 sec) 
select_counter is 312
Heartbeat CPU 0 instructions: 106000001 cycles: 237177878 heartbeat IPC: 0.629575 cumulative IPC: 0.412331 (Simulation time: 0 hr 49 min 39 sec) 
select_counter is 140
Heartbeat CPU 0 instructions: 107000001 cycles: 238794985 heartbeat IPC: 0.618388 cumulative IPC: 0.413753 (Simulation time: 0 hr 49 min 43 sec) 
select_counter is 1009
Heartbeat CPU 0 instructions: 108000000 cycles: 240382369 heartbeat IPC: 0.629967 cumulative IPC: 0.415207 (Simulation time: 0 hr 49 min 47 sec) 
select_counter is 833
Heartbeat CPU 0 instructions: 109000000 cycles: 242032750 heartbeat IPC: 0.605921 cumulative IPC: 0.416531 (Simulation time: 0 hr 49 min 51 sec) 
select_counter is 121
Heartbeat CPU 0 instructions: 110000002 cycles: 243966867 heartbeat IPC: 0.517033 cumulative IPC: 0.417342 (Simulation time: 0 hr 49 min 55 sec) 
select_counter is 720
Finished CPU 0 instructions: 100000000 cycles: 239611536 cummulative IPC: 0.417342 (Simulation time: 0 hr 49 min 55 sec) 

ChampSim completed all CPUs

Region of Interest Statistics

CPU 0 cummulative IPC: 0.417342 instructions: 100000000 cycles: 239611536
LLC TOTAL     ACCESS:   12991302  HIT:    9454003  MISS:    3537299
LLC LOAD      ACCESS:    5288187  HIT:    4257080  MISS:    1031107
LLC RFO       ACCESS:          0  HIT:          0  MISS:          0
LLC PREFETCH  ACCESS:    6790759  HIT:    4304951  MISS:    2485808
LLC WRITEBACK ACCESS:     912356  HIT:     891972  MISS:      20384
Ship samples: size is 64
6, 36, 67, 103, 131, 168, 193, 230, 257, 297, 332, 360, 395, 416, 461, 493, 523, 548, 577, 618, 653, 672, 706, 746, 777, 814, 833, 873, 899, 929, 961, 1004, 1030, 1068, 1102, 1129, 1153, 1196, 1231, 1252, 1283, 1324, 1348, 1380, 1415, 1447, 1472, 1511, 1545, 1575, 1615, 1636, 1679, 1707, 1732, 1767, 1802, 1834, 1870, 1888, 1931, 1956, 1985, 2016, 
Ship duel samples: size is 128
6, 19, 36, 61, 67, 91, 103, 112, 131, 158, 168, 178, 193, 219, 230, 240, 257, 287, 297, 319, 332, 340, 360, 373, 395, 410, 416, 441, 461, 471, 493, 497, 523, 538, 548, 567, 577, 597, 618, 639, 653, 668, 672, 696, 706, 720, 746, 754, 777, 793, 814, 829, 833, 851, 873, 891, 899, 922, 929, 945, 961, 978, 1004, 1019, 1030, 1043, 1068, 1083, 1102, 1115, 1129, 1147, 1153, 1181, 1196, 1211, 1231, 1237, 1252, 1277, 1283, 1297, 1324, 1328, 1348, 1366, 1380, 1397, 1415, 1429, 1447, 1459, 1472, 1502, 1511, 1532, 1545, 1557, 1575, 1586, 1615, 1619, 1636, 1660, 1679, 1695, 1707, 1716, 1732, 1753, 1767, 1785, 1802, 1811, 1834, 1854, 1870, 1876, 1888, 1908, 1931, 1940, 1956, 1977, 1985, 2003, 2016, 2040, 
Lime duel samples: size is 128
5, 20, 45, 58, 74, 93, 106, 122, 136, 147, 175, 177, 204, 222, 239, 251, 269, 275, 289, 313, 335, 346, 353, 369, 393, 414, 424, 433, 458, 467, 489, 511, 519, 534, 553, 561, 580, 595, 619, 636, 646, 666, 685, 691, 712, 732, 750, 757, 783, 799, 815, 830, 841, 848, 879, 883, 910, 919, 932, 952, 970, 989, 999, 1009, 1028, 1040, 1058, 1080, 1091, 1118, 1124, 1146, 1160, 1169, 1197, 1201, 1229, 1243, 1254, 1276, 1290, 1301, 1323, 1332, 1349, 1370, 1383, 1395, 1410, 1435, 1451, 1468, 1481, 1490, 1518, 1533, 1538, 1552, 1573, 1590, 1614, 1625, 1632, 1655, 1674, 1693, 1704, 1719, 1736, 1758, 1763, 1778, 1796, 1822, 1830, 1849, 1865, 1885, 1901, 1915, 1929, 1944, 1959, 1970, 1995, 2005, 2031, 2045, 
Lime samples: size is 15
5, 136, 269, 393, 519, 646, 783, 910, 1028, 1160, 1290, 1410, 1538, 1674, 1796, 
Insertion Distribution: 
	LOAD 133308 0 0 0 0 0 29457 377074 
	RFO 0 0 0 0 0 0 4959 0 
	PREF 0 522866 0 0 0 0 65233 379757 
	WRITEBACK 0 0 0 0 0 0 0 3856 
Total Prefetch Downgrades: 447022
