
*** ChampSim Multicore Out-of-Order Simulator ***

Warmup Instructions: 10000000
Simulation Instructions: 100000000
Configuration: 2
Number of CPUs: 1
LLC sets: 2048
LLC ways: 16
Off-chip DRAM Channels: 1 Width: 64-bit Data Rate: 1600 MT/s

CPU 0 runs /datasets/cs240c-wi22-a00-public/data/Assignment2-gz/zeusmp_600B.trace.gz
CPU 0 L1D next line prefetcher
CPU 0 L2C IP-based stride prefetcher
Heartbeat CPU 0 instructions: 1000000 cycles: 407346 heartbeat IPC: 2.45492 cumulative IPC: 2.45492 (Simulation time: 0 hr 0 min 18 sec) 
select_counter is 532
Heartbeat CPU 0 instructions: 2000001 cycles: 814291 heartbeat IPC: 2.45734 cumulative IPC: 2.45613 (Simulation time: 0 hr 0 min 35 sec) 
select_counter is 512
Heartbeat CPU 0 instructions: 3000000 cycles: 1221759 heartbeat IPC: 2.45418 cumulative IPC: 2.45548 (Simulation time: 0 hr 0 min 54 sec) 
select_counter is 483
Heartbeat CPU 0 instructions: 4000000 cycles: 1629412 heartbeat IPC: 2.45307 cumulative IPC: 2.45487 (Simulation time: 0 hr 1 min 13 sec) 
select_counter is 461
Heartbeat CPU 0 instructions: 5000001 cycles: 2036975 heartbeat IPC: 2.45361 cumulative IPC: 2.45462 (Simulation time: 0 hr 1 min 35 sec) 
select_counter is 440
Heartbeat CPU 0 instructions: 6000000 cycles: 2444299 heartbeat IPC: 2.45505 cumulative IPC: 2.45469 (Simulation time: 0 hr 1 min 56 sec) 
select_counter is 420
Heartbeat CPU 0 instructions: 7000000 cycles: 2851782 heartbeat IPC: 2.45409 cumulative IPC: 2.45461 (Simulation time: 0 hr 2 min 16 sec) 
select_counter is 395
Heartbeat CPU 0 instructions: 8000000 cycles: 3259386 heartbeat IPC: 2.45336 cumulative IPC: 2.45445 (Simulation time: 0 hr 2 min 34 sec) 
select_counter is 400
Heartbeat CPU 0 instructions: 9000003 cycles: 3666460 heartbeat IPC: 2.45656 cumulative IPC: 2.45468 (Simulation time: 0 hr 2 min 53 sec) 
select_counter is 380
Heartbeat CPU 0 instructions: 10000001 cycles: 4073958 heartbeat IPC: 2.45399 cumulative IPC: 2.45462 (Simulation time: 0 hr 3 min 12 sec) 
select_counter is 375

Warmup complete CPU 0 instructions: 10000001 cycles: 4073958 (Simulation time: 0 hr 3 min 12 sec) 

Heartbeat CPU 0 instructions: 11000000 cycles: 4748455 heartbeat IPC: 1.48258 cumulative IPC: 1.48258 (Simulation time: 0 hr 3 min 32 sec) 
select_counter is 375
Heartbeat CPU 0 instructions: 12000000 cycles: 5422000 heartbeat IPC: 1.48468 cumulative IPC: 1.48363 (Simulation time: 0 hr 3 min 51 sec) 
select_counter is 368
Heartbeat CPU 0 instructions: 13000001 cycles: 6096115 heartbeat IPC: 1.48343 cumulative IPC: 1.48356 (Simulation time: 0 hr 4 min 10 sec) 
select_counter is 344
Heartbeat CPU 0 instructions: 14000001 cycles: 6769241 heartbeat IPC: 1.48561 cumulative IPC: 1.48407 (Simulation time: 0 hr 4 min 28 sec) 
select_counter is 358
Heartbeat CPU 0 instructions: 15000003 cycles: 7444807 heartbeat IPC: 1.48024 cumulative IPC: 1.48331 (Simulation time: 0 hr 4 min 50 sec) 
select_counter is 366
Heartbeat CPU 0 instructions: 16000000 cycles: 8168470 heartbeat IPC: 1.38185 cumulative IPC: 1.46538 (Simulation time: 0 hr 5 min 13 sec) 
select_counter is 385
Heartbeat CPU 0 instructions: 17000001 cycles: 8951676 heartbeat IPC: 1.2768 cumulative IPC: 1.4351 (Simulation time: 0 hr 5 min 40 sec) 
select_counter is 391
Heartbeat CPU 0 instructions: 18000003 cycles: 9729137 heartbeat IPC: 1.28624 cumulative IPC: 1.41463 (Simulation time: 0 hr 6 min 7 sec) 
select_counter is 359
Heartbeat CPU 0 instructions: 19000000 cycles: 10509234 heartbeat IPC: 1.28189 cumulative IPC: 1.39854 (Simulation time: 0 hr 6 min 28 sec) 
select_counter is 315
Heartbeat CPU 0 instructions: 20000000 cycles: 11282520 heartbeat IPC: 1.29318 cumulative IPC: 1.38724 (Simulation time: 0 hr 6 min 48 sec) 
select_counter is 278
Heartbeat CPU 0 instructions: 21000002 cycles: 12058593 heartbeat IPC: 1.28854 cumulative IPC: 1.37765 (Simulation time: 0 hr 7 min 7 sec) 
select_counter is 244
Heartbeat CPU 0 instructions: 22000000 cycles: 12835628 heartbeat IPC: 1.28694 cumulative IPC: 1.3696 (Simulation time: 0 hr 7 min 31 sec) 
select_counter is 195
Heartbeat CPU 0 instructions: 23000000 cycles: 13609242 heartbeat IPC: 1.29263 cumulative IPC: 1.36336 (Simulation time: 0 hr 7 min 50 sec) 
select_counter is 167
Heartbeat CPU 0 instructions: 24000000 cycles: 14381561 heartbeat IPC: 1.2948 cumulative IPC: 1.35822 (Simulation time: 0 hr 8 min 9 sec) 
select_counter is 154
Heartbeat CPU 0 instructions: 25000000 cycles: 15148029 heartbeat IPC: 1.30469 cumulative IPC: 1.35452 (Simulation time: 0 hr 8 min 26 sec) 
select_counter is 141
Heartbeat CPU 0 instructions: 26000000 cycles: 15918115 heartbeat IPC: 1.29856 cumulative IPC: 1.35088 (Simulation time: 0 hr 8 min 45 sec) 
select_counter is 139
Heartbeat CPU 0 instructions: 27000003 cycles: 16690980 heartbeat IPC: 1.29389 cumulative IPC: 1.34739 (Simulation time: 0 hr 9 min 3 sec) 
select_counter is 139
Heartbeat CPU 0 instructions: 28000000 cycles: 17474665 heartbeat IPC: 1.27602 cumulative IPC: 1.34321 (Simulation time: 0 hr 9 min 26 sec) 
select_counter is 136
Heartbeat CPU 0 instructions: 29000000 cycles: 18251843 heartbeat IPC: 1.28671 cumulative IPC: 1.34012 (Simulation time: 0 hr 9 min 48 sec) 
select_counter is 134
Heartbeat CPU 0 instructions: 30000003 cycles: 19032693 heartbeat IPC: 1.28066 cumulative IPC: 1.33701 (Simulation time: 0 hr 10 min 9 sec) 
select_counter is 139
Heartbeat CPU 0 instructions: 31000002 cycles: 19821470 heartbeat IPC: 1.26778 cumulative IPC: 1.33354 (Simulation time: 0 hr 10 min 30 sec) 
select_counter is 141
Heartbeat CPU 0 instructions: 32000000 cycles: 20597492 heartbeat IPC: 1.28862 cumulative IPC: 1.33143 (Simulation time: 0 hr 10 min 49 sec) 
select_counter is 135
Heartbeat CPU 0 instructions: 33000001 cycles: 21380680 heartbeat IPC: 1.27683 cumulative IPC: 1.32896 (Simulation time: 0 hr 11 min 8 sec) 
select_counter is 136
Heartbeat CPU 0 instructions: 34000000 cycles: 22160203 heartbeat IPC: 1.28283 cumulative IPC: 1.32698 (Simulation time: 0 hr 11 min 31 sec) 
select_counter is 143
Heartbeat CPU 0 instructions: 35000000 cycles: 22938181 heartbeat IPC: 1.28538 cumulative IPC: 1.32526 (Simulation time: 0 hr 11 min 49 sec) 
select_counter is 141
Heartbeat CPU 0 instructions: 36000000 cycles: 23713251 heartbeat IPC: 1.29021 cumulative IPC: 1.32388 (Simulation time: 0 hr 12 min 10 sec) 
select_counter is 151
Heartbeat CPU 0 instructions: 37000001 cycles: 24494746 heartbeat IPC: 1.2796 cumulative IPC: 1.32218 (Simulation time: 0 hr 12 min 35 sec) 
select_counter is 141
Heartbeat CPU 0 instructions: 38000001 cycles: 25283886 heartbeat IPC: 1.2672 cumulative IPC: 1.32014 (Simulation time: 0 hr 12 min 55 sec) 
select_counter is 145
Heartbeat CPU 0 instructions: 39000002 cycles: 26060664 heartbeat IPC: 1.28737 cumulative IPC: 1.31898 (Simulation time: 0 hr 13 min 19 sec) 
select_counter is 149
Heartbeat CPU 0 instructions: 40000000 cycles: 26841209 heartbeat IPC: 1.28115 cumulative IPC: 1.31768 (Simulation time: 0 hr 13 min 41 sec) 
select_counter is 148
Heartbeat CPU 0 instructions: 41000002 cycles: 27618638 heartbeat IPC: 1.28629 cumulative IPC: 1.31665 (Simulation time: 0 hr 14 min 0 sec) 
select_counter is 153
Heartbeat CPU 0 instructions: 42000000 cycles: 28396642 heartbeat IPC: 1.28534 cumulative IPC: 1.31564 (Simulation time: 0 hr 14 min 20 sec) 
select_counter is 157
Heartbeat CPU 0 instructions: 43000002 cycles: 29181338 heartbeat IPC: 1.27438 cumulative IPC: 1.31435 (Simulation time: 0 hr 14 min 46 sec) 
select_counter is 162
Heartbeat CPU 0 instructions: 44000000 cycles: 29959808 heartbeat IPC: 1.28457 cumulative IPC: 1.31346 (Simulation time: 0 hr 15 min 10 sec) 
select_counter is 165
Heartbeat CPU 0 instructions: 45000003 cycles: 30733580 heartbeat IPC: 1.29237 cumulative IPC: 1.31285 (Simulation time: 0 hr 15 min 28 sec) 
select_counter is 168
Heartbeat CPU 0 instructions: 46000000 cycles: 31507479 heartbeat IPC: 1.29215 cumulative IPC: 1.31226 (Simulation time: 0 hr 15 min 46 sec) 
select_counter is 164
Heartbeat CPU 0 instructions: 47000001 cycles: 32291623 heartbeat IPC: 1.27528 cumulative IPC: 1.31124 (Simulation time: 0 hr 16 min 7 sec) 
select_counter is 167
Heartbeat CPU 0 instructions: 48000000 cycles: 33071585 heartbeat IPC: 1.28211 cumulative IPC: 1.31045 (Simulation time: 0 hr 16 min 28 sec) 
select_counter is 171
Heartbeat CPU 0 instructions: 49000000 cycles: 33852570 heartbeat IPC: 1.28043 cumulative IPC: 1.30966 (Simulation time: 0 hr 16 min 48 sec) 
select_counter is 174
Heartbeat CPU 0 instructions: 50000000 cycles: 34629253 heartbeat IPC: 1.28753 cumulative IPC: 1.3091 (Simulation time: 0 hr 17 min 8 sec) 
select_counter is 172
Heartbeat CPU 0 instructions: 51000001 cycles: 35410378 heartbeat IPC: 1.28021 cumulative IPC: 1.30838 (Simulation time: 0 hr 17 min 35 sec) 
select_counter is 179
Heartbeat CPU 0 instructions: 52000000 cycles: 36177801 heartbeat IPC: 1.30306 cumulative IPC: 1.30825 (Simulation time: 0 hr 17 min 56 sec) 
select_counter is 183
Heartbeat CPU 0 instructions: 53000001 cycles: 36961813 heartbeat IPC: 1.27549 cumulative IPC: 1.30747 (Simulation time: 0 hr 18 min 16 sec) 
select_counter is 182
Heartbeat CPU 0 instructions: 54000000 cycles: 37744847 heartbeat IPC: 1.27708 cumulative IPC: 1.30677 (Simulation time: 0 hr 18 min 37 sec) 
select_counter is 181
Heartbeat CPU 0 instructions: 55000001 cycles: 38519258 heartbeat IPC: 1.29131 cumulative IPC: 1.30642 (Simulation time: 0 hr 18 min 56 sec) 
select_counter is 174
Heartbeat CPU 0 instructions: 56000000 cycles: 39293416 heartbeat IPC: 1.29172 cumulative IPC: 1.3061 (Simulation time: 0 hr 19 min 16 sec) 
select_counter is 173
Heartbeat CPU 0 instructions: 57000003 cycles: 40083019 heartbeat IPC: 1.26646 cumulative IPC: 1.30523 (Simulation time: 0 hr 19 min 41 sec) 
select_counter is 177
Heartbeat CPU 0 instructions: 58000001 cycles: 40855641 heartbeat IPC: 1.29429 cumulative IPC: 1.305 (Simulation time: 0 hr 20 min 6 sec) 
select_counter is 175
Heartbeat CPU 0 instructions: 59000000 cycles: 41631559 heartbeat IPC: 1.28879 cumulative IPC: 1.30466 (Simulation time: 0 hr 20 min 26 sec) 
select_counter is 168
Heartbeat CPU 0 instructions: 60000000 cycles: 42405701 heartbeat IPC: 1.29175 cumulative IPC: 1.3044 (Simulation time: 0 hr 20 min 49 sec) 
select_counter is 165
Heartbeat CPU 0 instructions: 61000003 cycles: 43185389 heartbeat IPC: 1.28257 cumulative IPC: 1.30397 (Simulation time: 0 hr 21 min 9 sec) 
select_counter is 170
Heartbeat CPU 0 instructions: 62000001 cycles: 43966426 heartbeat IPC: 1.28035 cumulative IPC: 1.3035 (Simulation time: 0 hr 21 min 31 sec) 
select_counter is 175
Heartbeat CPU 0 instructions: 63000000 cycles: 44740943 heartbeat IPC: 1.29113 cumulative IPC: 1.30327 (Simulation time: 0 hr 21 min 50 sec) 
select_counter is 186
Heartbeat CPU 0 instructions: 64000000 cycles: 45517078 heartbeat IPC: 1.28844 cumulative IPC: 1.30299 (Simulation time: 0 hr 22 min 9 sec) 
select_counter is 187
Heartbeat CPU 0 instructions: 65000001 cycles: 46306594 heartbeat IPC: 1.2666 cumulative IPC: 1.30231 (Simulation time: 0 hr 22 min 28 sec) 
select_counter is 187
Heartbeat CPU 0 instructions: 66000000 cycles: 47093714 heartbeat IPC: 1.27045 cumulative IPC: 1.30173 (Simulation time: 0 hr 22 min 46 sec) 
select_counter is 186
Heartbeat CPU 0 instructions: 67000001 cycles: 47879971 heartbeat IPC: 1.27185 cumulative IPC: 1.30119 (Simulation time: 0 hr 23 min 7 sec) 
select_counter is 183
Heartbeat CPU 0 instructions: 68000000 cycles: 48657649 heartbeat IPC: 1.28588 cumulative IPC: 1.30092 (Simulation time: 0 hr 23 min 26 sec) 
select_counter is 169
Heartbeat CPU 0 instructions: 69000002 cycles: 49444696 heartbeat IPC: 1.27057 cumulative IPC: 1.3004 (Simulation time: 0 hr 23 min 46 sec) 
select_counter is 181
Heartbeat CPU 0 instructions: 70000000 cycles: 50220934 heartbeat IPC: 1.28826 cumulative IPC: 1.30019 (Simulation time: 0 hr 24 min 7 sec) 
select_counter is 182
Heartbeat CPU 0 instructions: 71000001 cycles: 51006912 heartbeat IPC: 1.2723 cumulative IPC: 1.29973 (Simulation time: 0 hr 24 min 27 sec) 
select_counter is 181
Heartbeat CPU 0 instructions: 72000000 cycles: 51790304 heartbeat IPC: 1.2765 cumulative IPC: 1.29935 (Simulation time: 0 hr 24 min 48 sec) 
select_counter is 192
Heartbeat CPU 0 instructions: 73000003 cycles: 52565117 heartbeat IPC: 1.29064 cumulative IPC: 1.29921 (Simulation time: 0 hr 25 min 8 sec) 
select_counter is 196
Heartbeat CPU 0 instructions: 74000002 cycles: 53342625 heartbeat IPC: 1.28616 cumulative IPC: 1.299 (Simulation time: 0 hr 25 min 27 sec) 
select_counter is 191
Heartbeat CPU 0 instructions: 75000003 cycles: 54123713 heartbeat IPC: 1.28027 cumulative IPC: 1.29871 (Simulation time: 0 hr 25 min 46 sec) 
select_counter is 183
Heartbeat CPU 0 instructions: 76000000 cycles: 54910998 heartbeat IPC: 1.27018 cumulative IPC: 1.29827 (Simulation time: 0 hr 26 min 7 sec) 
select_counter is 184
Heartbeat CPU 0 instructions: 77000000 cycles: 55686858 heartbeat IPC: 1.28889 cumulative IPC: 1.29813 (Simulation time: 0 hr 26 min 28 sec) 
select_counter is 189
Heartbeat CPU 0 instructions: 78000003 cycles: 56463101 heartbeat IPC: 1.28826 cumulative IPC: 1.29798 (Simulation time: 0 hr 26 min 50 sec) 
select_counter is 187
Heartbeat CPU 0 instructions: 79000000 cycles: 57244374 heartbeat IPC: 1.27996 cumulative IPC: 1.29771 (Simulation time: 0 hr 27 min 11 sec) 
select_counter is 191
Heartbeat CPU 0 instructions: 80000000 cycles: 58026511 heartbeat IPC: 1.27855 cumulative IPC: 1.29744 (Simulation time: 0 hr 27 min 30 sec) 
select_counter is 193
Heartbeat CPU 0 instructions: 81000002 cycles: 58799494 heartbeat IPC: 1.29369 cumulative IPC: 1.29738 (Simulation time: 0 hr 27 min 49 sec) 
select_counter is 191
Heartbeat CPU 0 instructions: 82000002 cycles: 59582335 heartbeat IPC: 1.2774 cumulative IPC: 1.2971 (Simulation time: 0 hr 28 min 10 sec) 
select_counter is 195
Heartbeat CPU 0 instructions: 83000001 cycles: 60357619 heartbeat IPC: 1.28985 cumulative IPC: 1.297 (Simulation time: 0 hr 28 min 30 sec) 
select_counter is 201
Heartbeat CPU 0 instructions: 84000000 cycles: 61139714 heartbeat IPC: 1.27862 cumulative IPC: 1.29675 (Simulation time: 0 hr 28 min 53 sec) 
select_counter is 194
Heartbeat CPU 0 instructions: 85000000 cycles: 61920376 heartbeat IPC: 1.28096 cumulative IPC: 1.29654 (Simulation time: 0 hr 29 min 13 sec) 
select_counter is 193
Heartbeat CPU 0 instructions: 86000002 cycles: 62695059 heartbeat IPC: 1.29085 cumulative IPC: 1.29646 (Simulation time: 0 hr 29 min 32 sec) 
select_counter is 188
Heartbeat CPU 0 instructions: 87000000 cycles: 63475680 heartbeat IPC: 1.28103 cumulative IPC: 1.29626 (Simulation time: 0 hr 29 min 55 sec) 
select_counter is 187
Heartbeat CPU 0 instructions: 88000000 cycles: 64260480 heartbeat IPC: 1.27421 cumulative IPC: 1.29597 (Simulation time: 0 hr 30 min 17 sec) 
select_counter is 192
Heartbeat CPU 0 instructions: 89000002 cycles: 65037381 heartbeat IPC: 1.28717 cumulative IPC: 1.29586 (Simulation time: 0 hr 30 min 39 sec) 
select_counter is 199
Heartbeat CPU 0 instructions: 90000002 cycles: 65809467 heartbeat IPC: 1.29519 cumulative IPC: 1.29585 (Simulation time: 0 hr 30 min 59 sec) 
select_counter is 197
Heartbeat CPU 0 instructions: 91000001 cycles: 66587881 heartbeat IPC: 1.28466 cumulative IPC: 1.29571 (Simulation time: 0 hr 31 min 20 sec) 
select_counter is 203
Heartbeat CPU 0 instructions: 92000000 cycles: 67373044 heartbeat IPC: 1.27362 cumulative IPC: 1.29544 (Simulation time: 0 hr 31 min 45 sec) 
select_counter is 200
Heartbeat CPU 0 instructions: 93000000 cycles: 68144691 heartbeat IPC: 1.29593 cumulative IPC: 1.29544 (Simulation time: 0 hr 32 min 7 sec) 
select_counter is 197
Heartbeat CPU 0 instructions: 94000002 cycles: 68922516 heartbeat IPC: 1.28564 cumulative IPC: 1.29533 (Simulation time: 0 hr 32 min 29 sec) 
select_counter is 206
Heartbeat CPU 0 instructions: 95000001 cycles: 69702980 heartbeat IPC: 1.28129 cumulative IPC: 1.29516 (Simulation time: 0 hr 32 min 51 sec) 
select_counter is 208
Heartbeat CPU 0 instructions: 96000000 cycles: 70480709 heartbeat IPC: 1.28579 cumulative IPC: 1.29505 (Simulation time: 0 hr 33 min 17 sec) 
select_counter is 218
Heartbeat CPU 0 instructions: 97000003 cycles: 71250332 heartbeat IPC: 1.29934 cumulative IPC: 1.2951 (Simulation time: 0 hr 33 min 39 sec) 
select_counter is 210
Heartbeat CPU 0 instructions: 98000002 cycles: 72025496 heartbeat IPC: 1.29005 cumulative IPC: 1.29504 (Simulation time: 0 hr 33 min 59 sec) 
select_counter is 217
Heartbeat CPU 0 instructions: 99000000 cycles: 72812786 heartbeat IPC: 1.27018 cumulative IPC: 1.29476 (Simulation time: 0 hr 34 min 20 sec) 
select_counter is 211
Heartbeat CPU 0 instructions: 100000000 cycles: 73590768 heartbeat IPC: 1.28538 cumulative IPC: 1.29465 (Simulation time: 0 hr 34 min 42 sec) 
select_counter is 214
Heartbeat CPU 0 instructions: 101000002 cycles: 74361530 heartbeat IPC: 1.29742 cumulative IPC: 1.29468 (Simulation time: 0 hr 35 min 5 sec) 
select_counter is 207
Heartbeat CPU 0 instructions: 102000002 cycles: 75147929 heartbeat IPC: 1.27162 cumulative IPC: 1.29443 (Simulation time: 0 hr 35 min 26 sec) 
select_counter is 203
Heartbeat CPU 0 instructions: 103000001 cycles: 75927984 heartbeat IPC: 1.28196 cumulative IPC: 1.29429 (Simulation time: 0 hr 35 min 48 sec) 
select_counter is 205
Heartbeat CPU 0 instructions: 104000000 cycles: 76710519 heartbeat IPC: 1.2779 cumulative IPC: 1.29411 (Simulation time: 0 hr 36 min 8 sec) 
select_counter is 205
Heartbeat CPU 0 instructions: 105000001 cycles: 77489929 heartbeat IPC: 1.28302 cumulative IPC: 1.294 (Simulation time: 0 hr 36 min 30 sec) 
select_counter is 217
Heartbeat CPU 0 instructions: 106000000 cycles: 78271359 heartbeat IPC: 1.2797 cumulative IPC: 1.29385 (Simulation time: 0 hr 36 min 53 sec) 
select_counter is 219
Heartbeat CPU 0 instructions: 107000000 cycles: 79052123 heartbeat IPC: 1.2808 cumulative IPC: 1.29371 (Simulation time: 0 hr 37 min 19 sec) 
select_counter is 222
Heartbeat CPU 0 instructions: 108000000 cycles: 79831076 heartbeat IPC: 1.28377 cumulative IPC: 1.29361 (Simulation time: 0 hr 37 min 40 sec) 
select_counter is 221
Heartbeat CPU 0 instructions: 109000000 cycles: 80615905 heartbeat IPC: 1.27416 cumulative IPC: 1.29341 (Simulation time: 0 hr 38 min 0 sec) 
select_counter is 214
Heartbeat CPU 0 instructions: 110000002 cycles: 81398549 heartbeat IPC: 1.27772 cumulative IPC: 1.29325 (Simulation time: 0 hr 38 min 19 sec) 
select_counter is 217
Finished CPU 0 instructions: 100000001 cycles: 77324591 cummulative IPC: 1.29325 (Simulation time: 0 hr 38 min 19 sec) 

ChampSim completed all CPUs

Region of Interest Statistics

CPU 0 cummulative IPC: 1.29325 instructions: 100000001 cycles: 77324591
LLC TOTAL     ACCESS:     382568  HIT:      17546  MISS:     365022
LLC LOAD      ACCESS:      27963  HIT:        388  MISS:      27575
LLC RFO       ACCESS:       3434  HIT:          4  MISS:       3430
LLC PREFETCH  ACCESS:     287935  HIT:       5170  MISS:     282765
LLC WRITEBACK ACCESS:      63236  HIT:      11984  MISS:      51252
Ship samples: size is 64
12, 36, 70, 101, 140, 164, 192, 233, 266, 299, 329, 356, 396, 426, 449, 495, 514, 557, 586, 613, 641, 676, 716, 749, 775, 803, 841, 878, 898, 929, 960, 1000, 1039, 1061, 1099, 1121, 1162, 1198, 1220, 1249, 1294, 1318, 1349, 1382, 1418, 1450, 1476, 1516, 1545, 1575, 1602, 1637, 1679, 1703, 1733, 1768, 1792, 1830, 1863, 1901, 1920, 1958, 1987, 2017, 
Ship duel samples: size is 128
12, 22, 36, 51, 70, 85, 101, 116, 140, 153, 164, 177, 192, 211, 233, 243, 266, 280, 299, 313, 329, 344, 356, 381, 396, 414, 426, 434, 449, 468, 495, 503, 514, 541, 557, 561, 586, 593, 613, 635, 641, 665, 676, 693, 716, 734, 749, 760, 775, 784, 803, 828, 841, 862, 878, 890, 898, 925, 929, 954, 960, 990, 1000, 1016, 1039, 1049, 1061, 1085, 1099, 1118, 1121, 1136, 1162, 1183, 1198, 1206, 1220, 1234, 1249, 1272, 1294, 1306, 1318, 1341, 1349, 1370, 1382, 1394, 1418, 1429, 1450, 1458, 1476, 1500, 1516, 1529, 1545, 1559, 1575, 1594, 1602, 1625, 1637, 1652, 1679, 1690, 1703, 1714, 1733, 1755, 1768, 1778, 1792, 1821, 1830, 1842, 1863, 1883, 1901, 1914, 1920, 1945, 1958, 1977, 1987, 2013, 2017, 2045, 
Lime duel samples: size is 128
7, 17, 47, 59, 64, 94, 96, 117, 142, 154, 172, 176, 203, 221, 227, 244, 265, 279, 288, 314, 326, 351, 359, 372, 399, 410, 421, 441, 457, 470, 485, 496, 520, 533, 556, 568, 579, 604, 621, 625, 646, 666, 673, 689, 711, 724, 742, 752, 780, 790, 811, 818, 837, 850, 871, 885, 909, 924, 942, 950, 963, 979, 998, 1019, 1032, 1042, 1059, 1083, 1103, 1105, 1132, 1141, 1163, 1182, 1191, 1202, 1218, 1245, 1250, 1278, 1283, 1309, 1313, 1337, 1344, 1368, 1390, 1405, 1412, 1436, 1443, 1463, 1487, 1497, 1506, 1528, 1548, 1558, 1571, 1595, 1607, 1616, 1632, 1650, 1678, 1687, 1700, 1712, 1732, 1750, 1775, 1784, 1796, 1808, 1825, 1844, 1864, 1887, 1889, 1916, 1931, 1940, 1956, 1978, 1997, 2006, 2018, 2041, 
Lime samples: size is 15
7, 142, 265, 399, 520, 646, 780, 909, 1032, 1163, 1283, 1412, 1548, 1678, 1796, 
Insertion Distribution: 
	LOAD 0 0 0 0 0 0 3464 22804 
	RFO 0 0 0 0 0 0 4490 3320 
	PREF 0 0 0 0 0 0 36410 248331 
	WRITEBACK 0 0 0 0 0 0 0 48550 
Total Prefetch Downgrades: 192
