
*** ChampSim Multicore Out-of-Order Simulator ***

Warmup Instructions: 10000000
Simulation Instructions: 100000000
Configuration: 2
Number of CPUs: 1
LLC sets: 2048
LLC ways: 16
Off-chip DRAM Channels: 1 Width: 64-bit Data Rate: 1600 MT/s

CPU 0 runs /datasets/cs240c-wi22-a00-public/data/Assignment2-gz/mcf_250B.trace.gz
CPU 0 L1D next line prefetcher
CPU 0 L2C IP-based stride prefetcher
Heartbeat CPU 0 instructions: 1000000 cycles: 536340 heartbeat IPC: 1.86449 cumulative IPC: 1.86449 (Simulation time: 0 hr 0 min 34 sec) 
select_counter is 1019
Heartbeat CPU 0 instructions: 2000003 cycles: 1051412 heartbeat IPC: 1.94148 cumulative IPC: 1.90221 (Simulation time: 0 hr 1 min 4 sec) 
select_counter is 544
Heartbeat CPU 0 instructions: 3000002 cycles: 1547513 heartbeat IPC: 2.01572 cumulative IPC: 1.9386 (Simulation time: 0 hr 1 min 38 sec) 
select_counter is 153
Heartbeat CPU 0 instructions: 4000000 cycles: 2057797 heartbeat IPC: 1.95969 cumulative IPC: 1.94383 (Simulation time: 0 hr 2 min 18 sec) 
select_counter is 87
Heartbeat CPU 0 instructions: 5000002 cycles: 2563065 heartbeat IPC: 1.97915 cumulative IPC: 1.95079 (Simulation time: 0 hr 2 min 53 sec) 
select_counter is 867
Heartbeat CPU 0 instructions: 6000002 cycles: 3067368 heartbeat IPC: 1.98293 cumulative IPC: 1.95608 (Simulation time: 0 hr 3 min 24 sec) 
select_counter is 810
Heartbeat CPU 0 instructions: 7000002 cycles: 3607726 heartbeat IPC: 1.85062 cumulative IPC: 1.94028 (Simulation time: 0 hr 3 min 54 sec) 
select_counter is 617
Heartbeat CPU 0 instructions: 8000000 cycles: 4121808 heartbeat IPC: 1.94521 cumulative IPC: 1.9409 (Simulation time: 0 hr 4 min 30 sec) 
select_counter is 512
Heartbeat CPU 0 instructions: 9000002 cycles: 4634988 heartbeat IPC: 1.94864 cumulative IPC: 1.94175 (Simulation time: 0 hr 5 min 9 sec) 
select_counter is 278
Heartbeat CPU 0 instructions: 10000000 cycles: 5145030 heartbeat IPC: 1.96062 cumulative IPC: 1.94362 (Simulation time: 0 hr 5 min 48 sec) 
select_counter is 531

Warmup complete CPU 0 instructions: 10000003 cycles: 5145031 (Simulation time: 0 hr 5 min 48 sec) 

Heartbeat CPU 0 instructions: 11000001 cycles: 13889996 heartbeat IPC: 0.114352 cumulative IPC: 0.114351 (Simulation time: 0 hr 6 min 30 sec) 
select_counter is 661
Heartbeat CPU 0 instructions: 12000000 cycles: 27362450 heartbeat IPC: 0.0742255 cumulative IPC: 0.0900193 (Simulation time: 0 hr 7 min 29 sec) 
select_counter is 149
Heartbeat CPU 0 instructions: 13000001 cycles: 39526975 heartbeat IPC: 0.0822063 cumulative IPC: 0.087255 (Simulation time: 0 hr 8 min 41 sec) 
select_counter is 918
Heartbeat CPU 0 instructions: 14000003 cycles: 48497699 heartbeat IPC: 0.111474 cumulative IPC: 0.0922665 (Simulation time: 0 hr 9 min 29 sec) 
select_counter is 179
Heartbeat CPU 0 instructions: 15000002 cycles: 57351897 heartbeat IPC: 0.112941 cumulative IPC: 0.0957728 (Simulation time: 0 hr 10 min 25 sec) 
select_counter is 43
Heartbeat CPU 0 instructions: 16000000 cycles: 65847413 heartbeat IPC: 0.117709 cumulative IPC: 0.0988429 (Simulation time: 0 hr 11 min 10 sec) 
select_counter is 470
Heartbeat CPU 0 instructions: 17000000 cycles: 74667958 heartbeat IPC: 0.113372 cumulative IPC: 0.100686 (Simulation time: 0 hr 12 min 4 sec) 
select_counter is 744
Heartbeat CPU 0 instructions: 18000002 cycles: 82599214 heartbeat IPC: 0.126084 cumulative IPC: 0.103287 (Simulation time: 0 hr 12 min 51 sec) 
select_counter is 969
Heartbeat CPU 0 instructions: 19000000 cycles: 91087233 heartbeat IPC: 0.117813 cumulative IPC: 0.104722 (Simulation time: 0 hr 13 min 52 sec) 
select_counter is 255
Heartbeat CPU 0 instructions: 20000000 cycles: 99657124 heartbeat IPC: 0.116688 cumulative IPC: 0.105807 (Simulation time: 0 hr 14 min 36 sec) 
select_counter is 613
Heartbeat CPU 0 instructions: 21000000 cycles: 107765838 heartbeat IPC: 0.123324 cumulative IPC: 0.107191 (Simulation time: 0 hr 15 min 18 sec) 
select_counter is 108
Heartbeat CPU 0 instructions: 22000000 cycles: 115840995 heartbeat IPC: 0.123837 cumulative IPC: 0.108405 (Simulation time: 0 hr 16 min 0 sec) 
select_counter is 84
Heartbeat CPU 0 instructions: 23000003 cycles: 124484832 heartbeat IPC: 0.11569 cumulative IPC: 0.108933 (Simulation time: 0 hr 16 min 48 sec) 
select_counter is 715
Heartbeat CPU 0 instructions: 24000000 cycles: 132851996 heartbeat IPC: 0.119514 cumulative IPC: 0.109626 (Simulation time: 0 hr 17 min 31 sec) 
select_counter is 701
Heartbeat CPU 0 instructions: 25000002 cycles: 141605793 heartbeat IPC: 0.114236 cumulative IPC: 0.109922 (Simulation time: 0 hr 18 min 21 sec) 
select_counter is 562
Heartbeat CPU 0 instructions: 26000000 cycles: 150537730 heartbeat IPC: 0.111958 cumulative IPC: 0.110047 (Simulation time: 0 hr 19 min 4 sec) 
select_counter is 525
Heartbeat CPU 0 instructions: 27000003 cycles: 159225439 heartbeat IPC: 0.115105 cumulative IPC: 0.110332 (Simulation time: 0 hr 19 min 48 sec) 
select_counter is 916
Heartbeat CPU 0 instructions: 28000000 cycles: 168352860 heartbeat IPC: 0.10956 cumulative IPC: 0.110289 (Simulation time: 0 hr 20 min 32 sec) 
select_counter is 437
Heartbeat CPU 0 instructions: 29000000 cycles: 177147461 heartbeat IPC: 0.113706 cumulative IPC: 0.110464 (Simulation time: 0 hr 21 min 17 sec) 
select_counter is 859
Heartbeat CPU 0 instructions: 30000000 cycles: 186065659 heartbeat IPC: 0.11213 cumulative IPC: 0.110546 (Simulation time: 0 hr 22 min 4 sec) 
select_counter is 825
Heartbeat CPU 0 instructions: 31000000 cycles: 194897786 heartbeat IPC: 0.113223 cumulative IPC: 0.11067 (Simulation time: 0 hr 22 min 48 sec) 
select_counter is 631
Heartbeat CPU 0 instructions: 32000000 cycles: 203282008 heartbeat IPC: 0.119272 cumulative IPC: 0.111034 (Simulation time: 0 hr 23 min 30 sec) 
select_counter is 432
Heartbeat CPU 0 instructions: 33000000 cycles: 211920346 heartbeat IPC: 0.115763 cumulative IPC: 0.111232 (Simulation time: 0 hr 24 min 12 sec) 
select_counter is 46
Heartbeat CPU 0 instructions: 34000000 cycles: 220726032 heartbeat IPC: 0.113563 cumulative IPC: 0.111327 (Simulation time: 0 hr 24 min 55 sec) 
select_counter is 842
Heartbeat CPU 0 instructions: 35000000 cycles: 231452944 heartbeat IPC: 0.0932235 cumulative IPC: 0.110469 (Simulation time: 0 hr 25 min 54 sec) 
select_counter is 999
Heartbeat CPU 0 instructions: 36000000 cycles: 245506605 heartbeat IPC: 0.0711558 cumulative IPC: 0.10817 (Simulation time: 0 hr 27 min 2 sec) 
select_counter is 464
Heartbeat CPU 0 instructions: 37000002 cycles: 254564360 heartbeat IPC: 0.110403 cumulative IPC: 0.108251 (Simulation time: 0 hr 28 min 0 sec) 
select_counter is 996
Heartbeat CPU 0 instructions: 38000000 cycles: 263715426 heartbeat IPC: 0.109277 cumulative IPC: 0.108288 (Simulation time: 0 hr 28 min 49 sec) 
select_counter is 678
Heartbeat CPU 0 instructions: 39000000 cycles: 272544512 heartbeat IPC: 0.113262 cumulative IPC: 0.108452 (Simulation time: 0 hr 29 min 40 sec) 
select_counter is 183
Heartbeat CPU 0 instructions: 40000000 cycles: 281273525 heartbeat IPC: 0.11456 cumulative IPC: 0.108645 (Simulation time: 0 hr 30 min 30 sec) 
select_counter is 834
Heartbeat CPU 0 instructions: 41000000 cycles: 290094017 heartbeat IPC: 0.113372 cumulative IPC: 0.108791 (Simulation time: 0 hr 31 min 22 sec) 
select_counter is 644
Heartbeat CPU 0 instructions: 42000000 cycles: 298925901 heartbeat IPC: 0.113226 cumulative IPC: 0.108925 (Simulation time: 0 hr 32 min 18 sec) 
select_counter is 730
Heartbeat CPU 0 instructions: 43000000 cycles: 307485423 heartbeat IPC: 0.116829 cumulative IPC: 0.109148 (Simulation time: 0 hr 33 min 8 sec) 
select_counter is 564
Heartbeat CPU 0 instructions: 44000000 cycles: 316144840 heartbeat IPC: 0.115481 cumulative IPC: 0.109325 (Simulation time: 0 hr 33 min 59 sec) 
select_counter is 114
Heartbeat CPU 0 instructions: 45000001 cycles: 324912681 heartbeat IPC: 0.114053 cumulative IPC: 0.109454 (Simulation time: 0 hr 34 min 52 sec) 
select_counter is 64
Heartbeat CPU 0 instructions: 46000000 cycles: 333807222 heartbeat IPC: 0.112428 cumulative IPC: 0.109535 (Simulation time: 0 hr 35 min 38 sec) 
select_counter is 654
Heartbeat CPU 0 instructions: 47000002 cycles: 342371787 heartbeat IPC: 0.11676 cumulative IPC: 0.109718 (Simulation time: 0 hr 36 min 29 sec) 
select_counter is 914
Heartbeat CPU 0 instructions: 48000000 cycles: 351182940 heartbeat IPC: 0.113492 cumulative IPC: 0.109815 (Simulation time: 0 hr 37 min 24 sec) 
select_counter is 483
Heartbeat CPU 0 instructions: 49000000 cycles: 360049932 heartbeat IPC: 0.112778 cumulative IPC: 0.109889 (Simulation time: 0 hr 38 min 9 sec) 
select_counter is 779
Heartbeat CPU 0 instructions: 50000002 cycles: 368676431 heartbeat IPC: 0.115922 cumulative IPC: 0.110032 (Simulation time: 0 hr 38 min 53 sec) 
select_counter is 935
Heartbeat CPU 0 instructions: 51000002 cycles: 377289029 heartbeat IPC: 0.116109 cumulative IPC: 0.110172 (Simulation time: 0 hr 39 min 39 sec) 
select_counter is 37
Heartbeat CPU 0 instructions: 52000000 cycles: 386109969 heartbeat IPC: 0.113366 cumulative IPC: 0.110246 (Simulation time: 0 hr 40 min 25 sec) 
select_counter is 206
Heartbeat CPU 0 instructions: 53000000 cycles: 394837427 heartbeat IPC: 0.114581 cumulative IPC: 0.110343 (Simulation time: 0 hr 41 min 18 sec) 
select_counter is 679
Heartbeat CPU 0 instructions: 54000000 cycles: 403480640 heartbeat IPC: 0.115698 cumulative IPC: 0.11046 (Simulation time: 0 hr 41 min 54 sec) 
select_counter is 278
Heartbeat CPU 0 instructions: 55000000 cycles: 412109781 heartbeat IPC: 0.115886 cumulative IPC: 0.110575 (Simulation time: 0 hr 42 min 27 sec) 
select_counter is 864
Heartbeat CPU 0 instructions: 56000000 cycles: 420893767 heartbeat IPC: 0.113844 cumulative IPC: 0.110644 (Simulation time: 0 hr 43 min 7 sec) 
select_counter is 689
Heartbeat CPU 0 instructions: 57000000 cycles: 429685047 heartbeat IPC: 0.113749 cumulative IPC: 0.110708 (Simulation time: 0 hr 43 min 39 sec) 
select_counter is 128
Heartbeat CPU 0 instructions: 58000000 cycles: 438300078 heartbeat IPC: 0.116076 cumulative IPC: 0.110815 (Simulation time: 0 hr 44 min 7 sec) 
select_counter is 305
Heartbeat CPU 0 instructions: 59000001 cycles: 446908684 heartbeat IPC: 0.116163 cumulative IPC: 0.110919 (Simulation time: 0 hr 44 min 32 sec) 
select_counter is 876
Heartbeat CPU 0 instructions: 60000000 cycles: 455517879 heartbeat IPC: 0.116155 cumulative IPC: 0.111019 (Simulation time: 0 hr 44 min 57 sec) 
select_counter is 607
Heartbeat CPU 0 instructions: 61000001 cycles: 464161027 heartbeat IPC: 0.115699 cumulative IPC: 0.111107 (Simulation time: 0 hr 45 min 23 sec) 
select_counter is 190
Heartbeat CPU 0 instructions: 62000000 cycles: 471347746 heartbeat IPC: 0.139145 cumulative IPC: 0.111539 (Simulation time: 0 hr 45 min 47 sec) 
select_counter is 873
Heartbeat CPU 0 instructions: 63000001 cycles: 479596754 heartbeat IPC: 0.121227 cumulative IPC: 0.111708 (Simulation time: 0 hr 46 min 10 sec) 
select_counter is 784
Heartbeat CPU 0 instructions: 64000000 cycles: 488230160 heartbeat IPC: 0.115829 cumulative IPC: 0.111782 (Simulation time: 0 hr 46 min 30 sec) 
select_counter is 630
Heartbeat CPU 0 instructions: 65000000 cycles: 496272196 heartbeat IPC: 0.124347 cumulative IPC: 0.111987 (Simulation time: 0 hr 46 min 50 sec) 
select_counter is 327
Heartbeat CPU 0 instructions: 66000000 cycles: 504664137 heartbeat IPC: 0.119162 cumulative IPC: 0.112108 (Simulation time: 0 hr 47 min 6 sec) 
select_counter is 14
Heartbeat CPU 0 instructions: 67000001 cycles: 513377426 heartbeat IPC: 0.114767 cumulative IPC: 0.112153 (Simulation time: 0 hr 47 min 22 sec) 
select_counter is 352
Heartbeat CPU 0 instructions: 68000000 cycles: 522038441 heartbeat IPC: 0.11546 cumulative IPC: 0.112209 (Simulation time: 0 hr 47 min 36 sec) 
select_counter is 692
Heartbeat CPU 0 instructions: 69000000 cycles: 530561242 heartbeat IPC: 0.117332 cumulative IPC: 0.112292 (Simulation time: 0 hr 47 min 49 sec) 
select_counter is 196
Heartbeat CPU 0 instructions: 70000000 cycles: 539008474 heartbeat IPC: 0.118382 cumulative IPC: 0.112388 (Simulation time: 0 hr 48 min 2 sec) 
select_counter is 868
Heartbeat CPU 0 instructions: 71000000 cycles: 547146727 heartbeat IPC: 0.122876 cumulative IPC: 0.112546 (Simulation time: 0 hr 48 min 11 sec) 
select_counter is 111
Heartbeat CPU 0 instructions: 72000000 cycles: 555614752 heartbeat IPC: 0.118091 cumulative IPC: 0.112631 (Simulation time: 0 hr 48 min 20 sec) 
select_counter is 733
Heartbeat CPU 0 instructions: 73000000 cycles: 564369462 heartbeat IPC: 0.114224 cumulative IPC: 0.112656 (Simulation time: 0 hr 48 min 27 sec) 
select_counter is 547
Heartbeat CPU 0 instructions: 74000001 cycles: 572777350 heartbeat IPC: 0.118936 cumulative IPC: 0.112749 (Simulation time: 0 hr 48 min 33 sec) 
select_counter is 675
Heartbeat CPU 0 instructions: 75000002 cycles: 581180714 heartbeat IPC: 0.119 cumulative IPC: 0.11284 (Simulation time: 0 hr 48 min 39 sec) 
select_counter is 346
Heartbeat CPU 0 instructions: 76000000 cycles: 589445890 heartbeat IPC: 0.120989 cumulative IPC: 0.112956 (Simulation time: 0 hr 48 min 45 sec) 
select_counter is 815
Heartbeat CPU 0 instructions: 77000003 cycles: 603862697 heartbeat IPC: 0.0693637 cumulative IPC: 0.111906 (Simulation time: 0 hr 48 min 52 sec) 
select_counter is 1023
Heartbeat CPU 0 instructions: 78000000 cycles: 614358819 heartbeat IPC: 0.095273 cumulative IPC: 0.111619 (Simulation time: 0 hr 48 min 58 sec) 
select_counter is 1004
Heartbeat CPU 0 instructions: 79000000 cycles: 623285101 heartbeat IPC: 0.112029 cumulative IPC: 0.111625 (Simulation time: 0 hr 49 min 4 sec) 
select_counter is 692
Heartbeat CPU 0 instructions: 80000000 cycles: 631639481 heartbeat IPC: 0.119698 cumulative IPC: 0.111733 (Simulation time: 0 hr 49 min 9 sec) 
select_counter is 151
Heartbeat CPU 0 instructions: 81000001 cycles: 640087905 heartbeat IPC: 0.118365 cumulative IPC: 0.111821 (Simulation time: 0 hr 49 min 15 sec) 
select_counter is 542
Heartbeat CPU 0 instructions: 82000001 cycles: 647597560 heartbeat IPC: 0.133162 cumulative IPC: 0.112071 (Simulation time: 0 hr 49 min 20 sec) 
select_counter is 930
Heartbeat CPU 0 instructions: 83000002 cycles: 654876519 heartbeat IPC: 0.137382 cumulative IPC: 0.112354 (Simulation time: 0 hr 49 min 25 sec) 
select_counter is 472
Heartbeat CPU 0 instructions: 84000000 cycles: 661642836 heartbeat IPC: 0.147791 cumulative IPC: 0.112719 (Simulation time: 0 hr 49 min 30 sec) 
select_counter is 12
Heartbeat CPU 0 instructions: 85000000 cycles: 669219368 heartbeat IPC: 0.131987 cumulative IPC: 0.112939 (Simulation time: 0 hr 49 min 36 sec) 
select_counter is 893
Heartbeat CPU 0 instructions: 86000001 cycles: 676583160 heartbeat IPC: 0.1358 cumulative IPC: 0.11319 (Simulation time: 0 hr 49 min 41 sec) 
select_counter is 358
Heartbeat CPU 0 instructions: 87000001 cycles: 689949429 heartbeat IPC: 0.0748152 cumulative IPC: 0.112441 (Simulation time: 0 hr 49 min 48 sec) 
select_counter is 568
Heartbeat CPU 0 instructions: 88000000 cycles: 700426660 heartbeat IPC: 0.095445 cumulative IPC: 0.112185 (Simulation time: 0 hr 49 min 54 sec) 
select_counter is 263
Heartbeat CPU 0 instructions: 89000001 cycles: 708444987 heartbeat IPC: 0.124714 cumulative IPC: 0.112328 (Simulation time: 0 hr 50 min 0 sec) 
select_counter is 159
Heartbeat CPU 0 instructions: 90000001 cycles: 714905535 heartbeat IPC: 0.154786 cumulative IPC: 0.112714 (Simulation time: 0 hr 50 min 4 sec) 
select_counter is 143
Heartbeat CPU 0 instructions: 91000000 cycles: 724924237 heartbeat IPC: 0.0998132 cumulative IPC: 0.112535 (Simulation time: 0 hr 50 min 10 sec) 
select_counter is 831
Heartbeat CPU 0 instructions: 92000000 cycles: 733838900 heartbeat IPC: 0.112175 cumulative IPC: 0.11253 (Simulation time: 0 hr 50 min 15 sec) 
select_counter is 515
Heartbeat CPU 0 instructions: 93000000 cycles: 742986938 heartbeat IPC: 0.109313 cumulative IPC: 0.11249 (Simulation time: 0 hr 50 min 21 sec) 
select_counter is 989
Heartbeat CPU 0 instructions: 94000000 cycles: 751945273 heartbeat IPC: 0.111628 cumulative IPC: 0.11248 (Simulation time: 0 hr 50 min 26 sec) 
select_counter is 588
Heartbeat CPU 0 instructions: 95000000 cycles: 760376535 heartbeat IPC: 0.118606 cumulative IPC: 0.112548 (Simulation time: 0 hr 50 min 32 sec) 
select_counter is 154
Heartbeat CPU 0 instructions: 96000000 cycles: 769270563 heartbeat IPC: 0.112435 cumulative IPC: 0.112547 (Simulation time: 0 hr 50 min 37 sec) 
select_counter is 542
Heartbeat CPU 0 instructions: 97000000 cycles: 777699778 heartbeat IPC: 0.118635 cumulative IPC: 0.112613 (Simulation time: 0 hr 50 min 43 sec) 
select_counter is 997
Heartbeat CPU 0 instructions: 98000000 cycles: 786601249 heartbeat IPC: 0.112341 cumulative IPC: 0.11261 (Simulation time: 0 hr 50 min 48 sec) 
select_counter is 578
Heartbeat CPU 0 instructions: 99000000 cycles: 795099010 heartbeat IPC: 0.117678 cumulative IPC: 0.112665 (Simulation time: 0 hr 50 min 53 sec) 
select_counter is 968
Heartbeat CPU 0 instructions: 100000000 cycles: 803802846 heartbeat IPC: 0.114892 cumulative IPC: 0.112689 (Simulation time: 0 hr 50 min 59 sec) 
select_counter is 200
Heartbeat CPU 0 instructions: 101000002 cycles: 812486763 heartbeat IPC: 0.115156 cumulative IPC: 0.112716 (Simulation time: 0 hr 51 min 4 sec) 
select_counter is 811
Heartbeat CPU 0 instructions: 102000000 cycles: 821486756 heartbeat IPC: 0.111111 cumulative IPC: 0.112698 (Simulation time: 0 hr 51 min 10 sec) 
select_counter is 476
Heartbeat CPU 0 instructions: 103000001 cycles: 830216278 heartbeat IPC: 0.114554 cumulative IPC: 0.112718 (Simulation time: 0 hr 51 min 15 sec) 
select_counter is 43
Heartbeat CPU 0 instructions: 104000000 cycles: 839116045 heartbeat IPC: 0.112362 cumulative IPC: 0.112714 (Simulation time: 0 hr 51 min 20 sec) 
select_counter is 769
Heartbeat CPU 0 instructions: 105000000 cycles: 848014136 heartbeat IPC: 0.112384 cumulative IPC: 0.11271 (Simulation time: 0 hr 51 min 26 sec) 
select_counter is 437
Heartbeat CPU 0 instructions: 106000002 cycles: 856566697 heartbeat IPC: 0.116924 cumulative IPC: 0.112753 (Simulation time: 0 hr 51 min 31 sec) 
select_counter is 948
Heartbeat CPU 0 instructions: 107000003 cycles: 865439253 heartbeat IPC: 0.112707 cumulative IPC: 0.112752 (Simulation time: 0 hr 51 min 37 sec) 
select_counter is 597
Heartbeat CPU 0 instructions: 108000000 cycles: 874068272 heartbeat IPC: 0.115888 cumulative IPC: 0.112783 (Simulation time: 0 hr 51 min 42 sec) 
select_counter is 320
Heartbeat CPU 0 instructions: 109000000 cycles: 882783952 heartbeat IPC: 0.114736 cumulative IPC: 0.112803 (Simulation time: 0 hr 51 min 47 sec) 
select_counter is 585
Heartbeat CPU 0 instructions: 110000000 cycles: 891470362 heartbeat IPC: 0.115122 cumulative IPC: 0.112825 (Simulation time: 0 hr 51 min 53 sec) 
select_counter is 475
Finished CPU 0 instructions: 100000000 cycles: 886325333 cummulative IPC: 0.112825 (Simulation time: 0 hr 51 min 53 sec) 

ChampSim completed all CPUs

Region of Interest Statistics

CPU 0 cummulative IPC: 0.112825 instructions: 100000000 cycles: 886325333
LLC TOTAL     ACCESS:   26966957  HIT:   12499229  MISS:   14467728
LLC LOAD      ACCESS:   11722598  HIT:    9053231  MISS:    2669367
LLC RFO       ACCESS:      27350  HIT:      13508  MISS:      13842
LLC PREFETCH  ACCESS:   14883184  HIT:    3164695  MISS:   11718489
LLC WRITEBACK ACCESS:     333825  HIT:     267795  MISS:      66030
Ship samples: size is 64
7, 45, 73, 108, 141, 160, 204, 225, 268, 296, 324, 364, 393, 430, 462, 492, 522, 550, 591, 608, 647, 682, 708, 737, 778, 804, 844, 865, 898, 932, 968, 1001, 1039, 1067, 1099, 1121, 1158, 1194, 1227, 1254, 1290, 1325, 1358, 1386, 1420, 1442, 1474, 1516, 1547, 1577, 1612, 1639, 1676, 1709, 1735, 1761, 1805, 1834, 1861, 1888, 1926, 1966, 1997, 2019, 
Ship duel samples: size is 128
7, 27, 45, 61, 73, 91, 108, 125, 141, 149, 160, 178, 204, 218, 225, 250, 268, 280, 296, 307, 324, 343, 364, 375, 393, 411, 430, 437, 462, 473, 492, 505, 522, 530, 550, 560, 591, 603, 608, 625, 647, 666, 682, 697, 708, 726, 737, 764, 778, 789, 804, 822, 844, 861, 865, 890, 898, 927, 932, 959, 968, 986, 1001, 1019, 1039, 1051, 1067, 1082, 1099, 1116, 1121, 1141, 1158, 1178, 1194, 1212, 1227, 1238, 1254, 1265, 1290, 1308, 1325, 1336, 1358, 1368, 1386, 1405, 1420, 1433, 1442, 1457, 1474, 1489, 1516, 1533, 1547, 1559, 1577, 1597, 1612, 1631, 1639, 1654, 1676, 1683, 1709, 1716, 1735, 1759, 1761, 1791, 1805, 1817, 1834, 1850, 1861, 1875, 1888, 1916, 1926, 1937, 1966, 1975, 1997, 2012, 2019, 2036, 
Lime duel samples: size is 128
3, 24, 47, 51, 69, 83, 107, 124, 135, 146, 167, 191, 200, 211, 233, 245, 258, 272, 291, 315, 323, 345, 357, 380, 397, 400, 425, 439, 459, 478, 487, 510, 518, 534, 545, 571, 585, 605, 615, 624, 655, 670, 687, 696, 706, 729, 749, 756, 777, 784, 815, 829, 842, 852, 873, 887, 900, 915, 942, 944, 961, 981, 1006, 1015, 1036, 1040, 1058, 1077, 1101, 1114, 1126, 1148, 1160, 1173, 1188, 1210, 1230, 1234, 1262, 1272, 1282, 1309, 1317, 1340, 1345, 1374, 1379, 1398, 1409, 1425, 1446, 1458, 1479, 1492, 1513, 1523, 1540, 1564, 1576, 1585, 1606, 1630, 1646, 1662, 1668, 1682, 1705, 1714, 1732, 1751, 1770, 1783, 1797, 1823, 1827, 1846, 1870, 1879, 1900, 1919, 1928, 1938, 1954, 1983, 1991, 2011, 2018, 2043, 
Lime samples: size is 15
3, 135, 258, 397, 518, 655, 777, 900, 1036, 1160, 1282, 1409, 1540, 1668, 1797, 
Insertion Distribution: 
	LOAD 107824 0 0 0 0 0 121751 666867 
	RFO 1481 0 0 0 0 0 1052 3991 
	PREF 0 274623 0 0 0 0 1473116 3905057 
	WRITEBACK 0 0 0 0 0 0 0 30890 
Total Prefetch Downgrades: 779012
