
*** ChampSim Multicore Out-of-Order Simulator ***

Warmup Instructions: 10000000
Simulation Instructions: 100000000
Configuration: 2
Number of CPUs: 1
LLC sets: 2048
LLC ways: 16
Off-chip DRAM Channels: 1 Width: 64-bit Data Rate: 1600 MT/s

CPU 0 runs /datasets/cs240c-wi22-a00-public/data/Assignment2-gz/zeusmp_100B.trace.gz
CPU 0 L1D next line prefetcher
CPU 0 L2C IP-based stride prefetcher
Heartbeat CPU 0 instructions: 1000002 cycles: 462673 heartbeat IPC: 2.16136 cumulative IPC: 2.16136 (Simulation time: 0 hr 0 min 23 sec) 
select_counter is 422
Heartbeat CPU 0 instructions: 2000001 cycles: 925459 heartbeat IPC: 2.16082 cumulative IPC: 2.16109 (Simulation time: 0 hr 0 min 44 sec) 
select_counter is 363
Heartbeat CPU 0 instructions: 3000003 cycles: 1388518 heartbeat IPC: 2.15956 cumulative IPC: 2.16058 (Simulation time: 0 hr 1 min 4 sec) 
select_counter is 229
Heartbeat CPU 0 instructions: 4000000 cycles: 1851242 heartbeat IPC: 2.16111 cumulative IPC: 2.16071 (Simulation time: 0 hr 1 min 24 sec) 
select_counter is 139
Heartbeat CPU 0 instructions: 5000003 cycles: 2314182 heartbeat IPC: 2.16011 cumulative IPC: 2.16059 (Simulation time: 0 hr 1 min 44 sec) 
select_counter is 1008
Heartbeat CPU 0 instructions: 6000001 cycles: 2777004 heartbeat IPC: 2.16065 cumulative IPC: 2.1606 (Simulation time: 0 hr 2 min 6 sec) 
select_counter is 923
Heartbeat CPU 0 instructions: 7000001 cycles: 3239743 heartbeat IPC: 2.16105 cumulative IPC: 2.16067 (Simulation time: 0 hr 2 min 25 sec) 
select_counter is 904
Heartbeat CPU 0 instructions: 8000000 cycles: 3702647 heartbeat IPC: 2.16027 cumulative IPC: 2.16062 (Simulation time: 0 hr 2 min 43 sec) 
select_counter is 888
Heartbeat CPU 0 instructions: 9000003 cycles: 4165407 heartbeat IPC: 2.16095 cumulative IPC: 2.16065 (Simulation time: 0 hr 3 min 1 sec) 
select_counter is 855
Heartbeat CPU 0 instructions: 10000001 cycles: 4628730 heartbeat IPC: 2.15832 cumulative IPC: 2.16042 (Simulation time: 0 hr 3 min 20 sec) 
select_counter is 888

Warmup complete CPU 0 instructions: 10000001 cycles: 4628730 (Simulation time: 0 hr 3 min 20 sec) 

Heartbeat CPU 0 instructions: 11000000 cycles: 5319042 heartbeat IPC: 1.44862 cumulative IPC: 1.44862 (Simulation time: 0 hr 3 min 42 sec) 
select_counter is 923
Heartbeat CPU 0 instructions: 12000000 cycles: 6020716 heartbeat IPC: 1.42516 cumulative IPC: 1.4368 (Simulation time: 0 hr 4 min 6 sec) 
select_counter is 901
Heartbeat CPU 0 instructions: 13000001 cycles: 6731741 heartbeat IPC: 1.40642 cumulative IPC: 1.42653 (Simulation time: 0 hr 4 min 33 sec) 
select_counter is 867
Heartbeat CPU 0 instructions: 14000003 cycles: 7458243 heartbeat IPC: 1.37646 cumulative IPC: 1.41367 (Simulation time: 0 hr 4 min 56 sec) 
select_counter is 859
Heartbeat CPU 0 instructions: 15000002 cycles: 8196382 heartbeat IPC: 1.35476 cumulative IPC: 1.40148 (Simulation time: 0 hr 5 min 20 sec) 
select_counter is 847
Heartbeat CPU 0 instructions: 16000000 cycles: 8911351 heartbeat IPC: 1.39866 cumulative IPC: 1.40101 (Simulation time: 0 hr 5 min 45 sec) 
select_counter is 879
Heartbeat CPU 0 instructions: 17000003 cycles: 9696316 heartbeat IPC: 1.27395 cumulative IPC: 1.38133 (Simulation time: 0 hr 6 min 10 sec) 
select_counter is 915
Heartbeat CPU 0 instructions: 18000000 cycles: 10395571 heartbeat IPC: 1.43009 cumulative IPC: 1.38724 (Simulation time: 0 hr 6 min 31 sec) 
select_counter is 886
Heartbeat CPU 0 instructions: 19000002 cycles: 11098983 heartbeat IPC: 1.42164 cumulative IPC: 1.39098 (Simulation time: 0 hr 6 min 53 sec) 
select_counter is 940
Heartbeat CPU 0 instructions: 20000000 cycles: 11791392 heartbeat IPC: 1.44423 cumulative IPC: 1.39613 (Simulation time: 0 hr 7 min 21 sec) 
select_counter is 1015
Heartbeat CPU 0 instructions: 21000001 cycles: 12495851 heartbeat IPC: 1.41953 cumulative IPC: 1.39822 (Simulation time: 0 hr 7 min 47 sec) 
select_counter is 1023
Heartbeat CPU 0 instructions: 22000001 cycles: 13190127 heartbeat IPC: 1.44035 cumulative IPC: 1.40164 (Simulation time: 0 hr 8 min 11 sec) 
select_counter is 1023
Heartbeat CPU 0 instructions: 23000002 cycles: 13904772 heartbeat IPC: 1.3993 cumulative IPC: 1.40146 (Simulation time: 0 hr 8 min 32 sec) 
select_counter is 1014
Heartbeat CPU 0 instructions: 24000000 cycles: 14600130 heartbeat IPC: 1.43811 cumulative IPC: 1.40402 (Simulation time: 0 hr 8 min 52 sec) 
select_counter is 1023
Heartbeat CPU 0 instructions: 25000001 cycles: 15309081 heartbeat IPC: 1.41054 cumulative IPC: 1.40445 (Simulation time: 0 hr 9 min 16 sec) 
select_counter is 1023
Heartbeat CPU 0 instructions: 26000001 cycles: 16006506 heartbeat IPC: 1.43385 cumulative IPC: 1.40625 (Simulation time: 0 hr 9 min 41 sec) 
select_counter is 1001
Heartbeat CPU 0 instructions: 27000000 cycles: 16721319 heartbeat IPC: 1.39897 cumulative IPC: 1.40582 (Simulation time: 0 hr 10 min 5 sec) 
select_counter is 1018
Heartbeat CPU 0 instructions: 28000000 cycles: 17421130 heartbeat IPC: 1.42896 cumulative IPC: 1.40709 (Simulation time: 0 hr 10 min 26 sec) 
select_counter is 1015
Heartbeat CPU 0 instructions: 29000000 cycles: 18120074 heartbeat IPC: 1.43073 cumulative IPC: 1.40831 (Simulation time: 0 hr 10 min 48 sec) 
select_counter is 1021
Heartbeat CPU 0 instructions: 30000003 cycles: 18830860 heartbeat IPC: 1.4069 cumulative IPC: 1.40824 (Simulation time: 0 hr 11 min 9 sec) 
select_counter is 1020
Heartbeat CPU 0 instructions: 31000000 cycles: 19527991 heartbeat IPC: 1.43445 cumulative IPC: 1.40947 (Simulation time: 0 hr 11 min 29 sec) 
select_counter is 1020
Heartbeat CPU 0 instructions: 32000000 cycles: 20243585 heartbeat IPC: 1.39744 cumulative IPC: 1.40891 (Simulation time: 0 hr 11 min 49 sec) 
select_counter is 1011
Heartbeat CPU 0 instructions: 33000002 cycles: 20937774 heartbeat IPC: 1.44053 cumulative IPC: 1.41026 (Simulation time: 0 hr 12 min 10 sec) 
select_counter is 1023
Heartbeat CPU 0 instructions: 34000002 cycles: 21647203 heartbeat IPC: 1.40958 cumulative IPC: 1.41023 (Simulation time: 0 hr 12 min 31 sec) 
select_counter is 1020
Heartbeat CPU 0 instructions: 35000003 cycles: 22348244 heartbeat IPC: 1.42645 cumulative IPC: 1.41087 (Simulation time: 0 hr 12 min 54 sec) 
select_counter is 1023
Heartbeat CPU 0 instructions: 36000000 cycles: 23058980 heartbeat IPC: 1.40699 cumulative IPC: 1.41072 (Simulation time: 0 hr 13 min 15 sec) 
select_counter is 1015
Heartbeat CPU 0 instructions: 37000001 cycles: 23760207 heartbeat IPC: 1.42607 cumulative IPC: 1.41129 (Simulation time: 0 hr 13 min 37 sec) 
select_counter is 1022
Heartbeat CPU 0 instructions: 38000003 cycles: 24473888 heartbeat IPC: 1.40119 cumulative IPC: 1.41092 (Simulation time: 0 hr 14 min 2 sec) 
select_counter is 1007
Heartbeat CPU 0 instructions: 39000001 cycles: 25174375 heartbeat IPC: 1.42758 cumulative IPC: 1.41149 (Simulation time: 0 hr 14 min 27 sec) 
select_counter is 1023
Heartbeat CPU 0 instructions: 40000000 cycles: 25890713 heartbeat IPC: 1.39599 cumulative IPC: 1.41097 (Simulation time: 0 hr 14 min 50 sec) 
select_counter is 1019
Heartbeat CPU 0 instructions: 41000003 cycles: 26593768 heartbeat IPC: 1.42237 cumulative IPC: 1.41133 (Simulation time: 0 hr 15 min 13 sec) 
select_counter is 1017
Heartbeat CPU 0 instructions: 42000001 cycles: 27294075 heartbeat IPC: 1.42794 cumulative IPC: 1.41185 (Simulation time: 0 hr 15 min 35 sec) 
select_counter is 1020
Heartbeat CPU 0 instructions: 43000003 cycles: 28011730 heartbeat IPC: 1.39343 cumulative IPC: 1.41128 (Simulation time: 0 hr 16 min 1 sec) 
select_counter is 1021
Heartbeat CPU 0 instructions: 44000000 cycles: 28714926 heartbeat IPC: 1.42207 cumulative IPC: 1.4116 (Simulation time: 0 hr 16 min 25 sec) 
select_counter is 1011
Heartbeat CPU 0 instructions: 45000001 cycles: 29431981 heartbeat IPC: 1.39459 cumulative IPC: 1.41111 (Simulation time: 0 hr 16 min 48 sec) 
select_counter is 1013
Heartbeat CPU 0 instructions: 46000002 cycles: 30136205 heartbeat IPC: 1.42 cumulative IPC: 1.41135 (Simulation time: 0 hr 17 min 10 sec) 
select_counter is 1021
Heartbeat CPU 0 instructions: 47000003 cycles: 30849402 heartbeat IPC: 1.40214 cumulative IPC: 1.4111 (Simulation time: 0 hr 17 min 34 sec) 
select_counter is 1023
Heartbeat CPU 0 instructions: 48000000 cycles: 31549401 heartbeat IPC: 1.42857 cumulative IPC: 1.41155 (Simulation time: 0 hr 17 min 56 sec) 
select_counter is 1008
Heartbeat CPU 0 instructions: 49000001 cycles: 32263537 heartbeat IPC: 1.40029 cumulative IPC: 1.41126 (Simulation time: 0 hr 18 min 18 sec) 
select_counter is 1016
Heartbeat CPU 0 instructions: 50000001 cycles: 32967520 heartbeat IPC: 1.42049 cumulative IPC: 1.41149 (Simulation time: 0 hr 18 min 38 sec) 
select_counter is 1021
Heartbeat CPU 0 instructions: 51000002 cycles: 33683038 heartbeat IPC: 1.39759 cumulative IPC: 1.41115 (Simulation time: 0 hr 18 min 58 sec) 
select_counter is 1019
Heartbeat CPU 0 instructions: 52000000 cycles: 34384230 heartbeat IPC: 1.42614 cumulative IPC: 1.4115 (Simulation time: 0 hr 19 min 18 sec) 
select_counter is 1021
Heartbeat CPU 0 instructions: 53000001 cycles: 35098392 heartbeat IPC: 1.40024 cumulative IPC: 1.41124 (Simulation time: 0 hr 19 min 41 sec) 
select_counter is 1018
Heartbeat CPU 0 instructions: 54000003 cycles: 35801527 heartbeat IPC: 1.4222 cumulative IPC: 1.41149 (Simulation time: 0 hr 20 min 1 sec) 
select_counter is 1019
Heartbeat CPU 0 instructions: 55000003 cycles: 36508919 heartbeat IPC: 1.41364 cumulative IPC: 1.41154 (Simulation time: 0 hr 20 min 23 sec) 
select_counter is 1022
Heartbeat CPU 0 instructions: 56000000 cycles: 37220628 heartbeat IPC: 1.40506 cumulative IPC: 1.41139 (Simulation time: 0 hr 20 min 44 sec) 
select_counter is 1023
Heartbeat CPU 0 instructions: 57000003 cycles: 37920055 heartbeat IPC: 1.42975 cumulative IPC: 1.41178 (Simulation time: 0 hr 21 min 5 sec) 
select_counter is 1023
Heartbeat CPU 0 instructions: 58000003 cycles: 38635869 heartbeat IPC: 1.39701 cumulative IPC: 1.41147 (Simulation time: 0 hr 21 min 25 sec) 
select_counter is 1018
Heartbeat CPU 0 instructions: 59000000 cycles: 39337919 heartbeat IPC: 1.4244 cumulative IPC: 1.41173 (Simulation time: 0 hr 21 min 46 sec) 
select_counter is 1016
Heartbeat CPU 0 instructions: 60000000 cycles: 40055518 heartbeat IPC: 1.39354 cumulative IPC: 1.41136 (Simulation time: 0 hr 22 min 8 sec) 
select_counter is 1022
Heartbeat CPU 0 instructions: 61000000 cycles: 40758534 heartbeat IPC: 1.42244 cumulative IPC: 1.41158 (Simulation time: 0 hr 22 min 33 sec) 
select_counter is 1020
Heartbeat CPU 0 instructions: 62000001 cycles: 41473965 heartbeat IPC: 1.39776 cumulative IPC: 1.41131 (Simulation time: 0 hr 22 min 56 sec) 
select_counter is 1016
Heartbeat CPU 0 instructions: 63000001 cycles: 42177990 heartbeat IPC: 1.4204 cumulative IPC: 1.41148 (Simulation time: 0 hr 23 min 17 sec) 
select_counter is 1018
Heartbeat CPU 0 instructions: 64000000 cycles: 42896497 heartbeat IPC: 1.39177 cumulative IPC: 1.41111 (Simulation time: 0 hr 23 min 40 sec) 
select_counter is 1022
Heartbeat CPU 0 instructions: 65000003 cycles: 43598184 heartbeat IPC: 1.42514 cumulative IPC: 1.41136 (Simulation time: 0 hr 24 min 5 sec) 
select_counter is 1023
Heartbeat CPU 0 instructions: 66000003 cycles: 44313249 heartbeat IPC: 1.39847 cumulative IPC: 1.41113 (Simulation time: 0 hr 24 min 31 sec) 
select_counter is 1018
Heartbeat CPU 0 instructions: 67000000 cycles: 45017324 heartbeat IPC: 1.4203 cumulative IPC: 1.41129 (Simulation time: 0 hr 24 min 53 sec) 
select_counter is 1021
Heartbeat CPU 0 instructions: 68000000 cycles: 45728765 heartbeat IPC: 1.4056 cumulative IPC: 1.41119 (Simulation time: 0 hr 25 min 14 sec) 
select_counter is 1021
Heartbeat CPU 0 instructions: 69000000 cycles: 46434473 heartbeat IPC: 1.41702 cumulative IPC: 1.41129 (Simulation time: 0 hr 25 min 37 sec) 
select_counter is 1023
Heartbeat CPU 0 instructions: 70000003 cycles: 47133966 heartbeat IPC: 1.42961 cumulative IPC: 1.41159 (Simulation time: 0 hr 26 min 3 sec) 
select_counter is 1022
Heartbeat CPU 0 instructions: 71000003 cycles: 47847757 heartbeat IPC: 1.40097 cumulative IPC: 1.41142 (Simulation time: 0 hr 26 min 25 sec) 
select_counter is 1020
Heartbeat CPU 0 instructions: 72000000 cycles: 48549731 heartbeat IPC: 1.42455 cumulative IPC: 1.41163 (Simulation time: 0 hr 26 min 48 sec) 
select_counter is 1017
Heartbeat CPU 0 instructions: 73000002 cycles: 49267032 heartbeat IPC: 1.39412 cumulative IPC: 1.41134 (Simulation time: 0 hr 27 min 15 sec) 
select_counter is 1012
Heartbeat CPU 0 instructions: 74000003 cycles: 49968193 heartbeat IPC: 1.42621 cumulative IPC: 1.41157 (Simulation time: 0 hr 27 min 40 sec) 
select_counter is 1016
Heartbeat CPU 0 instructions: 75000003 cycles: 50682005 heartbeat IPC: 1.40093 cumulative IPC: 1.41141 (Simulation time: 0 hr 28 min 7 sec) 
select_counter is 1020
Heartbeat CPU 0 instructions: 76000000 cycles: 51382767 heartbeat IPC: 1.42701 cumulative IPC: 1.41164 (Simulation time: 0 hr 28 min 37 sec) 
select_counter is 1021
Heartbeat CPU 0 instructions: 77000003 cycles: 52103263 heartbeat IPC: 1.38794 cumulative IPC: 1.41128 (Simulation time: 0 hr 29 min 0 sec) 
select_counter is 1016
Heartbeat CPU 0 instructions: 78000002 cycles: 52807926 heartbeat IPC: 1.41912 cumulative IPC: 1.4114 (Simulation time: 0 hr 29 min 27 sec) 
select_counter is 1019
Heartbeat CPU 0 instructions: 79000000 cycles: 53521136 heartbeat IPC: 1.40211 cumulative IPC: 1.41126 (Simulation time: 0 hr 29 min 51 sec) 
select_counter is 1023
Heartbeat CPU 0 instructions: 80000000 cycles: 54220195 heartbeat IPC: 1.43049 cumulative IPC: 1.41153 (Simulation time: 0 hr 30 min 18 sec) 
select_counter is 1021
Heartbeat CPU 0 instructions: 81000003 cycles: 54938114 heartbeat IPC: 1.39292 cumulative IPC: 1.41127 (Simulation time: 0 hr 30 min 48 sec) 
select_counter is 1022
Heartbeat CPU 0 instructions: 82000000 cycles: 55642550 heartbeat IPC: 1.41957 cumulative IPC: 1.41138 (Simulation time: 0 hr 31 min 14 sec) 
select_counter is 1014
Heartbeat CPU 0 instructions: 83000002 cycles: 56343426 heartbeat IPC: 1.42679 cumulative IPC: 1.41159 (Simulation time: 0 hr 31 min 37 sec) 
select_counter is 1023
Heartbeat CPU 0 instructions: 84000000 cycles: 57056507 heartbeat IPC: 1.40236 cumulative IPC: 1.41147 (Simulation time: 0 hr 32 min 5 sec) 
select_counter is 1022
Heartbeat CPU 0 instructions: 85000001 cycles: 57755130 heartbeat IPC: 1.43139 cumulative IPC: 1.41173 (Simulation time: 0 hr 32 min 32 sec) 
select_counter is 1020
Heartbeat CPU 0 instructions: 86000001 cycles: 58470742 heartbeat IPC: 1.39741 cumulative IPC: 1.41154 (Simulation time: 0 hr 32 min 59 sec) 
select_counter is 1016
Heartbeat CPU 0 instructions: 87000001 cycles: 59175176 heartbeat IPC: 1.41958 cumulative IPC: 1.41164 (Simulation time: 0 hr 33 min 25 sec) 
select_counter is 1021
Heartbeat CPU 0 instructions: 88000000 cycles: 59889642 heartbeat IPC: 1.39965 cumulative IPC: 1.41149 (Simulation time: 0 hr 33 min 51 sec) 
select_counter is 1020
Heartbeat CPU 0 instructions: 89000003 cycles: 60590820 heartbeat IPC: 1.42618 cumulative IPC: 1.41167 (Simulation time: 0 hr 34 min 16 sec) 
select_counter is 1023
Heartbeat CPU 0 instructions: 90000001 cycles: 61305567 heartbeat IPC: 1.39909 cumulative IPC: 1.41151 (Simulation time: 0 hr 34 min 40 sec) 
select_counter is 1023
Heartbeat CPU 0 instructions: 91000001 cycles: 62011673 heartbeat IPC: 1.41622 cumulative IPC: 1.41157 (Simulation time: 0 hr 35 min 3 sec) 
select_counter is 1018
Heartbeat CPU 0 instructions: 92000000 cycles: 62730277 heartbeat IPC: 1.39159 cumulative IPC: 1.41132 (Simulation time: 0 hr 35 min 27 sec) 
select_counter is 1002
Heartbeat CPU 0 instructions: 93000001 cycles: 63434498 heartbeat IPC: 1.42001 cumulative IPC: 1.41143 (Simulation time: 0 hr 35 min 54 sec) 
select_counter is 1019
Heartbeat CPU 0 instructions: 94000003 cycles: 64150494 heartbeat IPC: 1.39666 cumulative IPC: 1.41125 (Simulation time: 0 hr 36 min 17 sec) 
select_counter is 1010
Heartbeat CPU 0 instructions: 95000003 cycles: 64855948 heartbeat IPC: 1.41753 cumulative IPC: 1.41132 (Simulation time: 0 hr 36 min 38 sec) 
select_counter is 1022
Heartbeat CPU 0 instructions: 96000000 cycles: 65564393 heartbeat IPC: 1.41154 cumulative IPC: 1.41132 (Simulation time: 0 hr 37 min 2 sec) 
select_counter is 1022
Heartbeat CPU 0 instructions: 97000000 cycles: 66278351 heartbeat IPC: 1.40064 cumulative IPC: 1.4112 (Simulation time: 0 hr 37 min 23 sec) 
select_counter is 1015
Heartbeat CPU 0 instructions: 98000001 cycles: 66978216 heartbeat IPC: 1.42885 cumulative IPC: 1.4114 (Simulation time: 0 hr 37 min 45 sec) 
select_counter is 1015
Heartbeat CPU 0 instructions: 99000001 cycles: 67695537 heartbeat IPC: 1.39408 cumulative IPC: 1.4112 (Simulation time: 0 hr 38 min 9 sec) 
select_counter is 1008
Heartbeat CPU 0 instructions: 100000000 cycles: 68405047 heartbeat IPC: 1.40942 cumulative IPC: 1.41118 (Simulation time: 0 hr 38 min 30 sec) 
select_counter is 984
Heartbeat CPU 0 instructions: 101000002 cycles: 69130037 heartbeat IPC: 1.37933 cumulative IPC: 1.41082 (Simulation time: 0 hr 38 min 52 sec) 
select_counter is 1017
Heartbeat CPU 0 instructions: 102000003 cycles: 69843144 heartbeat IPC: 1.40232 cumulative IPC: 1.41073 (Simulation time: 0 hr 39 min 14 sec) 
select_counter is 1022
Heartbeat CPU 0 instructions: 103000001 cycles: 70566543 heartbeat IPC: 1.38236 cumulative IPC: 1.41042 (Simulation time: 0 hr 39 min 38 sec) 
select_counter is 988
Heartbeat CPU 0 instructions: 104000000 cycles: 71277273 heartbeat IPC: 1.407 cumulative IPC: 1.41038 (Simulation time: 0 hr 40 min 0 sec) 
select_counter is 972
Heartbeat CPU 0 instructions: 105000003 cycles: 72002141 heartbeat IPC: 1.37957 cumulative IPC: 1.41005 (Simulation time: 0 hr 40 min 21 sec) 
select_counter is 927
Heartbeat CPU 0 instructions: 106000002 cycles: 72711319 heartbeat IPC: 1.41008 cumulative IPC: 1.41005 (Simulation time: 0 hr 40 min 40 sec) 
select_counter is 941
Heartbeat CPU 0 instructions: 107000000 cycles: 73431945 heartbeat IPC: 1.38768 cumulative IPC: 1.40982 (Simulation time: 0 hr 40 min 58 sec) 
select_counter is 925
Heartbeat CPU 0 instructions: 108000000 cycles: 74130525 heartbeat IPC: 1.43148 cumulative IPC: 1.41004 (Simulation time: 0 hr 41 min 17 sec) 
select_counter is 891
Heartbeat CPU 0 instructions: 109000002 cycles: 74829088 heartbeat IPC: 1.43151 cumulative IPC: 1.41025 (Simulation time: 0 hr 41 min 37 sec) 
select_counter is 935
Heartbeat CPU 0 instructions: 110000000 cycles: 75538370 heartbeat IPC: 1.40987 cumulative IPC: 1.41025 (Simulation time: 0 hr 41 min 55 sec) 
select_counter is 878
Finished CPU 0 instructions: 100000003 cycles: 70909641 cummulative IPC: 1.41025 (Simulation time: 0 hr 41 min 55 sec) 

ChampSim completed all CPUs

Region of Interest Statistics

CPU 0 cummulative IPC: 1.41025 instructions: 100000003 cycles: 70909641
LLC TOTAL     ACCESS:     833290  HIT:     191697  MISS:     641593
LLC LOAD      ACCESS:      26483  HIT:      10560  MISS:      15923
LLC RFO       ACCESS:     201576  HIT:       8183  MISS:     193393
LLC PREFETCH  ACCESS:     402051  HIT:       3425  MISS:     398626
LLC WRITEBACK ACCESS:     203180  HIT:     169529  MISS:      33651
Ship samples: size is 64
8, 46, 71, 108, 137, 175, 207, 234, 271, 295, 328, 367, 389, 419, 451, 490, 514, 558, 589, 618, 650, 687, 713, 748, 768, 812, 834, 864, 897, 933, 967, 1004, 1032, 1057, 1100, 1133, 1157, 1189, 1221, 1263, 1286, 1323, 1353, 1381, 1416, 1446, 1473, 1509, 1547, 1580, 1601, 1636, 1667, 1704, 1732, 1769, 1805, 1831, 1858, 1900, 1933, 1954, 1991, 2019, 
Ship duel samples: size is 128
8, 20, 46, 54, 71, 95, 108, 125, 137, 150, 175, 191, 207, 210, 234, 255, 271, 282, 295, 311, 328, 346, 367, 369, 389, 410, 419, 433, 451, 468, 490, 503, 514, 528, 558, 561, 589, 603, 618, 627, 650, 666, 687, 698, 713, 729, 748, 756, 768, 787, 812, 826, 834, 862, 864, 893, 897, 912, 933, 955, 967, 983, 1004, 1013, 1032, 1049, 1057, 1075, 1100, 1115, 1133, 1148, 1157, 1177, 1189, 1214, 1221, 1241, 1263, 1273, 1286, 1305, 1323, 1332, 1353, 1368, 1381, 1403, 1416, 1434, 1446, 1471, 1473, 1490, 1509, 1529, 1547, 1558, 1580, 1592, 1601, 1625, 1636, 1655, 1667, 1685, 1704, 1715, 1732, 1745, 1769, 1790, 1805, 1821, 1831, 1845, 1858, 1874, 1900, 1913, 1933, 1949, 1954, 1974, 1991, 2008, 2019, 2047, 
Lime duel samples: size is 128
13, 26, 36, 57, 76, 81, 109, 113, 132, 144, 161, 176, 204, 213, 224, 241, 267, 279, 298, 309, 334, 350, 365, 377, 387, 401, 423, 435, 450, 478, 480, 496, 520, 532, 553, 564, 581, 598, 613, 633, 647, 662, 682, 691, 716, 730, 741, 759, 770, 799, 813, 816, 845, 858, 874, 881, 907, 913, 932, 957, 975, 980, 1005, 1015, 1033, 1047, 1068, 1086, 1101, 1105, 1128, 1140, 1160, 1170, 1192, 1204, 1228, 1245, 1259, 1278, 1292, 1304, 1327, 1338, 1346, 1369, 1387, 1405, 1418, 1439, 1451, 1465, 1476, 1496, 1504, 1533, 1551, 1564, 1579, 1597, 1614, 1619, 1633, 1654, 1669, 1689, 1706, 1714, 1734, 1749, 1760, 1779, 1806, 1823, 1837, 1840, 1864, 1880, 1902, 1906, 1927, 1945, 1963, 1979, 1985, 2012, 2024, 2033, 
Lime samples: size is 15
13, 132, 267, 387, 520, 647, 770, 907, 1033, 1160, 1292, 1418, 1551, 1669, 1806, 
Insertion Distribution: 
	LOAD 197 0 0 0 0 0 1219 582 
	RFO 2225 0 0 0 0 0 3820 11911 
	PREF 0 4992 0 0 0 0 10723 23879 
	WRITEBACK 0 0 0 0 0 0 0 9517 
Total Prefetch Downgrades: 1668
