
*** ChampSim Multicore Out-of-Order Simulator ***

Warmup Instructions: 10000000
Simulation Instructions: 100000000
Configuration: 2
Number of CPUs: 1
LLC sets: 2048
LLC ways: 16
Off-chip DRAM Channels: 1 Width: 64-bit Data Rate: 1600 MT/s

CPU 0 runs /datasets/cs240c-wi22-a00-public/data/Assignment2-gz/sphinx3_2520B.trace.gz
CPU 0 L1D next line prefetcher
CPU 0 L2C IP-based stride prefetcher
Heartbeat CPU 0 instructions: 1000003 cycles: 338965 heartbeat IPC: 2.95017 cumulative IPC: 2.95017 (Simulation time: 0 hr 0 min 20 sec) 
select_counter is 516
Heartbeat CPU 0 instructions: 2000000 cycles: 737245 heartbeat IPC: 2.51079 cumulative IPC: 2.7128 (Simulation time: 0 hr 0 min 46 sec) 
select_counter is 450
Heartbeat CPU 0 instructions: 3000003 cycles: 1185243 heartbeat IPC: 2.23216 cumulative IPC: 2.53113 (Simulation time: 0 hr 1 min 5 sec) 
select_counter is 379
Heartbeat CPU 0 instructions: 4000000 cycles: 1524270 heartbeat IPC: 2.94961 cumulative IPC: 2.62421 (Simulation time: 0 hr 1 min 27 sec) 
select_counter is 224
Heartbeat CPU 0 instructions: 5000001 cycles: 1902449 heartbeat IPC: 2.64425 cumulative IPC: 2.62819 (Simulation time: 0 hr 1 min 48 sec) 
select_counter is 742
Heartbeat CPU 0 instructions: 6000001 cycles: 2367901 heartbeat IPC: 2.14845 cumulative IPC: 2.53389 (Simulation time: 0 hr 2 min 6 sec) 
select_counter is 285
Heartbeat CPU 0 instructions: 7000001 cycles: 2706839 heartbeat IPC: 2.95039 cumulative IPC: 2.58604 (Simulation time: 0 hr 2 min 24 sec) 
select_counter is 235
Heartbeat CPU 0 instructions: 8000000 cycles: 3055869 heartbeat IPC: 2.86508 cumulative IPC: 2.61791 (Simulation time: 0 hr 2 min 47 sec) 
select_counter is 961
Heartbeat CPU 0 instructions: 9000000 cycles: 3509305 heartbeat IPC: 2.20538 cumulative IPC: 2.56461 (Simulation time: 0 hr 3 min 6 sec) 
select_counter is 510
Heartbeat CPU 0 instructions: 10000000 cycles: 3859467 heartbeat IPC: 2.85582 cumulative IPC: 2.59103 (Simulation time: 0 hr 3 min 30 sec) 
select_counter is 476

Warmup complete CPU 0 instructions: 10000004 cycles: 3859468 (Simulation time: 0 hr 3 min 30 sec) 

Heartbeat CPU 0 instructions: 11000001 cycles: 4689977 heartbeat IPC: 1.20408 cumulative IPC: 1.20408 (Simulation time: 0 hr 4 min 1 sec) 
select_counter is 204
Heartbeat CPU 0 instructions: 12000000 cycles: 5557969 heartbeat IPC: 1.15208 cumulative IPC: 1.17751 (Simulation time: 0 hr 4 min 27 sec) 
select_counter is 774
Heartbeat CPU 0 instructions: 13000002 cycles: 6403858 heartbeat IPC: 1.18219 cumulative IPC: 1.17906 (Simulation time: 0 hr 4 min 50 sec) 
select_counter is 740
Heartbeat CPU 0 instructions: 14000002 cycles: 7183803 heartbeat IPC: 1.28214 cumulative IPC: 1.20325 (Simulation time: 0 hr 5 min 18 sec) 
select_counter is 457
Heartbeat CPU 0 instructions: 15000003 cycles: 8060237 heartbeat IPC: 1.14099 cumulative IPC: 1.19026 (Simulation time: 0 hr 5 min 45 sec) 
select_counter is 1018
Heartbeat CPU 0 instructions: 16000000 cycles: 8894998 heartbeat IPC: 1.19794 cumulative IPC: 1.19153 (Simulation time: 0 hr 6 min 8 sec) 
select_counter is 967
Heartbeat CPU 0 instructions: 17000000 cycles: 9657446 heartbeat IPC: 1.31156 cumulative IPC: 1.20732 (Simulation time: 0 hr 6 min 29 sec) 
select_counter is 706
Heartbeat CPU 0 instructions: 18000002 cycles: 10506832 heartbeat IPC: 1.17732 cumulative IPC: 1.20348 (Simulation time: 0 hr 6 min 48 sec) 
select_counter is 239
Heartbeat CPU 0 instructions: 19000001 cycles: 11339691 heartbeat IPC: 1.20068 cumulative IPC: 1.20317 (Simulation time: 0 hr 7 min 9 sec) 
select_counter is 197
Heartbeat CPU 0 instructions: 20000000 cycles: 12122784 heartbeat IPC: 1.27699 cumulative IPC: 1.21017 (Simulation time: 0 hr 7 min 30 sec) 
select_counter is 994
Heartbeat CPU 0 instructions: 21000001 cycles: 13292684 heartbeat IPC: 0.854775 cumulative IPC: 1.16609 (Simulation time: 0 hr 7 min 57 sec) 
select_counter is 894
Heartbeat CPU 0 instructions: 22000002 cycles: 14246354 heartbeat IPC: 1.04858 cumulative IPC: 1.1553 (Simulation time: 0 hr 8 min 18 sec) 
select_counter is 586
Heartbeat CPU 0 instructions: 23000001 cycles: 15065672 heartbeat IPC: 1.22053 cumulative IPC: 1.16007 (Simulation time: 0 hr 8 min 40 sec) 
select_counter is 545
Heartbeat CPU 0 instructions: 24000000 cycles: 15859643 heartbeat IPC: 1.25949 cumulative IPC: 1.16665 (Simulation time: 0 hr 9 min 0 sec) 
select_counter is 375
Heartbeat CPU 0 instructions: 25000003 cycles: 16677046 heartbeat IPC: 1.22339 cumulative IPC: 1.17027 (Simulation time: 0 hr 9 min 20 sec) 
select_counter is 951
Heartbeat CPU 0 instructions: 26000001 cycles: 17480080 heartbeat IPC: 1.24527 cumulative IPC: 1.17469 (Simulation time: 0 hr 9 min 41 sec) 
select_counter is 913
Heartbeat CPU 0 instructions: 27000000 cycles: 18246920 heartbeat IPC: 1.30405 cumulative IPC: 1.18158 (Simulation time: 0 hr 10 min 1 sec) 
select_counter is 682
Heartbeat CPU 0 instructions: 28000000 cycles: 19061840 heartbeat IPC: 1.22711 cumulative IPC: 1.18403 (Simulation time: 0 hr 10 min 22 sec) 
select_counter is 231
Heartbeat CPU 0 instructions: 29000003 cycles: 19872868 heartbeat IPC: 1.23301 cumulative IPC: 1.18651 (Simulation time: 0 hr 10 min 46 sec) 
select_counter is 194
Heartbeat CPU 0 instructions: 30000003 cycles: 20659511 heartbeat IPC: 1.27122 cumulative IPC: 1.19047 (Simulation time: 0 hr 11 min 7 sec) 
select_counter is 1016
Heartbeat CPU 0 instructions: 31000001 cycles: 21473498 heartbeat IPC: 1.22852 cumulative IPC: 1.19223 (Simulation time: 0 hr 11 min 29 sec) 
select_counter is 605
Heartbeat CPU 0 instructions: 32000000 cycles: 22272908 heartbeat IPC: 1.25092 cumulative IPC: 1.19478 (Simulation time: 0 hr 11 min 51 sec) 
select_counter is 555
Heartbeat CPU 0 instructions: 33000000 cycles: 23054305 heartbeat IPC: 1.27976 cumulative IPC: 1.19824 (Simulation time: 0 hr 12 min 12 sec) 
select_counter is 319
Heartbeat CPU 0 instructions: 34000000 cycles: 23860791 heartbeat IPC: 1.23995 cumulative IPC: 1.19992 (Simulation time: 0 hr 12 min 37 sec) 
select_counter is 948
Heartbeat CPU 0 instructions: 35000002 cycles: 24666613 heartbeat IPC: 1.24097 cumulative IPC: 1.20151 (Simulation time: 0 hr 12 min 58 sec) 
select_counter is 896
Heartbeat CPU 0 instructions: 36000000 cycles: 25416626 heartbeat IPC: 1.33331 cumulative IPC: 1.2061 (Simulation time: 0 hr 13 min 22 sec) 
select_counter is 628
Heartbeat CPU 0 instructions: 37000000 cycles: 26234264 heartbeat IPC: 1.22304 cumulative IPC: 1.20671 (Simulation time: 0 hr 13 min 53 sec) 
select_counter is 251
Heartbeat CPU 0 instructions: 38000002 cycles: 27043774 heartbeat IPC: 1.23532 cumulative IPC: 1.20771 (Simulation time: 0 hr 14 min 23 sec) 
select_counter is 168
Heartbeat CPU 0 instructions: 39000000 cycles: 27849350 heartbeat IPC: 1.24135 cumulative IPC: 1.20884 (Simulation time: 0 hr 14 min 49 sec) 
select_counter is 967
Heartbeat CPU 0 instructions: 40000000 cycles: 28681369 heartbeat IPC: 1.2019 cumulative IPC: 1.20861 (Simulation time: 0 hr 15 min 10 sec) 
select_counter is 604
Heartbeat CPU 0 instructions: 41000001 cycles: 29476181 heartbeat IPC: 1.25816 cumulative IPC: 1.21015 (Simulation time: 0 hr 15 min 32 sec) 
select_counter is 495
Heartbeat CPU 0 instructions: 42000002 cycles: 30277801 heartbeat IPC: 1.24748 cumulative IPC: 1.21128 (Simulation time: 0 hr 15 min 53 sec) 
select_counter is 267
Heartbeat CPU 0 instructions: 43000001 cycles: 31078875 heartbeat IPC: 1.24832 cumulative IPC: 1.21237 (Simulation time: 0 hr 16 min 17 sec) 
select_counter is 926
Heartbeat CPU 0 instructions: 44000000 cycles: 31874836 heartbeat IPC: 1.25634 cumulative IPC: 1.21362 (Simulation time: 0 hr 16 min 37 sec) 
select_counter is 813
Heartbeat CPU 0 instructions: 45000001 cycles: 32647978 heartbeat IPC: 1.29342 cumulative IPC: 1.21576 (Simulation time: 0 hr 17 min 2 sec) 
select_counter is 550
Heartbeat CPU 0 instructions: 46000001 cycles: 33469820 heartbeat IPC: 1.21678 cumulative IPC: 1.21579 (Simulation time: 0 hr 17 min 27 sec) 
select_counter is 177
Heartbeat CPU 0 instructions: 47000003 cycles: 34267442 heartbeat IPC: 1.25373 cumulative IPC: 1.21679 (Simulation time: 0 hr 17 min 49 sec) 
select_counter is 64
Heartbeat CPU 0 instructions: 48000000 cycles: 35072648 heartbeat IPC: 1.24191 cumulative IPC: 1.21743 (Simulation time: 0 hr 18 min 14 sec) 
select_counter is 886
Heartbeat CPU 0 instructions: 49000002 cycles: 35855128 heartbeat IPC: 1.27799 cumulative IPC: 1.21892 (Simulation time: 0 hr 18 min 34 sec) 
select_counter is 504
Heartbeat CPU 0 instructions: 50000003 cycles: 36642701 heartbeat IPC: 1.26972 cumulative IPC: 1.22014 (Simulation time: 0 hr 18 min 54 sec) 
select_counter is 385
Heartbeat CPU 0 instructions: 51000001 cycles: 37450716 heartbeat IPC: 1.2376 cumulative IPC: 1.22056 (Simulation time: 0 hr 19 min 22 sec) 
select_counter is 173
Heartbeat CPU 0 instructions: 52000000 cycles: 38225206 heartbeat IPC: 1.29117 cumulative IPC: 1.22215 (Simulation time: 0 hr 19 min 50 sec) 
select_counter is 836
Heartbeat CPU 0 instructions: 53000003 cycles: 39010884 heartbeat IPC: 1.27279 cumulative IPC: 1.22328 (Simulation time: 0 hr 20 min 10 sec) 
select_counter is 698
Heartbeat CPU 0 instructions: 54000001 cycles: 39773124 heartbeat IPC: 1.31192 cumulative IPC: 1.22516 (Simulation time: 0 hr 20 min 29 sec) 
select_counter is 415
Heartbeat CPU 0 instructions: 55000000 cycles: 40535248 heartbeat IPC: 1.31212 cumulative IPC: 1.22697 (Simulation time: 0 hr 20 min 49 sec) 
select_counter is 92
Heartbeat CPU 0 instructions: 56000000 cycles: 41318777 heartbeat IPC: 1.27628 cumulative IPC: 1.228 (Simulation time: 0 hr 21 min 10 sec) 
select_counter is 979
Heartbeat CPU 0 instructions: 57000000 cycles: 42215045 heartbeat IPC: 1.11574 cumulative IPC: 1.22538 (Simulation time: 0 hr 21 min 32 sec) 
select_counter is 804
Heartbeat CPU 0 instructions: 58000002 cycles: 43344190 heartbeat IPC: 0.885628 cumulative IPC: 1.21566 (Simulation time: 0 hr 21 min 54 sec) 
select_counter is 804
Heartbeat CPU 0 instructions: 59000001 cycles: 44145422 heartbeat IPC: 1.24808 cumulative IPC: 1.2163 (Simulation time: 0 hr 22 min 15 sec) 
select_counter is 465
Heartbeat CPU 0 instructions: 60000000 cycles: 44928001 heartbeat IPC: 1.27782 cumulative IPC: 1.21748 (Simulation time: 0 hr 22 min 43 sec) 
select_counter is 325
Heartbeat CPU 0 instructions: 61000001 cycles: 45705695 heartbeat IPC: 1.28585 cumulative IPC: 1.21875 (Simulation time: 0 hr 23 min 7 sec) 
select_counter is 129
Heartbeat CPU 0 instructions: 62000000 cycles: 46482422 heartbeat IPC: 1.28745 cumulative IPC: 1.22 (Simulation time: 0 hr 23 min 28 sec) 
select_counter is 779
Heartbeat CPU 0 instructions: 63000002 cycles: 47259616 heartbeat IPC: 1.28668 cumulative IPC: 1.22119 (Simulation time: 0 hr 23 min 51 sec) 
select_counter is 642
Heartbeat CPU 0 instructions: 64000000 cycles: 48026539 heartbeat IPC: 1.30391 cumulative IPC: 1.22263 (Simulation time: 0 hr 24 min 22 sec) 
select_counter is 370
Heartbeat CPU 0 instructions: 65000003 cycles: 48796161 heartbeat IPC: 1.29934 cumulative IPC: 1.22394 (Simulation time: 0 hr 24 min 54 sec) 
select_counter is 28
Heartbeat CPU 0 instructions: 66000003 cycles: 49575852 heartbeat IPC: 1.28256 cumulative IPC: 1.22494 (Simulation time: 0 hr 25 min 26 sec) 
select_counter is 909
Heartbeat CPU 0 instructions: 67000003 cycles: 50394641 heartbeat IPC: 1.22132 cumulative IPC: 1.22488 (Simulation time: 0 hr 25 min 54 sec) 
select_counter is 664
Heartbeat CPU 0 instructions: 68000000 cycles: 51168392 heartbeat IPC: 1.2924 cumulative IPC: 1.22598 (Simulation time: 0 hr 26 min 19 sec) 
select_counter is 352
Heartbeat CPU 0 instructions: 69000003 cycles: 51948799 heartbeat IPC: 1.28139 cumulative IPC: 1.22688 (Simulation time: 0 hr 26 min 41 sec) 
select_counter is 197
Heartbeat CPU 0 instructions: 70000000 cycles: 52756794 heartbeat IPC: 1.23763 cumulative IPC: 1.22706 (Simulation time: 0 hr 27 min 5 sec) 
select_counter is 961
Heartbeat CPU 0 instructions: 71000002 cycles: 53538664 heartbeat IPC: 1.27899 cumulative IPC: 1.22788 (Simulation time: 0 hr 27 min 28 sec) 
select_counter is 682
Heartbeat CPU 0 instructions: 72000000 cycles: 54316722 heartbeat IPC: 1.28525 cumulative IPC: 1.22876 (Simulation time: 0 hr 27 min 52 sec) 
select_counter is 523
Heartbeat CPU 0 instructions: 73000003 cycles: 55106187 heartbeat IPC: 1.26668 cumulative IPC: 1.22935 (Simulation time: 0 hr 28 min 14 sec) 
select_counter is 215
Heartbeat CPU 0 instructions: 74000003 cycles: 55879617 heartbeat IPC: 1.29294 cumulative IPC: 1.23029 (Simulation time: 0 hr 28 min 37 sec) 
select_counter is 1002
Heartbeat CPU 0 instructions: 75000002 cycles: 56663859 heartbeat IPC: 1.27512 cumulative IPC: 1.23096 (Simulation time: 0 hr 29 min 2 sec) 
select_counter is 842
Heartbeat CPU 0 instructions: 76000000 cycles: 57446389 heartbeat IPC: 1.2779 cumulative IPC: 1.23164 (Simulation time: 0 hr 29 min 27 sec) 
select_counter is 497
Heartbeat CPU 0 instructions: 77000003 cycles: 58235374 heartbeat IPC: 1.26745 cumulative IPC: 1.23216 (Simulation time: 0 hr 29 min 52 sec) 
select_counter is 276
Heartbeat CPU 0 instructions: 78000003 cycles: 59015850 heartbeat IPC: 1.28127 cumulative IPC: 1.23286 (Simulation time: 0 hr 30 min 15 sec) 
select_counter is 107
Heartbeat CPU 0 instructions: 79000003 cycles: 59800781 heartbeat IPC: 1.274 cumulative IPC: 1.23344 (Simulation time: 0 hr 30 min 41 sec) 
select_counter is 793
Heartbeat CPU 0 instructions: 80000000 cycles: 60587450 heartbeat IPC: 1.27118 cumulative IPC: 1.23396 (Simulation time: 0 hr 31 min 7 sec) 
select_counter is 610
Heartbeat CPU 0 instructions: 81000001 cycles: 61363615 heartbeat IPC: 1.28839 cumulative IPC: 1.23469 (Simulation time: 0 hr 31 min 30 sec) 
select_counter is 432
Heartbeat CPU 0 instructions: 82000002 cycles: 62154397 heartbeat IPC: 1.26457 cumulative IPC: 1.2351 (Simulation time: 0 hr 31 min 57 sec) 
select_counter is 51
Heartbeat CPU 0 instructions: 83000003 cycles: 62954133 heartbeat IPC: 1.25041 cumulative IPC: 1.23531 (Simulation time: 0 hr 32 min 23 sec) 
select_counter is 905
Heartbeat CPU 0 instructions: 84000000 cycles: 63721470 heartbeat IPC: 1.3032 cumulative IPC: 1.23618 (Simulation time: 0 hr 32 min 46 sec) 
select_counter is 718
Heartbeat CPU 0 instructions: 85000001 cycles: 64498729 heartbeat IPC: 1.28657 cumulative IPC: 1.23682 (Simulation time: 0 hr 33 min 10 sec) 
select_counter is 291
Heartbeat CPU 0 instructions: 86000000 cycles: 65268053 heartbeat IPC: 1.29984 cumulative IPC: 1.23761 (Simulation time: 0 hr 33 min 38 sec) 
select_counter is 154
Heartbeat CPU 0 instructions: 87000003 cycles: 66044200 heartbeat IPC: 1.28842 cumulative IPC: 1.23825 (Simulation time: 0 hr 34 min 1 sec) 
select_counter is 988
Heartbeat CPU 0 instructions: 88000000 cycles: 66836558 heartbeat IPC: 1.26205 cumulative IPC: 1.23855 (Simulation time: 0 hr 34 min 24 sec) 
select_counter is 621
Heartbeat CPU 0 instructions: 89000002 cycles: 67603990 heartbeat IPC: 1.30305 cumulative IPC: 1.23932 (Simulation time: 0 hr 34 min 48 sec) 
select_counter is 476
Heartbeat CPU 0 instructions: 90000000 cycles: 68365857 heartbeat IPC: 1.31256 cumulative IPC: 1.24019 (Simulation time: 0 hr 35 min 11 sec) 
select_counter is 274
Heartbeat CPU 0 instructions: 91000001 cycles: 69159696 heartbeat IPC: 1.2597 cumulative IPC: 1.24042 (Simulation time: 0 hr 35 min 32 sec) 
select_counter is 962
Heartbeat CPU 0 instructions: 92000000 cycles: 69931376 heartbeat IPC: 1.29587 cumulative IPC: 1.24107 (Simulation time: 0 hr 35 min 56 sec) 
select_counter is 796
Heartbeat CPU 0 instructions: 93000002 cycles: 70663351 heartbeat IPC: 1.36617 cumulative IPC: 1.24244 (Simulation time: 0 hr 36 min 19 sec) 
select_counter is 561
Heartbeat CPU 0 instructions: 94000000 cycles: 71467943 heartbeat IPC: 1.24286 cumulative IPC: 1.24245 (Simulation time: 0 hr 36 min 41 sec) 
select_counter is 204
Heartbeat CPU 0 instructions: 95000000 cycles: 72239714 heartbeat IPC: 1.29572 cumulative IPC: 1.24305 (Simulation time: 0 hr 37 min 3 sec) 
select_counter is 33
Heartbeat CPU 0 instructions: 96000000 cycles: 73011318 heartbeat IPC: 1.296 cumulative IPC: 1.24364 (Simulation time: 0 hr 37 min 23 sec) 
select_counter is 861
Heartbeat CPU 0 instructions: 97000002 cycles: 74195210 heartbeat IPC: 0.844673 cumulative IPC: 1.23692 (Simulation time: 0 hr 37 min 46 sec) 
select_counter is 830
Heartbeat CPU 0 instructions: 98000003 cycles: 75125634 heartbeat IPC: 1.07478 cumulative IPC: 1.23481 (Simulation time: 0 hr 38 min 8 sec) 
select_counter is 528
Heartbeat CPU 0 instructions: 99000001 cycles: 75910834 heartbeat IPC: 1.27356 cumulative IPC: 1.23523 (Simulation time: 0 hr 38 min 28 sec) 
select_counter is 345
Heartbeat CPU 0 instructions: 100000000 cycles: 76685449 heartbeat IPC: 1.29096 cumulative IPC: 1.23582 (Simulation time: 0 hr 38 min 48 sec) 
select_counter is 166
Heartbeat CPU 0 instructions: 101000001 cycles: 78028854 heartbeat IPC: 0.744378 cumulative IPC: 1.22692 (Simulation time: 0 hr 39 min 11 sec) 
select_counter is 983
Heartbeat CPU 0 instructions: 102000002 cycles: 78837816 heartbeat IPC: 1.23615 cumulative IPC: 1.22702 (Simulation time: 0 hr 39 min 31 sec) 
select_counter is 729
Heartbeat CPU 0 instructions: 103000001 cycles: 79638100 heartbeat IPC: 1.24956 cumulative IPC: 1.22726 (Simulation time: 0 hr 39 min 53 sec) 
select_counter is 589
Heartbeat CPU 0 instructions: 104000000 cycles: 80866965 heartbeat IPC: 0.813758 cumulative IPC: 1.22066 (Simulation time: 0 hr 40 min 19 sec) 
select_counter is 417
Heartbeat CPU 0 instructions: 105000002 cycles: 81684121 heartbeat IPC: 1.22376 cumulative IPC: 1.22069 (Simulation time: 0 hr 40 min 41 sec) 
select_counter is 106
Heartbeat CPU 0 instructions: 106000000 cycles: 82481006 heartbeat IPC: 1.25488 cumulative IPC: 1.22104 (Simulation time: 0 hr 41 min 2 sec) 
select_counter is 940
Heartbeat CPU 0 instructions: 107000000 cycles: 83555120 heartbeat IPC: 0.931 cumulative IPC: 1.21713 (Simulation time: 0 hr 41 min 22 sec) 
select_counter is 825
Heartbeat CPU 0 instructions: 108000000 cycles: 84526486 heartbeat IPC: 1.02948 cumulative IPC: 1.21487 (Simulation time: 0 hr 41 min 41 sec) 
select_counter is 510
Heartbeat CPU 0 instructions: 109000003 cycles: 85315986 heartbeat IPC: 1.26663 cumulative IPC: 1.21537 (Simulation time: 0 hr 41 min 59 sec) 
select_counter is 290
Heartbeat CPU 0 instructions: 110000000 cycles: 86172829 heartbeat IPC: 1.16707 cumulative IPC: 1.21487 (Simulation time: 0 hr 42 min 15 sec) 
select_counter is 129
Finished CPU 0 instructions: 100000003 cycles: 82313365 cummulative IPC: 1.21487 (Simulation time: 0 hr 42 min 15 sec) 

ChampSim completed all CPUs

Region of Interest Statistics

CPU 0 cummulative IPC: 1.21487 instructions: 100000003 cycles: 82313365
LLC TOTAL     ACCESS:    1445908  HIT:     807158  MISS:     638750
LLC LOAD      ACCESS:     118921  HIT:     102089  MISS:      16832
LLC RFO       ACCESS:     121985  HIT:     120452  MISS:       1533
LLC PREFETCH  ACCESS:    1076608  HIT:     456546  MISS:     620062
LLC WRITEBACK ACCESS:     128394  HIT:     128071  MISS:        323
Ship samples: size is 64
12, 36, 70, 108, 139, 168, 207, 224, 261, 291, 324, 353, 399, 430, 457, 487, 514, 551, 578, 610, 645, 673, 714, 738, 783, 815, 846, 870, 896, 930, 962, 999, 1031, 1058, 1099, 1130, 1156, 1199, 1223, 1250, 1288, 1324, 1357, 1390, 1417, 1455, 1477, 1510, 1537, 1575, 1610, 1635, 1671, 1697, 1741, 1769, 1795, 1827, 1869, 1902, 1920, 1957, 1996, 2030, 
Ship duel samples: size is 128
12, 16, 36, 61, 70, 95, 108, 119, 139, 158, 168, 181, 207, 208, 224, 247, 261, 280, 291, 314, 324, 351, 353, 370, 399, 413, 430, 441, 457, 467, 487, 496, 514, 531, 551, 573, 578, 607, 610, 625, 645, 659, 673, 696, 714, 720, 738, 766, 783, 795, 815, 829, 846, 849, 870, 893, 896, 912, 930, 944, 962, 981, 999, 1023, 1031, 1046, 1058, 1081, 1099, 1109, 1130, 1144, 1156, 1176, 1199, 1202, 1223, 1242, 1250, 1275, 1288, 1296, 1324, 1342, 1357, 1367, 1390, 1405, 1417, 1438, 1455, 1471, 1477, 1503, 1510, 1531, 1537, 1567, 1575, 1590, 1610, 1631, 1635, 1662, 1671, 1682, 1697, 1726, 1741, 1747, 1769, 1781, 1795, 1813, 1827, 1841, 1869, 1874, 1902, 1910, 1920, 1950, 1957, 1974, 1996, 2001, 2030, 2043, 
Lime duel samples: size is 128
11, 20, 33, 53, 76, 80, 109, 116, 129, 145, 162, 176, 202, 214, 231, 254, 262, 279, 298, 308, 327, 338, 360, 373, 385, 402, 425, 447, 452, 472, 492, 511, 524, 541, 548, 569, 589, 593, 621, 638, 642, 671, 686, 700, 709, 726, 747, 764, 781, 789, 800, 820, 839, 856, 874, 888, 907, 915, 935, 959, 971, 979, 1006, 1016, 1024, 1042, 1057, 1085, 1091, 1118, 1132, 1141, 1165, 1178, 1186, 1203, 1216, 1245, 1263, 1277, 1282, 1311, 1314, 1337, 1352, 1372, 1377, 1395, 1423, 1432, 1442, 1466, 1484, 1488, 1506, 1532, 1538, 1555, 1578, 1589, 1601, 1622, 1642, 1663, 1664, 1692, 1698, 1713, 1737, 1745, 1774, 1787, 1792, 1808, 1828, 1848, 1868, 1877, 1899, 1915, 1934, 1949, 1958, 1978, 1997, 2008, 2022, 2047, 
Lime samples: size is 15
11, 129, 262, 385, 524, 642, 781, 907, 1024, 1165, 1282, 1423, 1538, 1664, 1792, 
Insertion Distribution: 
	LOAD 4099 0 0 0 0 0 9458 1364 
	RFO 450 0 0 0 0 0 2606 1 
	PREF 0 3276 0 0 0 0 31990 325942 
	WRITEBACK 0 0 0 0 0 0 0 483 
Total Prefetch Downgrades: 5403
