
*** ChampSim Multicore Out-of-Order Simulator ***

Warmup Instructions: 10000000
Simulation Instructions: 100000000
Configuration: 2
Number of CPUs: 1
LLC sets: 2048
LLC ways: 16
Off-chip DRAM Channels: 1 Width: 64-bit Data Rate: 1600 MT/s

CPU 0 runs /datasets/cs240c-wi22-a00-public/data/Assignment2-gz/perlbench_53B.trace.gz
CPU 0 L1D next line prefetcher
CPU 0 L2C IP-based stride prefetcher
Heartbeat CPU 0 instructions: 1000000 cycles: 615803 heartbeat IPC: 1.6239 cumulative IPC: 1.6239 (Simulation time: 0 hr 0 min 29 sec) 
select_counter is 411
Heartbeat CPU 0 instructions: 2000001 cycles: 1252967 heartbeat IPC: 1.56946 cumulative IPC: 1.59621 (Simulation time: 0 hr 1 min 2 sec) 
select_counter is 340
Heartbeat CPU 0 instructions: 3000002 cycles: 1908457 heartbeat IPC: 1.52558 cumulative IPC: 1.57195 (Simulation time: 0 hr 1 min 36 sec) 
select_counter is 296
Heartbeat CPU 0 instructions: 4000000 cycles: 2523963 heartbeat IPC: 1.62468 cumulative IPC: 1.58481 (Simulation time: 0 hr 1 min 59 sec) 
select_counter is 126
Heartbeat CPU 0 instructions: 5000001 cycles: 3151975 heartbeat IPC: 1.59233 cumulative IPC: 1.58631 (Simulation time: 0 hr 2 min 24 sec) 
select_counter is 16
Heartbeat CPU 0 instructions: 6000001 cycles: 3767491 heartbeat IPC: 1.62465 cumulative IPC: 1.59257 (Simulation time: 0 hr 2 min 49 sec) 
select_counter is 912
Heartbeat CPU 0 instructions: 7000002 cycles: 4390286 heartbeat IPC: 1.60567 cumulative IPC: 1.59443 (Simulation time: 0 hr 3 min 17 sec) 
select_counter is 700
Heartbeat CPU 0 instructions: 8000000 cycles: 5000674 heartbeat IPC: 1.6383 cumulative IPC: 1.59978 (Simulation time: 0 hr 3 min 42 sec) 
select_counter is 609
Heartbeat CPU 0 instructions: 9000000 cycles: 5652394 heartbeat IPC: 1.5344 cumulative IPC: 1.59225 (Simulation time: 0 hr 4 min 10 sec) 
select_counter is 496
Heartbeat CPU 0 instructions: 10000001 cycles: 6287589 heartbeat IPC: 1.57432 cumulative IPC: 1.59043 (Simulation time: 0 hr 4 min 35 sec) 
select_counter is 335

Warmup complete CPU 0 instructions: 10000001 cycles: 6287589 (Simulation time: 0 hr 4 min 35 sec) 

Heartbeat CPU 0 instructions: 11000000 cycles: 9162215 heartbeat IPC: 0.347871 cumulative IPC: 0.347871 (Simulation time: 0 hr 5 min 4 sec) 
select_counter is 58
Heartbeat CPU 0 instructions: 12000000 cycles: 12021244 heartbeat IPC: 0.349769 cumulative IPC: 0.348817 (Simulation time: 0 hr 5 min 35 sec) 
select_counter is 897
Heartbeat CPU 0 instructions: 13000000 cycles: 14371902 heartbeat IPC: 0.425413 cumulative IPC: 0.371089 (Simulation time: 0 hr 6 min 3 sec) 
select_counter is 825
Heartbeat CPU 0 instructions: 14000000 cycles: 16881022 heartbeat IPC: 0.398546 cumulative IPC: 0.377592 (Simulation time: 0 hr 6 min 32 sec) 
select_counter is 708
Heartbeat CPU 0 instructions: 15000001 cycles: 19637050 heartbeat IPC: 0.362841 cumulative IPC: 0.374547 (Simulation time: 0 hr 6 min 59 sec) 
select_counter is 549
Heartbeat CPU 0 instructions: 16000000 cycles: 22306286 heartbeat IPC: 0.374639 cumulative IPC: 0.374562 (Simulation time: 0 hr 7 min 36 sec) 
select_counter is 437
Heartbeat CPU 0 instructions: 17000001 cycles: 24979785 heartbeat IPC: 0.374042 cumulative IPC: 0.374488 (Simulation time: 0 hr 8 min 6 sec) 
select_counter is 301
Heartbeat CPU 0 instructions: 18000002 cycles: 27833224 heartbeat IPC: 0.350455 cumulative IPC: 0.371305 (Simulation time: 0 hr 8 min 38 sec) 
select_counter is 201
Heartbeat CPU 0 instructions: 19000000 cycles: 30654411 heartbeat IPC: 0.35446 cumulative IPC: 0.369355 (Simulation time: 0 hr 9 min 3 sec) 
select_counter is 978
Heartbeat CPU 0 instructions: 20000000 cycles: 33506532 heartbeat IPC: 0.350616 cumulative IPC: 0.367391 (Simulation time: 0 hr 9 min 42 sec) 
select_counter is 868
Heartbeat CPU 0 instructions: 21000000 cycles: 35867097 heartbeat IPC: 0.423627 cumulative IPC: 0.371879 (Simulation time: 0 hr 10 min 12 sec) 
select_counter is 825
Heartbeat CPU 0 instructions: 22000000 cycles: 37945522 heartbeat IPC: 0.481134 cumulative IPC: 0.379052 (Simulation time: 0 hr 10 min 43 sec) 
select_counter is 778
Heartbeat CPU 0 instructions: 23000001 cycles: 39876315 heartbeat IPC: 0.517922 cumulative IPC: 0.387035 (Simulation time: 0 hr 11 min 10 sec) 
select_counter is 712
Heartbeat CPU 0 instructions: 24000000 cycles: 42272172 heartbeat IPC: 0.417387 cumulative IPC: 0.389055 (Simulation time: 0 hr 11 min 42 sec) 
select_counter is 687
Heartbeat CPU 0 instructions: 25000000 cycles: 44284285 heartbeat IPC: 0.49699 cumulative IPC: 0.394771 (Simulation time: 0 hr 12 min 14 sec) 
select_counter is 681
Heartbeat CPU 0 instructions: 26000001 cycles: 46269496 heartbeat IPC: 0.503725 cumulative IPC: 0.400181 (Simulation time: 0 hr 12 min 45 sec) 
select_counter is 680
Heartbeat CPU 0 instructions: 27000002 cycles: 48563700 heartbeat IPC: 0.435881 cumulative IPC: 0.402118 (Simulation time: 0 hr 13 min 12 sec) 
select_counter is 654
Heartbeat CPU 0 instructions: 28000000 cycles: 51134259 heartbeat IPC: 0.38902 cumulative IPC: 0.401368 (Simulation time: 0 hr 13 min 47 sec) 
select_counter is 582
Heartbeat CPU 0 instructions: 29000000 cycles: 53455878 heartbeat IPC: 0.430734 cumulative IPC: 0.402813 (Simulation time: 0 hr 14 min 20 sec) 
select_counter is 535
Heartbeat CPU 0 instructions: 30000000 cycles: 55500156 heartbeat IPC: 0.48917 cumulative IPC: 0.4064 (Simulation time: 0 hr 14 min 48 sec) 
select_counter is 512
Heartbeat CPU 0 instructions: 31000001 cycles: 57487765 heartbeat IPC: 0.503118 cumulative IPC: 0.410155 (Simulation time: 0 hr 15 min 15 sec) 
select_counter is 512
Heartbeat CPU 0 instructions: 32000000 cycles: 59485333 heartbeat IPC: 0.500608 cumulative IPC: 0.413551 (Simulation time: 0 hr 15 min 55 sec) 
select_counter is 515
Heartbeat CPU 0 instructions: 33000003 cycles: 61947474 heartbeat IPC: 0.406152 cumulative IPC: 0.413224 (Simulation time: 0 hr 16 min 33 sec) 
select_counter is 437
Heartbeat CPU 0 instructions: 34000000 cycles: 64654811 heartbeat IPC: 0.369366 cumulative IPC: 0.41119 (Simulation time: 0 hr 17 min 4 sec) 
select_counter is 322
Heartbeat CPU 0 instructions: 35000000 cycles: 67207720 heartbeat IPC: 0.39171 cumulative IPC: 0.410373 (Simulation time: 0 hr 17 min 34 sec) 
select_counter is 200
Heartbeat CPU 0 instructions: 36000000 cycles: 69998499 heartbeat IPC: 0.358323 cumulative IPC: 0.408093 (Simulation time: 0 hr 18 min 6 sec) 
select_counter is 139
Heartbeat CPU 0 instructions: 37000002 cycles: 72838266 heartbeat IPC: 0.352142 cumulative IPC: 0.405706 (Simulation time: 0 hr 18 min 40 sec) 
select_counter is 6
Heartbeat CPU 0 instructions: 38000000 cycles: 75708286 heartbeat IPC: 0.348429 cumulative IPC: 0.403338 (Simulation time: 0 hr 19 min 7 sec) 
select_counter is 790
Heartbeat CPU 0 instructions: 39000001 cycles: 78375802 heartbeat IPC: 0.374881 cumulative IPC: 0.402285 (Simulation time: 0 hr 19 min 34 sec) 
select_counter is 653
Heartbeat CPU 0 instructions: 40000000 cycles: 80977673 heartbeat IPC: 0.384338 cumulative IPC: 0.40166 (Simulation time: 0 hr 20 min 6 sec) 
select_counter is 534
Heartbeat CPU 0 instructions: 41000002 cycles: 83859806 heartbeat IPC: 0.346966 cumulative IPC: 0.399628 (Simulation time: 0 hr 20 min 35 sec) 
select_counter is 341
Heartbeat CPU 0 instructions: 42000000 cycles: 86464122 heartbeat IPC: 0.383977 cumulative IPC: 0.399119 (Simulation time: 0 hr 21 min 4 sec) 
select_counter is 264
Heartbeat CPU 0 instructions: 43000002 cycles: 89298645 heartbeat IPC: 0.352794 cumulative IPC: 0.397537 (Simulation time: 0 hr 21 min 32 sec) 
select_counter is 57
Heartbeat CPU 0 instructions: 44000000 cycles: 91964759 heartbeat IPC: 0.375077 cumulative IPC: 0.396838 (Simulation time: 0 hr 22 min 4 sec) 
select_counter is 940
Heartbeat CPU 0 instructions: 45000001 cycles: 93425437 heartbeat IPC: 0.684614 cumulative IPC: 0.401662 (Simulation time: 0 hr 22 min 28 sec) 
select_counter is 897
Heartbeat CPU 0 instructions: 46000000 cycles: 95450760 heartbeat IPC: 0.493748 cumulative IPC: 0.403754 (Simulation time: 0 hr 22 min 53 sec) 
select_counter is 858
Heartbeat CPU 0 instructions: 47000002 cycles: 97366163 heartbeat IPC: 0.522084 cumulative IPC: 0.406243 (Simulation time: 0 hr 23 min 18 sec) 
select_counter is 859
Heartbeat CPU 0 instructions: 48000000 cycles: 99286378 heartbeat IPC: 0.520774 cumulative IPC: 0.408607 (Simulation time: 0 hr 23 min 43 sec) 
select_counter is 859
Heartbeat CPU 0 instructions: 49000000 cycles: 101638397 heartbeat IPC: 0.425167 cumulative IPC: 0.409016 (Simulation time: 0 hr 24 min 11 sec) 
select_counter is 792
Heartbeat CPU 0 instructions: 50000002 cycles: 103503177 heartbeat IPC: 0.536257 cumulative IPC: 0.411457 (Simulation time: 0 hr 24 min 36 sec) 
select_counter is 754
Heartbeat CPU 0 instructions: 51000000 cycles: 105434439 heartbeat IPC: 0.517795 cumulative IPC: 0.413528 (Simulation time: 0 hr 24 min 59 sec) 
select_counter is 751
Heartbeat CPU 0 instructions: 52000000 cycles: 107349444 heartbeat IPC: 0.522192 cumulative IPC: 0.415587 (Simulation time: 0 hr 25 min 22 sec) 
select_counter is 751
Heartbeat CPU 0 instructions: 53000002 cycles: 109300645 heartbeat IPC: 0.512506 cumulative IPC: 0.417423 (Simulation time: 0 hr 25 min 48 sec) 
select_counter is 743
Heartbeat CPU 0 instructions: 54000000 cycles: 112196146 heartbeat IPC: 0.345363 cumulative IPC: 0.415453 (Simulation time: 0 hr 26 min 23 sec) 
select_counter is 532
Heartbeat CPU 0 instructions: 55000000 cycles: 114685751 heartbeat IPC: 0.40167 cumulative IPC: 0.415136 (Simulation time: 0 hr 26 min 55 sec) 
select_counter is 394
Heartbeat CPU 0 instructions: 56000000 cycles: 117486226 heartbeat IPC: 0.357082 cumulative IPC: 0.413674 (Simulation time: 0 hr 27 min 31 sec) 
select_counter is 275
Heartbeat CPU 0 instructions: 57000001 cycles: 120469957 heartbeat IPC: 0.335151 cumulative IPC: 0.411622 (Simulation time: 0 hr 28 min 6 sec) 
select_counter is 62
Heartbeat CPU 0 instructions: 58000003 cycles: 123439984 heartbeat IPC: 0.336698 cumulative IPC: 0.409723 (Simulation time: 0 hr 28 min 45 sec) 
select_counter is 23
Heartbeat CPU 0 instructions: 59000002 cycles: 126260549 heartbeat IPC: 0.354539 cumulative IPC: 0.408425 (Simulation time: 0 hr 29 min 23 sec) 
select_counter is 1003
Heartbeat CPU 0 instructions: 60000000 cycles: 129036750 heartbeat IPC: 0.360204 cumulative IPC: 0.407335 (Simulation time: 0 hr 30 min 0 sec) 
select_counter is 956
Heartbeat CPU 0 instructions: 61000002 cycles: 131683292 heartbeat IPC: 0.377852 cumulative IPC: 0.406713 (Simulation time: 0 hr 30 min 36 sec) 
select_counter is 907
Heartbeat CPU 0 instructions: 62000002 cycles: 134386172 heartbeat IPC: 0.369976 cumulative IPC: 0.405937 (Simulation time: 0 hr 31 min 15 sec) 
select_counter is 842
Heartbeat CPU 0 instructions: 63000001 cycles: 137072730 heartbeat IPC: 0.372223 cumulative IPC: 0.405245 (Simulation time: 0 hr 31 min 50 sec) 
select_counter is 789
Heartbeat CPU 0 instructions: 64000000 cycles: 139747139 heartbeat IPC: 0.373914 cumulative IPC: 0.404617 (Simulation time: 0 hr 32 min 26 sec) 
select_counter is 732
Heartbeat CPU 0 instructions: 65000003 cycles: 142400234 heartbeat IPC: 0.376919 cumulative IPC: 0.404077 (Simulation time: 0 hr 33 min 0 sec) 
select_counter is 670
Heartbeat CPU 0 instructions: 66000001 cycles: 145045897 heartbeat IPC: 0.377976 cumulative IPC: 0.403579 (Simulation time: 0 hr 33 min 30 sec) 
select_counter is 611
Heartbeat CPU 0 instructions: 67000001 cycles: 147663789 heartbeat IPC: 0.381987 cumulative IPC: 0.40318 (Simulation time: 0 hr 34 min 1 sec) 
select_counter is 584
Heartbeat CPU 0 instructions: 68000000 cycles: 150353158 heartbeat IPC: 0.371834 cumulative IPC: 0.402594 (Simulation time: 0 hr 34 min 33 sec) 
select_counter is 533
Heartbeat CPU 0 instructions: 69000001 cycles: 153010223 heartbeat IPC: 0.376355 cumulative IPC: 0.402119 (Simulation time: 0 hr 35 min 5 sec) 
select_counter is 485
Heartbeat CPU 0 instructions: 70000001 cycles: 155635793 heartbeat IPC: 0.38087 cumulative IPC: 0.401746 (Simulation time: 0 hr 35 min 35 sec) 
select_counter is 417
Heartbeat CPU 0 instructions: 71000001 cycles: 158356739 heartbeat IPC: 0.367519 cumulative IPC: 0.401133 (Simulation time: 0 hr 36 min 9 sec) 
select_counter is 395
Heartbeat CPU 0 instructions: 72000000 cycles: 160964440 heartbeat IPC: 0.383479 cumulative IPC: 0.400836 (Simulation time: 0 hr 36 min 44 sec) 
select_counter is 362
Heartbeat CPU 0 instructions: 73000002 cycles: 163632024 heartbeat IPC: 0.374872 cumulative IPC: 0.400395 (Simulation time: 0 hr 37 min 18 sec) 
select_counter is 297
Heartbeat CPU 0 instructions: 74000001 cycles: 166321247 heartbeat IPC: 0.371854 cumulative IPC: 0.399916 (Simulation time: 0 hr 37 min 46 sec) 
select_counter is 225
Heartbeat CPU 0 instructions: 75000001 cycles: 168983119 heartbeat IPC: 0.375675 cumulative IPC: 0.399519 (Simulation time: 0 hr 38 min 16 sec) 
select_counter is 131
Heartbeat CPU 0 instructions: 76000000 cycles: 171627074 heartbeat IPC: 0.378221 cumulative IPC: 0.399179 (Simulation time: 0 hr 38 min 48 sec) 
select_counter is 42
Heartbeat CPU 0 instructions: 77000002 cycles: 174301515 heartbeat IPC: 0.373911 cumulative IPC: 0.398776 (Simulation time: 0 hr 39 min 17 sec) 
select_counter is 968
Heartbeat CPU 0 instructions: 78000000 cycles: 176955577 heartbeat IPC: 0.37678 cumulative IPC: 0.398434 (Simulation time: 0 hr 39 min 47 sec) 
select_counter is 884
Heartbeat CPU 0 instructions: 79000002 cycles: 179617438 heartbeat IPC: 0.375678 cumulative IPC: 0.398085 (Simulation time: 0 hr 40 min 19 sec) 
select_counter is 794
Heartbeat CPU 0 instructions: 80000000 cycles: 182253073 heartbeat IPC: 0.379414 cumulative IPC: 0.397805 (Simulation time: 0 hr 40 min 47 sec) 
select_counter is 708
Heartbeat CPU 0 instructions: 81000000 cycles: 184867814 heartbeat IPC: 0.382447 cumulative IPC: 0.39758 (Simulation time: 0 hr 41 min 15 sec) 
select_counter is 661
Heartbeat CPU 0 instructions: 82000002 cycles: 187546086 heartbeat IPC: 0.373376 cumulative IPC: 0.397223 (Simulation time: 0 hr 41 min 40 sec) 
select_counter is 583
Heartbeat CPU 0 instructions: 83000000 cycles: 190193283 heartbeat IPC: 0.377757 cumulative IPC: 0.396943 (Simulation time: 0 hr 42 min 6 sec) 
select_counter is 507
Heartbeat CPU 0 instructions: 84000000 cycles: 192851464 heartbeat IPC: 0.376197 cumulative IPC: 0.396647 (Simulation time: 0 hr 42 min 30 sec) 
select_counter is 411
Heartbeat CPU 0 instructions: 85000001 cycles: 195530900 heartbeat IPC: 0.373213 cumulative IPC: 0.396315 (Simulation time: 0 hr 42 min 49 sec) 
select_counter is 380
Heartbeat CPU 0 instructions: 86000000 cycles: 198027328 heartbeat IPC: 0.400572 cumulative IPC: 0.396371 (Simulation time: 0 hr 43 min 10 sec) 
select_counter is 375
Heartbeat CPU 0 instructions: 87000000 cycles: 200159758 heartbeat IPC: 0.468949 cumulative IPC: 0.397169 (Simulation time: 0 hr 43 min 27 sec) 
select_counter is 342
Heartbeat CPU 0 instructions: 88000000 cycles: 202157452 heartbeat IPC: 0.500577 cumulative IPC: 0.398224 (Simulation time: 0 hr 43 min 45 sec) 
select_counter is 334
Heartbeat CPU 0 instructions: 89000001 cycles: 204234029 heartbeat IPC: 0.481562 cumulative IPC: 0.399098 (Simulation time: 0 hr 44 min 1 sec) 
select_counter is 322
Heartbeat CPU 0 instructions: 90000000 cycles: 206899834 heartbeat IPC: 0.375121 cumulative IPC: 0.398779 (Simulation time: 0 hr 44 min 20 sec) 
select_counter is 289
Heartbeat CPU 0 instructions: 91000001 cycles: 209679394 heartbeat IPC: 0.35977 cumulative IPC: 0.398246 (Simulation time: 0 hr 44 min 39 sec) 
select_counter is 242
Heartbeat CPU 0 instructions: 92000000 cycles: 212372005 heartbeat IPC: 0.371386 cumulative IPC: 0.397895 (Simulation time: 0 hr 44 min 56 sec) 
select_counter is 179
Heartbeat CPU 0 instructions: 93000000 cycles: 215026956 heartbeat IPC: 0.376655 cumulative IPC: 0.397625 (Simulation time: 0 hr 45 min 12 sec) 
select_counter is 87
Heartbeat CPU 0 instructions: 94000002 cycles: 217676791 heartbeat IPC: 0.377383 cumulative IPC: 0.397371 (Simulation time: 0 hr 45 min 29 sec) 
select_counter is 12
Heartbeat CPU 0 instructions: 95000000 cycles: 220297781 heartbeat IPC: 0.381534 cumulative IPC: 0.397177 (Simulation time: 0 hr 45 min 45 sec) 
select_counter is 958
Heartbeat CPU 0 instructions: 96000000 cycles: 222962377 heartbeat IPC: 0.375291 cumulative IPC: 0.396908 (Simulation time: 0 hr 46 min 2 sec) 
select_counter is 883
Heartbeat CPU 0 instructions: 97000000 cycles: 225603885 heartbeat IPC: 0.378572 cumulative IPC: 0.396687 (Simulation time: 0 hr 46 min 16 sec) 
select_counter is 820
Heartbeat CPU 0 instructions: 98000000 cycles: 228226594 heartbeat IPC: 0.381285 cumulative IPC: 0.396505 (Simulation time: 0 hr 46 min 29 sec) 
select_counter is 755
Heartbeat CPU 0 instructions: 99000002 cycles: 230836324 heartbeat IPC: 0.383182 cumulative IPC: 0.396351 (Simulation time: 0 hr 46 min 44 sec) 
select_counter is 678
Heartbeat CPU 0 instructions: 100000000 cycles: 233463451 heartbeat IPC: 0.380643 cumulative IPC: 0.396169 (Simulation time: 0 hr 46 min 56 sec) 
select_counter is 626
Heartbeat CPU 0 instructions: 101000002 cycles: 236120004 heartbeat IPC: 0.376428 cumulative IPC: 0.395941 (Simulation time: 0 hr 47 min 7 sec) 
select_counter is 565
Heartbeat CPU 0 instructions: 102000000 cycles: 238753430 heartbeat IPC: 0.379733 cumulative IPC: 0.395757 (Simulation time: 0 hr 47 min 17 sec) 
select_counter is 487
Heartbeat CPU 0 instructions: 103000000 cycles: 241380633 heartbeat IPC: 0.380633 cumulative IPC: 0.395588 (Simulation time: 0 hr 47 min 27 sec) 
select_counter is 452
Heartbeat CPU 0 instructions: 104000000 cycles: 244044195 heartbeat IPC: 0.375437 cumulative IPC: 0.395362 (Simulation time: 0 hr 47 min 38 sec) 
select_counter is 442
Heartbeat CPU 0 instructions: 105000003 cycles: 246226141 heartbeat IPC: 0.458308 cumulative IPC: 0.395935 (Simulation time: 0 hr 47 min 46 sec) 
select_counter is 422
Heartbeat CPU 0 instructions: 106000000 cycles: 248203603 heartbeat IPC: 0.505697 cumulative IPC: 0.396832 (Simulation time: 0 hr 47 min 54 sec) 
select_counter is 419
Heartbeat CPU 0 instructions: 107000003 cycles: 250180470 heartbeat IPC: 0.505852 cumulative IPC: 0.397716 (Simulation time: 0 hr 48 min 1 sec) 
select_counter is 416
Heartbeat CPU 0 instructions: 108000000 cycles: 252907598 heartbeat IPC: 0.366685 cumulative IPC: 0.397372 (Simulation time: 0 hr 48 min 7 sec) 
select_counter is 354
Heartbeat CPU 0 instructions: 109000001 cycles: 255607519 heartbeat IPC: 0.370382 cumulative IPC: 0.39708 (Simulation time: 0 hr 48 min 13 sec) 
select_counter is 251
Heartbeat CPU 0 instructions: 110000000 cycles: 258114960 heartbeat IPC: 0.398813 cumulative IPC: 0.397097 (Simulation time: 0 hr 48 min 18 sec) 
select_counter is 174
Finished CPU 0 instructions: 100000000 cycles: 251827372 cummulative IPC: 0.397097 (Simulation time: 0 hr 48 min 18 sec) 

ChampSim completed all CPUs

Region of Interest Statistics

CPU 0 cummulative IPC: 0.397097 instructions: 100000000 cycles: 251827372
LLC TOTAL     ACCESS:     656701  HIT:     588239  MISS:      68462
LLC LOAD      ACCESS:     310900  HIT:     302780  MISS:       8120
LLC RFO       ACCESS:      30806  HIT:      26679  MISS:       4127
LLC PREFETCH  ACCESS:     212712  HIT:     158702  MISS:      54010
LLC WRITEBACK ACCESS:     102283  HIT:     100078  MISS:       2205
Ship samples: size is 64
6, 45, 79, 107, 132, 172, 197, 239, 265, 291, 331, 367, 386, 416, 458, 493, 517, 548, 580, 617, 648, 687, 706, 736, 768, 806, 847, 879, 902, 937, 969, 992, 1037, 1070, 1101, 1120, 1167, 1185, 1218, 1252, 1287, 1318, 1359, 1390, 1422, 1451, 1473, 1512, 1541, 1568, 1608, 1641, 1673, 1709, 1730, 1765, 1804, 1835, 1869, 1901, 1922, 1962, 1998, 2029, 
Ship duel samples: size is 128
6, 28, 45, 58, 79, 86, 107, 112, 132, 153, 172, 186, 197, 210, 239, 245, 265, 277, 291, 308, 331, 341, 367, 370, 386, 412, 416, 446, 458, 474, 493, 496, 517, 541, 548, 574, 580, 600, 617, 634, 648, 665, 687, 700, 706, 725, 736, 758, 768, 789, 806, 818, 847, 856, 879, 895, 902, 921, 937, 947, 969, 990, 992, 1021, 1037, 1044, 1070, 1077, 1101, 1109, 1120, 1150, 1167, 1170, 1185, 1204, 1218, 1239, 1252, 1277, 1287, 1301, 1318, 1334, 1359, 1360, 1390, 1400, 1422, 1438, 1451, 1459, 1473, 1503, 1512, 1521, 1541, 1559, 1568, 1591, 1608, 1621, 1641, 1663, 1673, 1680, 1709, 1712, 1730, 1750, 1765, 1790, 1804, 1821, 1835, 1848, 1869, 1881, 1901, 1914, 1922, 1942, 1962, 1977, 1998, 2015, 2029, 2041, 
Lime duel samples: size is 128
0, 18, 40, 62, 70, 81, 109, 116, 139, 147, 167, 189, 205, 214, 227, 242, 260, 281, 295, 305, 324, 340, 366, 376, 394, 415, 419, 433, 453, 470, 482, 501, 520, 538, 547, 575, 588, 592, 611, 631, 644, 666, 676, 689, 704, 728, 739, 756, 769, 794, 805, 821, 846, 851, 877, 889, 898, 913, 938, 951, 967, 988, 1005, 1008, 1030, 1040, 1071, 1074, 1089, 1106, 1129, 1141, 1165, 1182, 1190, 1213, 1222, 1241, 1250, 1271, 1283, 1303, 1324, 1329, 1355, 1370, 1386, 1405, 1419, 1428, 1445, 1458, 1472, 1490, 1506, 1527, 1538, 1553, 1577, 1587, 1604, 1619, 1640, 1649, 1665, 1694, 1710, 1719, 1735, 1744, 1774, 1786, 1800, 1818, 1836, 1843, 1860, 1878, 1888, 1919, 1931, 1941, 1954, 1979, 1991, 2004, 2018, 2042, 
Lime samples: size is 15
0, 139, 260, 394, 520, 644, 769, 898, 1030, 1165, 1283, 1419, 1538, 1665, 1800, 
Insertion Distribution: 
	LOAD 1931 0 0 0 0 0 12978 225 
	RFO 547 0 0 0 0 0 2498 28 
	PREF 0 386 0 0 0 0 21108 7775 
	WRITEBACK 0 0 0 0 0 0 0 1111 
Total Prefetch Downgrades: 4049
