
*** ChampSim Multicore Out-of-Order Simulator ***

Warmup Instructions: 50000000
Simulation Instructions: 100000000
Configuration: 2
Number of CPUs: 1
LLC sets: 2048
LLC ways: 16
Off-chip DRAM Channels: 1 Width: 64-bit Data Rate: 1600 MT/s

CPU 0 runs /datasets/cs240c-wi22-a00-public/data/Assignment2-gz/zeusmp_300B.trace.gz
CPU 0 L1D next line prefetcher
CPU 0 L2C IP-based stride prefetcher
Initialize SRRIP state
Heartbeat CPU 0 instructions: 1000003 cycles: 509580 heartbeat IPC: 1.96241 cumulative IPC: 1.96241 (Simulation time: 0 hr 1 min 6 sec) 
Heartbeat CPU 0 instructions: 2000003 cycles: 1062148 heartbeat IPC: 1.80973 cumulative IPC: 1.88298 (Simulation time: 0 hr 2 min 0 sec) 
Heartbeat CPU 0 instructions: 3000002 cycles: 1606421 heartbeat IPC: 1.83731 cumulative IPC: 1.86751 (Simulation time: 0 hr 2 min 52 sec) 
Heartbeat CPU 0 instructions: 4000000 cycles: 2093210 heartbeat IPC: 2.05427 cumulative IPC: 1.91094 (Simulation time: 0 hr 3 min 44 sec) 
Heartbeat CPU 0 instructions: 5000001 cycles: 2575892 heartbeat IPC: 2.07176 cumulative IPC: 1.94108 (Simulation time: 0 hr 4 min 37 sec) 
Heartbeat CPU 0 instructions: 6000000 cycles: 3062581 heartbeat IPC: 2.0547 cumulative IPC: 1.95913 (Simulation time: 0 hr 5 min 29 sec) 
Heartbeat CPU 0 instructions: 7000001 cycles: 3590722 heartbeat IPC: 1.89344 cumulative IPC: 1.94947 (Simulation time: 0 hr 6 min 26 sec) 
Heartbeat CPU 0 instructions: 8000000 cycles: 4144747 heartbeat IPC: 1.80497 cumulative IPC: 1.93015 (Simulation time: 0 hr 7 min 22 sec) 
Heartbeat CPU 0 instructions: 9000000 cycles: 4672649 heartbeat IPC: 1.89429 cumulative IPC: 1.9261 (Simulation time: 0 hr 8 min 19 sec) 
Heartbeat CPU 0 instructions: 10000002 cycles: 5158943 heartbeat IPC: 2.05637 cumulative IPC: 1.93838 (Simulation time: 0 hr 9 min 13 sec) 
Heartbeat CPU 0 instructions: 11000003 cycles: 5643400 heartbeat IPC: 2.06417 cumulative IPC: 1.94918 (Simulation time: 0 hr 10 min 7 sec) 
Heartbeat CPU 0 instructions: 12000000 cycles: 6129771 heartbeat IPC: 2.05604 cumulative IPC: 1.95766 (Simulation time: 0 hr 11 min 10 sec) 
Heartbeat CPU 0 instructions: 13000001 cycles: 6673175 heartbeat IPC: 1.84025 cumulative IPC: 1.9481 (Simulation time: 0 hr 12 min 10 sec) 
Heartbeat CPU 0 instructions: 14000002 cycles: 7229017 heartbeat IPC: 1.79907 cumulative IPC: 1.93664 (Simulation time: 0 hr 13 min 10 sec) 
Heartbeat CPU 0 instructions: 15000002 cycles: 7738478 heartbeat IPC: 1.96286 cumulative IPC: 1.93837 (Simulation time: 0 hr 14 min 10 sec) 
Heartbeat CPU 0 instructions: 16000000 cycles: 8224641 heartbeat IPC: 2.05692 cumulative IPC: 1.94537 (Simulation time: 0 hr 15 min 14 sec) 
Heartbeat CPU 0 instructions: 17000003 cycles: 8709898 heartbeat IPC: 2.06077 cumulative IPC: 1.9518 (Simulation time: 0 hr 16 min 10 sec) 
Heartbeat CPU 0 instructions: 18000003 cycles: 9197002 heartbeat IPC: 2.05295 cumulative IPC: 1.95716 (Simulation time: 0 hr 17 min 12 sec) 
Heartbeat CPU 0 instructions: 19000003 cycles: 9756242 heartbeat IPC: 1.78814 cumulative IPC: 1.94747 (Simulation time: 0 hr 18 min 10 sec) 
Heartbeat CPU 0 instructions: 20000000 cycles: 10314635 heartbeat IPC: 1.79085 cumulative IPC: 1.93899 (Simulation time: 0 hr 19 min 21 sec) 
Heartbeat CPU 0 instructions: 21000003 cycles: 10806446 heartbeat IPC: 2.03331 cumulative IPC: 1.94328 (Simulation time: 0 hr 20 min 12 sec) 
Heartbeat CPU 0 instructions: 22000002 cycles: 11292598 heartbeat IPC: 2.05697 cumulative IPC: 1.94818 (Simulation time: 0 hr 21 min 11 sec) 
Heartbeat CPU 0 instructions: 23000001 cycles: 11778536 heartbeat IPC: 2.05787 cumulative IPC: 1.9527 (Simulation time: 0 hr 22 min 23 sec) 
Heartbeat CPU 0 instructions: 24000000 cycles: 12283012 heartbeat IPC: 1.98225 cumulative IPC: 1.95392 (Simulation time: 0 hr 23 min 26 sec) 
Heartbeat CPU 0 instructions: 25000000 cycles: 12841489 heartbeat IPC: 1.79058 cumulative IPC: 1.94681 (Simulation time: 0 hr 24 min 23 sec) 
Heartbeat CPU 0 instructions: 26000000 cycles: 13389609 heartbeat IPC: 1.82442 cumulative IPC: 1.9418 (Simulation time: 0 hr 25 min 29 sec) 
Heartbeat CPU 0 instructions: 27000002 cycles: 13876460 heartbeat IPC: 2.05402 cumulative IPC: 1.94574 (Simulation time: 0 hr 26 min 25 sec) 
Heartbeat CPU 0 instructions: 28000000 cycles: 14362505 heartbeat IPC: 2.05742 cumulative IPC: 1.94952 (Simulation time: 0 hr 27 min 22 sec) 
Heartbeat CPU 0 instructions: 29000003 cycles: 14849374 heartbeat IPC: 2.05395 cumulative IPC: 1.95294 (Simulation time: 0 hr 28 min 16 sec) 
Heartbeat CPU 0 instructions: 30000001 cycles: 15371532 heartbeat IPC: 1.91513 cumulative IPC: 1.95166 (Simulation time: 0 hr 29 min 12 sec) 
Heartbeat CPU 0 instructions: 31000000 cycles: 15931032 heartbeat IPC: 1.78731 cumulative IPC: 1.94589 (Simulation time: 0 hr 30 min 6 sec) 
Heartbeat CPU 0 instructions: 32000000 cycles: 16464275 heartbeat IPC: 1.87532 cumulative IPC: 1.9436 (Simulation time: 0 hr 31 min 2 sec) 
Heartbeat CPU 0 instructions: 33000000 cycles: 16950453 heartbeat IPC: 2.05686 cumulative IPC: 1.94685 (Simulation time: 0 hr 32 min 7 sec) 
Heartbeat CPU 0 instructions: 34000000 cycles: 17437045 heartbeat IPC: 2.05511 cumulative IPC: 1.94987 (Simulation time: 0 hr 33 min 2 sec) 
Heartbeat CPU 0 instructions: 35000000 cycles: 17923533 heartbeat IPC: 2.05555 cumulative IPC: 1.95274 (Simulation time: 0 hr 33 min 56 sec) 
Heartbeat CPU 0 instructions: 36000000 cycles: 18462553 heartbeat IPC: 1.85522 cumulative IPC: 1.94989 (Simulation time: 0 hr 35 min 0 sec) 
Heartbeat CPU 0 instructions: 37000003 cycles: 19022998 heartbeat IPC: 1.7843 cumulative IPC: 1.94501 (Simulation time: 0 hr 35 min 56 sec) 
Heartbeat CPU 0 instructions: 38000000 cycles: 19539112 heartbeat IPC: 1.93755 cumulative IPC: 1.94482 (Simulation time: 0 hr 36 min 49 sec) 
Heartbeat CPU 0 instructions: 39000003 cycles: 20026002 heartbeat IPC: 2.05386 cumulative IPC: 1.94747 (Simulation time: 0 hr 37 min 43 sec) 
Heartbeat CPU 0 instructions: 40000000 cycles: 20512605 heartbeat IPC: 2.05506 cumulative IPC: 1.95002 (Simulation time: 0 hr 38 min 36 sec) 
Heartbeat CPU 0 instructions: 41000000 cycles: 20998855 heartbeat IPC: 2.05656 cumulative IPC: 1.95249 (Simulation time: 0 hr 39 min 27 sec) 
Heartbeat CPU 0 instructions: 42000002 cycles: 21555949 heartbeat IPC: 1.79503 cumulative IPC: 1.94842 (Simulation time: 0 hr 40 min 21 sec) 
Heartbeat CPU 0 instructions: 43000002 cycles: 22116977 heartbeat IPC: 1.78244 cumulative IPC: 1.94421 (Simulation time: 0 hr 41 min 13 sec) 
Heartbeat CPU 0 instructions: 44000000 cycles: 22615271 heartbeat IPC: 2.00684 cumulative IPC: 1.94559 (Simulation time: 0 hr 42 min 7 sec) 
Heartbeat CPU 0 instructions: 45000003 cycles: 23101873 heartbeat IPC: 2.05507 cumulative IPC: 1.94789 (Simulation time: 0 hr 43 min 0 sec) 
Heartbeat CPU 0 instructions: 46000001 cycles: 23588294 heartbeat IPC: 2.05583 cumulative IPC: 1.95012 (Simulation time: 0 hr 43 min 55 sec) 
Heartbeat CPU 0 instructions: 47000000 cycles: 24086663 heartbeat IPC: 2.00654 cumulative IPC: 1.95129 (Simulation time: 0 hr 44 min 49 sec) 
Heartbeat CPU 0 instructions: 48000000 cycles: 24649929 heartbeat IPC: 1.77536 cumulative IPC: 1.94727 (Simulation time: 0 hr 45 min 47 sec) 
Heartbeat CPU 0 instructions: 49000002 cycles: 25206187 heartbeat IPC: 1.79773 cumulative IPC: 1.94397 (Simulation time: 0 hr 46 min 54 sec) 
Heartbeat CPU 0 instructions: 50000000 cycles: 25692765 heartbeat IPC: 2.05516 cumulative IPC: 1.94607 (Simulation time: 0 hr 47 min 54 sec) 

Warmup complete CPU 0 instructions: 50000004 cycles: 25692766 (Simulation time: 0 hr 47 min 54 sec) 

Heartbeat CPU 0 instructions: 51000002 cycles: 26382056 heartbeat IPC: 1.45077 cumulative IPC: 1.45077 (Simulation time: 0 hr 48 min 49 sec) 
Heartbeat CPU 0 instructions: 52000000 cycles: 27072567 heartbeat IPC: 1.4482 cumulative IPC: 1.44948 (Simulation time: 0 hr 49 min 50 sec) 
Heartbeat CPU 0 instructions: 53000000 cycles: 27820084 heartbeat IPC: 1.33776 cumulative IPC: 1.41022 (Simulation time: 0 hr 50 min 57 sec) 
Heartbeat CPU 0 instructions: 54000002 cycles: 28632150 heartbeat IPC: 1.23143 cumulative IPC: 1.36083 (Simulation time: 0 hr 51 min 56 sec) 
Heartbeat CPU 0 instructions: 55000001 cycles: 29410814 heartbeat IPC: 1.28425 cumulative IPC: 1.34479 (Simulation time: 0 hr 52 min 59 sec) 
Heartbeat CPU 0 instructions: 56000000 cycles: 30098710 heartbeat IPC: 1.45371 cumulative IPC: 1.3618 (Simulation time: 0 hr 54 min 5 sec) 
Heartbeat CPU 0 instructions: 57000000 cycles: 30788641 heartbeat IPC: 1.44942 cumulative IPC: 1.37366 (Simulation time: 0 hr 55 min 15 sec) 
Heartbeat CPU 0 instructions: 58000000 cycles: 31480615 heartbeat IPC: 1.44514 cumulative IPC: 1.38221 (Simulation time: 0 hr 56 min 25 sec) 
Heartbeat CPU 0 instructions: 59000003 cycles: 32256412 heartbeat IPC: 1.289 cumulative IPC: 1.37119 (Simulation time: 0 hr 57 min 33 sec) 
Heartbeat CPU 0 instructions: 60000000 cycles: 33069739 heartbeat IPC: 1.22951 cumulative IPC: 1.35557 (Simulation time: 0 hr 58 min 34 sec) 
Heartbeat CPU 0 instructions: 61000000 cycles: 33823189 heartbeat IPC: 1.32723 cumulative IPC: 1.35294 (Simulation time: 0 hr 59 min 42 sec) 
Heartbeat CPU 0 instructions: 62000002 cycles: 34518415 heartbeat IPC: 1.43838 cumulative IPC: 1.35967 (Simulation time: 1 hr 0 min 44 sec) 
Heartbeat CPU 0 instructions: 63000003 cycles: 35216727 heartbeat IPC: 1.43203 cumulative IPC: 1.36498 (Simulation time: 1 hr 1 min 59 sec) 
Heartbeat CPU 0 instructions: 64000000 cycles: 35912201 heartbeat IPC: 1.43786 cumulative IPC: 1.36994 (Simulation time: 1 hr 3 min 8 sec) 
Heartbeat CPU 0 instructions: 65000003 cycles: 36725669 heartbeat IPC: 1.22931 cumulative IPC: 1.35957 (Simulation time: 1 hr 4 min 18 sec) 
Heartbeat CPU 0 instructions: 66000003 cycles: 37538035 heartbeat IPC: 1.23097 cumulative IPC: 1.35075 (Simulation time: 1 hr 5 min 17 sec) 
Heartbeat CPU 0 instructions: 67000002 cycles: 38258365 heartbeat IPC: 1.38825 cumulative IPC: 1.3529 (Simulation time: 1 hr 6 min 22 sec) 
Heartbeat CPU 0 instructions: 68000000 cycles: 38948252 heartbeat IPC: 1.44951 cumulative IPC: 1.35793 (Simulation time: 1 hr 7 min 19 sec) 
Heartbeat CPU 0 instructions: 69000000 cycles: 39642760 heartbeat IPC: 1.43987 cumulative IPC: 1.36201 (Simulation time: 1 hr 8 min 21 sec) 
Heartbeat CPU 0 instructions: 70000001 cycles: 40367599 heartbeat IPC: 1.37962 cumulative IPC: 1.36288 (Simulation time: 1 hr 9 min 23 sec) 
Heartbeat CPU 0 instructions: 71000001 cycles: 41175949 heartbeat IPC: 1.23709 cumulative IPC: 1.35631 (Simulation time: 1 hr 10 min 33 sec) 
Heartbeat CPU 0 instructions: 72000000 cycles: 41986943 heartbeat IPC: 1.23305 cumulative IPC: 1.35018 (Simulation time: 1 hr 11 min 38 sec) 
Heartbeat CPU 0 instructions: 73000003 cycles: 42678859 heartbeat IPC: 1.44527 cumulative IPC: 1.35405 (Simulation time: 1 hr 12 min 34 sec) 
Heartbeat CPU 0 instructions: 74000001 cycles: 43368814 heartbeat IPC: 1.44937 cumulative IPC: 1.35777 (Simulation time: 1 hr 13 min 30 sec) 
Heartbeat CPU 0 instructions: 75000003 cycles: 44059486 heartbeat IPC: 1.44787 cumulative IPC: 1.36116 (Simulation time: 1 hr 14 min 28 sec) 
Heartbeat CPU 0 instructions: 76000000 cycles: 44806127 heartbeat IPC: 1.33933 cumulative IPC: 1.3603 (Simulation time: 1 hr 15 min 26 sec) 
Heartbeat CPU 0 instructions: 77000001 cycles: 45617892 heartbeat IPC: 1.23188 cumulative IPC: 1.35507 (Simulation time: 1 hr 16 min 24 sec) 
Heartbeat CPU 0 instructions: 78000003 cycles: 46404218 heartbeat IPC: 1.27174 cumulative IPC: 1.35191 (Simulation time: 1 hr 17 min 21 sec) 
Heartbeat CPU 0 instructions: 79000001 cycles: 47088863 heartbeat IPC: 1.46061 cumulative IPC: 1.35539 (Simulation time: 1 hr 18 min 20 sec) 
Heartbeat CPU 0 instructions: 80000000 cycles: 47776701 heartbeat IPC: 1.45383 cumulative IPC: 1.35845 (Simulation time: 1 hr 19 min 15 sec) 
Heartbeat CPU 0 instructions: 81000000 cycles: 48464576 heartbeat IPC: 1.45375 cumulative IPC: 1.36133 (Simulation time: 1 hr 20 min 15 sec) 
Heartbeat CPU 0 instructions: 82000002 cycles: 49231566 heartbeat IPC: 1.3038 cumulative IPC: 1.35946 (Simulation time: 1 hr 21 min 13 sec) 
Heartbeat CPU 0 instructions: 83000001 cycles: 50043243 heartbeat IPC: 1.23202 cumulative IPC: 1.35521 (Simulation time: 1 hr 22 min 19 sec) 
Heartbeat CPU 0 instructions: 84000000 cycles: 50806083 heartbeat IPC: 1.31089 cumulative IPC: 1.35386 (Simulation time: 1 hr 23 min 22 sec) 
Heartbeat CPU 0 instructions: 85000001 cycles: 51506299 heartbeat IPC: 1.42813 cumulative IPC: 1.35588 (Simulation time: 1 hr 24 min 19 sec) 
Heartbeat CPU 0 instructions: 86000002 cycles: 52212315 heartbeat IPC: 1.4164 cumulative IPC: 1.35749 (Simulation time: 1 hr 25 min 15 sec) 
Heartbeat CPU 0 instructions: 87000000 cycles: 52915294 heartbeat IPC: 1.42251 cumulative IPC: 1.35917 (Simulation time: 1 hr 26 min 10 sec) 
Heartbeat CPU 0 instructions: 88000000 cycles: 53717329 heartbeat IPC: 1.24683 cumulative IPC: 1.35595 (Simulation time: 1 hr 27 min 11 sec) 
Heartbeat CPU 0 instructions: 89000000 cycles: 54529940 heartbeat IPC: 1.2306 cumulative IPC: 1.35242 (Simulation time: 1 hr 28 min 15 sec) 
Heartbeat CPU 0 instructions: 90000002 cycles: 55269004 heartbeat IPC: 1.35307 cumulative IPC: 1.35244 (Simulation time: 1 hr 29 min 16 sec) 
Heartbeat CPU 0 instructions: 91000002 cycles: 55972467 heartbeat IPC: 1.42154 cumulative IPC: 1.35404 (Simulation time: 1 hr 30 min 15 sec) 
Heartbeat CPU 0 instructions: 92000000 cycles: 56679599 heartbeat IPC: 1.41416 cumulative IPC: 1.35541 (Simulation time: 1 hr 31 min 17 sec) 
Heartbeat CPU 0 instructions: 93000001 cycles: 57383885 heartbeat IPC: 1.41988 cumulative IPC: 1.35685 (Simulation time: 1 hr 32 min 17 sec) 
Heartbeat CPU 0 instructions: 94000000 cycles: 58210215 heartbeat IPC: 1.21017 cumulative IPC: 1.35312 (Simulation time: 1 hr 33 min 20 sec) 
Heartbeat CPU 0 instructions: 95000003 cycles: 59022865 heartbeat IPC: 1.23055 cumulative IPC: 1.35013 (Simulation time: 1 hr 34 min 25 sec) 
Heartbeat CPU 0 instructions: 96000000 cycles: 59740515 heartbeat IPC: 1.39343 cumulative IPC: 1.35104 (Simulation time: 1 hr 35 min 36 sec) 
Heartbeat CPU 0 instructions: 97000001 cycles: 60446325 heartbeat IPC: 1.41681 cumulative IPC: 1.35238 (Simulation time: 1 hr 36 min 45 sec) 
Heartbeat CPU 0 instructions: 98000000 cycles: 61157907 heartbeat IPC: 1.40532 cumulative IPC: 1.35344 (Simulation time: 1 hr 37 min 46 sec) 
Heartbeat CPU 0 instructions: 99000001 cycles: 61900239 heartbeat IPC: 1.34711 cumulative IPC: 1.35331 (Simulation time: 1 hr 38 min 50 sec) 
Heartbeat CPU 0 instructions: 100000000 cycles: 62712744 heartbeat IPC: 1.23076 cumulative IPC: 1.35062 (Simulation time: 1 hr 39 min 55 sec) 
Heartbeat CPU 0 instructions: 101000001 cycles: 63516269 heartbeat IPC: 1.24452 cumulative IPC: 1.34837 (Simulation time: 1 hr 40 min 58 sec) 
Heartbeat CPU 0 instructions: 102000003 cycles: 64217890 heartbeat IPC: 1.42527 cumulative IPC: 1.34977 (Simulation time: 1 hr 41 min 55 sec) 
Heartbeat CPU 0 instructions: 103000003 cycles: 64926193 heartbeat IPC: 1.41183 cumulative IPC: 1.35089 (Simulation time: 1 hr 43 min 11 sec) 
Heartbeat CPU 0 instructions: 104000000 cycles: 65632612 heartbeat IPC: 1.41559 cumulative IPC: 1.35203 (Simulation time: 1 hr 44 min 21 sec) 
Heartbeat CPU 0 instructions: 105000001 cycles: 66402225 heartbeat IPC: 1.29936 cumulative IPC: 1.35104 (Simulation time: 1 hr 45 min 21 sec) 
Heartbeat CPU 0 instructions: 106000002 cycles: 67209623 heartbeat IPC: 1.23855 cumulative IPC: 1.34885 (Simulation time: 1 hr 46 min 32 sec) 
Heartbeat CPU 0 instructions: 107000003 cycles: 67985858 heartbeat IPC: 1.28827 cumulative IPC: 1.34774 (Simulation time: 1 hr 47 min 27 sec) 
Heartbeat CPU 0 instructions: 108000000 cycles: 68688157 heartbeat IPC: 1.42389 cumulative IPC: 1.34898 (Simulation time: 1 hr 48 min 30 sec) 
Heartbeat CPU 0 instructions: 109000001 cycles: 69395394 heartbeat IPC: 1.41395 cumulative IPC: 1.35003 (Simulation time: 1 hr 49 min 43 sec) 
Heartbeat CPU 0 instructions: 110000000 cycles: 70099826 heartbeat IPC: 1.41958 cumulative IPC: 1.35114 (Simulation time: 1 hr 50 min 46 sec) 
Heartbeat CPU 0 instructions: 111000002 cycles: 70895220 heartbeat IPC: 1.25724 cumulative IPC: 1.34948 (Simulation time: 1 hr 52 min 0 sec) 
Heartbeat CPU 0 instructions: 112000000 cycles: 71707059 heartbeat IPC: 1.23177 cumulative IPC: 1.34741 (Simulation time: 1 hr 53 min 12 sec) 
Heartbeat CPU 0 instructions: 113000001 cycles: 72456619 heartbeat IPC: 1.33412 cumulative IPC: 1.34719 (Simulation time: 1 hr 54 min 10 sec) 
Heartbeat CPU 0 instructions: 114000002 cycles: 73160588 heartbeat IPC: 1.42052 cumulative IPC: 1.34828 (Simulation time: 1 hr 55 min 11 sec) 
Heartbeat CPU 0 instructions: 115000003 cycles: 73868667 heartbeat IPC: 1.41227 cumulative IPC: 1.34922 (Simulation time: 1 hr 56 min 8 sec) 
Heartbeat CPU 0 instructions: 116000000 cycles: 74573840 heartbeat IPC: 1.41809 cumulative IPC: 1.35022 (Simulation time: 1 hr 57 min 5 sec) 
Heartbeat CPU 0 instructions: 117000000 cycles: 75393685 heartbeat IPC: 1.21974 cumulative IPC: 1.34806 (Simulation time: 1 hr 58 min 13 sec) 
Heartbeat CPU 0 instructions: 118000002 cycles: 76206079 heartbeat IPC: 1.23093 cumulative IPC: 1.34618 (Simulation time: 1 hr 59 min 22 sec) 
Heartbeat CPU 0 instructions: 119000000 cycles: 76930604 heartbeat IPC: 1.38021 cumulative IPC: 1.34666 (Simulation time: 2 hr 0 min 22 sec) 
Heartbeat CPU 0 instructions: 120000000 cycles: 77635549 heartbeat IPC: 1.41855 cumulative IPC: 1.34764 (Simulation time: 2 hr 1 min 29 sec) 
Heartbeat CPU 0 instructions: 121000000 cycles: 78345593 heartbeat IPC: 1.40836 cumulative IPC: 1.34846 (Simulation time: 2 hr 2 min 35 sec) 
Heartbeat CPU 0 instructions: 122000003 cycles: 79083002 heartbeat IPC: 1.3561 cumulative IPC: 1.34856 (Simulation time: 2 hr 3 min 35 sec) 
Heartbeat CPU 0 instructions: 123000000 cycles: 79895673 heartbeat IPC: 1.23051 cumulative IPC: 1.34679 (Simulation time: 2 hr 4 min 36 sec) 
Heartbeat CPU 0 instructions: 124000000 cycles: 80705755 heartbeat IPC: 1.23444 cumulative IPC: 1.34514 (Simulation time: 2 hr 5 min 42 sec) 
Heartbeat CPU 0 instructions: 125000001 cycles: 81406264 heartbeat IPC: 1.42753 cumulative IPC: 1.34617 (Simulation time: 2 hr 6 min 39 sec) 
Heartbeat CPU 0 instructions: 126000000 cycles: 82110113 heartbeat IPC: 1.42076 cumulative IPC: 1.3471 (Simulation time: 2 hr 7 min 42 sec) 
Heartbeat CPU 0 instructions: 127000003 cycles: 82815416 heartbeat IPC: 1.41783 cumulative IPC: 1.34798 (Simulation time: 2 hr 8 min 50 sec) 
Heartbeat CPU 0 instructions: 128000000 cycles: 83573895 heartbeat IPC: 1.31842 cumulative IPC: 1.34759 (Simulation time: 2 hr 9 min 50 sec) 
Heartbeat CPU 0 instructions: 129000002 cycles: 84387348 heartbeat IPC: 1.22933 cumulative IPC: 1.34595 (Simulation time: 2 hr 10 min 55 sec) 
Heartbeat CPU 0 instructions: 130000002 cycles: 85172438 heartbeat IPC: 1.27374 cumulative IPC: 1.345 (Simulation time: 2 hr 11 min 58 sec) 
Heartbeat CPU 0 instructions: 131000003 cycles: 85874272 heartbeat IPC: 1.42484 cumulative IPC: 1.34593 (Simulation time: 2 hr 12 min 55 sec) 
Heartbeat CPU 0 instructions: 132000000 cycles: 86581607 heartbeat IPC: 1.41375 cumulative IPC: 1.34672 (Simulation time: 2 hr 13 min 52 sec) 
Heartbeat CPU 0 instructions: 133000003 cycles: 87287146 heartbeat IPC: 1.41736 cumulative IPC: 1.34753 (Simulation time: 2 hr 14 min 49 sec) 
Heartbeat CPU 0 instructions: 134000001 cycles: 88071886 heartbeat IPC: 1.2743 cumulative IPC: 1.3466 (Simulation time: 2 hr 15 min 47 sec) 
Heartbeat CPU 0 instructions: 135000001 cycles: 88883435 heartbeat IPC: 1.23221 cumulative IPC: 1.34514 (Simulation time: 2 hr 16 min 41 sec) 
Heartbeat CPU 0 instructions: 136000000 cycles: 89643108 heartbeat IPC: 1.31635 cumulative IPC: 1.34479 (Simulation time: 2 hr 17 min 41 sec) 
Heartbeat CPU 0 instructions: 137000003 cycles: 90347055 heartbeat IPC: 1.42057 cumulative IPC: 1.34562 (Simulation time: 2 hr 18 min 34 sec) 
Heartbeat CPU 0 instructions: 138000000 cycles: 91052351 heartbeat IPC: 1.41784 cumulative IPC: 1.3464 (Simulation time: 2 hr 19 min 25 sec) 
Heartbeat CPU 0 instructions: 139000002 cycles: 91759294 heartbeat IPC: 1.41454 cumulative IPC: 1.34713 (Simulation time: 2 hr 20 min 20 sec) 
Heartbeat CPU 0 instructions: 140000000 cycles: 92571234 heartbeat IPC: 1.23162 cumulative IPC: 1.34572 (Simulation time: 2 hr 21 min 22 sec) 
Heartbeat CPU 0 instructions: 141000003 cycles: 93378287 heartbeat IPC: 1.23908 cumulative IPC: 1.34445 (Simulation time: 2 hr 22 min 14 sec) 
Heartbeat CPU 0 instructions: 142000000 cycles: 94114471 heartbeat IPC: 1.35835 cumulative IPC: 1.3446 (Simulation time: 2 hr 23 min 5 sec) 
Heartbeat CPU 0 instructions: 143000001 cycles: 94819467 heartbeat IPC: 1.41845 cumulative IPC: 1.34536 (Simulation time: 2 hr 23 min 54 sec) 
Heartbeat CPU 0 instructions: 144000000 cycles: 95523857 heartbeat IPC: 1.41967 cumulative IPC: 1.34611 (Simulation time: 2 hr 24 min 51 sec) 
Heartbeat CPU 0 instructions: 145000001 cycles: 96252408 heartbeat IPC: 1.37259 cumulative IPC: 1.34638 (Simulation time: 2 hr 25 min 39 sec) 
Heartbeat CPU 0 instructions: 146000003 cycles: 97064420 heartbeat IPC: 1.23151 cumulative IPC: 1.34507 (Simulation time: 2 hr 26 min 28 sec) 
Heartbeat CPU 0 instructions: 147000001 cycles: 97875697 heartbeat IPC: 1.23262 cumulative IPC: 1.34381 (Simulation time: 2 hr 27 min 19 sec) 
Heartbeat CPU 0 instructions: 148000000 cycles: 98583504 heartbeat IPC: 1.41281 cumulative IPC: 1.34448 (Simulation time: 2 hr 28 min 6 sec) 
Heartbeat CPU 0 instructions: 149000002 cycles: 99287595 heartbeat IPC: 1.42027 cumulative IPC: 1.3452 (Simulation time: 2 hr 28 min 55 sec) 
Heartbeat CPU 0 instructions: 150000002 cycles: 99994663 heartbeat IPC: 1.41429 cumulative IPC: 1.34586 (Simulation time: 2 hr 29 min 45 sec) 
Finished CPU 0 instructions: 100000002 cycles: 74301898 cummulative IPC: 1.34586 (Simulation time: 2 hr 29 min 45 sec) 

ChampSim completed all CPUs

Region of Interest Statistics

CPU 0 cummulative IPC: 1.34586 instructions: 100000002 cycles: 74301898
LLC TOTAL     ACCESS:     631080  HIT:     270164  MISS:     360916
LLC LOAD      ACCESS:      35811  HIT:      13976  MISS:      21835
LLC RFO       ACCESS:     152048  HIT:      75818  MISS:      76230
LLC PREFETCH  ACCESS:     287523  HIT:      83118  MISS:     204405
LLC WRITEBACK ACCESS:     155698  HIT:      97252  MISS:      58446
Insertion Distribution: 
	LOAD 4495 0 4390 19727 
	RFO 291 0 8804 107376 
	PREF 0 20530 47211 237643 
	WRITEBACK 0 0 0 83747 
Total Prefetch Downgrades: 14462
