
*** ChampSim Multicore Out-of-Order Simulator ***

Warmup Instructions: 50000000
Simulation Instructions: 100000000
Configuration: 2
Number of CPUs: 1
LLC sets: 2048
LLC ways: 16
Off-chip DRAM Channels: 1 Width: 64-bit Data Rate: 1600 MT/s

CPU 0 runs /datasets/cs240c-wi22-a00-public/data/Assignment2-gz/calculix_2655B.trace.gz
CPU 0 L1D next line prefetcher
CPU 0 L2C IP-based stride prefetcher
Initialize SRRIP state
Heartbeat CPU 0 instructions: 1000003 cycles: 392383 heartbeat IPC: 2.54854 cumulative IPC: 2.54854 (Simulation time: 0 hr 0 min 52 sec) 
Heartbeat CPU 0 instructions: 2000001 cycles: 785148 heartbeat IPC: 2.54605 cumulative IPC: 2.54729 (Simulation time: 0 hr 1 min 46 sec) 
Heartbeat CPU 0 instructions: 3000002 cycles: 1177684 heartbeat IPC: 2.54754 cumulative IPC: 2.54737 (Simulation time: 0 hr 2 min 35 sec) 
Heartbeat CPU 0 instructions: 4000000 cycles: 1569447 heartbeat IPC: 2.55256 cumulative IPC: 2.54867 (Simulation time: 0 hr 3 min 24 sec) 
Heartbeat CPU 0 instructions: 5000003 cycles: 1961684 heartbeat IPC: 2.54949 cumulative IPC: 2.54883 (Simulation time: 0 hr 4 min 6 sec) 
Heartbeat CPU 0 instructions: 6000003 cycles: 2353797 heartbeat IPC: 2.55029 cumulative IPC: 2.54907 (Simulation time: 0 hr 4 min 59 sec) 
Heartbeat CPU 0 instructions: 7000002 cycles: 2745952 heartbeat IPC: 2.55001 cumulative IPC: 2.54921 (Simulation time: 0 hr 5 min 49 sec) 
Heartbeat CPU 0 instructions: 8000000 cycles: 3137922 heartbeat IPC: 2.55121 cumulative IPC: 2.54946 (Simulation time: 0 hr 6 min 40 sec) 
Heartbeat CPU 0 instructions: 9000001 cycles: 3530092 heartbeat IPC: 2.54992 cumulative IPC: 2.54951 (Simulation time: 0 hr 7 min 28 sec) 
Heartbeat CPU 0 instructions: 10000000 cycles: 3921567 heartbeat IPC: 2.55444 cumulative IPC: 2.55 (Simulation time: 0 hr 8 min 15 sec) 
Heartbeat CPU 0 instructions: 11000001 cycles: 4313708 heartbeat IPC: 2.55011 cumulative IPC: 2.55001 (Simulation time: 0 hr 9 min 9 sec) 
Heartbeat CPU 0 instructions: 12000000 cycles: 4705822 heartbeat IPC: 2.55028 cumulative IPC: 2.55003 (Simulation time: 0 hr 9 min 51 sec) 
Heartbeat CPU 0 instructions: 13000001 cycles: 5097795 heartbeat IPC: 2.5512 cumulative IPC: 2.55012 (Simulation time: 0 hr 10 min 36 sec) 
Heartbeat CPU 0 instructions: 14000000 cycles: 5489935 heartbeat IPC: 2.55011 cumulative IPC: 2.55012 (Simulation time: 0 hr 11 min 20 sec) 
Heartbeat CPU 0 instructions: 15000000 cycles: 5882117 heartbeat IPC: 2.54984 cumulative IPC: 2.5501 (Simulation time: 0 hr 12 min 6 sec) 
Heartbeat CPU 0 instructions: 16000000 cycles: 6273561 heartbeat IPC: 2.55464 cumulative IPC: 2.55039 (Simulation time: 0 hr 12 min 49 sec) 
Heartbeat CPU 0 instructions: 17000001 cycles: 6665708 heartbeat IPC: 2.55007 cumulative IPC: 2.55037 (Simulation time: 0 hr 13 min 36 sec) 
Heartbeat CPU 0 instructions: 18000000 cycles: 7057684 heartbeat IPC: 2.55117 cumulative IPC: 2.55041 (Simulation time: 0 hr 14 min 18 sec) 
Heartbeat CPU 0 instructions: 19000001 cycles: 7449716 heartbeat IPC: 2.55081 cumulative IPC: 2.55043 (Simulation time: 0 hr 15 min 0 sec) 
Heartbeat CPU 0 instructions: 20000000 cycles: 7841795 heartbeat IPC: 2.5505 cumulative IPC: 2.55044 (Simulation time: 0 hr 15 min 45 sec) 
Heartbeat CPU 0 instructions: 21000000 cycles: 8233867 heartbeat IPC: 2.55055 cumulative IPC: 2.55044 (Simulation time: 0 hr 16 min 29 sec) 
Heartbeat CPU 0 instructions: 22000003 cycles: 8625351 heartbeat IPC: 2.55439 cumulative IPC: 2.55062 (Simulation time: 0 hr 17 min 21 sec) 
Heartbeat CPU 0 instructions: 23000001 cycles: 9017267 heartbeat IPC: 2.55156 cumulative IPC: 2.55066 (Simulation time: 0 hr 18 min 12 sec) 
Heartbeat CPU 0 instructions: 24000000 cycles: 9409404 heartbeat IPC: 2.55013 cumulative IPC: 2.55064 (Simulation time: 0 hr 19 min 6 sec) 
Heartbeat CPU 0 instructions: 25000000 cycles: 9801571 heartbeat IPC: 2.54993 cumulative IPC: 2.55061 (Simulation time: 0 hr 19 min 52 sec) 
Heartbeat CPU 0 instructions: 26000003 cycles: 10193698 heartbeat IPC: 2.5502 cumulative IPC: 2.5506 (Simulation time: 0 hr 20 min 35 sec) 
Heartbeat CPU 0 instructions: 27000002 cycles: 10584905 heartbeat IPC: 2.55619 cumulative IPC: 2.5508 (Simulation time: 0 hr 21 min 22 sec) 
Heartbeat CPU 0 instructions: 28000000 cycles: 10976922 heartbeat IPC: 2.5509 cumulative IPC: 2.55081 (Simulation time: 0 hr 22 min 17 sec) 
Heartbeat CPU 0 instructions: 29000001 cycles: 11369004 heartbeat IPC: 2.55049 cumulative IPC: 2.5508 (Simulation time: 0 hr 23 min 5 sec) 
Heartbeat CPU 0 instructions: 30000002 cycles: 11761175 heartbeat IPC: 2.54991 cumulative IPC: 2.55077 (Simulation time: 0 hr 23 min 51 sec) 
Heartbeat CPU 0 instructions: 31000001 cycles: 12153360 heartbeat IPC: 2.54981 cumulative IPC: 2.55073 (Simulation time: 0 hr 24 min 37 sec) 
Heartbeat CPU 0 instructions: 32000000 cycles: 12545311 heartbeat IPC: 2.55134 cumulative IPC: 2.55075 (Simulation time: 0 hr 25 min 26 sec) 
Heartbeat CPU 0 instructions: 33000003 cycles: 12936592 heartbeat IPC: 2.55572 cumulative IPC: 2.5509 (Simulation time: 0 hr 26 min 14 sec) 
Heartbeat CPU 0 instructions: 34000003 cycles: 13328592 heartbeat IPC: 2.55102 cumulative IPC: 2.55091 (Simulation time: 0 hr 26 min 56 sec) 
Heartbeat CPU 0 instructions: 35000003 cycles: 13720655 heartbeat IPC: 2.55061 cumulative IPC: 2.5509 (Simulation time: 0 hr 27 min 40 sec) 
Heartbeat CPU 0 instructions: 36000000 cycles: 14112680 heartbeat IPC: 2.55085 cumulative IPC: 2.5509 (Simulation time: 0 hr 28 min 33 sec) 
Heartbeat CPU 0 instructions: 37000003 cycles: 14504658 heartbeat IPC: 2.55117 cumulative IPC: 2.5509 (Simulation time: 0 hr 29 min 17 sec) 
Heartbeat CPU 0 instructions: 38000002 cycles: 14896764 heartbeat IPC: 2.55033 cumulative IPC: 2.55089 (Simulation time: 0 hr 30 min 1 sec) 
Heartbeat CPU 0 instructions: 39000001 cycles: 15298273 heartbeat IPC: 2.4906 cumulative IPC: 2.54931 (Simulation time: 0 hr 30 min 49 sec) 
Heartbeat CPU 0 instructions: 40000000 cycles: 15690451 heartbeat IPC: 2.54986 cumulative IPC: 2.54932 (Simulation time: 0 hr 31 min 36 sec) 
Heartbeat CPU 0 instructions: 41000000 cycles: 16081569 heartbeat IPC: 2.55677 cumulative IPC: 2.5495 (Simulation time: 0 hr 32 min 20 sec) 
Heartbeat CPU 0 instructions: 42000000 cycles: 16472693 heartbeat IPC: 2.55673 cumulative IPC: 2.54967 (Simulation time: 0 hr 33 min 7 sec) 
Heartbeat CPU 0 instructions: 43000002 cycles: 16863998 heartbeat IPC: 2.55556 cumulative IPC: 2.54981 (Simulation time: 0 hr 33 min 59 sec) 
Heartbeat CPU 0 instructions: 44000000 cycles: 17260626 heartbeat IPC: 2.52125 cumulative IPC: 2.54915 (Simulation time: 0 hr 34 min 55 sec) 
Heartbeat CPU 0 instructions: 45000001 cycles: 17652431 heartbeat IPC: 2.55229 cumulative IPC: 2.54922 (Simulation time: 0 hr 35 min 45 sec) 
Heartbeat CPU 0 instructions: 46000003 cycles: 18046962 heartbeat IPC: 2.53466 cumulative IPC: 2.54891 (Simulation time: 0 hr 36 min 37 sec) 
Heartbeat CPU 0 instructions: 47000000 cycles: 18441327 heartbeat IPC: 2.53571 cumulative IPC: 2.54862 (Simulation time: 0 hr 37 min 30 sec) 
Heartbeat CPU 0 instructions: 48000000 cycles: 18834544 heartbeat IPC: 2.54313 cumulative IPC: 2.54851 (Simulation time: 0 hr 38 min 20 sec) 
Heartbeat CPU 0 instructions: 49000001 cycles: 19228047 heartbeat IPC: 2.54128 cumulative IPC: 2.54836 (Simulation time: 0 hr 39 min 3 sec) 
Heartbeat CPU 0 instructions: 50000003 cycles: 19618266 heartbeat IPC: 2.56267 cumulative IPC: 2.54865 (Simulation time: 0 hr 39 min 48 sec) 

Warmup complete CPU 0 instructions: 50000003 cycles: 19618266 (Simulation time: 0 hr 39 min 48 sec) 

Heartbeat CPU 0 instructions: 51000001 cycles: 20104354 heartbeat IPC: 2.05724 cumulative IPC: 2.05724 (Simulation time: 0 hr 40 min 39 sec) 
Heartbeat CPU 0 instructions: 52000000 cycles: 20539820 heartbeat IPC: 2.29639 cumulative IPC: 2.17024 (Simulation time: 0 hr 41 min 38 sec) 
Heartbeat CPU 0 instructions: 53000002 cycles: 21071409 heartbeat IPC: 1.88116 cumulative IPC: 2.06449 (Simulation time: 0 hr 42 min 35 sec) 
Heartbeat CPU 0 instructions: 54000002 cycles: 21870766 heartbeat IPC: 1.25101 cumulative IPC: 1.7758 (Simulation time: 0 hr 43 min 46 sec) 
Heartbeat CPU 0 instructions: 55000003 cycles: 22401278 heartbeat IPC: 1.88497 cumulative IPC: 1.79661 (Simulation time: 0 hr 44 min 52 sec) 
Heartbeat CPU 0 instructions: 56000000 cycles: 22882464 heartbeat IPC: 2.07819 cumulative IPC: 1.83812 (Simulation time: 0 hr 46 min 3 sec) 
Heartbeat CPU 0 instructions: 57000000 cycles: 23418619 heartbeat IPC: 1.86513 cumulative IPC: 1.84193 (Simulation time: 0 hr 47 min 21 sec) 
Heartbeat CPU 0 instructions: 58000003 cycles: 23866355 heartbeat IPC: 2.23347 cumulative IPC: 1.8832 (Simulation time: 0 hr 48 min 57 sec) 
Heartbeat CPU 0 instructions: 59000001 cycles: 24393025 heartbeat IPC: 1.89872 cumulative IPC: 1.88491 (Simulation time: 0 hr 50 min 18 sec) 
Heartbeat CPU 0 instructions: 60000000 cycles: 24867616 heartbeat IPC: 2.10708 cumulative IPC: 1.905 (Simulation time: 0 hr 51 min 51 sec) 
Heartbeat CPU 0 instructions: 61000002 cycles: 25375050 heartbeat IPC: 1.9707 cumulative IPC: 1.91079 (Simulation time: 0 hr 53 min 32 sec) 
Heartbeat CPU 0 instructions: 62000003 cycles: 25898870 heartbeat IPC: 1.90905 cumulative IPC: 1.91064 (Simulation time: 0 hr 55 min 14 sec) 
Heartbeat CPU 0 instructions: 63000003 cycles: 26580572 heartbeat IPC: 1.46692 cumulative IPC: 1.8672 (Simulation time: 0 hr 57 min 4 sec) 
Heartbeat CPU 0 instructions: 64000000 cycles: 27070025 heartbeat IPC: 2.04309 cumulative IPC: 1.87875 (Simulation time: 0 hr 58 min 47 sec) 
Heartbeat CPU 0 instructions: 65000001 cycles: 27597541 heartbeat IPC: 1.89568 cumulative IPC: 1.87987 (Simulation time: 1 hr 0 min 26 sec) 
Heartbeat CPU 0 instructions: 66000001 cycles: 28250611 heartbeat IPC: 1.53123 cumulative IPC: 1.85349 (Simulation time: 1 hr 1 min 47 sec) 
Heartbeat CPU 0 instructions: 67000003 cycles: 28828832 heartbeat IPC: 1.72945 cumulative IPC: 1.84571 (Simulation time: 1 hr 2 min 40 sec) 
Heartbeat CPU 0 instructions: 68000000 cycles: 29394005 heartbeat IPC: 1.76936 cumulative IPC: 1.84129 (Simulation time: 1 hr 3 min 41 sec) 
Heartbeat CPU 0 instructions: 69000001 cycles: 29950483 heartbeat IPC: 1.79702 cumulative IPC: 1.83891 (Simulation time: 1 hr 4 min 41 sec) 
Heartbeat CPU 0 instructions: 70000002 cycles: 30513597 heartbeat IPC: 1.77584 cumulative IPC: 1.83565 (Simulation time: 1 hr 5 min 45 sec) 
Heartbeat CPU 0 instructions: 71000003 cycles: 31070116 heartbeat IPC: 1.79689 cumulative IPC: 1.83376 (Simulation time: 1 hr 6 min 41 sec) 
Heartbeat CPU 0 instructions: 72000000 cycles: 31627737 heartbeat IPC: 1.79333 cumulative IPC: 1.83189 (Simulation time: 1 hr 7 min 49 sec) 
Heartbeat CPU 0 instructions: 73000000 cycles: 32160464 heartbeat IPC: 1.87713 cumulative IPC: 1.83381 (Simulation time: 1 hr 8 min 43 sec) 
Heartbeat CPU 0 instructions: 74000000 cycles: 32680803 heartbeat IPC: 1.92182 cumulative IPC: 1.83732 (Simulation time: 1 hr 9 min 57 sec) 
Heartbeat CPU 0 instructions: 75000000 cycles: 33283515 heartbeat IPC: 1.65917 cumulative IPC: 1.82946 (Simulation time: 1 hr 11 min 1 sec) 
Heartbeat CPU 0 instructions: 76000000 cycles: 33859457 heartbeat IPC: 1.73629 cumulative IPC: 1.82569 (Simulation time: 1 hr 11 min 57 sec) 
Heartbeat CPU 0 instructions: 77000003 cycles: 34429650 heartbeat IPC: 1.7538 cumulative IPC: 1.82292 (Simulation time: 1 hr 12 min 58 sec) 
Heartbeat CPU 0 instructions: 78000002 cycles: 34990103 heartbeat IPC: 1.78427 cumulative IPC: 1.82151 (Simulation time: 1 hr 13 min 55 sec) 
Heartbeat CPU 0 instructions: 79000003 cycles: 35539841 heartbeat IPC: 1.81905 cumulative IPC: 1.82143 (Simulation time: 1 hr 14 min 54 sec) 
Heartbeat CPU 0 instructions: 80000000 cycles: 36082904 heartbeat IPC: 1.8414 cumulative IPC: 1.82209 (Simulation time: 1 hr 15 min 50 sec) 
Heartbeat CPU 0 instructions: 81000001 cycles: 36587945 heartbeat IPC: 1.98004 cumulative IPC: 1.82679 (Simulation time: 1 hr 17 min 4 sec) 
Heartbeat CPU 0 instructions: 82000001 cycles: 37070993 heartbeat IPC: 2.07019 cumulative IPC: 1.83352 (Simulation time: 1 hr 18 min 10 sec) 
Heartbeat CPU 0 instructions: 83000000 cycles: 37547283 heartbeat IPC: 2.09956 cumulative IPC: 1.84059 (Simulation time: 1 hr 19 min 9 sec) 
Heartbeat CPU 0 instructions: 84000000 cycles: 38080576 heartbeat IPC: 1.87514 cumulative IPC: 1.84159 (Simulation time: 1 hr 20 min 6 sec) 
Heartbeat CPU 0 instructions: 85000002 cycles: 38611482 heartbeat IPC: 1.88358 cumulative IPC: 1.84276 (Simulation time: 1 hr 21 min 5 sec) 
Heartbeat CPU 0 instructions: 86000001 cycles: 39324608 heartbeat IPC: 1.40228 cumulative IPC: 1.82682 (Simulation time: 1 hr 22 min 16 sec) 
Heartbeat CPU 0 instructions: 87000003 cycles: 39906033 heartbeat IPC: 1.71992 cumulative IPC: 1.82376 (Simulation time: 1 hr 23 min 13 sec) 
Heartbeat CPU 0 instructions: 88000000 cycles: 40364376 heartbeat IPC: 2.18177 cumulative IPC: 1.83167 (Simulation time: 1 hr 24 min 10 sec) 
Heartbeat CPU 0 instructions: 89000000 cycles: 40819620 heartbeat IPC: 2.19662 cumulative IPC: 1.8395 (Simulation time: 1 hr 25 min 0 sec) 
Heartbeat CPU 0 instructions: 90000001 cycles: 41271847 heartbeat IPC: 2.21128 cumulative IPC: 1.84727 (Simulation time: 1 hr 25 min 55 sec) 
Heartbeat CPU 0 instructions: 91000002 cycles: 41814948 heartbeat IPC: 1.84128 cumulative IPC: 1.84712 (Simulation time: 1 hr 26 min 45 sec) 
Heartbeat CPU 0 instructions: 92000000 cycles: 42335007 heartbeat IPC: 1.92285 cumulative IPC: 1.84886 (Simulation time: 1 hr 27 min 39 sec) 
Heartbeat CPU 0 instructions: 93000000 cycles: 42859008 heartbeat IPC: 1.90839 cumulative IPC: 1.8502 (Simulation time: 1 hr 28 min 30 sec) 
Heartbeat CPU 0 instructions: 94000001 cycles: 43362941 heartbeat IPC: 1.98439 cumulative IPC: 1.85305 (Simulation time: 1 hr 29 min 23 sec) 
Heartbeat CPU 0 instructions: 95000003 cycles: 43905661 heartbeat IPC: 1.84257 cumulative IPC: 1.85281 (Simulation time: 1 hr 30 min 16 sec) 
Heartbeat CPU 0 instructions: 96000000 cycles: 44382248 heartbeat IPC: 2.09825 cumulative IPC: 1.85754 (Simulation time: 1 hr 31 min 7 sec) 
Heartbeat CPU 0 instructions: 97000002 cycles: 44870547 heartbeat IPC: 2.04793 cumulative IPC: 1.86122 (Simulation time: 1 hr 31 min 59 sec) 
Heartbeat CPU 0 instructions: 98000001 cycles: 45341457 heartbeat IPC: 2.12355 cumulative IPC: 1.86602 (Simulation time: 1 hr 32 min 53 sec) 
Heartbeat CPU 0 instructions: 99000001 cycles: 45883590 heartbeat IPC: 1.84457 cumulative IPC: 1.86558 (Simulation time: 1 hr 33 min 52 sec) 
Heartbeat CPU 0 instructions: 100000000 cycles: 46358997 heartbeat IPC: 2.10346 cumulative IPC: 1.86981 (Simulation time: 1 hr 34 min 41 sec) 
Heartbeat CPU 0 instructions: 101000001 cycles: 46829766 heartbeat IPC: 2.12419 cumulative IPC: 1.87421 (Simulation time: 1 hr 35 min 28 sec) 
Heartbeat CPU 0 instructions: 102000003 cycles: 47290016 heartbeat IPC: 2.17274 cumulative IPC: 1.87917 (Simulation time: 1 hr 36 min 24 sec) 
Heartbeat CPU 0 instructions: 103000003 cycles: 47811347 heartbeat IPC: 1.91817 cumulative IPC: 1.87989 (Simulation time: 1 hr 37 min 13 sec) 
Heartbeat CPU 0 instructions: 104000000 cycles: 48362689 heartbeat IPC: 1.81375 cumulative IPC: 1.87863 (Simulation time: 1 hr 38 min 16 sec) 
Heartbeat CPU 0 instructions: 105000001 cycles: 48787838 heartbeat IPC: 2.35212 cumulative IPC: 1.88553 (Simulation time: 1 hr 39 min 6 sec) 
Heartbeat CPU 0 instructions: 106000002 cycles: 49234155 heartbeat IPC: 2.24056 cumulative IPC: 1.89088 (Simulation time: 1 hr 40 min 5 sec) 
Heartbeat CPU 0 instructions: 107000001 cycles: 49685151 heartbeat IPC: 2.21731 cumulative IPC: 1.89577 (Simulation time: 1 hr 41 min 5 sec) 
Heartbeat CPU 0 instructions: 108000000 cycles: 50103968 heartbeat IPC: 2.38768 cumulative IPC: 1.90253 (Simulation time: 1 hr 41 min 53 sec) 
Heartbeat CPU 0 instructions: 109000000 cycles: 50578556 heartbeat IPC: 2.10709 cumulative IPC: 1.90567 (Simulation time: 1 hr 42 min 40 sec) 
Heartbeat CPU 0 instructions: 110000000 cycles: 50997267 heartbeat IPC: 2.38828 cumulative IPC: 1.91211 (Simulation time: 1 hr 43 min 28 sec) 
Heartbeat CPU 0 instructions: 111000001 cycles: 51416293 heartbeat IPC: 2.38649 cumulative IPC: 1.91836 (Simulation time: 1 hr 44 min 14 sec) 
Heartbeat CPU 0 instructions: 112000000 cycles: 51917906 heartbeat IPC: 1.99357 cumulative IPC: 1.91953 (Simulation time: 1 hr 45 min 3 sec) 
Heartbeat CPU 0 instructions: 113000003 cycles: 52373431 heartbeat IPC: 2.19528 cumulative IPC: 1.92336 (Simulation time: 1 hr 45 min 54 sec) 
Heartbeat CPU 0 instructions: 114000002 cycles: 52826364 heartbeat IPC: 2.20783 cumulative IPC: 1.92724 (Simulation time: 1 hr 46 min 51 sec) 
Heartbeat CPU 0 instructions: 115000000 cycles: 53278916 heartbeat IPC: 2.20969 cumulative IPC: 1.93104 (Simulation time: 1 hr 47 min 40 sec) 
Heartbeat CPU 0 instructions: 116000000 cycles: 53906088 heartbeat IPC: 1.59446 cumulative IPC: 1.92488 (Simulation time: 1 hr 48 min 31 sec) 
Heartbeat CPU 0 instructions: 117000001 cycles: 54457954 heartbeat IPC: 1.81204 cumulative IPC: 1.92309 (Simulation time: 1 hr 49 min 26 sec) 
Heartbeat CPU 0 instructions: 118000000 cycles: 55072364 heartbeat IPC: 1.62758 cumulative IPC: 1.91797 (Simulation time: 1 hr 50 min 30 sec) 
Heartbeat CPU 0 instructions: 119000000 cycles: 56025607 heartbeat IPC: 1.04905 cumulative IPC: 1.89522 (Simulation time: 1 hr 51 min 36 sec) 
Heartbeat CPU 0 instructions: 120000000 cycles: 56760549 heartbeat IPC: 1.36065 cumulative IPC: 1.88464 (Simulation time: 1 hr 52 min 41 sec) 
Heartbeat CPU 0 instructions: 121000000 cycles: 57490973 heartbeat IPC: 1.36907 cumulative IPC: 1.8747 (Simulation time: 1 hr 53 min 48 sec) 
Heartbeat CPU 0 instructions: 122000000 cycles: 58229072 heartbeat IPC: 1.35483 cumulative IPC: 1.86476 (Simulation time: 1 hr 55 min 4 sec) 
Heartbeat CPU 0 instructions: 123000000 cycles: 58965511 heartbeat IPC: 1.35789 cumulative IPC: 1.85528 (Simulation time: 1 hr 56 min 3 sec) 
Heartbeat CPU 0 instructions: 124000000 cycles: 59698267 heartbeat IPC: 1.36471 cumulative IPC: 1.84631 (Simulation time: 1 hr 57 min 12 sec) 
Heartbeat CPU 0 instructions: 125000001 cycles: 60435014 heartbeat IPC: 1.35732 cumulative IPC: 1.83748 (Simulation time: 1 hr 58 min 18 sec) 
Heartbeat CPU 0 instructions: 126000000 cycles: 61166067 heartbeat IPC: 1.36789 cumulative IPC: 1.82922 (Simulation time: 1 hr 59 min 21 sec) 
Heartbeat CPU 0 instructions: 127000000 cycles: 61904830 heartbeat IPC: 1.35361 cumulative IPC: 1.82091 (Simulation time: 2 hr 0 min 24 sec) 
Heartbeat CPU 0 instructions: 128000000 cycles: 62639010 heartbeat IPC: 1.36206 cumulative IPC: 1.81308 (Simulation time: 2 hr 1 min 34 sec) 
Heartbeat CPU 0 instructions: 129000002 cycles: 63364112 heartbeat IPC: 1.37912 cumulative IPC: 1.80589 (Simulation time: 2 hr 2 min 38 sec) 
Heartbeat CPU 0 instructions: 130000001 cycles: 64088756 heartbeat IPC: 1.37999 cumulative IPC: 1.79895 (Simulation time: 2 hr 3 min 42 sec) 
Heartbeat CPU 0 instructions: 131000003 cycles: 64807773 heartbeat IPC: 1.39079 cumulative IPC: 1.79245 (Simulation time: 2 hr 4 min 46 sec) 
Heartbeat CPU 0 instructions: 132000000 cycles: 65517250 heartbeat IPC: 1.40948 cumulative IPC: 1.78653 (Simulation time: 2 hr 5 min 54 sec) 
Heartbeat CPU 0 instructions: 133000002 cycles: 66204726 heartbeat IPC: 1.4546 cumulative IPC: 1.78163 (Simulation time: 2 hr 6 min 58 sec) 
Heartbeat CPU 0 instructions: 134000001 cycles: 66845074 heartbeat IPC: 1.56165 cumulative IPC: 1.77865 (Simulation time: 2 hr 8 min 6 sec) 
Heartbeat CPU 0 instructions: 135000001 cycles: 67657384 heartbeat IPC: 1.23106 cumulative IPC: 1.76939 (Simulation time: 2 hr 9 min 4 sec) 
Heartbeat CPU 0 instructions: 136000000 cycles: 68347648 heartbeat IPC: 1.44872 cumulative IPC: 1.76485 (Simulation time: 2 hr 10 min 1 sec) 
Heartbeat CPU 0 instructions: 137000000 cycles: 68818847 heartbeat IPC: 2.12225 cumulative IPC: 1.76827 (Simulation time: 2 hr 10 min 52 sec) 
Heartbeat CPU 0 instructions: 138000002 cycles: 69276647 heartbeat IPC: 2.18436 cumulative IPC: 1.77211 (Simulation time: 2 hr 11 min 41 sec) 
Heartbeat CPU 0 instructions: 139000003 cycles: 69742517 heartbeat IPC: 2.14652 cumulative IPC: 1.77559 (Simulation time: 2 hr 12 min 33 sec) 
Heartbeat CPU 0 instructions: 140000000 cycles: 70205994 heartbeat IPC: 2.1576 cumulative IPC: 1.77909 (Simulation time: 2 hr 13 min 28 sec) 
Heartbeat CPU 0 instructions: 141000002 cycles: 70662791 heartbeat IPC: 2.18916 cumulative IPC: 1.78276 (Simulation time: 2 hr 14 min 12 sec) 
Heartbeat CPU 0 instructions: 142000002 cycles: 71117411 heartbeat IPC: 2.19964 cumulative IPC: 1.78644 (Simulation time: 2 hr 14 min 57 sec) 
Heartbeat CPU 0 instructions: 143000003 cycles: 71571036 heartbeat IPC: 2.20447 cumulative IPC: 1.79009 (Simulation time: 2 hr 15 min 53 sec) 
Heartbeat CPU 0 instructions: 144000000 cycles: 72024721 heartbeat IPC: 2.20417 cumulative IPC: 1.79367 (Simulation time: 2 hr 16 min 49 sec) 
Heartbeat CPU 0 instructions: 145000003 cycles: 72481912 heartbeat IPC: 2.18728 cumulative IPC: 1.79708 (Simulation time: 2 hr 17 min 41 sec) 
Heartbeat CPU 0 instructions: 146000002 cycles: 72936940 heartbeat IPC: 2.19766 cumulative IPC: 1.80049 (Simulation time: 2 hr 18 min 38 sec) 
Heartbeat CPU 0 instructions: 147000002 cycles: 73390910 heartbeat IPC: 2.20279 cumulative IPC: 1.80389 (Simulation time: 2 hr 19 min 22 sec) 
Heartbeat CPU 0 instructions: 148000000 cycles: 73852387 heartbeat IPC: 2.16695 cumulative IPC: 1.80698 (Simulation time: 2 hr 20 min 8 sec) 
Heartbeat CPU 0 instructions: 149000001 cycles: 74315387 heartbeat IPC: 2.15983 cumulative IPC: 1.80997 (Simulation time: 2 hr 21 min 0 sec) 
Heartbeat CPU 0 instructions: 150000000 cycles: 74769252 heartbeat IPC: 2.2033 cumulative IPC: 1.8132 (Simulation time: 2 hr 21 min 48 sec) 
Finished CPU 0 instructions: 100000001 cycles: 55150987 cummulative IPC: 1.8132 (Simulation time: 2 hr 21 min 48 sec) 

ChampSim completed all CPUs

Region of Interest Statistics

CPU 0 cummulative IPC: 1.8132 instructions: 100000001 cycles: 55150987
LLC TOTAL     ACCESS:    1290616  HIT:    1027773  MISS:     262843
LLC LOAD      ACCESS:     168338  HIT:     149572  MISS:      18766
LLC RFO       ACCESS:      32333  HIT:      16764  MISS:      15569
LLC PREFETCH  ACCESS:     713586  HIT:     499660  MISS:     213926
LLC WRITEBACK ACCESS:     376359  HIT:     361777  MISS:      14582
Insertion Distribution: 
	LOAD 9848 0 12526 4229 
	RFO 30 0 8497 7051 
	PREF 0 12382 56795 221516 
	WRITEBACK 0 0 0 19772 
Total Prefetch Downgrades: 4994
