
*** ChampSim Multicore Out-of-Order Simulator ***

Warmup Instructions: 50000000
Simulation Instructions: 100000000
Configuration: 2
Number of CPUs: 1
LLC sets: 2048
LLC ways: 16
Off-chip DRAM Channels: 1 Width: 64-bit Data Rate: 1600 MT/s

CPU 0 runs /datasets/cs240c-wi22-a00-public/data/Assignment2-gz/soplex_217B.trace.gz
CPU 0 L1D next line prefetcher
CPU 0 L2C IP-based stride prefetcher
Initialize SRRIP state
Heartbeat CPU 0 instructions: 1000002 cycles: 441470 heartbeat IPC: 2.26516 cumulative IPC: 2.26516 (Simulation time: 0 hr 1 min 23 sec) 
Heartbeat CPU 0 instructions: 2000003 cycles: 800554 heartbeat IPC: 2.78487 cumulative IPC: 2.49827 (Simulation time: 0 hr 2 min 24 sec) 
Heartbeat CPU 0 instructions: 3000002 cycles: 1245566 heartbeat IPC: 2.24713 cumulative IPC: 2.40855 (Simulation time: 0 hr 3 min 42 sec) 
Heartbeat CPU 0 instructions: 4000000 cycles: 1673386 heartbeat IPC: 2.33743 cumulative IPC: 2.39036 (Simulation time: 0 hr 4 min 59 sec) 
Heartbeat CPU 0 instructions: 5000001 cycles: 2057435 heartbeat IPC: 2.60384 cumulative IPC: 2.43021 (Simulation time: 0 hr 5 min 52 sec) 
Heartbeat CPU 0 instructions: 6000000 cycles: 2431913 heartbeat IPC: 2.67038 cumulative IPC: 2.46719 (Simulation time: 0 hr 6 min 44 sec) 
Heartbeat CPU 0 instructions: 7000003 cycles: 2962497 heartbeat IPC: 1.88472 cumulative IPC: 2.36287 (Simulation time: 0 hr 7 min 41 sec) 
Heartbeat CPU 0 instructions: 8000000 cycles: 3410339 heartbeat IPC: 2.23292 cumulative IPC: 2.34581 (Simulation time: 0 hr 9 min 4 sec) 
Heartbeat CPU 0 instructions: 9000001 cycles: 3834800 heartbeat IPC: 2.35593 cumulative IPC: 2.34693 (Simulation time: 0 hr 10 min 13 sec) 
Heartbeat CPU 0 instructions: 10000000 cycles: 4247134 heartbeat IPC: 2.42522 cumulative IPC: 2.35453 (Simulation time: 0 hr 11 min 11 sec) 
Heartbeat CPU 0 instructions: 11000002 cycles: 4675731 heartbeat IPC: 2.3332 cumulative IPC: 2.35257 (Simulation time: 0 hr 12 min 24 sec) 
Heartbeat CPU 0 instructions: 12000000 cycles: 5080032 heartbeat IPC: 2.4734 cumulative IPC: 2.36219 (Simulation time: 0 hr 13 min 21 sec) 
Heartbeat CPU 0 instructions: 13000000 cycles: 5464277 heartbeat IPC: 2.60251 cumulative IPC: 2.37909 (Simulation time: 0 hr 14 min 12 sec) 
Heartbeat CPU 0 instructions: 14000000 cycles: 5915111 heartbeat IPC: 2.21811 cumulative IPC: 2.36682 (Simulation time: 0 hr 15 min 8 sec) 
Heartbeat CPU 0 instructions: 15000000 cycles: 6443124 heartbeat IPC: 1.89389 cumulative IPC: 2.32806 (Simulation time: 0 hr 16 min 17 sec) 
Heartbeat CPU 0 instructions: 16000000 cycles: 6901504 heartbeat IPC: 2.1816 cumulative IPC: 2.31834 (Simulation time: 0 hr 17 min 29 sec) 
Heartbeat CPU 0 instructions: 17000002 cycles: 7281508 heartbeat IPC: 2.63156 cumulative IPC: 2.33468 (Simulation time: 0 hr 18 min 28 sec) 
Heartbeat CPU 0 instructions: 18000003 cycles: 7711364 heartbeat IPC: 2.32636 cumulative IPC: 2.33422 (Simulation time: 0 hr 19 min 33 sec) 
Heartbeat CPU 0 instructions: 19000001 cycles: 8135228 heartbeat IPC: 2.35924 cumulative IPC: 2.33552 (Simulation time: 0 hr 20 min 41 sec) 
Heartbeat CPU 0 instructions: 20000000 cycles: 8519571 heartbeat IPC: 2.60184 cumulative IPC: 2.34754 (Simulation time: 0 hr 21 min 37 sec) 
Heartbeat CPU 0 instructions: 21000000 cycles: 8896891 heartbeat IPC: 2.65027 cumulative IPC: 2.36038 (Simulation time: 0 hr 22 min 34 sec) 
Heartbeat CPU 0 instructions: 22000001 cycles: 9430711 heartbeat IPC: 1.87329 cumulative IPC: 2.3328 (Simulation time: 0 hr 23 min 39 sec) 
Heartbeat CPU 0 instructions: 23000001 cycles: 9879256 heartbeat IPC: 2.22943 cumulative IPC: 2.32811 (Simulation time: 0 hr 25 min 12 sec) 
Heartbeat CPU 0 instructions: 24000000 cycles: 10296592 heartbeat IPC: 2.39615 cumulative IPC: 2.33087 (Simulation time: 0 hr 26 min 22 sec) 
Heartbeat CPU 0 instructions: 25000001 cycles: 10709166 heartbeat IPC: 2.42381 cumulative IPC: 2.33445 (Simulation time: 0 hr 27 min 22 sec) 
Heartbeat CPU 0 instructions: 26000001 cycles: 11141301 heartbeat IPC: 2.31409 cumulative IPC: 2.33366 (Simulation time: 0 hr 28 min 34 sec) 
Heartbeat CPU 0 instructions: 27000002 cycles: 11543290 heartbeat IPC: 2.48763 cumulative IPC: 2.33902 (Simulation time: 0 hr 29 min 41 sec) 
Heartbeat CPU 0 instructions: 28000000 cycles: 11927603 heartbeat IPC: 2.60204 cumulative IPC: 2.3475 (Simulation time: 0 hr 30 min 36 sec) 
Heartbeat CPU 0 instructions: 29000002 cycles: 12382238 heartbeat IPC: 2.19957 cumulative IPC: 2.34206 (Simulation time: 0 hr 31 min 32 sec) 
Heartbeat CPU 0 instructions: 30000002 cycles: 12908106 heartbeat IPC: 1.90162 cumulative IPC: 2.32412 (Simulation time: 0 hr 32 min 36 sec) 
Heartbeat CPU 0 instructions: 31000000 cycles: 13313640 heartbeat IPC: 2.46588 cumulative IPC: 2.32844 (Simulation time: 0 hr 33 min 50 sec) 
Heartbeat CPU 0 instructions: 32000000 cycles: 13721994 heartbeat IPC: 2.44886 cumulative IPC: 2.33202 (Simulation time: 0 hr 34 min 54 sec) 
Heartbeat CPU 0 instructions: 33000001 cycles: 14146850 heartbeat IPC: 2.35374 cumulative IPC: 2.33267 (Simulation time: 0 hr 36 min 11 sec) 
Heartbeat CPU 0 instructions: 34000000 cycles: 14555271 heartbeat IPC: 2.44845 cumulative IPC: 2.33592 (Simulation time: 0 hr 37 min 23 sec) 
Heartbeat CPU 0 instructions: 35000002 cycles: 14939966 heartbeat IPC: 2.59947 cumulative IPC: 2.34271 (Simulation time: 0 hr 38 min 21 sec) 
Heartbeat CPU 0 instructions: 36000000 cycles: 15376957 heartbeat IPC: 2.28837 cumulative IPC: 2.34117 (Simulation time: 0 hr 39 min 12 sec) 
Heartbeat CPU 0 instructions: 37000001 cycles: 15906541 heartbeat IPC: 1.88828 cumulative IPC: 2.32609 (Simulation time: 0 hr 40 min 19 sec) 
Heartbeat CPU 0 instructions: 38000000 cycles: 16335077 heartbeat IPC: 2.33352 cumulative IPC: 2.32628 (Simulation time: 0 hr 41 min 34 sec) 
Heartbeat CPU 0 instructions: 39000001 cycles: 16731574 heartbeat IPC: 2.52209 cumulative IPC: 2.33092 (Simulation time: 0 hr 42 min 35 sec) 
Heartbeat CPU 0 instructions: 40000000 cycles: 17156274 heartbeat IPC: 2.3546 cumulative IPC: 2.33151 (Simulation time: 0 hr 43 min 41 sec) 
Heartbeat CPU 0 instructions: 41000000 cycles: 17571333 heartbeat IPC: 2.4093 cumulative IPC: 2.33335 (Simulation time: 0 hr 44 min 47 sec) 
Heartbeat CPU 0 instructions: 42000002 cycles: 17955258 heartbeat IPC: 2.60468 cumulative IPC: 2.33915 (Simulation time: 0 hr 45 min 51 sec) 
Heartbeat CPU 0 instructions: 43000000 cycles: 18376148 heartbeat IPC: 2.37591 cumulative IPC: 2.33999 (Simulation time: 0 hr 46 min 42 sec) 
Heartbeat CPU 0 instructions: 44000000 cycles: 18911763 heartbeat IPC: 1.86701 cumulative IPC: 2.32659 (Simulation time: 0 hr 47 min 42 sec) 
Heartbeat CPU 0 instructions: 45000003 cycles: 19371649 heartbeat IPC: 2.17446 cumulative IPC: 2.32298 (Simulation time: 0 hr 48 min 56 sec) 
Heartbeat CPU 0 instructions: 46000000 cycles: 19803272 heartbeat IPC: 2.31683 cumulative IPC: 2.32285 (Simulation time: 0 hr 49 min 58 sec) 
Heartbeat CPU 0 instructions: 47000001 cycles: 20214182 heartbeat IPC: 2.43363 cumulative IPC: 2.3251 (Simulation time: 0 hr 51 min 2 sec) 
Heartbeat CPU 0 instructions: 48000000 cycles: 20642784 heartbeat IPC: 2.33316 cumulative IPC: 2.32527 (Simulation time: 0 hr 52 min 13 sec) 
Heartbeat CPU 0 instructions: 49000000 cycles: 21048304 heartbeat IPC: 2.46597 cumulative IPC: 2.32798 (Simulation time: 0 hr 53 min 21 sec) 
Heartbeat CPU 0 instructions: 50000002 cycles: 21432808 heartbeat IPC: 2.60076 cumulative IPC: 2.33287 (Simulation time: 0 hr 54 min 24 sec) 

Warmup complete CPU 0 instructions: 50000002 cycles: 21432808 (Simulation time: 0 hr 54 min 24 sec) 

Heartbeat CPU 0 instructions: 51000000 cycles: 23956043 heartbeat IPC: 0.396316 cumulative IPC: 0.396316 (Simulation time: 0 hr 55 min 40 sec) 
Heartbeat CPU 0 instructions: 52000000 cycles: 26684507 heartbeat IPC: 0.366507 cumulative IPC: 0.380829 (Simulation time: 0 hr 57 min 14 sec) 
Heartbeat CPU 0 instructions: 53000000 cycles: 29897579 heartbeat IPC: 0.311229 cumulative IPC: 0.35441 (Simulation time: 0 hr 59 min 7 sec) 
Heartbeat CPU 0 instructions: 54000000 cycles: 31767424 heartbeat IPC: 0.534804 cumulative IPC: 0.387049 (Simulation time: 1 hr 0 min 37 sec) 
Heartbeat CPU 0 instructions: 55000000 cycles: 35096761 heartbeat IPC: 0.30036 cumulative IPC: 0.365926 (Simulation time: 1 hr 2 min 37 sec) 
Heartbeat CPU 0 instructions: 56000000 cycles: 37913921 heartbeat IPC: 0.354967 cumulative IPC: 0.364053 (Simulation time: 1 hr 4 min 4 sec) 
Heartbeat CPU 0 instructions: 57000003 cycles: 39229712 heartbeat IPC: 0.760001 cumulative IPC: 0.393327 (Simulation time: 1 hr 4 min 51 sec) 
Heartbeat CPU 0 instructions: 58000000 cycles: 41393275 heartbeat IPC: 0.462199 cumulative IPC: 0.400792 (Simulation time: 1 hr 5 min 52 sec) 
Heartbeat CPU 0 instructions: 59000000 cycles: 44038401 heartbeat IPC: 0.378054 cumulative IPC: 0.398131 (Simulation time: 1 hr 7 min 31 sec) 
Heartbeat CPU 0 instructions: 60000000 cycles: 47393582 heartbeat IPC: 0.298046 cumulative IPC: 0.385196 (Simulation time: 1 hr 9 min 3 sec) 
Heartbeat CPU 0 instructions: 61000000 cycles: 49625984 heartbeat IPC: 0.447948 cumulative IPC: 0.390165 (Simulation time: 1 hr 10 min 17 sec) 
Heartbeat CPU 0 instructions: 62000000 cycles: 52359169 heartbeat IPC: 0.365874 cumulative IPC: 0.388018 (Simulation time: 1 hr 11 min 47 sec) 
Heartbeat CPU 0 instructions: 63000001 cycles: 55708320 heartbeat IPC: 0.298583 cumulative IPC: 0.379279 (Simulation time: 1 hr 13 min 9 sec) 
Heartbeat CPU 0 instructions: 64000000 cycles: 57032289 heartbeat IPC: 0.755304 cumulative IPC: 0.393264 (Simulation time: 1 hr 13 min 54 sec) 
Heartbeat CPU 0 instructions: 65000000 cycles: 58490343 heartbeat IPC: 0.685846 cumulative IPC: 0.404776 (Simulation time: 1 hr 14 min 53 sec) 
Heartbeat CPU 0 instructions: 66000002 cycles: 61617275 heartbeat IPC: 0.319803 cumulative IPC: 0.398164 (Simulation time: 1 hr 16 min 15 sec) 
Heartbeat CPU 0 instructions: 67000000 cycles: 64832911 heartbeat IPC: 0.31098 cumulative IPC: 0.391704 (Simulation time: 1 hr 17 min 43 sec) 
Heartbeat CPU 0 instructions: 68000000 cycles: 70785673 heartbeat IPC: 0.167989 cumulative IPC: 0.36472 (Simulation time: 1 hr 19 min 29 sec) 
Heartbeat CPU 0 instructions: 69000001 cycles: 75002047 heartbeat IPC: 0.237171 cumulative IPC: 0.354681 (Simulation time: 1 hr 20 min 58 sec) 
Heartbeat CPU 0 instructions: 70000000 cycles: 78927584 heartbeat IPC: 0.254742 cumulative IPC: 0.347858 (Simulation time: 1 hr 22 min 45 sec) 
Heartbeat CPU 0 instructions: 71000002 cycles: 83149891 heartbeat IPC: 0.236838 cumulative IPC: 0.340262 (Simulation time: 1 hr 24 min 23 sec) 
Heartbeat CPU 0 instructions: 72000000 cycles: 86487702 heartbeat IPC: 0.299597 cumulative IPC: 0.338176 (Simulation time: 1 hr 25 min 48 sec) 
Heartbeat CPU 0 instructions: 73000000 cycles: 89786520 heartbeat IPC: 0.303139 cumulative IPC: 0.336485 (Simulation time: 1 hr 27 min 17 sec) 
Heartbeat CPU 0 instructions: 74000000 cycles: 93455886 heartbeat IPC: 0.272527 cumulative IPC: 0.333227 (Simulation time: 1 hr 28 min 32 sec) 
Heartbeat CPU 0 instructions: 75000002 cycles: 97149076 heartbeat IPC: 0.270769 cumulative IPC: 0.33018 (Simulation time: 1 hr 30 min 1 sec) 
Heartbeat CPU 0 instructions: 76000000 cycles: 99690857 heartbeat IPC: 0.393424 cumulative IPC: 0.332234 (Simulation time: 1 hr 31 min 13 sec) 
Heartbeat CPU 0 instructions: 77000000 cycles: 103218640 heartbeat IPC: 0.283464 cumulative IPC: 0.330131 (Simulation time: 1 hr 32 min 38 sec) 
Heartbeat CPU 0 instructions: 78000002 cycles: 105402671 heartbeat IPC: 0.45787 cumulative IPC: 0.333453 (Simulation time: 1 hr 33 min 57 sec) 
Heartbeat CPU 0 instructions: 79000002 cycles: 107301257 heartbeat IPC: 0.526708 cumulative IPC: 0.337726 (Simulation time: 1 hr 35 min 20 sec) 
Heartbeat CPU 0 instructions: 80000000 cycles: 108525585 heartbeat IPC: 0.816773 cumulative IPC: 0.34446 (Simulation time: 1 hr 36 min 26 sec) 
Heartbeat CPU 0 instructions: 81000003 cycles: 110790129 heartbeat IPC: 0.441591 cumulative IPC: 0.346922 (Simulation time: 1 hr 38 min 5 sec) 
Heartbeat CPU 0 instructions: 82000001 cycles: 113607907 heartbeat IPC: 0.354889 cumulative IPC: 0.347165 (Simulation time: 1 hr 39 min 41 sec) 
Heartbeat CPU 0 instructions: 83000002 cycles: 116022392 heartbeat IPC: 0.414167 cumulative IPC: 0.348876 (Simulation time: 1 hr 41 min 19 sec) 
Heartbeat CPU 0 instructions: 84000000 cycles: 118248219 heartbeat IPC: 0.44927 cumulative IPC: 0.351184 (Simulation time: 1 hr 42 min 39 sec) 
Heartbeat CPU 0 instructions: 85000000 cycles: 119817164 heartbeat IPC: 0.637371 cumulative IPC: 0.355748 (Simulation time: 1 hr 43 min 52 sec) 
Heartbeat CPU 0 instructions: 86000003 cycles: 123530308 heartbeat IPC: 0.269314 cumulative IPC: 0.352604 (Simulation time: 1 hr 45 min 55 sec) 
Heartbeat CPU 0 instructions: 87000000 cycles: 126120785 heartbeat IPC: 0.386028 cumulative IPC: 0.353431 (Simulation time: 1 hr 47 min 10 sec) 
Heartbeat CPU 0 instructions: 88000000 cycles: 127422843 heartbeat IPC: 0.768015 cumulative IPC: 0.358524 (Simulation time: 1 hr 48 min 7 sec) 
Heartbeat CPU 0 instructions: 89000003 cycles: 129975465 heartbeat IPC: 0.391755 cumulative IPC: 0.359306 (Simulation time: 1 hr 49 min 16 sec) 
Heartbeat CPU 0 instructions: 90000002 cycles: 132718378 heartbeat IPC: 0.364576 cumulative IPC: 0.359436 (Simulation time: 1 hr 50 min 40 sec) 
Heartbeat CPU 0 instructions: 91000001 cycles: 135960575 heartbeat IPC: 0.308433 cumulative IPC: 0.357992 (Simulation time: 1 hr 52 min 12 sec) 
Heartbeat CPU 0 instructions: 92000000 cycles: 137816256 heartbeat IPC: 0.538885 cumulative IPC: 0.360876 (Simulation time: 1 hr 53 min 34 sec) 
Heartbeat CPU 0 instructions: 93000000 cycles: 141238192 heartbeat IPC: 0.292232 cumulative IPC: 0.358915 (Simulation time: 1 hr 55 min 36 sec) 
Heartbeat CPU 0 instructions: 94000001 cycles: 144012672 heartbeat IPC: 0.360428 cumulative IPC: 0.35895 (Simulation time: 1 hr 56 min 48 sec) 
Heartbeat CPU 0 instructions: 95000003 cycles: 145319144 heartbeat IPC: 0.765422 cumulative IPC: 0.363236 (Simulation time: 1 hr 57 min 36 sec) 
Heartbeat CPU 0 instructions: 96000000 cycles: 147505538 heartbeat IPC: 0.457373 cumulative IPC: 0.364869 (Simulation time: 1 hr 58 min 39 sec) 
Heartbeat CPU 0 instructions: 97000002 cycles: 149988402 heartbeat IPC: 0.402761 cumulative IPC: 0.365601 (Simulation time: 1 hr 59 min 57 sec) 
Heartbeat CPU 0 instructions: 98000003 cycles: 153957615 heartbeat IPC: 0.251939 cumulative IPC: 0.362196 (Simulation time: 2 hr 1 min 47 sec) 
Heartbeat CPU 0 instructions: 99000000 cycles: 156799518 heartbeat IPC: 0.351876 cumulative IPC: 0.36198 (Simulation time: 2 hr 3 min 21 sec) 
Heartbeat CPU 0 instructions: 100000000 cycles: 158692646 heartbeat IPC: 0.528226 cumulative IPC: 0.364273 (Simulation time: 2 hr 4 min 52 sec) 
Heartbeat CPU 0 instructions: 101000001 cycles: 162642765 heartbeat IPC: 0.253157 cumulative IPC: 0.361164 (Simulation time: 2 hr 6 min 28 sec) 
Heartbeat CPU 0 instructions: 102000000 cycles: 164245165 heartbeat IPC: 0.624063 cumulative IPC: 0.364114 (Simulation time: 2 hr 7 min 22 sec) 
Heartbeat CPU 0 instructions: 103000001 cycles: 165502517 heartbeat IPC: 0.795323 cumulative IPC: 0.367877 (Simulation time: 2 hr 8 min 18 sec) 
Heartbeat CPU 0 instructions: 104000000 cycles: 168773340 heartbeat IPC: 0.305733 cumulative IPC: 0.366498 (Simulation time: 2 hr 9 min 40 sec) 
Heartbeat CPU 0 instructions: 105000003 cycles: 171838134 heartbeat IPC: 0.326287 cumulative IPC: 0.365679 (Simulation time: 2 hr 11 min 28 sec) 
Heartbeat CPU 0 instructions: 106000002 cycles: 174542508 heartbeat IPC: 0.369771 cumulative IPC: 0.365751 (Simulation time: 2 hr 12 min 59 sec) 
Heartbeat CPU 0 instructions: 107000000 cycles: 176258859 heartbeat IPC: 0.58263 cumulative IPC: 0.368155 (Simulation time: 2 hr 14 min 16 sec) 
Heartbeat CPU 0 instructions: 108000000 cycles: 180105801 heartbeat IPC: 0.259947 cumulative IPC: 0.365532 (Simulation time: 2 hr 15 min 45 sec) 
Heartbeat CPU 0 instructions: 109000000 cycles: 182008884 heartbeat IPC: 0.525463 cumulative IPC: 0.367427 (Simulation time: 2 hr 16 min 40 sec) 
Heartbeat CPU 0 instructions: 110000002 cycles: 183280455 heartbeat IPC: 0.78643 cumulative IPC: 0.370719 (Simulation time: 2 hr 17 min 26 sec) 
Heartbeat CPU 0 instructions: 111000000 cycles: 186476814 heartbeat IPC: 0.312855 cumulative IPC: 0.369598 (Simulation time: 2 hr 18 min 33 sec) 
Heartbeat CPU 0 instructions: 112000000 cycles: 189233575 heartbeat IPC: 0.362745 cumulative IPC: 0.369486 (Simulation time: 2 hr 19 min 52 sec) 
Heartbeat CPU 0 instructions: 113000001 cycles: 192133433 heartbeat IPC: 0.344845 cumulative IPC: 0.369067 (Simulation time: 2 hr 21 min 14 sec) 
Heartbeat CPU 0 instructions: 114000003 cycles: 193663470 heartbeat IPC: 0.65358 cumulative IPC: 0.371595 (Simulation time: 2 hr 22 min 19 sec) 
Heartbeat CPU 0 instructions: 115000002 cycles: 197526868 heartbeat IPC: 0.258839 cumulative IPC: 0.369121 (Simulation time: 2 hr 23 min 50 sec) 
Heartbeat CPU 0 instructions: 116000000 cycles: 199738563 heartbeat IPC: 0.452141 cumulative IPC: 0.370151 (Simulation time: 2 hr 24 min 44 sec) 
Heartbeat CPU 0 instructions: 117000000 cycles: 201003086 heartbeat IPC: 0.790812 cumulative IPC: 0.373113 (Simulation time: 2 hr 25 min 27 sec) 
Heartbeat CPU 0 instructions: 118000000 cycles: 203950933 heartbeat IPC: 0.339231 cumulative IPC: 0.372566 (Simulation time: 2 hr 26 min 23 sec) 
Heartbeat CPU 0 instructions: 119000001 cycles: 206651760 heartbeat IPC: 0.370257 cumulative IPC: 0.372532 (Simulation time: 2 hr 27 min 50 sec) 
Heartbeat CPU 0 instructions: 120000000 cycles: 209661787 heartbeat IPC: 0.332223 cumulative IPC: 0.371887 (Simulation time: 2 hr 28 min 59 sec) 
Heartbeat CPU 0 instructions: 121000000 cycles: 211239670 heartbeat IPC: 0.633761 cumulative IPC: 0.374064 (Simulation time: 2 hr 30 min 11 sec) 
Heartbeat CPU 0 instructions: 122000001 cycles: 214886145 heartbeat IPC: 0.274238 cumulative IPC: 0.372183 (Simulation time: 2 hr 31 min 25 sec) 
Heartbeat CPU 0 instructions: 123000000 cycles: 217404124 heartbeat IPC: 0.397144 cumulative IPC: 0.372503 (Simulation time: 2 hr 32 min 16 sec) 
Heartbeat CPU 0 instructions: 124000000 cycles: 218694542 heartbeat IPC: 0.774943 cumulative IPC: 0.375136 (Simulation time: 2 hr 32 min 54 sec) 
Heartbeat CPU 0 instructions: 125000003 cycles: 221275836 heartbeat IPC: 0.387404 cumulative IPC: 0.375295 (Simulation time: 2 hr 33 min 44 sec) 
Heartbeat CPU 0 instructions: 126000002 cycles: 223987484 heartbeat IPC: 0.368779 cumulative IPC: 0.375207 (Simulation time: 2 hr 34 min 44 sec) 
Heartbeat CPU 0 instructions: 127000003 cycles: 226436921 heartbeat IPC: 0.408257 cumulative IPC: 0.375602 (Simulation time: 2 hr 35 min 41 sec) 
Heartbeat CPU 0 instructions: 128000000 cycles: 229024160 heartbeat IPC: 0.386511 cumulative IPC: 0.375738 (Simulation time: 2 hr 36 min 33 sec) 
Heartbeat CPU 0 instructions: 129000002 cycles: 231052193 heartbeat IPC: 0.49309 cumulative IPC: 0.376874 (Simulation time: 2 hr 37 min 26 sec) 
Heartbeat CPU 0 instructions: 130000000 cycles: 235065264 heartbeat IPC: 0.249185 cumulative IPC: 0.374475 (Simulation time: 2 hr 38 min 51 sec) 
Heartbeat CPU 0 instructions: 131000001 cycles: 236447472 heartbeat IPC: 0.723481 cumulative IPC: 0.376718 (Simulation time: 2 hr 39 min 23 sec) 
Heartbeat CPU 0 instructions: 132000000 cycles: 237690204 heartbeat IPC: 0.804678 cumulative IPC: 0.379178 (Simulation time: 2 hr 39 min 57 sec) 
Heartbeat CPU 0 instructions: 133000002 cycles: 240974392 heartbeat IPC: 0.30449 cumulative IPC: 0.37806 (Simulation time: 2 hr 40 min 44 sec) 
Heartbeat CPU 0 instructions: 134000002 cycles: 244110301 heartbeat IPC: 0.318887 cumulative IPC: 0.377227 (Simulation time: 2 hr 41 min 35 sec) 
Heartbeat CPU 0 instructions: 135000001 cycles: 246784664 heartbeat IPC: 0.37392 cumulative IPC: 0.377188 (Simulation time: 2 hr 42 min 19 sec) 
Heartbeat CPU 0 instructions: 136000000 cycles: 248559309 heartbeat IPC: 0.563492 cumulative IPC: 0.378644 (Simulation time: 2 hr 43 min 4 sec) 
Heartbeat CPU 0 instructions: 137000003 cycles: 252475791 heartbeat IPC: 0.255332 cumulative IPC: 0.376553 (Simulation time: 2 hr 44 min 5 sec) 
Heartbeat CPU 0 instructions: 138000000 cycles: 254297815 heartbeat IPC: 0.548839 cumulative IPC: 0.377901 (Simulation time: 2 hr 44 min 40 sec) 
Heartbeat CPU 0 instructions: 139000000 cycles: 255551780 heartbeat IPC: 0.79747 cumulative IPC: 0.380149 (Simulation time: 2 hr 45 min 9 sec) 
Heartbeat CPU 0 instructions: 140000000 cycles: 258822294 heartbeat IPC: 0.305762 cumulative IPC: 0.379124 (Simulation time: 2 hr 45 min 52 sec) 
Heartbeat CPU 0 instructions: 141000001 cycles: 261665039 heartbeat IPC: 0.351773 cumulative IPC: 0.3788 (Simulation time: 2 hr 46 min 40 sec) 
Heartbeat CPU 0 instructions: 142000001 cycles: 264497112 heartbeat IPC: 0.353098 cumulative IPC: 0.378501 (Simulation time: 2 hr 47 min 21 sec) 
Heartbeat CPU 0 instructions: 143000000 cycles: 266107963 heartbeat IPC: 0.620789 cumulative IPC: 0.380096 (Simulation time: 2 hr 48 min 2 sec) 
Heartbeat CPU 0 instructions: 144000000 cycles: 269929226 heartbeat IPC: 0.261694 cumulative IPC: 0.378275 (Simulation time: 2 hr 48 min 55 sec) 
Heartbeat CPU 0 instructions: 145000001 cycles: 272035062 heartbeat IPC: 0.474871 cumulative IPC: 0.379087 (Simulation time: 2 hr 49 min 25 sec) 
Heartbeat CPU 0 instructions: 146000000 cycles: 273288837 heartbeat IPC: 0.79759 cumulative IPC: 0.38117 (Simulation time: 2 hr 49 min 53 sec) 
Heartbeat CPU 0 instructions: 147000000 cycles: 276319570 heartbeat IPC: 0.329953 cumulative IPC: 0.380561 (Simulation time: 2 hr 50 min 30 sec) 
Heartbeat CPU 0 instructions: 148000000 cycles: 279023815 heartbeat IPC: 0.369789 cumulative IPC: 0.380448 (Simulation time: 2 hr 51 min 22 sec) 
Heartbeat CPU 0 instructions: 149000002 cycles: 282097297 heartbeat IPC: 0.325365 cumulative IPC: 0.379799 (Simulation time: 2 hr 52 min 12 sec) 
Heartbeat CPU 0 instructions: 150000000 cycles: 283530962 heartbeat IPC: 0.697512 cumulative IPC: 0.381536 (Simulation time: 2 hr 52 min 47 sec) 
Finished CPU 0 instructions: 100000001 cycles: 262098158 cummulative IPC: 0.381536 (Simulation time: 2 hr 52 min 47 sec) 

ChampSim completed all CPUs

Region of Interest Statistics

CPU 0 cummulative IPC: 0.381536 instructions: 100000001 cycles: 262098158
LLC TOTAL     ACCESS:    8583335  HIT:    4769298  MISS:    3814037
LLC LOAD      ACCESS:    2179181  HIT:    1095353  MISS:    1083828
LLC RFO       ACCESS:     808472  HIT:     271795  MISS:     536677
LLC PREFETCH  ACCESS:    3496904  HIT:    1625670  MISS:    1871234
LLC WRITEBACK ACCESS:    2098778  HIT:    1776480  MISS:     322298
Insertion Distribution: 
	LOAD 498802 0 170621 890536 
	RFO 319876 0 136017 275911 
	PREF 0 218195 421169 2412447 
	WRITEBACK 0 0 0 530465 
Total Prefetch Downgrades: 221873
