
*** ChampSim Multicore Out-of-Order Simulator ***

Warmup Instructions: 50000000
Simulation Instructions: 100000000
Configuration: 2
Number of CPUs: 1
LLC sets: 2048
LLC ways: 16
Off-chip DRAM Channels: 1 Width: 64-bit Data Rate: 1600 MT/s

CPU 0 runs /datasets/cs240c-wi22-a00-public/data/Assignment2-gz/sphinx3_2520B.trace.gz
CPU 0 L1D next line prefetcher
CPU 0 L2C IP-based stride prefetcher
Initialize SRRIP state
Heartbeat CPU 0 instructions: 1000003 cycles: 338965 heartbeat IPC: 2.95017 cumulative IPC: 2.95017 (Simulation time: 0 hr 1 min 8 sec) 
Heartbeat CPU 0 instructions: 2000000 cycles: 737243 heartbeat IPC: 2.5108 cumulative IPC: 2.71281 (Simulation time: 0 hr 2 min 22 sec) 
Heartbeat CPU 0 instructions: 3000003 cycles: 1185241 heartbeat IPC: 2.23216 cumulative IPC: 2.53113 (Simulation time: 0 hr 3 min 12 sec) 
Heartbeat CPU 0 instructions: 4000000 cycles: 1524269 heartbeat IPC: 2.9496 cumulative IPC: 2.62421 (Simulation time: 0 hr 4 min 0 sec) 
Heartbeat CPU 0 instructions: 5000001 cycles: 1902428 heartbeat IPC: 2.64439 cumulative IPC: 2.62822 (Simulation time: 0 hr 5 min 5 sec) 
Heartbeat CPU 0 instructions: 6000001 cycles: 2367856 heartbeat IPC: 2.14856 cumulative IPC: 2.53394 (Simulation time: 0 hr 6 min 6 sec) 
Heartbeat CPU 0 instructions: 7000001 cycles: 2706797 heartbeat IPC: 2.95037 cumulative IPC: 2.58608 (Simulation time: 0 hr 7 min 12 sec) 
Heartbeat CPU 0 instructions: 8000000 cycles: 3055805 heartbeat IPC: 2.86526 cumulative IPC: 2.61797 (Simulation time: 0 hr 8 min 13 sec) 
Heartbeat CPU 0 instructions: 9000000 cycles: 3509228 heartbeat IPC: 2.20545 cumulative IPC: 2.56467 (Simulation time: 0 hr 9 min 5 sec) 
Heartbeat CPU 0 instructions: 10000000 cycles: 3859387 heartbeat IPC: 2.85585 cumulative IPC: 2.59108 (Simulation time: 0 hr 9 min 57 sec) 
Heartbeat CPU 0 instructions: 11000003 cycles: 4204160 heartbeat IPC: 2.90047 cumulative IPC: 2.61646 (Simulation time: 0 hr 10 min 50 sec) 
Heartbeat CPU 0 instructions: 12000000 cycles: 4648776 heartbeat IPC: 2.24913 cumulative IPC: 2.58132 (Simulation time: 0 hr 11 min 51 sec) 
Heartbeat CPU 0 instructions: 13000000 cycles: 5008368 heartbeat IPC: 2.78093 cumulative IPC: 2.59566 (Simulation time: 0 hr 12 min 41 sec) 
Heartbeat CPU 0 instructions: 14000002 cycles: 5351091 heartbeat IPC: 2.91781 cumulative IPC: 2.61629 (Simulation time: 0 hr 13 min 39 sec) 
Heartbeat CPU 0 instructions: 15000003 cycles: 5790395 heartbeat IPC: 2.27633 cumulative IPC: 2.5905 (Simulation time: 0 hr 14 min 35 sec) 
Heartbeat CPU 0 instructions: 16000000 cycles: 6157256 heartbeat IPC: 2.72582 cumulative IPC: 2.59856 (Simulation time: 0 hr 15 min 38 sec) 
Heartbeat CPU 0 instructions: 17000000 cycles: 6498663 heartbeat IPC: 2.92906 cumulative IPC: 2.61592 (Simulation time: 0 hr 16 min 32 sec) 
Heartbeat CPU 0 instructions: 18000002 cycles: 6932983 heartbeat IPC: 2.30245 cumulative IPC: 2.59629 (Simulation time: 0 hr 17 min 31 sec) 
Heartbeat CPU 0 instructions: 19000000 cycles: 7304315 heartbeat IPC: 2.693 cumulative IPC: 2.6012 (Simulation time: 0 hr 18 min 26 sec) 
Heartbeat CPU 0 instructions: 20000000 cycles: 7645508 heartbeat IPC: 2.93089 cumulative IPC: 2.61592 (Simulation time: 0 hr 19 min 22 sec) 
Heartbeat CPU 0 instructions: 21000001 cycles: 8089844 heartbeat IPC: 2.25055 cumulative IPC: 2.59585 (Simulation time: 0 hr 20 min 24 sec) 
Heartbeat CPU 0 instructions: 22000002 cycles: 8503947 heartbeat IPC: 2.41486 cumulative IPC: 2.58703 (Simulation time: 0 hr 21 min 26 sec) 
Heartbeat CPU 0 instructions: 23000001 cycles: 8942948 heartbeat IPC: 2.2779 cumulative IPC: 2.57186 (Simulation time: 0 hr 22 min 18 sec) 
Heartbeat CPU 0 instructions: 24000000 cycles: 9281973 heartbeat IPC: 2.94963 cumulative IPC: 2.58566 (Simulation time: 0 hr 23 min 14 sec) 
Heartbeat CPU 0 instructions: 25000003 cycles: 9668726 heartbeat IPC: 2.58564 cumulative IPC: 2.58566 (Simulation time: 0 hr 24 min 12 sec) 
Heartbeat CPU 0 instructions: 26000001 cycles: 10085579 heartbeat IPC: 2.39892 cumulative IPC: 2.57794 (Simulation time: 0 hr 25 min 6 sec) 
Heartbeat CPU 0 instructions: 27000003 cycles: 10424558 heartbeat IPC: 2.95004 cumulative IPC: 2.59004 (Simulation time: 0 hr 25 min 55 sec) 
Heartbeat CPU 0 instructions: 28000000 cycles: 10827872 heartbeat IPC: 2.47945 cumulative IPC: 2.58592 (Simulation time: 0 hr 26 min 48 sec) 
Heartbeat CPU 0 instructions: 29000002 cycles: 11228407 heartbeat IPC: 2.49667 cumulative IPC: 2.58274 (Simulation time: 0 hr 27 min 40 sec) 
Heartbeat CPU 0 instructions: 30000002 cycles: 11567349 heartbeat IPC: 2.95036 cumulative IPC: 2.59351 (Simulation time: 0 hr 28 min 36 sec) 
Heartbeat CPU 0 instructions: 31000000 cycles: 11988596 heartbeat IPC: 2.3739 cumulative IPC: 2.58579 (Simulation time: 0 hr 29 min 32 sec) 
Heartbeat CPU 0 instructions: 32000000 cycles: 12369934 heartbeat IPC: 2.62235 cumulative IPC: 2.58692 (Simulation time: 0 hr 30 min 24 sec) 
Heartbeat CPU 0 instructions: 33000002 cycles: 12710691 heartbeat IPC: 2.93465 cumulative IPC: 2.59624 (Simulation time: 0 hr 31 min 24 sec) 
Heartbeat CPU 0 instructions: 34000000 cycles: 13150444 heartbeat IPC: 2.274 cumulative IPC: 2.58546 (Simulation time: 0 hr 32 min 21 sec) 
Heartbeat CPU 0 instructions: 35000001 cycles: 13511721 heartbeat IPC: 2.76796 cumulative IPC: 2.59034 (Simulation time: 0 hr 33 min 22 sec) 
Heartbeat CPU 0 instructions: 36000000 cycles: 13854058 heartbeat IPC: 2.9211 cumulative IPC: 2.59852 (Simulation time: 0 hr 34 min 20 sec) 
Heartbeat CPU 0 instructions: 37000000 cycles: 14313553 heartbeat IPC: 2.1763 cumulative IPC: 2.58496 (Simulation time: 0 hr 35 min 14 sec) 
Heartbeat CPU 0 instructions: 38000000 cycles: 14653868 heartbeat IPC: 2.93845 cumulative IPC: 2.59317 (Simulation time: 0 hr 36 min 9 sec) 
Heartbeat CPU 0 instructions: 39000003 cycles: 15000229 heartbeat IPC: 2.88717 cumulative IPC: 2.59996 (Simulation time: 0 hr 37 min 4 sec) 
Heartbeat CPU 0 instructions: 40000000 cycles: 15458972 heartbeat IPC: 2.17986 cumulative IPC: 2.58749 (Simulation time: 0 hr 38 min 3 sec) 
Heartbeat CPU 0 instructions: 41000001 cycles: 15798013 heartbeat IPC: 2.9495 cumulative IPC: 2.59526 (Simulation time: 0 hr 38 min 58 sec) 
Heartbeat CPU 0 instructions: 42000003 cycles: 16145991 heartbeat IPC: 2.87375 cumulative IPC: 2.60127 (Simulation time: 0 hr 39 min 51 sec) 
Heartbeat CPU 0 instructions: 43000001 cycles: 16602229 heartbeat IPC: 2.19183 cumulative IPC: 2.59001 (Simulation time: 0 hr 40 min 41 sec) 
Heartbeat CPU 0 instructions: 44000000 cycles: 16941101 heartbeat IPC: 2.95096 cumulative IPC: 2.59723 (Simulation time: 0 hr 41 min 35 sec) 
Heartbeat CPU 0 instructions: 45000001 cycles: 17288189 heartbeat IPC: 2.88112 cumulative IPC: 2.60293 (Simulation time: 0 hr 42 min 28 sec) 
Heartbeat CPU 0 instructions: 46000000 cycles: 17745845 heartbeat IPC: 2.18505 cumulative IPC: 2.59216 (Simulation time: 0 hr 43 min 19 sec) 
Heartbeat CPU 0 instructions: 47000003 cycles: 18084830 heartbeat IPC: 2.94999 cumulative IPC: 2.59886 (Simulation time: 0 hr 44 min 10 sec) 
Heartbeat CPU 0 instructions: 48000000 cycles: 18433382 heartbeat IPC: 2.869 cumulative IPC: 2.60397 (Simulation time: 0 hr 45 min 8 sec) 
Heartbeat CPU 0 instructions: 49000002 cycles: 18888156 heartbeat IPC: 2.1989 cumulative IPC: 2.59422 (Simulation time: 0 hr 46 min 2 sec) 
Heartbeat CPU 0 instructions: 50000001 cycles: 19227136 heartbeat IPC: 2.95002 cumulative IPC: 2.60049 (Simulation time: 0 hr 46 min 54 sec) 

Warmup complete CPU 0 instructions: 50000001 cycles: 19227136 (Simulation time: 0 hr 46 min 54 sec) 

Heartbeat CPU 0 instructions: 51000001 cycles: 20048995 heartbeat IPC: 1.21675 cumulative IPC: 1.21675 (Simulation time: 0 hr 48 min 3 sec) 
Heartbeat CPU 0 instructions: 52000000 cycles: 20821367 heartbeat IPC: 1.29471 cumulative IPC: 1.25452 (Simulation time: 0 hr 49 min 8 sec) 
Heartbeat CPU 0 instructions: 53000001 cycles: 21647530 heartbeat IPC: 1.21042 cumulative IPC: 1.23947 (Simulation time: 0 hr 50 min 11 sec) 
Heartbeat CPU 0 instructions: 54000001 cycles: 22439974 heartbeat IPC: 1.26192 cumulative IPC: 1.24501 (Simulation time: 0 hr 51 min 13 sec) 
Heartbeat CPU 0 instructions: 55000002 cycles: 23209397 heartbeat IPC: 1.29968 cumulative IPC: 1.25557 (Simulation time: 0 hr 52 min 11 sec) 
Heartbeat CPU 0 instructions: 56000000 cycles: 24019655 heartbeat IPC: 1.23417 cumulative IPC: 1.25195 (Simulation time: 0 hr 53 min 12 sec) 
Heartbeat CPU 0 instructions: 57000000 cycles: 24913566 heartbeat IPC: 1.11868 cumulative IPC: 1.231 (Simulation time: 0 hr 54 min 28 sec) 
Heartbeat CPU 0 instructions: 58000002 cycles: 26042237 heartbeat IPC: 0.886 cumulative IPC: 1.17386 (Simulation time: 0 hr 55 min 36 sec) 
Heartbeat CPU 0 instructions: 59000001 cycles: 26842505 heartbeat IPC: 1.24958 cumulative IPC: 1.18182 (Simulation time: 0 hr 56 min 44 sec) 
Heartbeat CPU 0 instructions: 60000000 cycles: 27653731 heartbeat IPC: 1.2327 cumulative IPC: 1.18672 (Simulation time: 0 hr 57 min 52 sec) 
Heartbeat CPU 0 instructions: 61000001 cycles: 28435017 heartbeat IPC: 1.27994 cumulative IPC: 1.19463 (Simulation time: 0 hr 58 min 59 sec) 
Heartbeat CPU 0 instructions: 62000000 cycles: 29207218 heartbeat IPC: 1.295 cumulative IPC: 1.20239 (Simulation time: 1 hr 0 min 0 sec) 
Heartbeat CPU 0 instructions: 63000002 cycles: 29994753 heartbeat IPC: 1.26979 cumulative IPC: 1.20732 (Simulation time: 1 hr 1 min 21 sec) 
Heartbeat CPU 0 instructions: 64000000 cycles: 30786709 heartbeat IPC: 1.26269 cumulative IPC: 1.21112 (Simulation time: 1 hr 2 min 31 sec) 
Heartbeat CPU 0 instructions: 65000003 cycles: 31552928 heartbeat IPC: 1.30511 cumulative IPC: 1.21696 (Simulation time: 1 hr 3 min 46 sec) 
Heartbeat CPU 0 instructions: 66000003 cycles: 32343343 heartbeat IPC: 1.26516 cumulative IPC: 1.21986 (Simulation time: 1 hr 4 min 58 sec) 
Heartbeat CPU 0 instructions: 67000003 cycles: 33166205 heartbeat IPC: 1.21527 cumulative IPC: 1.21959 (Simulation time: 1 hr 6 min 5 sec) 
Heartbeat CPU 0 instructions: 68000000 cycles: 33938877 heartbeat IPC: 1.29421 cumulative IPC: 1.22351 (Simulation time: 1 hr 7 min 16 sec) 
Heartbeat CPU 0 instructions: 69000003 cycles: 34730124 heartbeat IPC: 1.26383 cumulative IPC: 1.22557 (Simulation time: 1 hr 8 min 27 sec) 
Heartbeat CPU 0 instructions: 70000000 cycles: 35534225 heartbeat IPC: 1.24362 cumulative IPC: 1.22646 (Simulation time: 1 hr 9 min 32 sec) 
Heartbeat CPU 0 instructions: 71000002 cycles: 36312223 heartbeat IPC: 1.28535 cumulative IPC: 1.22914 (Simulation time: 1 hr 10 min 46 sec) 
Heartbeat CPU 0 instructions: 72000000 cycles: 37097761 heartbeat IPC: 1.27301 cumulative IPC: 1.23107 (Simulation time: 1 hr 11 min 58 sec) 
Heartbeat CPU 0 instructions: 73000003 cycles: 37893473 heartbeat IPC: 1.25674 cumulative IPC: 1.23216 (Simulation time: 1 hr 13 min 5 sec) 
Heartbeat CPU 0 instructions: 74000003 cycles: 38659264 heartbeat IPC: 1.30584 cumulative IPC: 1.23507 (Simulation time: 1 hr 14 min 11 sec) 
Heartbeat CPU 0 instructions: 75000002 cycles: 39442183 heartbeat IPC: 1.27727 cumulative IPC: 1.2367 (Simulation time: 1 hr 15 min 20 sec) 
Heartbeat CPU 0 instructions: 76000000 cycles: 40234716 heartbeat IPC: 1.26177 cumulative IPC: 1.23765 (Simulation time: 1 hr 16 min 25 sec) 
Heartbeat CPU 0 instructions: 77000003 cycles: 41023038 heartbeat IPC: 1.26852 cumulative IPC: 1.23877 (Simulation time: 1 hr 17 min 32 sec) 
Heartbeat CPU 0 instructions: 78000003 cycles: 41800145 heartbeat IPC: 1.28682 cumulative IPC: 1.24042 (Simulation time: 1 hr 18 min 45 sec) 
Heartbeat CPU 0 instructions: 79000003 cycles: 42587759 heartbeat IPC: 1.26966 cumulative IPC: 1.24141 (Simulation time: 1 hr 19 min 52 sec) 
Heartbeat CPU 0 instructions: 80000000 cycles: 43369021 heartbeat IPC: 1.27998 cumulative IPC: 1.24265 (Simulation time: 1 hr 21 min 7 sec) 
Heartbeat CPU 0 instructions: 81000001 cycles: 44149077 heartbeat IPC: 1.28196 cumulative IPC: 1.24388 (Simulation time: 1 hr 22 min 21 sec) 
Heartbeat CPU 0 instructions: 82000002 cycles: 44935168 heartbeat IPC: 1.27212 cumulative IPC: 1.24475 (Simulation time: 1 hr 23 min 33 sec) 
Heartbeat CPU 0 instructions: 83000003 cycles: 45731091 heartbeat IPC: 1.2564 cumulative IPC: 1.2451 (Simulation time: 1 hr 24 min 37 sec) 
Heartbeat CPU 0 instructions: 84000000 cycles: 46507500 heartbeat IPC: 1.28798 cumulative IPC: 1.24632 (Simulation time: 1 hr 25 min 44 sec) 
Heartbeat CPU 0 instructions: 85000001 cycles: 47292125 heartbeat IPC: 1.2745 cumulative IPC: 1.24711 (Simulation time: 1 hr 26 min 47 sec) 
Heartbeat CPU 0 instructions: 86000000 cycles: 48055317 heartbeat IPC: 1.31028 cumulative IPC: 1.24878 (Simulation time: 1 hr 27 min 56 sec) 
Heartbeat CPU 0 instructions: 87000003 cycles: 48839039 heartbeat IPC: 1.27597 cumulative IPC: 1.2495 (Simulation time: 1 hr 28 min 59 sec) 
Heartbeat CPU 0 instructions: 88000000 cycles: 49627802 heartbeat IPC: 1.2678 cumulative IPC: 1.24997 (Simulation time: 1 hr 30 min 1 sec) 
Heartbeat CPU 0 instructions: 89000002 cycles: 50383403 heartbeat IPC: 1.32345 cumulative IPC: 1.25175 (Simulation time: 1 hr 31 min 3 sec) 
Heartbeat CPU 0 instructions: 90000001 cycles: 51142499 heartbeat IPC: 1.31736 cumulative IPC: 1.25331 (Simulation time: 1 hr 32 min 8 sec) 
Heartbeat CPU 0 instructions: 91000001 cycles: 51930329 heartbeat IPC: 1.26931 cumulative IPC: 1.2537 (Simulation time: 1 hr 33 min 20 sec) 
Heartbeat CPU 0 instructions: 92000000 cycles: 52687001 heartbeat IPC: 1.32158 cumulative IPC: 1.25524 (Simulation time: 1 hr 34 min 29 sec) 
Heartbeat CPU 0 instructions: 93000002 cycles: 53437580 heartbeat IPC: 1.33231 cumulative IPC: 1.25693 (Simulation time: 1 hr 36 min 8 sec) 
Heartbeat CPU 0 instructions: 94000000 cycles: 54242452 heartbeat IPC: 1.24243 cumulative IPC: 1.25659 (Simulation time: 1 hr 37 min 27 sec) 
Heartbeat CPU 0 instructions: 95000000 cycles: 54993484 heartbeat IPC: 1.3315 cumulative IPC: 1.25817 (Simulation time: 1 hr 38 min 37 sec) 
Heartbeat CPU 0 instructions: 96000000 cycles: 55764636 heartbeat IPC: 1.29676 cumulative IPC: 1.25898 (Simulation time: 1 hr 39 min 49 sec) 
Heartbeat CPU 0 instructions: 97000002 cycles: 56947918 heartbeat IPC: 0.845109 cumulative IPC: 1.246 (Simulation time: 1 hr 41 min 8 sec) 
Heartbeat CPU 0 instructions: 98000003 cycles: 57873417 heartbeat IPC: 1.0805 cumulative IPC: 1.24203 (Simulation time: 1 hr 42 min 14 sec) 
Heartbeat CPU 0 instructions: 99000000 cycles: 58658575 heartbeat IPC: 1.27363 cumulative IPC: 1.24266 (Simulation time: 1 hr 43 min 26 sec) 
Heartbeat CPU 0 instructions: 100000000 cycles: 59431493 heartbeat IPC: 1.2938 cumulative IPC: 1.24365 (Simulation time: 1 hr 44 min 34 sec) 
Heartbeat CPU 0 instructions: 101000001 cycles: 60783291 heartbeat IPC: 0.739756 cumulative IPC: 1.22725 (Simulation time: 1 hr 45 min 38 sec) 
Heartbeat CPU 0 instructions: 102000002 cycles: 61598314 heartbeat IPC: 1.22696 cumulative IPC: 1.22725 (Simulation time: 1 hr 46 min 42 sec) 
Heartbeat CPU 0 instructions: 103000001 cycles: 62400732 heartbeat IPC: 1.24623 cumulative IPC: 1.2276 (Simulation time: 1 hr 47 min 55 sec) 
Heartbeat CPU 0 instructions: 104000000 cycles: 63628194 heartbeat IPC: 0.814688 cumulative IPC: 1.21619 (Simulation time: 1 hr 49 min 18 sec) 
Heartbeat CPU 0 instructions: 105000002 cycles: 64444517 heartbeat IPC: 1.22501 cumulative IPC: 1.21635 (Simulation time: 1 hr 50 min 22 sec) 
Heartbeat CPU 0 instructions: 106000000 cycles: 65228024 heartbeat IPC: 1.27631 cumulative IPC: 1.21737 (Simulation time: 1 hr 51 min 38 sec) 
Heartbeat CPU 0 instructions: 107000000 cycles: 66306475 heartbeat IPC: 0.927256 cumulative IPC: 1.21072 (Simulation time: 1 hr 52 min 46 sec) 
Heartbeat CPU 0 instructions: 108000000 cycles: 67280425 heartbeat IPC: 1.02675 cumulative IPC: 1.20699 (Simulation time: 1 hr 53 min 56 sec) 
Heartbeat CPU 0 instructions: 109000003 cycles: 68066774 heartbeat IPC: 1.2717 cumulative IPC: 1.20804 (Simulation time: 1 hr 55 min 11 sec) 
Heartbeat CPU 0 instructions: 110000000 cycles: 68916965 heartbeat IPC: 1.1762 cumulative IPC: 1.20749 (Simulation time: 1 hr 56 min 17 sec) 
Heartbeat CPU 0 instructions: 111000001 cycles: 70089711 heartbeat IPC: 0.8527 cumulative IPC: 1.19931 (Simulation time: 1 hr 57 min 17 sec) 
Heartbeat CPU 0 instructions: 112000000 cycles: 70903707 heartbeat IPC: 1.22851 cumulative IPC: 1.19977 (Simulation time: 1 hr 58 min 18 sec) 
Heartbeat CPU 0 instructions: 113000000 cycles: 71703148 heartbeat IPC: 1.25087 cumulative IPC: 1.20055 (Simulation time: 1 hr 59 min 25 sec) 
Heartbeat CPU 0 instructions: 114000000 cycles: 72928978 heartbeat IPC: 0.815774 cumulative IPC: 1.19177 (Simulation time: 2 hr 0 min 31 sec) 
Heartbeat CPU 0 instructions: 115000000 cycles: 73746545 heartbeat IPC: 1.22314 cumulative IPC: 1.19224 (Simulation time: 2 hr 1 min 45 sec) 
Heartbeat CPU 0 instructions: 116000000 cycles: 74533064 heartbeat IPC: 1.27143 cumulative IPC: 1.19336 (Simulation time: 2 hr 2 min 52 sec) 
Heartbeat CPU 0 instructions: 117000001 cycles: 75613480 heartbeat IPC: 0.92557 cumulative IPC: 1.18823 (Simulation time: 2 hr 4 min 8 sec) 
Heartbeat CPU 0 instructions: 118000001 cycles: 76590277 heartbeat IPC: 1.02375 cumulative IPC: 1.18543 (Simulation time: 2 hr 5 min 6 sec) 
Heartbeat CPU 0 instructions: 119000001 cycles: 77379353 heartbeat IPC: 1.26731 cumulative IPC: 1.18654 (Simulation time: 2 hr 6 min 15 sec) 
Heartbeat CPU 0 instructions: 120000000 cycles: 78237054 heartbeat IPC: 1.16591 cumulative IPC: 1.18624 (Simulation time: 2 hr 7 min 27 sec) 
Heartbeat CPU 0 instructions: 121000003 cycles: 79422003 heartbeat IPC: 0.843921 cumulative IPC: 1.1795 (Simulation time: 2 hr 8 min 34 sec) 
Heartbeat CPU 0 instructions: 122000000 cycles: 80225399 heartbeat IPC: 1.24471 cumulative IPC: 1.18036 (Simulation time: 2 hr 9 min 45 sec) 
Heartbeat CPU 0 instructions: 123000003 cycles: 81013593 heartbeat IPC: 1.26873 cumulative IPC: 1.18149 (Simulation time: 2 hr 10 min 47 sec) 
Heartbeat CPU 0 instructions: 124000000 cycles: 82233493 heartbeat IPC: 0.819737 cumulative IPC: 1.17448 (Simulation time: 2 hr 11 min 58 sec) 
Heartbeat CPU 0 instructions: 125000000 cycles: 83086227 heartbeat IPC: 1.1727 cumulative IPC: 1.17446 (Simulation time: 2 hr 12 min 57 sec) 
Heartbeat CPU 0 instructions: 126000001 cycles: 83863530 heartbeat IPC: 1.2865 cumulative IPC: 1.17581 (Simulation time: 2 hr 13 min 58 sec) 
Heartbeat CPU 0 instructions: 127000000 cycles: 84918318 heartbeat IPC: 0.948057 cumulative IPC: 1.17215 (Simulation time: 2 hr 14 min 56 sec) 
Heartbeat CPU 0 instructions: 128000000 cycles: 85972653 heartbeat IPC: 0.948465 cumulative IPC: 1.16862 (Simulation time: 2 hr 16 min 0 sec) 
Heartbeat CPU 0 instructions: 129000000 cycles: 86744454 heartbeat IPC: 1.29567 cumulative IPC: 1.17007 (Simulation time: 2 hr 17 min 3 sec) 
Heartbeat CPU 0 instructions: 130000000 cycles: 87534405 heartbeat IPC: 1.2659 cumulative IPC: 1.17118 (Simulation time: 2 hr 17 min 57 sec) 
Heartbeat CPU 0 instructions: 131000002 cycles: 88799279 heartbeat IPC: 0.790594 cumulative IPC: 1.16426 (Simulation time: 2 hr 18 min 53 sec) 
Heartbeat CPU 0 instructions: 132000000 cycles: 89599002 heartbeat IPC: 1.25043 cumulative IPC: 1.16524 (Simulation time: 2 hr 19 min 48 sec) 
Heartbeat CPU 0 instructions: 133000000 cycles: 90388107 heartbeat IPC: 1.26726 cumulative IPC: 1.16637 (Simulation time: 2 hr 20 min 52 sec) 
Heartbeat CPU 0 instructions: 134000001 cycles: 91572572 heartbeat IPC: 0.844264 cumulative IPC: 1.1611 (Simulation time: 2 hr 21 min 54 sec) 
Heartbeat CPU 0 instructions: 135000002 cycles: 92461868 heartbeat IPC: 1.12449 cumulative IPC: 1.16065 (Simulation time: 2 hr 23 min 13 sec) 
Heartbeat CPU 0 instructions: 136000000 cycles: 93230687 heartbeat IPC: 1.30069 cumulative IPC: 1.16211 (Simulation time: 2 hr 24 min 35 sec) 
Heartbeat CPU 0 instructions: 137000002 cycles: 94183119 heartbeat IPC: 1.04995 cumulative IPC: 1.16068 (Simulation time: 2 hr 25 min 42 sec) 
Heartbeat CPU 0 instructions: 138000000 cycles: 95534172 heartbeat IPC: 0.740162 cumulative IPC: 1.15324 (Simulation time: 2 hr 26 min 35 sec) 
Heartbeat CPU 0 instructions: 139000000 cycles: 96621324 heartbeat IPC: 0.919835 cumulative IPC: 1.14996 (Simulation time: 2 hr 27 min 26 sec) 
Heartbeat CPU 0 instructions: 140000000 cycles: 97424162 heartbeat IPC: 1.24558 cumulative IPC: 1.15094 (Simulation time: 2 hr 28 min 33 sec) 
Heartbeat CPU 0 instructions: 141000003 cycles: 98215035 heartbeat IPC: 1.26443 cumulative IPC: 1.15208 (Simulation time: 2 hr 29 min 35 sec) 
Heartbeat CPU 0 instructions: 142000000 cycles: 99367611 heartbeat IPC: 0.867619 cumulative IPC: 1.14798 (Simulation time: 2 hr 30 min 42 sec) 
Heartbeat CPU 0 instructions: 143000003 cycles: 100321290 heartbeat IPC: 1.04857 cumulative IPC: 1.14682 (Simulation time: 2 hr 32 min 0 sec) 
Heartbeat CPU 0 instructions: 144000000 cycles: 101091285 heartbeat IPC: 1.29871 cumulative IPC: 1.14824 (Simulation time: 2 hr 33 min 18 sec) 
Heartbeat CPU 0 instructions: 145000000 cycles: 101991106 heartbeat IPC: 1.11133 cumulative IPC: 1.14784 (Simulation time: 2 hr 34 min 14 sec) 
Heartbeat CPU 0 instructions: 146000000 cycles: 103152099 heartbeat IPC: 0.861332 cumulative IPC: 1.14388 (Simulation time: 2 hr 35 min 1 sec) 
Heartbeat CPU 0 instructions: 147000003 cycles: 103955134 heartbeat IPC: 1.24528 cumulative IPC: 1.14484 (Simulation time: 2 hr 35 min 55 sec) 
Heartbeat CPU 0 instructions: 148000000 cycles: 104745508 heartbeat IPC: 1.26522 cumulative IPC: 1.14595 (Simulation time: 2 hr 36 min 35 sec) 
Heartbeat CPU 0 instructions: 149000003 cycles: 106033112 heartbeat IPC: 0.776639 cumulative IPC: 1.14047 (Simulation time: 2 hr 37 min 17 sec) 
Heartbeat CPU 0 instructions: 150000001 cycles: 106853869 heartbeat IPC: 1.21838 cumulative IPC: 1.1412 (Simulation time: 2 hr 38 min 1 sec) 
Finished CPU 0 instructions: 100000000 cycles: 87626733 cummulative IPC: 1.1412 (Simulation time: 2 hr 38 min 1 sec) 

ChampSim completed all CPUs

Region of Interest Statistics

CPU 0 cummulative IPC: 1.1412 instructions: 100000000 cycles: 87626733
LLC TOTAL     ACCESS:    1520540  HIT:     895163  MISS:     625377
LLC LOAD      ACCESS:     160620  HIT:     137961  MISS:      22659
LLC RFO       ACCESS:     118639  HIT:     117257  MISS:       1382
LLC PREFETCH  ACCESS:    1108971  HIT:     507785  MISS:     601186
LLC WRITEBACK ACCESS:     132310  HIT:     132160  MISS:        150
Insertion Distribution: 
	LOAD 14864 0 19494 3566 
	RFO 1821 0 3439 0 
	PREF 0 9452 68714 847184 
	WRITEBACK 0 0 0 312 
Total Prefetch Downgrades: 5134
