
*** ChampSim Multicore Out-of-Order Simulator ***

Warmup Instructions: 50000000
Simulation Instructions: 100000000
Configuration: 2
Number of CPUs: 1
LLC sets: 2048
LLC ways: 16
Off-chip DRAM Channels: 1 Width: 64-bit Data Rate: 1600 MT/s

CPU 0 runs /datasets/cs240c-wi22-a00-public/data/Assignment2-gz/sphinx3_883B.trace.gz
CPU 0 L1D next line prefetcher
CPU 0 L2C IP-based stride prefetcher
Initialize SRRIP state
Heartbeat CPU 0 instructions: 1000003 cycles: 414388 heartbeat IPC: 2.4132 cumulative IPC: 2.4132 (Simulation time: 0 hr 1 min 20 sec) 
Heartbeat CPU 0 instructions: 2000000 cycles: 823945 heartbeat IPC: 2.44166 cumulative IPC: 2.42735 (Simulation time: 0 hr 2 min 32 sec) 
Heartbeat CPU 0 instructions: 3000003 cycles: 1298783 heartbeat IPC: 2.10599 cumulative IPC: 2.30986 (Simulation time: 0 hr 3 min 33 sec) 
Heartbeat CPU 0 instructions: 4000000 cycles: 1637673 heartbeat IPC: 2.9508 cumulative IPC: 2.44249 (Simulation time: 0 hr 4 min 39 sec) 
Heartbeat CPU 0 instructions: 5000000 cycles: 1992323 heartbeat IPC: 2.81968 cumulative IPC: 2.50963 (Simulation time: 0 hr 5 min 44 sec) 
Heartbeat CPU 0 instructions: 6000003 cycles: 2406748 heartbeat IPC: 2.41299 cumulative IPC: 2.49299 (Simulation time: 0 hr 6 min 46 sec) 
Heartbeat CPU 0 instructions: 7000002 cycles: 2815524 heartbeat IPC: 2.44633 cumulative IPC: 2.48622 (Simulation time: 0 hr 7 min 53 sec) 
Heartbeat CPU 0 instructions: 8000000 cycles: 3291687 heartbeat IPC: 2.10012 cumulative IPC: 2.43036 (Simulation time: 0 hr 8 min 48 sec) 
Heartbeat CPU 0 instructions: 9000001 cycles: 3630687 heartbeat IPC: 2.94986 cumulative IPC: 2.47887 (Simulation time: 0 hr 10 min 0 sec) 
Heartbeat CPU 0 instructions: 10000000 cycles: 3984757 heartbeat IPC: 2.8243 cumulative IPC: 2.50956 (Simulation time: 0 hr 10 min 54 sec) 
Heartbeat CPU 0 instructions: 11000000 cycles: 4399211 heartbeat IPC: 2.41281 cumulative IPC: 2.50045 (Simulation time: 0 hr 11 min 57 sec) 
Heartbeat CPU 0 instructions: 12000000 cycles: 4811922 heartbeat IPC: 2.423 cumulative IPC: 2.49381 (Simulation time: 0 hr 13 min 0 sec) 
Heartbeat CPU 0 instructions: 13000001 cycles: 5277454 heartbeat IPC: 2.14808 cumulative IPC: 2.46331 (Simulation time: 0 hr 14 min 0 sec) 
Heartbeat CPU 0 instructions: 14000001 cycles: 5631274 heartbeat IPC: 2.8263 cumulative IPC: 2.48612 (Simulation time: 0 hr 14 min 52 sec) 
Heartbeat CPU 0 instructions: 15000000 cycles: 5977897 heartbeat IPC: 2.88498 cumulative IPC: 2.50924 (Simulation time: 0 hr 15 min 46 sec) 
Heartbeat CPU 0 instructions: 16000000 cycles: 6391327 heartbeat IPC: 2.41879 cumulative IPC: 2.50339 (Simulation time: 0 hr 17 min 3 sec) 
Heartbeat CPU 0 instructions: 17000000 cycles: 6803253 heartbeat IPC: 2.42762 cumulative IPC: 2.4988 (Simulation time: 0 hr 18 min 7 sec) 
Heartbeat CPU 0 instructions: 18000000 cycles: 7219838 heartbeat IPC: 2.40047 cumulative IPC: 2.49313 (Simulation time: 0 hr 19 min 20 sec) 
Heartbeat CPU 0 instructions: 19000003 cycles: 7634365 heartbeat IPC: 2.4124 cumulative IPC: 2.48875 (Simulation time: 0 hr 20 min 17 sec) 
Heartbeat CPU 0 instructions: 20000000 cycles: 7973313 heartbeat IPC: 2.9503 cumulative IPC: 2.50837 (Simulation time: 0 hr 21 min 19 sec) 
Heartbeat CPU 0 instructions: 21000000 cycles: 8382833 heartbeat IPC: 2.44188 cumulative IPC: 2.50512 (Simulation time: 0 hr 22 min 43 sec) 
Heartbeat CPU 0 instructions: 22000002 cycles: 8796317 heartbeat IPC: 2.41848 cumulative IPC: 2.50105 (Simulation time: 0 hr 23 min 46 sec) 
Heartbeat CPU 0 instructions: 23000003 cycles: 9206631 heartbeat IPC: 2.43716 cumulative IPC: 2.4982 (Simulation time: 0 hr 24 min 50 sec) 
Heartbeat CPU 0 instructions: 24000000 cycles: 9657338 heartbeat IPC: 2.21873 cumulative IPC: 2.48516 (Simulation time: 0 hr 25 min 45 sec) 
Heartbeat CPU 0 instructions: 25000000 cycles: 9996373 heartbeat IPC: 2.94955 cumulative IPC: 2.50091 (Simulation time: 0 hr 26 min 37 sec) 
Heartbeat CPU 0 instructions: 26000001 cycles: 10373425 heartbeat IPC: 2.65216 cumulative IPC: 2.5064 (Simulation time: 0 hr 27 min 35 sec) 
Heartbeat CPU 0 instructions: 27000001 cycles: 10788354 heartbeat IPC: 2.41005 cumulative IPC: 2.5027 (Simulation time: 0 hr 28 min 43 sec) 
Heartbeat CPU 0 instructions: 28000000 cycles: 11203171 heartbeat IPC: 2.4107 cumulative IPC: 2.49929 (Simulation time: 0 hr 29 min 53 sec) 
Heartbeat CPU 0 instructions: 29000003 cycles: 11666610 heartbeat IPC: 2.15779 cumulative IPC: 2.48573 (Simulation time: 0 hr 30 min 49 sec) 
Heartbeat CPU 0 instructions: 30000000 cycles: 12005525 heartbeat IPC: 2.95058 cumulative IPC: 2.49885 (Simulation time: 0 hr 31 min 48 sec) 
Heartbeat CPU 0 instructions: 31000003 cycles: 12368770 heartbeat IPC: 2.75297 cumulative IPC: 2.50631 (Simulation time: 0 hr 32 min 43 sec) 
Heartbeat CPU 0 instructions: 32000000 cycles: 12783641 heartbeat IPC: 2.41038 cumulative IPC: 2.5032 (Simulation time: 0 hr 33 min 48 sec) 
Heartbeat CPU 0 instructions: 33000001 cycles: 13193210 heartbeat IPC: 2.44159 cumulative IPC: 2.50129 (Simulation time: 0 hr 34 min 55 sec) 
Heartbeat CPU 0 instructions: 34000000 cycles: 13667505 heartbeat IPC: 2.10839 cumulative IPC: 2.48765 (Simulation time: 0 hr 35 min 53 sec) 
Heartbeat CPU 0 instructions: 35000000 cycles: 14006465 heartbeat IPC: 2.9502 cumulative IPC: 2.49885 (Simulation time: 0 hr 36 min 57 sec) 
Heartbeat CPU 0 instructions: 36000000 cycles: 14364725 heartbeat IPC: 2.79127 cumulative IPC: 2.50614 (Simulation time: 0 hr 38 min 4 sec) 
Heartbeat CPU 0 instructions: 37000001 cycles: 14780592 heartbeat IPC: 2.40462 cumulative IPC: 2.50328 (Simulation time: 0 hr 39 min 20 sec) 
Heartbeat CPU 0 instructions: 38000000 cycles: 15190142 heartbeat IPC: 2.4417 cumulative IPC: 2.50162 (Simulation time: 0 hr 40 min 34 sec) 
Heartbeat CPU 0 instructions: 39000002 cycles: 15665326 heartbeat IPC: 2.10445 cumulative IPC: 2.48957 (Simulation time: 0 hr 41 min 34 sec) 
Heartbeat CPU 0 instructions: 40000000 cycles: 16004308 heartbeat IPC: 2.95 cumulative IPC: 2.49933 (Simulation time: 0 hr 42 min 25 sec) 
Heartbeat CPU 0 instructions: 41000003 cycles: 16361542 heartbeat IPC: 2.79929 cumulative IPC: 2.50588 (Simulation time: 0 hr 43 min 24 sec) 
Heartbeat CPU 0 instructions: 42000000 cycles: 16777594 heartbeat IPC: 2.40354 cumulative IPC: 2.50334 (Simulation time: 0 hr 44 min 28 sec) 
Heartbeat CPU 0 instructions: 43000001 cycles: 17188929 heartbeat IPC: 2.43111 cumulative IPC: 2.50161 (Simulation time: 0 hr 45 min 35 sec) 
Heartbeat CPU 0 instructions: 44000000 cycles: 17659834 heartbeat IPC: 2.12357 cumulative IPC: 2.49153 (Simulation time: 0 hr 46 min 27 sec) 
Heartbeat CPU 0 instructions: 45000001 cycles: 17998824 heartbeat IPC: 2.94994 cumulative IPC: 2.50016 (Simulation time: 0 hr 47 min 22 sec) 
Heartbeat CPU 0 instructions: 46000001 cycles: 18359079 heartbeat IPC: 2.77581 cumulative IPC: 2.50557 (Simulation time: 0 hr 48 min 18 sec) 
Heartbeat CPU 0 instructions: 47000003 cycles: 18773520 heartbeat IPC: 2.41289 cumulative IPC: 2.50353 (Simulation time: 0 hr 49 min 19 sec) 
Heartbeat CPU 0 instructions: 48000000 cycles: 19189382 heartbeat IPC: 2.40464 cumulative IPC: 2.50138 (Simulation time: 0 hr 50 min 25 sec) 
Heartbeat CPU 0 instructions: 49000001 cycles: 19647539 heartbeat IPC: 2.18266 cumulative IPC: 2.49395 (Simulation time: 0 hr 51 min 24 sec) 
Heartbeat CPU 0 instructions: 50000003 cycles: 19986490 heartbeat IPC: 2.95028 cumulative IPC: 2.50169 (Simulation time: 0 hr 52 min 22 sec) 

Warmup complete CPU 0 instructions: 50000003 cycles: 19986490 (Simulation time: 0 hr 52 min 22 sec) 

Heartbeat CPU 0 instructions: 51000003 cycles: 21112220 heartbeat IPC: 0.888312 cumulative IPC: 0.888312 (Simulation time: 0 hr 53 min 37 sec) 
Heartbeat CPU 0 instructions: 52000000 cycles: 22736574 heartbeat IPC: 0.615628 cumulative IPC: 0.727249 (Simulation time: 0 hr 55 min 26 sec) 
Heartbeat CPU 0 instructions: 53000000 cycles: 24495316 heartbeat IPC: 0.568588 cumulative IPC: 0.665361 (Simulation time: 0 hr 57 min 26 sec) 
Heartbeat CPU 0 instructions: 54000003 cycles: 25778303 heartbeat IPC: 0.779433 cumulative IPC: 0.69063 (Simulation time: 0 hr 59 min 18 sec) 
Heartbeat CPU 0 instructions: 55000003 cycles: 26677105 heartbeat IPC: 1.11259 cumulative IPC: 0.747315 (Simulation time: 1 hr 1 min 7 sec) 
Heartbeat CPU 0 instructions: 56000000 cycles: 27580876 heartbeat IPC: 1.10647 cumulative IPC: 0.790057 (Simulation time: 1 hr 2 min 22 sec) 
Heartbeat CPU 0 instructions: 57000002 cycles: 28777980 heartbeat IPC: 0.835351 cumulative IPC: 0.796224 (Simulation time: 1 hr 3 min 31 sec) 
Heartbeat CPU 0 instructions: 58000001 cycles: 29824168 heartbeat IPC: 0.95585 cumulative IPC: 0.8132 (Simulation time: 1 hr 4 min 40 sec) 
Heartbeat CPU 0 instructions: 59000003 cycles: 30702449 heartbeat IPC: 1.13859 cumulative IPC: 0.839869 (Simulation time: 1 hr 5 min 46 sec) 
Heartbeat CPU 0 instructions: 60000000 cycles: 31603907 heartbeat IPC: 1.10931 cumulative IPC: 0.860776 (Simulation time: 1 hr 7 min 0 sec) 
Heartbeat CPU 0 instructions: 61000001 cycles: 32806783 heartbeat IPC: 0.831342 cumulative IPC: 0.858015 (Simulation time: 1 hr 8 min 33 sec) 
Heartbeat CPU 0 instructions: 62000001 cycles: 33674407 heartbeat IPC: 1.15257 cumulative IPC: 0.876686 (Simulation time: 1 hr 9 min 47 sec) 
Heartbeat CPU 0 instructions: 63000003 cycles: 34525405 heartbeat IPC: 1.17509 cumulative IPC: 0.894152 (Simulation time: 1 hr 10 min 55 sec) 
Heartbeat CPU 0 instructions: 64000000 cycles: 35800166 heartbeat IPC: 0.784458 cumulative IPC: 0.885309 (Simulation time: 1 hr 12 min 14 sec) 
Heartbeat CPU 0 instructions: 65000003 cycles: 36668157 heartbeat IPC: 1.15209 cumulative IPC: 0.899191 (Simulation time: 1 hr 13 min 20 sec) 
Heartbeat CPU 0 instructions: 66000002 cycles: 37533679 heartbeat IPC: 1.15537 cumulative IPC: 0.911827 (Simulation time: 1 hr 14 min 27 sec) 
Heartbeat CPU 0 instructions: 67000000 cycles: 38789183 heartbeat IPC: 0.796491 cumulative IPC: 0.904126 (Simulation time: 1 hr 15 min 46 sec) 
Heartbeat CPU 0 instructions: 68000000 cycles: 40437036 heartbeat IPC: 0.60685 cumulative IPC: 0.880172 (Simulation time: 1 hr 17 min 16 sec) 
Heartbeat CPU 0 instructions: 69000003 cycles: 41295978 heartbeat IPC: 1.16423 cumulative IPC: 0.891622 (Simulation time: 1 hr 18 min 32 sec) 
Heartbeat CPU 0 instructions: 70000000 cycles: 42182041 heartbeat IPC: 1.12858 cumulative IPC: 0.901081 (Simulation time: 1 hr 19 min 38 sec) 
Heartbeat CPU 0 instructions: 71000000 cycles: 43350584 heartbeat IPC: 0.855767 cumulative IPC: 0.898815 (Simulation time: 1 hr 20 min 47 sec) 
Heartbeat CPU 0 instructions: 72000000 cycles: 44839292 heartbeat IPC: 0.671723 cumulative IPC: 0.885212 (Simulation time: 1 hr 22 min 7 sec) 
Heartbeat CPU 0 instructions: 73000000 cycles: 45694600 heartbeat IPC: 1.16917 cumulative IPC: 0.894659 (Simulation time: 1 hr 23 min 23 sec) 
Heartbeat CPU 0 instructions: 74000000 cycles: 46530439 heartbeat IPC: 1.1964 cumulative IPC: 0.904161 (Simulation time: 1 hr 24 min 29 sec) 
Heartbeat CPU 0 instructions: 75000000 cycles: 47759487 heartbeat IPC: 0.813638 cumulative IPC: 0.900155 (Simulation time: 1 hr 25 min 35 sec) 
Heartbeat CPU 0 instructions: 76000000 cycles: 49073714 heartbeat IPC: 0.760904 cumulative IPC: 0.893863 (Simulation time: 1 hr 26 min 43 sec) 
Heartbeat CPU 0 instructions: 77000003 cycles: 49925683 heartbeat IPC: 1.17376 cumulative IPC: 0.901828 (Simulation time: 1 hr 27 min 46 sec) 
Heartbeat CPU 0 instructions: 78000000 cycles: 50755300 heartbeat IPC: 1.20537 cumulative IPC: 0.910012 (Simulation time: 1 hr 28 min 50 sec) 
Heartbeat CPU 0 instructions: 79000001 cycles: 52129183 heartbeat IPC: 0.727865 cumulative IPC: 0.902227 (Simulation time: 1 hr 30 min 0 sec) 
Heartbeat CPU 0 instructions: 80000000 cycles: 53301183 heartbeat IPC: 0.853241 cumulative IPC: 0.900503 (Simulation time: 1 hr 31 min 12 sec) 
Heartbeat CPU 0 instructions: 81000000 cycles: 54131621 heartbeat IPC: 1.20418 cumulative IPC: 0.907889 (Simulation time: 1 hr 32 min 26 sec) 
Heartbeat CPU 0 instructions: 82000000 cycles: 54975150 heartbeat IPC: 1.1855 cumulative IPC: 0.914582 (Simulation time: 1 hr 33 min 29 sec) 
Heartbeat CPU 0 instructions: 83000000 cycles: 56476498 heartbeat IPC: 0.666068 cumulative IPC: 0.904357 (Simulation time: 1 hr 35 min 6 sec) 
Heartbeat CPU 0 instructions: 84000000 cycles: 57393109 heartbeat IPC: 1.09098 cumulative IPC: 0.90893 (Simulation time: 1 hr 36 min 54 sec) 
Heartbeat CPU 0 instructions: 85000001 cycles: 58197979 heartbeat IPC: 1.24244 cumulative IPC: 0.915955 (Simulation time: 1 hr 38 min 45 sec) 
Heartbeat CPU 0 instructions: 86000001 cycles: 59260701 heartbeat IPC: 0.94098 cumulative IPC: 0.916632 (Simulation time: 1 hr 40 min 36 sec) 
Heartbeat CPU 0 instructions: 87000000 cycles: 60485647 heartbeat IPC: 0.816362 cumulative IPC: 0.913599 (Simulation time: 1 hr 42 min 20 sec) 
Heartbeat CPU 0 instructions: 88000000 cycles: 61327445 heartbeat IPC: 1.18793 cumulative IPC: 0.919185 (Simulation time: 1 hr 44 min 3 sec) 
Heartbeat CPU 0 instructions: 89000001 cycles: 62150315 heartbeat IPC: 1.21526 cumulative IPC: 0.924963 (Simulation time: 1 hr 45 min 49 sec) 
Heartbeat CPU 0 instructions: 90000000 cycles: 63524878 heartbeat IPC: 0.727503 cumulative IPC: 0.918729 (Simulation time: 1 hr 47 min 46 sec) 
Heartbeat CPU 0 instructions: 91000003 cycles: 64780764 heartbeat IPC: 0.796253 cumulative IPC: 0.915296 (Simulation time: 1 hr 49 min 22 sec) 
Heartbeat CPU 0 instructions: 92000000 cycles: 65738513 heartbeat IPC: 1.04411 cumulative IPC: 0.917992 (Simulation time: 1 hr 50 min 41 sec) 
Heartbeat CPU 0 instructions: 93000000 cycles: 66553239 heartbeat IPC: 1.22741 cumulative IPC: 0.923406 (Simulation time: 1 hr 52 min 3 sec) 
Heartbeat CPU 0 instructions: 94000002 cycles: 67384606 heartbeat IPC: 1.20284 cumulative IPC: 0.928307 (Simulation time: 1 hr 53 min 43 sec) 
Heartbeat CPU 0 instructions: 95000001 cycles: 68833761 heartbeat IPC: 0.690057 cumulative IPC: 0.921239 (Simulation time: 1 hr 55 min 20 sec) 
Heartbeat CPU 0 instructions: 96000000 cycles: 69699471 heartbeat IPC: 1.15512 cumulative IPC: 0.925312 (Simulation time: 1 hr 56 min 58 sec) 
Heartbeat CPU 0 instructions: 97000002 cycles: 70521933 heartbeat IPC: 1.21586 cumulative IPC: 0.93004 (Simulation time: 1 hr 58 min 25 sec) 
Heartbeat CPU 0 instructions: 98000003 cycles: 71755293 heartbeat IPC: 0.810794 cumulative IPC: 0.927199 (Simulation time: 2 hr 0 min 7 sec) 
Heartbeat CPU 0 instructions: 99000000 cycles: 72843857 heartbeat IPC: 0.918639 cumulative IPC: 0.927023 (Simulation time: 2 hr 1 min 10 sec) 
Heartbeat CPU 0 instructions: 100000000 cycles: 73660193 heartbeat IPC: 1.22499 cumulative IPC: 0.931555 (Simulation time: 2 hr 2 min 25 sec) 
Heartbeat CPU 0 instructions: 101000002 cycles: 74495419 heartbeat IPC: 1.19728 cumulative IPC: 0.935627 (Simulation time: 2 hr 3 min 31 sec) 
Heartbeat CPU 0 instructions: 102000003 cycles: 76047195 heartbeat IPC: 0.644424 cumulative IPC: 0.927566 (Simulation time: 2 hr 4 min 42 sec) 
Heartbeat CPU 0 instructions: 103000001 cycles: 76972775 heartbeat IPC: 1.0804 cumulative IPC: 0.930048 (Simulation time: 2 hr 5 min 48 sec) 
Heartbeat CPU 0 instructions: 104000000 cycles: 77801475 heartbeat IPC: 1.20671 cumulative IPC: 0.934014 (Simulation time: 2 hr 7 min 2 sec) 
Heartbeat CPU 0 instructions: 105000002 cycles: 78914885 heartbeat IPC: 0.898144 cumulative IPC: 0.933336 (Simulation time: 2 hr 8 min 8 sec) 
Heartbeat CPU 0 instructions: 106000003 cycles: 80434118 heartbeat IPC: 0.658228 cumulative IPC: 0.926422 (Simulation time: 2 hr 9 min 11 sec) 
Heartbeat CPU 0 instructions: 107000001 cycles: 81287433 heartbeat IPC: 1.1719 cumulative IPC: 0.929839 (Simulation time: 2 hr 10 min 15 sec) 
Heartbeat CPU 0 instructions: 108000000 cycles: 82045487 heartbeat IPC: 1.31917 cumulative IPC: 0.934595 (Simulation time: 2 hr 11 min 22 sec) 
Heartbeat CPU 0 instructions: 109000001 cycles: 83235682 heartbeat IPC: 0.840199 cumulative IPC: 0.932818 (Simulation time: 2 hr 12 min 38 sec) 
Heartbeat CPU 0 instructions: 110000000 cycles: 84654850 heartbeat IPC: 0.704638 cumulative IPC: 0.927811 (Simulation time: 2 hr 13 min 41 sec) 
Heartbeat CPU 0 instructions: 111000003 cycles: 85497932 heartbeat IPC: 1.18613 cumulative IPC: 0.931135 (Simulation time: 2 hr 14 min 53 sec) 
Heartbeat CPU 0 instructions: 112000000 cycles: 86263935 heartbeat IPC: 1.30547 cumulative IPC: 0.935461 (Simulation time: 2 hr 15 min 50 sec) 
Heartbeat CPU 0 instructions: 113000002 cycles: 87540405 heartbeat IPC: 0.783412 cumulative IPC: 0.932588 (Simulation time: 2 hr 17 min 1 sec) 
Heartbeat CPU 0 instructions: 114000001 cycles: 88786201 heartbeat IPC: 0.802699 cumulative IPC: 0.930236 (Simulation time: 2 hr 18 min 7 sec) 
Heartbeat CPU 0 instructions: 115000002 cycles: 89615350 heartbeat IPC: 1.20606 cumulative IPC: 0.933521 (Simulation time: 2 hr 19 min 13 sec) 
Heartbeat CPU 0 instructions: 116000000 cycles: 90391299 heartbeat IPC: 1.28874 cumulative IPC: 0.937436 (Simulation time: 2 hr 20 min 16 sec) 
Heartbeat CPU 0 instructions: 117000002 cycles: 91881958 heartbeat IPC: 0.670846 cumulative IPC: 0.931908 (Simulation time: 2 hr 21 min 43 sec) 
Heartbeat CPU 0 instructions: 118000000 cycles: 92861988 heartbeat IPC: 1.02037 cumulative IPC: 0.933098 (Simulation time: 2 hr 22 min 50 sec) 
Heartbeat CPU 0 instructions: 119000002 cycles: 93638605 heartbeat IPC: 1.28764 cumulative IPC: 0.936837 (Simulation time: 2 hr 23 min 42 sec) 
Heartbeat CPU 0 instructions: 120000000 cycles: 94584352 heartbeat IPC: 1.05736 cumulative IPC: 0.938365 (Simulation time: 2 hr 24 min 34 sec) 
Heartbeat CPU 0 instructions: 121000000 cycles: 96119507 heartbeat IPC: 0.6514 cumulative IPC: 0.932578 (Simulation time: 2 hr 25 min 29 sec) 
Heartbeat CPU 0 instructions: 122000003 cycles: 96964551 heartbeat IPC: 1.18337 cumulative IPC: 0.935331 (Simulation time: 2 hr 26 min 18 sec) 
Heartbeat CPU 0 instructions: 123000001 cycles: 97755203 heartbeat IPC: 1.26478 cumulative IPC: 0.938681 (Simulation time: 2 hr 27 min 11 sec) 
Heartbeat CPU 0 instructions: 124000000 cycles: 98915879 heartbeat IPC: 0.861566 cumulative IPC: 0.937547 (Simulation time: 2 hr 28 min 3 sec) 
Heartbeat CPU 0 instructions: 125000003 cycles: 100302185 heartbeat IPC: 0.721344 cumulative IPC: 0.933815 (Simulation time: 2 hr 29 min 1 sec) 
Heartbeat CPU 0 instructions: 126000001 cycles: 101138308 heartbeat IPC: 1.19599 cumulative IPC: 0.936516 (Simulation time: 2 hr 30 min 5 sec) 
Heartbeat CPU 0 instructions: 127000000 cycles: 101914217 heartbeat IPC: 1.28881 cumulative IPC: 0.939853 (Simulation time: 2 hr 30 min 53 sec) 
Heartbeat CPU 0 instructions: 128000000 cycles: 103272011 heartbeat IPC: 0.736489 cumulative IPC: 0.936537 (Simulation time: 2 hr 31 min 42 sec) 
Heartbeat CPU 0 instructions: 129000002 cycles: 104632146 heartbeat IPC: 0.735223 cumulative IPC: 0.933302 (Simulation time: 2 hr 32 min 29 sec) 
Heartbeat CPU 0 instructions: 130000002 cycles: 105469871 heartbeat IPC: 1.19371 cumulative IPC: 0.935854 (Simulation time: 2 hr 33 min 16 sec) 
Heartbeat CPU 0 instructions: 131000001 cycles: 106258750 heartbeat IPC: 1.26762 cumulative IPC: 0.938888 (Simulation time: 2 hr 34 min 2 sec) 
Heartbeat CPU 0 instructions: 132000000 cycles: 107636961 heartbeat IPC: 0.725578 cumulative IPC: 0.935534 (Simulation time: 2 hr 34 min 49 sec) 
Heartbeat CPU 0 instructions: 133000001 cycles: 109081776 heartbeat IPC: 0.692131 cumulative IPC: 0.931587 (Simulation time: 2 hr 35 min 33 sec) 
Heartbeat CPU 0 instructions: 134000001 cycles: 109922102 heartbeat IPC: 1.19001 cumulative IPC: 0.934002 (Simulation time: 2 hr 36 min 13 sec) 
Heartbeat CPU 0 instructions: 135000001 cycles: 110698653 heartbeat IPC: 1.28775 cumulative IPC: 0.93703 (Simulation time: 2 hr 37 min 0 sec) 
Heartbeat CPU 0 instructions: 136000000 cycles: 112007779 heartbeat IPC: 0.763868 cumulative IPC: 0.934566 (Simulation time: 2 hr 37 min 52 sec) 
Heartbeat CPU 0 instructions: 137000001 cycles: 113384691 heartbeat IPC: 0.726264 cumulative IPC: 0.931495 (Simulation time: 2 hr 38 min 33 sec) 
Heartbeat CPU 0 instructions: 138000002 cycles: 114235742 heartbeat IPC: 1.17502 cumulative IPC: 0.933694 (Simulation time: 2 hr 39 min 14 sec) 
Heartbeat CPU 0 instructions: 139000001 cycles: 115006256 heartbeat IPC: 1.29783 cumulative IPC: 0.936647 (Simulation time: 2 hr 39 min 49 sec) 
Heartbeat CPU 0 instructions: 140000000 cycles: 116377020 heartbeat IPC: 0.729519 cumulative IPC: 0.933702 (Simulation time: 2 hr 40 min 29 sec) 
Heartbeat CPU 0 instructions: 141000000 cycles: 117919156 heartbeat IPC: 0.648451 cumulative IPC: 0.92921 (Simulation time: 2 hr 41 min 8 sec) 
Heartbeat CPU 0 instructions: 142000002 cycles: 119052999 heartbeat IPC: 0.881958 cumulative IPC: 0.928669 (Simulation time: 2 hr 41 min 45 sec) 
Heartbeat CPU 0 instructions: 143000000 cycles: 119887564 heartbeat IPC: 1.19823 cumulative IPC: 0.930921 (Simulation time: 2 hr 42 min 19 sec) 
Heartbeat CPU 0 instructions: 144000000 cycles: 120680719 heartbeat IPC: 1.26079 cumulative IPC: 0.933519 (Simulation time: 2 hr 42 min 56 sec) 
Heartbeat CPU 0 instructions: 145000000 cycles: 121840255 heartbeat IPC: 0.862414 cumulative IPC: 0.93271 (Simulation time: 2 hr 43 min 33 sec) 
Heartbeat CPU 0 instructions: 146000001 cycles: 123312708 heartbeat IPC: 0.679139 cumulative IPC: 0.929096 (Simulation time: 2 hr 44 min 11 sec) 
Heartbeat CPU 0 instructions: 147000002 cycles: 124171703 heartbeat IPC: 1.16415 cumulative IPC: 0.931034 (Simulation time: 2 hr 44 min 45 sec) 
Heartbeat CPU 0 instructions: 148000000 cycles: 124965836 heartbeat IPC: 1.25923 cumulative IPC: 0.933517 (Simulation time: 2 hr 45 min 19 sec) 
Heartbeat CPU 0 instructions: 149000001 cycles: 126181310 heartbeat IPC: 0.822725 cumulative IPC: 0.932249 (Simulation time: 2 hr 45 min 54 sec) 
Heartbeat CPU 0 instructions: 150000000 cycles: 127565967 heartbeat IPC: 0.7222 cumulative IPC: 0.929545 (Simulation time: 2 hr 46 min 29 sec) 
Finished CPU 0 instructions: 100000001 cycles: 107579478 cummulative IPC: 0.929545 (Simulation time: 2 hr 46 min 29 sec) 

ChampSim completed all CPUs

Region of Interest Statistics

CPU 0 cummulative IPC: 0.929545 instructions: 100000001 cycles: 107579478
LLC TOTAL     ACCESS:    1706453  HIT:     719561  MISS:     986892
LLC LOAD      ACCESS:     273671  HIT:     195153  MISS:      78518
LLC RFO       ACCESS:     107533  HIT:      85319  MISS:      22214
LLC PREFETCH  ACCESS:    1185669  HIT:     308669  MISS:     877000
LLC WRITEBACK ACCESS:     139580  HIT:     130420  MISS:       9160
Insertion Distribution: 
	LOAD 14030 0 27763 110183 
	RFO 10152 0 4970 14225 
	PREF 0 3840 101835 1272341 
	WRITEBACK 0 0 0 16369 
Total Prefetch Downgrades: 5345
