
*** ChampSim Multicore Out-of-Order Simulator ***

Warmup Instructions: 50000000
Simulation Instructions: 100000000
Configuration: 2
Number of CPUs: 1
LLC sets: 2048
LLC ways: 16
Off-chip DRAM Channels: 1 Width: 64-bit Data Rate: 1600 MT/s

CPU 0 runs /datasets/cs240c-wi22-a00-public/data/Assignment2-gz/perlbench_105B.trace.gz
CPU 0 L1D next line prefetcher
CPU 0 L2C IP-based stride prefetcher
Initialize SRRIP state
Heartbeat CPU 0 instructions: 1000000 cycles: 578016 heartbeat IPC: 1.73006 cumulative IPC: 1.73006 (Simulation time: 0 hr 1 min 24 sec) 
Heartbeat CPU 0 instructions: 2000001 cycles: 1164321 heartbeat IPC: 1.7056 cumulative IPC: 1.71774 (Simulation time: 0 hr 2 min 40 sec) 
Heartbeat CPU 0 instructions: 3000001 cycles: 1726557 heartbeat IPC: 1.77861 cumulative IPC: 1.73756 (Simulation time: 0 hr 3 min 56 sec) 
Heartbeat CPU 0 instructions: 4000000 cycles: 2305993 heartbeat IPC: 1.72581 cumulative IPC: 1.73461 (Simulation time: 0 hr 5 min 7 sec) 
Heartbeat CPU 0 instructions: 5000003 cycles: 2884260 heartbeat IPC: 1.72931 cumulative IPC: 1.73355 (Simulation time: 0 hr 6 min 21 sec) 
Heartbeat CPU 0 instructions: 6000003 cycles: 3447519 heartbeat IPC: 1.77538 cumulative IPC: 1.74038 (Simulation time: 0 hr 7 min 33 sec) 
Heartbeat CPU 0 instructions: 7000000 cycles: 4019987 heartbeat IPC: 1.74682 cumulative IPC: 1.7413 (Simulation time: 0 hr 8 min 47 sec) 
Heartbeat CPU 0 instructions: 8000000 cycles: 4598049 heartbeat IPC: 1.72992 cumulative IPC: 1.73987 (Simulation time: 0 hr 10 min 16 sec) 
Heartbeat CPU 0 instructions: 9000000 cycles: 5176571 heartbeat IPC: 1.72854 cumulative IPC: 1.7386 (Simulation time: 0 hr 11 min 25 sec) 
Heartbeat CPU 0 instructions: 10000002 cycles: 5745489 heartbeat IPC: 1.75773 cumulative IPC: 1.7405 (Simulation time: 0 hr 12 min 34 sec) 
Heartbeat CPU 0 instructions: 11000002 cycles: 6325420 heartbeat IPC: 1.72434 cumulative IPC: 1.73902 (Simulation time: 0 hr 13 min 49 sec) 
Heartbeat CPU 0 instructions: 12000000 cycles: 6904640 heartbeat IPC: 1.72646 cumulative IPC: 1.73796 (Simulation time: 0 hr 14 min 54 sec) 
Heartbeat CPU 0 instructions: 13000000 cycles: 7466406 heartbeat IPC: 1.7801 cumulative IPC: 1.74113 (Simulation time: 0 hr 16 min 10 sec) 
Heartbeat CPU 0 instructions: 14000000 cycles: 8041757 heartbeat IPC: 1.73807 cumulative IPC: 1.74091 (Simulation time: 0 hr 17 min 27 sec) 
Heartbeat CPU 0 instructions: 15000000 cycles: 8620508 heartbeat IPC: 1.72786 cumulative IPC: 1.74004 (Simulation time: 0 hr 18 min 38 sec) 
Heartbeat CPU 0 instructions: 16000000 cycles: 9184059 heartbeat IPC: 1.77446 cumulative IPC: 1.74215 (Simulation time: 0 hr 19 min 46 sec) 
Heartbeat CPU 0 instructions: 17000003 cycles: 9766692 heartbeat IPC: 1.71635 cumulative IPC: 1.74061 (Simulation time: 0 hr 21 min 3 sec) 
Heartbeat CPU 0 instructions: 18000001 cycles: 10370637 heartbeat IPC: 1.65578 cumulative IPC: 1.73567 (Simulation time: 0 hr 22 min 17 sec) 
Heartbeat CPU 0 instructions: 19000000 cycles: 10920618 heartbeat IPC: 1.81824 cumulative IPC: 1.73983 (Simulation time: 0 hr 23 min 26 sec) 
Heartbeat CPU 0 instructions: 20000000 cycles: 11470881 heartbeat IPC: 1.81731 cumulative IPC: 1.74355 (Simulation time: 0 hr 24 min 42 sec) 
Heartbeat CPU 0 instructions: 21000000 cycles: 12021676 heartbeat IPC: 1.81556 cumulative IPC: 1.74684 (Simulation time: 0 hr 25 min 51 sec) 
Heartbeat CPU 0 instructions: 22000001 cycles: 12572889 heartbeat IPC: 1.81418 cumulative IPC: 1.7498 (Simulation time: 0 hr 26 min 56 sec) 
Heartbeat CPU 0 instructions: 23000000 cycles: 13124776 heartbeat IPC: 1.81196 cumulative IPC: 1.75241 (Simulation time: 0 hr 28 min 5 sec) 
Heartbeat CPU 0 instructions: 24000000 cycles: 13678280 heartbeat IPC: 1.80667 cumulative IPC: 1.75461 (Simulation time: 0 hr 29 min 14 sec) 
Heartbeat CPU 0 instructions: 25000001 cycles: 14234470 heartbeat IPC: 1.79795 cumulative IPC: 1.7563 (Simulation time: 0 hr 30 min 28 sec) 
Heartbeat CPU 0 instructions: 26000001 cycles: 14838190 heartbeat IPC: 1.6564 cumulative IPC: 1.75224 (Simulation time: 0 hr 31 min 41 sec) 
Heartbeat CPU 0 instructions: 27000003 cycles: 15391842 heartbeat IPC: 1.80619 cumulative IPC: 1.75418 (Simulation time: 0 hr 32 min 44 sec) 
Heartbeat CPU 0 instructions: 28000000 cycles: 15942079 heartbeat IPC: 1.81739 cumulative IPC: 1.75636 (Simulation time: 0 hr 33 min 49 sec) 
Heartbeat CPU 0 instructions: 29000001 cycles: 16492470 heartbeat IPC: 1.81689 cumulative IPC: 1.75838 (Simulation time: 0 hr 34 min 57 sec) 
Heartbeat CPU 0 instructions: 30000001 cycles: 17043379 heartbeat IPC: 1.81518 cumulative IPC: 1.76021 (Simulation time: 0 hr 36 min 10 sec) 
Heartbeat CPU 0 instructions: 31000000 cycles: 17595215 heartbeat IPC: 1.81213 cumulative IPC: 1.76184 (Simulation time: 0 hr 37 min 16 sec) 
Heartbeat CPU 0 instructions: 32000000 cycles: 18147816 heartbeat IPC: 1.80962 cumulative IPC: 1.7633 (Simulation time: 0 hr 38 min 30 sec) 
Heartbeat CPU 0 instructions: 33000001 cycles: 18703042 heartbeat IPC: 1.80107 cumulative IPC: 1.76442 (Simulation time: 0 hr 39 min 41 sec) 
Heartbeat CPU 0 instructions: 34000002 cycles: 19267468 heartbeat IPC: 1.77171 cumulative IPC: 1.76463 (Simulation time: 0 hr 40 min 52 sec) 
Heartbeat CPU 0 instructions: 35000002 cycles: 19833113 heartbeat IPC: 1.76789 cumulative IPC: 1.76473 (Simulation time: 0 hr 42 min 14 sec) 
Heartbeat CPU 0 instructions: 36000000 cycles: 20373355 heartbeat IPC: 1.85102 cumulative IPC: 1.76701 (Simulation time: 0 hr 43 min 27 sec) 
Heartbeat CPU 0 instructions: 37000001 cycles: 21094639 heartbeat IPC: 1.38642 cumulative IPC: 1.754 (Simulation time: 0 hr 44 min 57 sec) 
Heartbeat CPU 0 instructions: 38000000 cycles: 21678253 heartbeat IPC: 1.71346 cumulative IPC: 1.75291 (Simulation time: 0 hr 46 min 18 sec) 
Heartbeat CPU 0 instructions: 39000001 cycles: 22326041 heartbeat IPC: 1.54372 cumulative IPC: 1.74684 (Simulation time: 0 hr 47 min 38 sec) 
Heartbeat CPU 0 instructions: 40000000 cycles: 22965002 heartbeat IPC: 1.56504 cumulative IPC: 1.74178 (Simulation time: 0 hr 48 min 57 sec) 
Heartbeat CPU 0 instructions: 41000000 cycles: 23601961 heartbeat IPC: 1.56996 cumulative IPC: 1.73714 (Simulation time: 0 hr 50 min 17 sec) 
Heartbeat CPU 0 instructions: 42000001 cycles: 24240562 heartbeat IPC: 1.56592 cumulative IPC: 1.73263 (Simulation time: 0 hr 51 min 34 sec) 
Heartbeat CPU 0 instructions: 43000000 cycles: 24878472 heartbeat IPC: 1.56762 cumulative IPC: 1.7284 (Simulation time: 0 hr 52 min 47 sec) 
Heartbeat CPU 0 instructions: 44000000 cycles: 25513754 heartbeat IPC: 1.5741 cumulative IPC: 1.72456 (Simulation time: 0 hr 54 min 6 sec) 
Heartbeat CPU 0 instructions: 45000001 cycles: 26155654 heartbeat IPC: 1.55788 cumulative IPC: 1.72047 (Simulation time: 0 hr 55 min 40 sec) 
Heartbeat CPU 0 instructions: 46000002 cycles: 26792910 heartbeat IPC: 1.56923 cumulative IPC: 1.71687 (Simulation time: 0 hr 57 min 12 sec) 
Heartbeat CPU 0 instructions: 47000002 cycles: 27427610 heartbeat IPC: 1.57555 cumulative IPC: 1.7136 (Simulation time: 0 hr 58 min 45 sec) 
Heartbeat CPU 0 instructions: 48000000 cycles: 28061735 heartbeat IPC: 1.57697 cumulative IPC: 1.71051 (Simulation time: 1 hr 0 min 8 sec) 
Heartbeat CPU 0 instructions: 49000001 cycles: 28697125 heartbeat IPC: 1.57384 cumulative IPC: 1.70749 (Simulation time: 1 hr 1 min 49 sec) 
Heartbeat CPU 0 instructions: 50000002 cycles: 29331086 heartbeat IPC: 1.57739 cumulative IPC: 1.70468 (Simulation time: 1 hr 3 min 22 sec) 

Warmup complete CPU 0 instructions: 50000002 cycles: 29331086 (Simulation time: 1 hr 3 min 22 sec) 

Heartbeat CPU 0 instructions: 51000003 cycles: 31940729 heartbeat IPC: 0.383195 cumulative IPC: 0.383195 (Simulation time: 1 hr 4 min 53 sec) 
Heartbeat CPU 0 instructions: 52000000 cycles: 34528879 heartbeat IPC: 0.386375 cumulative IPC: 0.384778 (Simulation time: 1 hr 6 min 22 sec) 
Heartbeat CPU 0 instructions: 53000000 cycles: 37107044 heartbeat IPC: 0.387873 cumulative IPC: 0.385804 (Simulation time: 1 hr 7 min 55 sec) 
Heartbeat CPU 0 instructions: 54000000 cycles: 39723820 heartbeat IPC: 0.38215 cumulative IPC: 0.384884 (Simulation time: 1 hr 9 min 23 sec) 
Heartbeat CPU 0 instructions: 55000003 cycles: 42285068 heartbeat IPC: 0.390436 cumulative IPC: 0.385982 (Simulation time: 1 hr 10 min 53 sec) 
Heartbeat CPU 0 instructions: 56000000 cycles: 44664190 heartbeat IPC: 0.420322 cumulative IPC: 0.39131 (Simulation time: 1 hr 12 min 38 sec) 
Heartbeat CPU 0 instructions: 57000002 cycles: 46939529 heartbeat IPC: 0.439496 cumulative IPC: 0.397537 (Simulation time: 1 hr 14 min 11 sec) 
Heartbeat CPU 0 instructions: 58000001 cycles: 48261339 heartbeat IPC: 0.756538 cumulative IPC: 0.422604 (Simulation time: 1 hr 15 min 24 sec) 
Heartbeat CPU 0 instructions: 59000002 cycles: 50493563 heartbeat IPC: 0.447984 cumulative IPC: 0.425281 (Simulation time: 1 hr 16 min 53 sec) 
Heartbeat CPU 0 instructions: 60000000 cycles: 52842348 heartbeat IPC: 0.425751 cumulative IPC: 0.425328 (Simulation time: 1 hr 18 min 32 sec) 
Heartbeat CPU 0 instructions: 61000002 cycles: 55291838 heartbeat IPC: 0.408249 cumulative IPC: 0.423717 (Simulation time: 1 hr 20 min 6 sec) 
Heartbeat CPU 0 instructions: 62000000 cycles: 57658126 heartbeat IPC: 0.422602 cumulative IPC: 0.423623 (Simulation time: 1 hr 21 min 41 sec) 
Heartbeat CPU 0 instructions: 63000000 cycles: 60020643 heartbeat IPC: 0.423277 cumulative IPC: 0.423597 (Simulation time: 1 hr 23 min 32 sec) 
Heartbeat CPU 0 instructions: 64000000 cycles: 62440137 heartbeat IPC: 0.41331 cumulative IPC: 0.422845 (Simulation time: 1 hr 25 min 19 sec) 
Heartbeat CPU 0 instructions: 65000003 cycles: 64764391 heartbeat IPC: 0.430247 cumulative IPC: 0.423331 (Simulation time: 1 hr 27 min 4 sec) 
Heartbeat CPU 0 instructions: 66000002 cycles: 67107624 heartbeat IPC: 0.42676 cumulative IPC: 0.423543 (Simulation time: 1 hr 28 min 46 sec) 
Heartbeat CPU 0 instructions: 67000001 cycles: 69463024 heartbeat IPC: 0.424556 cumulative IPC: 0.423603 (Simulation time: 1 hr 30 min 21 sec) 
Heartbeat CPU 0 instructions: 68000000 cycles: 71911215 heartbeat IPC: 0.408464 cumulative IPC: 0.422732 (Simulation time: 1 hr 32 min 0 sec) 
Heartbeat CPU 0 instructions: 69000001 cycles: 74263497 heartbeat IPC: 0.42512 cumulative IPC: 0.422857 (Simulation time: 1 hr 33 min 47 sec) 
Heartbeat CPU 0 instructions: 70000000 cycles: 76679335 heartbeat IPC: 0.413935 cumulative IPC: 0.422402 (Simulation time: 1 hr 35 min 30 sec) 
Heartbeat CPU 0 instructions: 71000000 cycles: 79065625 heartbeat IPC: 0.419061 cumulative IPC: 0.422242 (Simulation time: 1 hr 37 min 36 sec) 
Heartbeat CPU 0 instructions: 72000000 cycles: 81394610 heartbeat IPC: 0.429372 cumulative IPC: 0.422561 (Simulation time: 1 hr 39 min 31 sec) 
Heartbeat CPU 0 instructions: 73000000 cycles: 83727293 heartbeat IPC: 0.428691 cumulative IPC: 0.422824 (Simulation time: 1 hr 41 min 9 sec) 
Heartbeat CPU 0 instructions: 74000002 cycles: 86112432 heartbeat IPC: 0.419264 cumulative IPC: 0.422674 (Simulation time: 1 hr 42 min 53 sec) 
Heartbeat CPU 0 instructions: 75000000 cycles: 88535881 heartbeat IPC: 0.412634 cumulative IPC: 0.422263 (Simulation time: 1 hr 44 min 39 sec) 
Heartbeat CPU 0 instructions: 76000000 cycles: 90895163 heartbeat IPC: 0.423858 cumulative IPC: 0.422324 (Simulation time: 1 hr 46 min 21 sec) 
Heartbeat CPU 0 instructions: 77000000 cycles: 93329658 heartbeat IPC: 0.410763 cumulative IPC: 0.421884 (Simulation time: 1 hr 48 min 2 sec) 
Heartbeat CPU 0 instructions: 78000002 cycles: 95694739 heartbeat IPC: 0.422819 cumulative IPC: 0.421918 (Simulation time: 1 hr 49 min 36 sec) 
Heartbeat CPU 0 instructions: 79000001 cycles: 98031221 heartbeat IPC: 0.427993 cumulative IPC: 0.422124 (Simulation time: 1 hr 51 min 15 sec) 
Heartbeat CPU 0 instructions: 80000000 cycles: 100362639 heartbeat IPC: 0.428923 cumulative IPC: 0.422347 (Simulation time: 1 hr 53 min 17 sec) 
Heartbeat CPU 0 instructions: 81000000 cycles: 102786323 heartbeat IPC: 0.412595 cumulative IPC: 0.422026 (Simulation time: 1 hr 55 min 2 sec) 
Heartbeat CPU 0 instructions: 82000000 cycles: 105149546 heartbeat IPC: 0.423151 cumulative IPC: 0.422061 (Simulation time: 1 hr 56 min 38 sec) 
Heartbeat CPU 0 instructions: 83000002 cycles: 107470431 heartbeat IPC: 0.430871 cumulative IPC: 0.422322 (Simulation time: 1 hr 58 min 17 sec) 
Heartbeat CPU 0 instructions: 84000000 cycles: 109892983 heartbeat IPC: 0.412787 cumulative IPC: 0.422036 (Simulation time: 1 hr 59 min 55 sec) 
Heartbeat CPU 0 instructions: 85000000 cycles: 112267721 heartbeat IPC: 0.421099 cumulative IPC: 0.422009 (Simulation time: 2 hr 1 min 37 sec) 
Heartbeat CPU 0 instructions: 86000000 cycles: 114617375 heartbeat IPC: 0.425595 cumulative IPC: 0.422108 (Simulation time: 2 hr 3 min 12 sec) 
Heartbeat CPU 0 instructions: 87000001 cycles: 117063694 heartbeat IPC: 0.408778 cumulative IPC: 0.421736 (Simulation time: 2 hr 5 min 8 sec) 
Heartbeat CPU 0 instructions: 88000000 cycles: 119429348 heartbeat IPC: 0.422716 cumulative IPC: 0.421762 (Simulation time: 2 hr 6 min 56 sec) 
Heartbeat CPU 0 instructions: 89000002 cycles: 121754683 heartbeat IPC: 0.430046 cumulative IPC: 0.42197 (Simulation time: 2 hr 8 min 58 sec) 
Heartbeat CPU 0 instructions: 90000002 cycles: 124118477 heartbeat IPC: 0.423049 cumulative IPC: 0.421997 (Simulation time: 2 hr 10 min 45 sec) 
Heartbeat CPU 0 instructions: 91000003 cycles: 126535040 heartbeat IPC: 0.413811 cumulative IPC: 0.421794 (Simulation time: 2 hr 12 min 37 sec) 
Heartbeat CPU 0 instructions: 92000000 cycles: 128893907 heartbeat IPC: 0.423931 cumulative IPC: 0.421844 (Simulation time: 2 hr 14 min 15 sec) 
Heartbeat CPU 0 instructions: 93000001 cycles: 131240647 heartbeat IPC: 0.426123 cumulative IPC: 0.421943 (Simulation time: 2 hr 15 min 54 sec) 
Heartbeat CPU 0 instructions: 94000002 cycles: 133693109 heartbeat IPC: 0.407754 cumulative IPC: 0.421609 (Simulation time: 2 hr 17 min 31 sec) 
Heartbeat CPU 0 instructions: 95000000 cycles: 136053941 heartbeat IPC: 0.423579 cumulative IPC: 0.421653 (Simulation time: 2 hr 19 min 29 sec) 
Heartbeat CPU 0 instructions: 96000000 cycles: 138377232 heartbeat IPC: 0.430424 cumulative IPC: 0.42184 (Simulation time: 2 hr 21 min 16 sec) 
Heartbeat CPU 0 instructions: 97000000 cycles: 140764063 heartbeat IPC: 0.418966 cumulative IPC: 0.421778 (Simulation time: 2 hr 22 min 56 sec) 
Heartbeat CPU 0 instructions: 98000001 cycles: 143164076 heartbeat IPC: 0.416665 cumulative IPC: 0.42167 (Simulation time: 2 hr 24 min 40 sec) 
Heartbeat CPU 0 instructions: 99000002 cycles: 145522665 heartbeat IPC: 0.423983 cumulative IPC: 0.421717 (Simulation time: 2 hr 25 min 58 sec) 
Heartbeat CPU 0 instructions: 100000000 cycles: 147875061 heartbeat IPC: 0.425098 cumulative IPC: 0.421784 (Simulation time: 2 hr 27 min 22 sec) 
Heartbeat CPU 0 instructions: 101000000 cycles: 150290513 heartbeat IPC: 0.414001 cumulative IPC: 0.421629 (Simulation time: 2 hr 28 min 58 sec) 
Heartbeat CPU 0 instructions: 102000000 cycles: 152523276 heartbeat IPC: 0.447876 cumulative IPC: 0.422105 (Simulation time: 2 hr 30 min 22 sec) 
Heartbeat CPU 0 instructions: 103000001 cycles: 155027876 heartbeat IPC: 0.399266 cumulative IPC: 0.42165 (Simulation time: 2 hr 31 min 38 sec) 
Heartbeat CPU 0 instructions: 104000000 cycles: 157530396 heartbeat IPC: 0.399597 cumulative IPC: 0.421219 (Simulation time: 2 hr 33 min 0 sec) 
Heartbeat CPU 0 instructions: 105000000 cycles: 160030269 heartbeat IPC: 0.40002 cumulative IPC: 0.420814 (Simulation time: 2 hr 34 min 19 sec) 
Heartbeat CPU 0 instructions: 106000000 cycles: 162526474 heartbeat IPC: 0.400608 cumulative IPC: 0.420435 (Simulation time: 2 hr 35 min 33 sec) 
Heartbeat CPU 0 instructions: 107000001 cycles: 165017066 heartbeat IPC: 0.401511 cumulative IPC: 0.420088 (Simulation time: 2 hr 36 min 52 sec) 
Heartbeat CPU 0 instructions: 108000000 cycles: 167497472 heartbeat IPC: 0.403159 cumulative IPC: 0.419784 (Simulation time: 2 hr 37 min 57 sec) 
Heartbeat CPU 0 instructions: 109000002 cycles: 169953621 heartbeat IPC: 0.407142 cumulative IPC: 0.419563 (Simulation time: 2 hr 39 min 7 sec) 
Heartbeat CPU 0 instructions: 110000000 cycles: 172273253 heartbeat IPC: 0.431102 cumulative IPC: 0.41975 (Simulation time: 2 hr 40 min 8 sec) 
Heartbeat CPU 0 instructions: 111000001 cycles: 174706854 heartbeat IPC: 0.410914 cumulative IPC: 0.419602 (Simulation time: 2 hr 41 min 7 sec) 
Heartbeat CPU 0 instructions: 112000000 cycles: 177075035 heartbeat IPC: 0.422265 cumulative IPC: 0.419645 (Simulation time: 2 hr 42 min 3 sec) 
Heartbeat CPU 0 instructions: 113000002 cycles: 179407691 heartbeat IPC: 0.428697 cumulative IPC: 0.419786 (Simulation time: 2 hr 43 min 1 sec) 
Heartbeat CPU 0 instructions: 114000003 cycles: 181745244 heartbeat IPC: 0.427798 cumulative IPC: 0.419908 (Simulation time: 2 hr 44 min 1 sec) 
Heartbeat CPU 0 instructions: 115000000 cycles: 184160461 heartbeat IPC: 0.41404 cumulative IPC: 0.419817 (Simulation time: 2 hr 45 min 1 sec) 
Heartbeat CPU 0 instructions: 116000000 cycles: 186550300 heartbeat IPC: 0.418438 cumulative IPC: 0.419796 (Simulation time: 2 hr 46 min 3 sec) 
Heartbeat CPU 0 instructions: 117000000 cycles: 188902830 heartbeat IPC: 0.425074 cumulative IPC: 0.419874 (Simulation time: 2 hr 46 min 53 sec) 
Heartbeat CPU 0 instructions: 118000002 cycles: 191344839 heartbeat IPC: 0.4095 cumulative IPC: 0.419717 (Simulation time: 2 hr 47 min 45 sec) 
Heartbeat CPU 0 instructions: 119000001 cycles: 193683268 heartbeat IPC: 0.427637 cumulative IPC: 0.41983 (Simulation time: 2 hr 48 min 32 sec) 
Heartbeat CPU 0 instructions: 120000000 cycles: 196010757 heartbeat IPC: 0.429647 cumulative IPC: 0.419967 (Simulation time: 2 hr 49 min 20 sec) 
Heartbeat CPU 0 instructions: 121000000 cycles: 198367712 heartbeat IPC: 0.424276 cumulative IPC: 0.420027 (Simulation time: 2 hr 50 min 5 sec) 
Heartbeat CPU 0 instructions: 122000003 cycles: 200780886 heartbeat IPC: 0.414393 cumulative IPC: 0.419948 (Simulation time: 2 hr 50 min 55 sec) 
Heartbeat CPU 0 instructions: 123000003 cycles: 203151879 heartbeat IPC: 0.421764 cumulative IPC: 0.419973 (Simulation time: 2 hr 51 min 41 sec) 
Heartbeat CPU 0 instructions: 124000000 cycles: 205500555 heartbeat IPC: 0.425771 cumulative IPC: 0.42005 (Simulation time: 2 hr 52 min 26 sec) 
Heartbeat CPU 0 instructions: 125000000 cycles: 207950248 heartbeat IPC: 0.408214 cumulative IPC: 0.419888 (Simulation time: 2 hr 53 min 14 sec) 
Heartbeat CPU 0 instructions: 126000000 cycles: 210304311 heartbeat IPC: 0.424797 cumulative IPC: 0.419952 (Simulation time: 2 hr 53 min 55 sec) 
Heartbeat CPU 0 instructions: 127000002 cycles: 212618610 heartbeat IPC: 0.432097 cumulative IPC: 0.420105 (Simulation time: 2 hr 54 min 34 sec) 
Heartbeat CPU 0 instructions: 128000000 cycles: 214993610 heartbeat IPC: 0.421052 cumulative IPC: 0.420117 (Simulation time: 2 hr 55 min 11 sec) 
Heartbeat CPU 0 instructions: 129000002 cycles: 217383821 heartbeat IPC: 0.418374 cumulative IPC: 0.420095 (Simulation time: 2 hr 55 min 48 sec) 
Heartbeat CPU 0 instructions: 130000000 cycles: 219728088 heartbeat IPC: 0.426572 cumulative IPC: 0.420175 (Simulation time: 2 hr 56 min 23 sec) 
Heartbeat CPU 0 instructions: 131000002 cycles: 222077709 heartbeat IPC: 0.425601 cumulative IPC: 0.420241 (Simulation time: 2 hr 56 min 56 sec) 
Heartbeat CPU 0 instructions: 132000000 cycles: 224519935 heartbeat IPC: 0.409462 cumulative IPC: 0.420106 (Simulation time: 2 hr 57 min 30 sec) 
Heartbeat CPU 0 instructions: 133000001 cycles: 226887149 heartbeat IPC: 0.422438 cumulative IPC: 0.420134 (Simulation time: 2 hr 58 min 5 sec) 
Heartbeat CPU 0 instructions: 134000001 cycles: 229233449 heartbeat IPC: 0.426203 cumulative IPC: 0.420205 (Simulation time: 2 hr 58 min 36 sec) 
Heartbeat CPU 0 instructions: 135000000 cycles: 231653141 heartbeat IPC: 0.413275 cumulative IPC: 0.420122 (Simulation time: 2 hr 59 min 5 sec) 
Heartbeat CPU 0 instructions: 136000000 cycles: 233984507 heartbeat IPC: 0.428933 cumulative IPC: 0.420223 (Simulation time: 2 hr 59 min 30 sec) 
Heartbeat CPU 0 instructions: 137000003 cycles: 236325199 heartbeat IPC: 0.427225 cumulative IPC: 0.420302 (Simulation time: 2 hr 59 min 54 sec) 
Heartbeat CPU 0 instructions: 138000002 cycles: 238670137 heartbeat IPC: 0.42645 cumulative IPC: 0.420371 (Simulation time: 3 hr 0 min 17 sec) 
Heartbeat CPU 0 instructions: 139000001 cycles: 241121531 heartbeat IPC: 0.407931 cumulative IPC: 0.420227 (Simulation time: 3 hr 0 min 40 sec) 
Heartbeat CPU 0 instructions: 140000000 cycles: 243480255 heartbeat IPC: 0.423958 cumulative IPC: 0.420268 (Simulation time: 3 hr 1 min 1 sec) 
Heartbeat CPU 0 instructions: 141000002 cycles: 245856590 heartbeat IPC: 0.420817 cumulative IPC: 0.420274 (Simulation time: 3 hr 1 min 19 sec) 
Heartbeat CPU 0 instructions: 142000000 cycles: 248266541 heartbeat IPC: 0.414945 cumulative IPC: 0.420215 (Simulation time: 3 hr 1 min 35 sec) 
Heartbeat CPU 0 instructions: 143000002 cycles: 250606850 heartbeat IPC: 0.427295 cumulative IPC: 0.42029 (Simulation time: 3 hr 1 min 52 sec) 
Heartbeat CPU 0 instructions: 144000000 cycles: 252923210 heartbeat IPC: 0.431711 cumulative IPC: 0.420408 (Simulation time: 3 hr 2 min 5 sec) 
Heartbeat CPU 0 instructions: 145000000 cycles: 255289370 heartbeat IPC: 0.422626 cumulative IPC: 0.420432 (Simulation time: 3 hr 2 min 16 sec) 
Heartbeat CPU 0 instructions: 146000002 cycles: 257725998 heartbeat IPC: 0.410404 cumulative IPC: 0.420325 (Simulation time: 3 hr 2 min 28 sec) 
Heartbeat CPU 0 instructions: 147000000 cycles: 260078364 heartbeat IPC: 0.425103 cumulative IPC: 0.420373 (Simulation time: 3 hr 2 min 39 sec) 
Heartbeat CPU 0 instructions: 148000000 cycles: 262500229 heartbeat IPC: 0.412905 cumulative IPC: 0.420296 (Simulation time: 3 hr 2 min 50 sec) 
Heartbeat CPU 0 instructions: 149000001 cycles: 264870200 heartbeat IPC: 0.421947 cumulative IPC: 0.420312 (Simulation time: 3 hr 3 min 0 sec) 
Heartbeat CPU 0 instructions: 150000002 cycles: 267202020 heartbeat IPC: 0.42885 cumulative IPC: 0.420396 (Simulation time: 3 hr 3 min 10 sec) 
Finished CPU 0 instructions: 100000000 cycles: 237870934 cummulative IPC: 0.420396 (Simulation time: 3 hr 3 min 10 sec) 

ChampSim completed all CPUs

Region of Interest Statistics

CPU 0 cummulative IPC: 0.420396 instructions: 100000000 cycles: 237870934
LLC TOTAL     ACCESS:      45230  HIT:      42946  MISS:       2284
LLC LOAD      ACCESS:      21126  HIT:      20585  MISS:        541
LLC RFO       ACCESS:       2813  HIT:       1791  MISS:       1022
LLC PREFETCH  ACCESS:      14816  HIT:      14130  MISS:        686
LLC WRITEBACK ACCESS:       6475  HIT:       6440  MISS:         35
Insertion Distribution: 
	LOAD 241 0 9409 17 
	RFO 92 0 5670 0 
	PREF 0 104 9008 971 
	WRITEBACK 0 0 0 243 
Total Prefetch Downgrades: 921
