
*** ChampSim Multicore Out-of-Order Simulator ***

Warmup Instructions: 50000000
Simulation Instructions: 100000000
Configuration: 2
Number of CPUs: 1
LLC sets: 2048
LLC ways: 16
Off-chip DRAM Channels: 1 Width: 64-bit Data Rate: 1600 MT/s

CPU 0 runs /datasets/cs240c-wi22-a00-public/data/Assignment2-gz/bzip2_281B.trace.gz
CPU 0 L1D next line prefetcher
CPU 0 L2C IP-based stride prefetcher
Initialize SRRIP state
Heartbeat CPU 0 instructions: 1000000 cycles: 445877 heartbeat IPC: 2.24277 cumulative IPC: 2.24277 (Simulation time: 0 hr 1 min 17 sec) 
Heartbeat CPU 0 instructions: 2000003 cycles: 900180 heartbeat IPC: 2.20118 cumulative IPC: 2.22178 (Simulation time: 0 hr 2 min 24 sec) 
Heartbeat CPU 0 instructions: 3000002 cycles: 1315039 heartbeat IPC: 2.41046 cumulative IPC: 2.2813 (Simulation time: 0 hr 3 min 32 sec) 
Heartbeat CPU 0 instructions: 4000000 cycles: 1753509 heartbeat IPC: 2.28065 cumulative IPC: 2.28114 (Simulation time: 0 hr 4 min 39 sec) 
Heartbeat CPU 0 instructions: 5000002 cycles: 2175509 heartbeat IPC: 2.36967 cumulative IPC: 2.29831 (Simulation time: 0 hr 5 min 47 sec) 
Heartbeat CPU 0 instructions: 6000000 cycles: 2666167 heartbeat IPC: 2.03808 cumulative IPC: 2.25042 (Simulation time: 0 hr 7 min 5 sec) 
Heartbeat CPU 0 instructions: 7000001 cycles: 3193454 heartbeat IPC: 1.8965 cumulative IPC: 2.19198 (Simulation time: 0 hr 8 min 22 sec) 
Heartbeat CPU 0 instructions: 8000000 cycles: 3726094 heartbeat IPC: 1.87744 cumulative IPC: 2.14702 (Simulation time: 0 hr 9 min 27 sec) 
Heartbeat CPU 0 instructions: 9000000 cycles: 4232606 heartbeat IPC: 1.97429 cumulative IPC: 2.12635 (Simulation time: 0 hr 10 min 37 sec) 
Heartbeat CPU 0 instructions: 10000002 cycles: 4685540 heartbeat IPC: 2.20783 cumulative IPC: 2.13423 (Simulation time: 0 hr 11 min 36 sec) 
Heartbeat CPU 0 instructions: 11000000 cycles: 5132990 heartbeat IPC: 2.23488 cumulative IPC: 2.143 (Simulation time: 0 hr 12 min 39 sec) 
Heartbeat CPU 0 instructions: 12000000 cycles: 5614044 heartbeat IPC: 2.07877 cumulative IPC: 2.1375 (Simulation time: 0 hr 13 min 54 sec) 
Heartbeat CPU 0 instructions: 13000001 cycles: 6025607 heartbeat IPC: 2.42976 cumulative IPC: 2.15746 (Simulation time: 0 hr 14 min 56 sec) 
Heartbeat CPU 0 instructions: 14000003 cycles: 6484026 heartbeat IPC: 2.18141 cumulative IPC: 2.15915 (Simulation time: 0 hr 15 min 54 sec) 
Heartbeat CPU 0 instructions: 15000003 cycles: 6944320 heartbeat IPC: 2.17252 cumulative IPC: 2.16004 (Simulation time: 0 hr 16 min 57 sec) 
Heartbeat CPU 0 instructions: 16000000 cycles: 7340383 heartbeat IPC: 2.52484 cumulative IPC: 2.17972 (Simulation time: 0 hr 17 min 52 sec) 
Heartbeat CPU 0 instructions: 17000000 cycles: 7729523 heartbeat IPC: 2.56977 cumulative IPC: 2.19936 (Simulation time: 0 hr 18 min 48 sec) 
Heartbeat CPU 0 instructions: 18000002 cycles: 8185625 heartbeat IPC: 2.1925 cumulative IPC: 2.19898 (Simulation time: 0 hr 19 min 57 sec) 
Heartbeat CPU 0 instructions: 19000000 cycles: 8631555 heartbeat IPC: 2.2425 cumulative IPC: 2.20123 (Simulation time: 0 hr 20 min 55 sec) 
Heartbeat CPU 0 instructions: 20000000 cycles: 9076602 heartbeat IPC: 2.24695 cumulative IPC: 2.20347 (Simulation time: 0 hr 22 min 2 sec) 
Heartbeat CPU 0 instructions: 21000000 cycles: 9463660 heartbeat IPC: 2.58359 cumulative IPC: 2.21901 (Simulation time: 0 hr 23 min 13 sec) 
Heartbeat CPU 0 instructions: 22000003 cycles: 9839381 heartbeat IPC: 2.66156 cumulative IPC: 2.23591 (Simulation time: 0 hr 24 min 15 sec) 
Heartbeat CPU 0 instructions: 23000001 cycles: 10292357 heartbeat IPC: 2.20762 cumulative IPC: 2.23467 (Simulation time: 0 hr 25 min 15 sec) 
Heartbeat CPU 0 instructions: 24000000 cycles: 10746949 heartbeat IPC: 2.19977 cumulative IPC: 2.23319 (Simulation time: 0 hr 26 min 16 sec) 
Heartbeat CPU 0 instructions: 25000001 cycles: 11090664 heartbeat IPC: 2.90939 cumulative IPC: 2.25415 (Simulation time: 0 hr 27 min 13 sec) 
Heartbeat CPU 0 instructions: 26000003 cycles: 11528321 heartbeat IPC: 2.2849 cumulative IPC: 2.25532 (Simulation time: 0 hr 28 min 18 sec) 
Heartbeat CPU 0 instructions: 27000003 cycles: 12001006 heartbeat IPC: 2.11557 cumulative IPC: 2.24981 (Simulation time: 0 hr 29 min 19 sec) 
Heartbeat CPU 0 instructions: 28000000 cycles: 12327609 heartbeat IPC: 3.06181 cumulative IPC: 2.27132 (Simulation time: 0 hr 30 min 12 sec) 
Heartbeat CPU 0 instructions: 29000001 cycles: 12624486 heartbeat IPC: 3.3684 cumulative IPC: 2.29712 (Simulation time: 0 hr 30 min 56 sec) 
Heartbeat CPU 0 instructions: 30000000 cycles: 12921360 heartbeat IPC: 3.36843 cumulative IPC: 2.32174 (Simulation time: 0 hr 31 min 47 sec) 
Heartbeat CPU 0 instructions: 31000000 cycles: 13263755 heartbeat IPC: 2.9206 cumulative IPC: 2.3372 (Simulation time: 0 hr 32 min 36 sec) 
Heartbeat CPU 0 instructions: 32000000 cycles: 13610275 heartbeat IPC: 2.88584 cumulative IPC: 2.35116 (Simulation time: 0 hr 33 min 21 sec) 
Heartbeat CPU 0 instructions: 33000001 cycles: 13968785 heartbeat IPC: 2.78933 cumulative IPC: 2.36241 (Simulation time: 0 hr 34 min 7 sec) 
Heartbeat CPU 0 instructions: 34000001 cycles: 14312364 heartbeat IPC: 2.91054 cumulative IPC: 2.37557 (Simulation time: 0 hr 34 min 52 sec) 
Heartbeat CPU 0 instructions: 35000003 cycles: 14653454 heartbeat IPC: 2.93178 cumulative IPC: 2.38852 (Simulation time: 0 hr 35 min 44 sec) 
Heartbeat CPU 0 instructions: 36000000 cycles: 14991818 heartbeat IPC: 2.95539 cumulative IPC: 2.40131 (Simulation time: 0 hr 36 min 41 sec) 
Heartbeat CPU 0 instructions: 37000000 cycles: 15330925 heartbeat IPC: 2.94892 cumulative IPC: 2.41342 (Simulation time: 0 hr 37 min 28 sec) 
Heartbeat CPU 0 instructions: 38000002 cycles: 15672986 heartbeat IPC: 2.92346 cumulative IPC: 2.42455 (Simulation time: 0 hr 38 min 12 sec) 
Heartbeat CPU 0 instructions: 39000001 cycles: 16012678 heartbeat IPC: 2.94384 cumulative IPC: 2.43557 (Simulation time: 0 hr 39 min 15 sec) 
Heartbeat CPU 0 instructions: 40000000 cycles: 16369032 heartbeat IPC: 2.8062 cumulative IPC: 2.44364 (Simulation time: 0 hr 40 min 20 sec) 
Heartbeat CPU 0 instructions: 41000000 cycles: 16712494 heartbeat IPC: 2.91153 cumulative IPC: 2.45325 (Simulation time: 0 hr 41 min 10 sec) 
Heartbeat CPU 0 instructions: 42000002 cycles: 17054100 heartbeat IPC: 2.92735 cumulative IPC: 2.46275 (Simulation time: 0 hr 41 min 58 sec) 
Heartbeat CPU 0 instructions: 43000000 cycles: 17390148 heartbeat IPC: 2.97576 cumulative IPC: 2.47266 (Simulation time: 0 hr 42 min 46 sec) 
Heartbeat CPU 0 instructions: 44000000 cycles: 17730916 heartbeat IPC: 2.93455 cumulative IPC: 2.48154 (Simulation time: 0 hr 43 min 34 sec) 
Heartbeat CPU 0 instructions: 45000001 cycles: 18067528 heartbeat IPC: 2.97078 cumulative IPC: 2.49066 (Simulation time: 0 hr 44 min 19 sec) 
Heartbeat CPU 0 instructions: 46000000 cycles: 18420976 heartbeat IPC: 2.82927 cumulative IPC: 2.49715 (Simulation time: 0 hr 45 min 9 sec) 
Heartbeat CPU 0 instructions: 47000003 cycles: 18770647 heartbeat IPC: 2.85984 cumulative IPC: 2.50391 (Simulation time: 0 hr 45 min 57 sec) 
Heartbeat CPU 0 instructions: 48000000 cycles: 19120574 heartbeat IPC: 2.85773 cumulative IPC: 2.51038 (Simulation time: 0 hr 46 min 44 sec) 
Heartbeat CPU 0 instructions: 49000003 cycles: 19475983 heartbeat IPC: 2.81367 cumulative IPC: 2.51592 (Simulation time: 0 hr 47 min 30 sec) 
Heartbeat CPU 0 instructions: 50000003 cycles: 19824255 heartbeat IPC: 2.87132 cumulative IPC: 2.52216 (Simulation time: 0 hr 48 min 16 sec) 

Warmup complete CPU 0 instructions: 50000003 cycles: 19824255 (Simulation time: 0 hr 48 min 16 sec) 

Heartbeat CPU 0 instructions: 51000002 cycles: 20781483 heartbeat IPC: 1.04468 cumulative IPC: 1.04468 (Simulation time: 0 hr 49 min 11 sec) 
Heartbeat CPU 0 instructions: 52000000 cycles: 21746690 heartbeat IPC: 1.03605 cumulative IPC: 1.04035 (Simulation time: 0 hr 50 min 16 sec) 
Heartbeat CPU 0 instructions: 53000001 cycles: 22724709 heartbeat IPC: 1.02248 cumulative IPC: 1.03432 (Simulation time: 0 hr 51 min 19 sec) 
Heartbeat CPU 0 instructions: 54000003 cycles: 23705488 heartbeat IPC: 1.0196 cumulative IPC: 1.0306 (Simulation time: 0 hr 52 min 19 sec) 
Heartbeat CPU 0 instructions: 55000000 cycles: 24671267 heartbeat IPC: 1.03543 cumulative IPC: 1.03156 (Simulation time: 0 hr 53 min 19 sec) 
Heartbeat CPU 0 instructions: 56000000 cycles: 25647670 heartbeat IPC: 1.02417 cumulative IPC: 1.03032 (Simulation time: 0 hr 54 min 25 sec) 
Heartbeat CPU 0 instructions: 57000002 cycles: 26615362 heartbeat IPC: 1.03339 cumulative IPC: 1.03076 (Simulation time: 0 hr 55 min 26 sec) 
Heartbeat CPU 0 instructions: 58000003 cycles: 27588252 heartbeat IPC: 1.02787 cumulative IPC: 1.0304 (Simulation time: 0 hr 56 min 35 sec) 
Heartbeat CPU 0 instructions: 59000003 cycles: 28616779 heartbeat IPC: 0.972264 cumulative IPC: 1.0236 (Simulation time: 0 hr 57 min 41 sec) 
Heartbeat CPU 0 instructions: 60000000 cycles: 29824438 heartbeat IPC: 0.828046 cumulative IPC: 0.999981 (Simulation time: 0 hr 59 min 5 sec) 
Heartbeat CPU 0 instructions: 61000000 cycles: 31031260 heartbeat IPC: 0.828623 cumulative IPC: 0.981529 (Simulation time: 1 hr 0 min 20 sec) 
Heartbeat CPU 0 instructions: 62000003 cycles: 32254999 heartbeat IPC: 0.81717 cumulative IPC: 0.965348 (Simulation time: 1 hr 1 min 48 sec) 
Heartbeat CPU 0 instructions: 63000001 cycles: 33486367 heartbeat IPC: 0.812103 cumulative IPC: 0.951536 (Simulation time: 1 hr 2 min 54 sec) 
Heartbeat CPU 0 instructions: 64000000 cycles: 34808107 heartbeat IPC: 0.756578 cumulative IPC: 0.934339 (Simulation time: 1 hr 4 min 1 sec) 
Heartbeat CPU 0 instructions: 65000001 cycles: 36012372 heartbeat IPC: 0.830383 cumulative IPC: 0.926605 (Simulation time: 1 hr 5 min 22 sec) 
Heartbeat CPU 0 instructions: 66000003 cycles: 37214291 heartbeat IPC: 0.832004 cumulative IPC: 0.920067 (Simulation time: 1 hr 6 min 54 sec) 
Heartbeat CPU 0 instructions: 67000000 cycles: 38425578 heartbeat IPC: 0.825566 cumulative IPC: 0.913913 (Simulation time: 1 hr 8 min 5 sec) 
Heartbeat CPU 0 instructions: 68000000 cycles: 39739626 heartbeat IPC: 0.761007 cumulative IPC: 0.903824 (Simulation time: 1 hr 9 min 10 sec) 
Heartbeat CPU 0 instructions: 69000000 cycles: 40936220 heartbeat IPC: 0.835705 cumulative IPC: 0.899963 (Simulation time: 1 hr 10 min 19 sec) 
Heartbeat CPU 0 instructions: 70000002 cycles: 42138434 heartbeat IPC: 0.8318 cumulative IPC: 0.896291 (Simulation time: 1 hr 11 min 28 sec) 
Heartbeat CPU 0 instructions: 71000003 cycles: 43345064 heartbeat IPC: 0.828755 cumulative IPC: 0.892826 (Simulation time: 1 hr 12 min 36 sec) 
Heartbeat CPU 0 instructions: 72000000 cycles: 44553065 heartbeat IPC: 0.827811 cumulative IPC: 0.88965 (Simulation time: 1 hr 13 min 48 sec) 
Heartbeat CPU 0 instructions: 73000002 cycles: 45856529 heartbeat IPC: 0.767188 cumulative IPC: 0.883519 (Simulation time: 1 hr 14 min 51 sec) 
Heartbeat CPU 0 instructions: 74000000 cycles: 47056018 heartbeat IPC: 0.833687 cumulative IPC: 0.881324 (Simulation time: 1 hr 16 min 7 sec) 
Heartbeat CPU 0 instructions: 75000001 cycles: 48257407 heartbeat IPC: 0.832371 cumulative IPC: 0.879255 (Simulation time: 1 hr 17 min 14 sec) 
Heartbeat CPU 0 instructions: 76000000 cycles: 49466704 heartbeat IPC: 0.826926 cumulative IPC: 0.87712 (Simulation time: 1 hr 18 min 25 sec) 
Heartbeat CPU 0 instructions: 77000001 cycles: 50723808 heartbeat IPC: 0.79548 cumulative IPC: 0.873799 (Simulation time: 1 hr 19 min 26 sec) 
Heartbeat CPU 0 instructions: 78000003 cycles: 51889882 heartbeat IPC: 0.85758 cumulative IPC: 0.873209 (Simulation time: 1 hr 20 min 15 sec) 
Heartbeat CPU 0 instructions: 79000000 cycles: 52808762 heartbeat IPC: 1.08828 cumulative IPC: 0.879201 (Simulation time: 1 hr 21 min 4 sec) 
Heartbeat CPU 0 instructions: 80000000 cycles: 53712207 heartbeat IPC: 1.10687 cumulative IPC: 0.88527 (Simulation time: 1 hr 21 min 52 sec) 
Heartbeat CPU 0 instructions: 81000000 cycles: 54557946 heartbeat IPC: 1.1824 cumulative IPC: 0.892505 (Simulation time: 1 hr 22 min 47 sec) 
Heartbeat CPU 0 instructions: 82000001 cycles: 55449866 heartbeat IPC: 1.12118 cumulative IPC: 0.89823 (Simulation time: 1 hr 23 min 37 sec) 
Heartbeat CPU 0 instructions: 83000000 cycles: 56373755 heartbeat IPC: 1.08238 cumulative IPC: 0.902885 (Simulation time: 1 hr 24 min 26 sec) 
Heartbeat CPU 0 instructions: 84000000 cycles: 57290450 heartbeat IPC: 1.09088 cumulative IPC: 0.907485 (Simulation time: 1 hr 25 min 16 sec) 
Heartbeat CPU 0 instructions: 85000002 cycles: 58226532 heartbeat IPC: 1.06828 cumulative IPC: 0.911404 (Simulation time: 1 hr 26 min 17 sec) 
Heartbeat CPU 0 instructions: 86000002 cycles: 59155811 heartbeat IPC: 1.0761 cumulative IPC: 0.915296 (Simulation time: 1 hr 27 min 27 sec) 
Heartbeat CPU 0 instructions: 87000002 cycles: 60085079 heartbeat IPC: 1.07612 cumulative IPC: 0.919007 (Simulation time: 1 hr 28 min 35 sec) 
Heartbeat CPU 0 instructions: 88000000 cycles: 61133618 heartbeat IPC: 0.953706 cumulative IPC: 0.919888 (Simulation time: 1 hr 29 min 40 sec) 
Heartbeat CPU 0 instructions: 89000002 cycles: 62230352 heartbeat IPC: 0.9118 cumulative IPC: 0.919679 (Simulation time: 1 hr 30 min 46 sec) 
Heartbeat CPU 0 instructions: 90000001 cycles: 63324113 heartbeat IPC: 0.914276 cumulative IPC: 0.919543 (Simulation time: 1 hr 31 min 52 sec) 
Heartbeat CPU 0 instructions: 91000001 cycles: 64426245 heartbeat IPC: 0.907332 cumulative IPC: 0.919241 (Simulation time: 1 hr 33 min 2 sec) 
Heartbeat CPU 0 instructions: 92000000 cycles: 65513402 heartbeat IPC: 0.919829 cumulative IPC: 0.919255 (Simulation time: 1 hr 34 min 7 sec) 
Heartbeat CPU 0 instructions: 93000001 cycles: 66602355 heartbeat IPC: 0.918314 cumulative IPC: 0.919234 (Simulation time: 1 hr 35 min 13 sec) 
Heartbeat CPU 0 instructions: 94000001 cycles: 67686468 heartbeat IPC: 0.922413 cumulative IPC: 0.919306 (Simulation time: 1 hr 36 min 29 sec) 
Heartbeat CPU 0 instructions: 95000000 cycles: 68775892 heartbeat IPC: 0.917915 cumulative IPC: 0.919275 (Simulation time: 1 hr 37 min 41 sec) 
Heartbeat CPU 0 instructions: 96000000 cycles: 69859861 heartbeat IPC: 0.922536 cumulative IPC: 0.919345 (Simulation time: 1 hr 38 min 51 sec) 
Heartbeat CPU 0 instructions: 97000002 cycles: 70944063 heartbeat IPC: 0.922339 cumulative IPC: 0.919409 (Simulation time: 1 hr 40 min 1 sec) 
Heartbeat CPU 0 instructions: 98000002 cycles: 72027609 heartbeat IPC: 0.922896 cumulative IPC: 0.919481 (Simulation time: 1 hr 41 min 16 sec) 
Heartbeat CPU 0 instructions: 99000000 cycles: 73111213 heartbeat IPC: 0.922845 cumulative IPC: 0.91955 (Simulation time: 1 hr 42 min 22 sec) 
Heartbeat CPU 0 instructions: 100000000 cycles: 74196576 heartbeat IPC: 0.921351 cumulative IPC: 0.919585 (Simulation time: 1 hr 43 min 53 sec) 
Heartbeat CPU 0 instructions: 101000000 cycles: 75283556 heartbeat IPC: 0.91998 cumulative IPC: 0.919593 (Simulation time: 1 hr 45 min 28 sec) 
Heartbeat CPU 0 instructions: 102000000 cycles: 76374633 heartbeat IPC: 0.916526 cumulative IPC: 0.919534 (Simulation time: 1 hr 46 min 44 sec) 
Heartbeat CPU 0 instructions: 103000002 cycles: 77464598 heartbeat IPC: 0.917462 cumulative IPC: 0.919495 (Simulation time: 1 hr 48 min 4 sec) 
Heartbeat CPU 0 instructions: 104000000 cycles: 78554192 heartbeat IPC: 0.917771 cumulative IPC: 0.919463 (Simulation time: 1 hr 49 min 10 sec) 
Heartbeat CPU 0 instructions: 105000003 cycles: 79648117 heartbeat IPC: 0.914142 cumulative IPC: 0.919366 (Simulation time: 1 hr 50 min 28 sec) 
Heartbeat CPU 0 instructions: 106000002 cycles: 80744302 heartbeat IPC: 0.912254 cumulative IPC: 0.919238 (Simulation time: 1 hr 51 min 33 sec) 
Heartbeat CPU 0 instructions: 107000001 cycles: 81829059 heartbeat IPC: 0.921865 cumulative IPC: 0.919284 (Simulation time: 1 hr 52 min 40 sec) 
Heartbeat CPU 0 instructions: 108000000 cycles: 82923319 heartbeat IPC: 0.913859 cumulative IPC: 0.91919 (Simulation time: 1 hr 53 min 49 sec) 
Heartbeat CPU 0 instructions: 109000001 cycles: 84018166 heartbeat IPC: 0.913371 cumulative IPC: 0.91909 (Simulation time: 1 hr 55 min 6 sec) 
Heartbeat CPU 0 instructions: 110000002 cycles: 85117713 heartbeat IPC: 0.909466 cumulative IPC: 0.918928 (Simulation time: 1 hr 56 min 27 sec) 
Heartbeat CPU 0 instructions: 111000000 cycles: 86204853 heartbeat IPC: 0.919843 cumulative IPC: 0.918943 (Simulation time: 1 hr 57 min 37 sec) 
Heartbeat CPU 0 instructions: 112000000 cycles: 87294049 heartbeat IPC: 0.918108 cumulative IPC: 0.91893 (Simulation time: 1 hr 59 min 0 sec) 
Heartbeat CPU 0 instructions: 113000002 cycles: 88384296 heartbeat IPC: 0.917225 cumulative IPC: 0.918903 (Simulation time: 2 hr 0 min 14 sec) 
Heartbeat CPU 0 instructions: 114000001 cycles: 89477300 heartbeat IPC: 0.914909 cumulative IPC: 0.91884 (Simulation time: 2 hr 1 min 24 sec) 
Heartbeat CPU 0 instructions: 115000001 cycles: 90564127 heartbeat IPC: 0.92011 cumulative IPC: 0.918859 (Simulation time: 2 hr 2 min 35 sec) 
Heartbeat CPU 0 instructions: 116000000 cycles: 91651155 heartbeat IPC: 0.919939 cumulative IPC: 0.918876 (Simulation time: 2 hr 3 min 41 sec) 
Heartbeat CPU 0 instructions: 117000001 cycles: 92737636 heartbeat IPC: 0.920404 cumulative IPC: 0.918899 (Simulation time: 2 hr 4 min 53 sec) 
Heartbeat CPU 0 instructions: 118000000 cycles: 93824145 heartbeat IPC: 0.920378 cumulative IPC: 0.91892 (Simulation time: 2 hr 6 min 16 sec) 
Heartbeat CPU 0 instructions: 119000000 cycles: 94912096 heartbeat IPC: 0.919159 cumulative IPC: 0.918924 (Simulation time: 2 hr 7 min 25 sec) 
Heartbeat CPU 0 instructions: 120000000 cycles: 96001555 heartbeat IPC: 0.917887 cumulative IPC: 0.918909 (Simulation time: 2 hr 8 min 29 sec) 
Heartbeat CPU 0 instructions: 121000000 cycles: 97090465 heartbeat IPC: 0.91835 cumulative IPC: 0.918901 (Simulation time: 2 hr 9 min 48 sec) 
Heartbeat CPU 0 instructions: 122000000 cycles: 98182267 heartbeat IPC: 0.915917 cumulative IPC: 0.918859 (Simulation time: 2 hr 11 min 4 sec) 
Heartbeat CPU 0 instructions: 123000001 cycles: 99276158 heartbeat IPC: 0.914169 cumulative IPC: 0.918795 (Simulation time: 2 hr 12 min 14 sec) 
Heartbeat CPU 0 instructions: 124000000 cycles: 100371473 heartbeat IPC: 0.912978 cumulative IPC: 0.918716 (Simulation time: 2 hr 13 min 24 sec) 
Heartbeat CPU 0 instructions: 125000002 cycles: 101463567 heartbeat IPC: 0.915674 cumulative IPC: 0.918675 (Simulation time: 2 hr 14 min 48 sec) 
Heartbeat CPU 0 instructions: 126000002 cycles: 102553215 heartbeat IPC: 0.917728 cumulative IPC: 0.918663 (Simulation time: 2 hr 15 min 51 sec) 
Heartbeat CPU 0 instructions: 127000003 cycles: 103641638 heartbeat IPC: 0.918761 cumulative IPC: 0.918664 (Simulation time: 2 hr 16 min 56 sec) 
Heartbeat CPU 0 instructions: 128000000 cycles: 104730398 heartbeat IPC: 0.918473 cumulative IPC: 0.918661 (Simulation time: 2 hr 18 min 0 sec) 
Heartbeat CPU 0 instructions: 129000001 cycles: 105818624 heartbeat IPC: 0.918928 cumulative IPC: 0.918665 (Simulation time: 2 hr 19 min 6 sec) 
Heartbeat CPU 0 instructions: 130000001 cycles: 106905666 heartbeat IPC: 0.919928 cumulative IPC: 0.918681 (Simulation time: 2 hr 20 min 9 sec) 
Heartbeat CPU 0 instructions: 131000001 cycles: 107995860 heartbeat IPC: 0.917268 cumulative IPC: 0.918663 (Simulation time: 2 hr 21 min 18 sec) 
Heartbeat CPU 0 instructions: 132000000 cycles: 109087241 heartbeat IPC: 0.916269 cumulative IPC: 0.918634 (Simulation time: 2 hr 22 min 20 sec) 
Heartbeat CPU 0 instructions: 133000002 cycles: 110191077 heartbeat IPC: 0.905933 cumulative IPC: 0.918479 (Simulation time: 2 hr 23 min 22 sec) 
Heartbeat CPU 0 instructions: 134000000 cycles: 111285634 heartbeat IPC: 0.91361 cumulative IPC: 0.91842 (Simulation time: 2 hr 24 min 26 sec) 
Heartbeat CPU 0 instructions: 135000003 cycles: 112385618 heartbeat IPC: 0.909107 cumulative IPC: 0.91831 (Simulation time: 2 hr 25 min 30 sec) 
Heartbeat CPU 0 instructions: 136000000 cycles: 113484757 heartbeat IPC: 0.9098 cumulative IPC: 0.91821 (Simulation time: 2 hr 26 min 38 sec) 
Heartbeat CPU 0 instructions: 137000001 cycles: 114582533 heartbeat IPC: 0.910934 cumulative IPC: 0.918126 (Simulation time: 2 hr 27 min 49 sec) 
Heartbeat CPU 0 instructions: 138000000 cycles: 115676239 heartbeat IPC: 0.914322 cumulative IPC: 0.918082 (Simulation time: 2 hr 28 min 52 sec) 
Heartbeat CPU 0 instructions: 139000002 cycles: 116310963 heartbeat IPC: 1.57549 cumulative IPC: 0.922407 (Simulation time: 2 hr 29 min 55 sec) 
Heartbeat CPU 0 instructions: 140000000 cycles: 116944106 heartbeat IPC: 1.57942 cumulative IPC: 0.92669 (Simulation time: 2 hr 30 min 47 sec) 
Heartbeat CPU 0 instructions: 141000000 cycles: 117576760 heartbeat IPC: 1.58064 cumulative IPC: 0.930922 (Simulation time: 2 hr 31 min 49 sec) 
Heartbeat CPU 0 instructions: 142000002 cycles: 118209527 heartbeat IPC: 1.58036 cumulative IPC: 0.935099 (Simulation time: 2 hr 32 min 46 sec) 
Heartbeat CPU 0 instructions: 143000002 cycles: 118844102 heartbeat IPC: 1.57586 cumulative IPC: 0.939206 (Simulation time: 2 hr 33 min 38 sec) 
Heartbeat CPU 0 instructions: 144000000 cycles: 119480117 heartbeat IPC: 1.57229 cumulative IPC: 0.943246 (Simulation time: 2 hr 34 min 25 sec) 
Heartbeat CPU 0 instructions: 145000001 cycles: 120114630 heartbeat IPC: 1.57601 cumulative IPC: 0.947249 (Simulation time: 2 hr 35 min 19 sec) 
Heartbeat CPU 0 instructions: 146000002 cycles: 120745541 heartbeat IPC: 1.58501 cumulative IPC: 0.951236 (Simulation time: 2 hr 36 min 2 sec) 
Heartbeat CPU 0 instructions: 147000002 cycles: 122075218 heartbeat IPC: 0.752062 cumulative IPC: 0.948646 (Simulation time: 2 hr 36 min 51 sec) 
Heartbeat CPU 0 instructions: 148000000 cycles: 122582325 heartbeat IPC: 1.97197 cumulative IPC: 0.953696 (Simulation time: 2 hr 37 min 30 sec) 
Heartbeat CPU 0 instructions: 149000000 cycles: 123087474 heartbeat IPC: 1.97961 cumulative IPC: 0.958715 (Simulation time: 2 hr 38 min 10 sec) 
Heartbeat CPU 0 instructions: 150000003 cycles: 123592115 heartbeat IPC: 1.98161 cumulative IPC: 0.96369 (Simulation time: 2 hr 38 min 49 sec) 
Finished CPU 0 instructions: 100000000 cycles: 103767860 cummulative IPC: 0.96369 (Simulation time: 2 hr 38 min 49 sec) 

ChampSim completed all CPUs

Region of Interest Statistics

CPU 0 cummulative IPC: 0.96369 instructions: 100000000 cycles: 103767860
LLC TOTAL     ACCESS:     678818  HIT:     537968  MISS:     140850
LLC LOAD      ACCESS:     201686  HIT:     200510  MISS:       1176
LLC RFO       ACCESS:      77432  HIT:      23519  MISS:      53913
LLC PREFETCH  ACCESS:     319032  HIT:     265025  MISS:      54007
LLC WRITEBACK ACCESS:      80668  HIT:      48914  MISS:      31754
Insertion Distribution: 
	LOAD 18647 0 10409 2093 
	RFO 18109 0 52660 69288 
	PREF 0 11397 37707 123416 
	WRITEBACK 0 0 0 55404 
Total Prefetch Downgrades: 20823
