
*** ChampSim Multicore Out-of-Order Simulator ***

Warmup Instructions: 50000000
Simulation Instructions: 100000000
Configuration: 2
Number of CPUs: 1
LLC sets: 2048
LLC ways: 16
Off-chip DRAM Channels: 1 Width: 64-bit Data Rate: 1600 MT/s

CPU 0 runs /datasets/cs240c-wi22-a00-public/data/Assignment2-gz/mcf_46B.trace.gz
CPU 0 L1D next line prefetcher
CPU 0 L2C IP-based stride prefetcher
Initialize SRRIP state
Heartbeat CPU 0 instructions: 1000002 cycles: 492137 heartbeat IPC: 2.03196 cumulative IPC: 2.03196 (Simulation time: 0 hr 1 min 34 sec) 
Heartbeat CPU 0 instructions: 2000002 cycles: 987079 heartbeat IPC: 2.02044 cumulative IPC: 2.02618 (Simulation time: 0 hr 2 min 59 sec) 
Heartbeat CPU 0 instructions: 3000003 cycles: 1512599 heartbeat IPC: 1.90288 cumulative IPC: 1.98334 (Simulation time: 0 hr 4 min 26 sec) 
Heartbeat CPU 0 instructions: 4000000 cycles: 2030180 heartbeat IPC: 1.93206 cumulative IPC: 1.97027 (Simulation time: 0 hr 5 min 46 sec) 
Heartbeat CPU 0 instructions: 5000000 cycles: 2523148 heartbeat IPC: 2.02853 cumulative IPC: 1.98165 (Simulation time: 0 hr 7 min 8 sec) 
Heartbeat CPU 0 instructions: 6000002 cycles: 3025829 heartbeat IPC: 1.98934 cumulative IPC: 1.98293 (Simulation time: 0 hr 8 min 32 sec) 
Heartbeat CPU 0 instructions: 7000001 cycles: 3571102 heartbeat IPC: 1.83394 cumulative IPC: 1.96018 (Simulation time: 0 hr 10 min 3 sec) 
Heartbeat CPU 0 instructions: 8000000 cycles: 4061395 heartbeat IPC: 2.03959 cumulative IPC: 1.96977 (Simulation time: 0 hr 11 min 18 sec) 
Heartbeat CPU 0 instructions: 9000001 cycles: 4544270 heartbeat IPC: 2.07093 cumulative IPC: 1.98052 (Simulation time: 0 hr 12 min 41 sec) 
Heartbeat CPU 0 instructions: 10000001 cycles: 5082850 heartbeat IPC: 1.85673 cumulative IPC: 1.9674 (Simulation time: 0 hr 14 min 5 sec) 
Heartbeat CPU 0 instructions: 11000002 cycles: 5627225 heartbeat IPC: 1.83697 cumulative IPC: 1.95478 (Simulation time: 0 hr 15 min 22 sec) 
Heartbeat CPU 0 instructions: 12000000 cycles: 6105422 heartbeat IPC: 2.09118 cumulative IPC: 1.96547 (Simulation time: 0 hr 16 min 52 sec) 
Heartbeat CPU 0 instructions: 13000000 cycles: 6600340 heartbeat IPC: 2.02054 cumulative IPC: 1.9696 (Simulation time: 0 hr 18 min 20 sec) 
Heartbeat CPU 0 instructions: 14000003 cycles: 7150075 heartbeat IPC: 1.81906 cumulative IPC: 1.95802 (Simulation time: 0 hr 19 min 59 sec) 
Heartbeat CPU 0 instructions: 15000000 cycles: 7626664 heartbeat IPC: 2.09824 cumulative IPC: 1.96678 (Simulation time: 0 hr 21 min 16 sec) 
Heartbeat CPU 0 instructions: 16000000 cycles: 8103230 heartbeat IPC: 2.09835 cumulative IPC: 1.97452 (Simulation time: 0 hr 22 min 37 sec) 
Heartbeat CPU 0 instructions: 17000002 cycles: 8651087 heartbeat IPC: 1.8253 cumulative IPC: 1.96507 (Simulation time: 0 hr 24 min 8 sec) 
Heartbeat CPU 0 instructions: 18000000 cycles: 9138293 heartbeat IPC: 2.05252 cumulative IPC: 1.96973 (Simulation time: 0 hr 25 min 26 sec) 
Heartbeat CPU 0 instructions: 19000002 cycles: 9626229 heartbeat IPC: 2.04945 cumulative IPC: 1.97377 (Simulation time: 0 hr 26 min 43 sec) 
Heartbeat CPU 0 instructions: 20000000 cycles: 10199763 heartbeat IPC: 1.74357 cumulative IPC: 1.96083 (Simulation time: 0 hr 28 min 2 sec) 
Heartbeat CPU 0 instructions: 21000001 cycles: 10750199 heartbeat IPC: 1.81674 cumulative IPC: 1.95345 (Simulation time: 0 hr 29 min 24 sec) 
Heartbeat CPU 0 instructions: 22000002 cycles: 11228295 heartbeat IPC: 2.09163 cumulative IPC: 1.95934 (Simulation time: 0 hr 30 min 51 sec) 
Heartbeat CPU 0 instructions: 23000000 cycles: 11707704 heartbeat IPC: 2.0859 cumulative IPC: 1.96452 (Simulation time: 0 hr 32 min 6 sec) 
Heartbeat CPU 0 instructions: 24000000 cycles: 12240541 heartbeat IPC: 1.87675 cumulative IPC: 1.9607 (Simulation time: 0 hr 33 min 38 sec) 
Heartbeat CPU 0 instructions: 25000002 cycles: 12741860 heartbeat IPC: 1.99474 cumulative IPC: 1.96204 (Simulation time: 0 hr 34 min 56 sec) 
Heartbeat CPU 0 instructions: 26000000 cycles: 13222151 heartbeat IPC: 2.08207 cumulative IPC: 1.9664 (Simulation time: 0 hr 36 min 17 sec) 
Heartbeat CPU 0 instructions: 27000002 cycles: 13735213 heartbeat IPC: 1.94909 cumulative IPC: 1.96575 (Simulation time: 0 hr 37 min 39 sec) 
Heartbeat CPU 0 instructions: 28000000 cycles: 14254706 heartbeat IPC: 1.92495 cumulative IPC: 1.96426 (Simulation time: 0 hr 38 min 58 sec) 
Heartbeat CPU 0 instructions: 29000001 cycles: 14732681 heartbeat IPC: 2.09216 cumulative IPC: 1.96841 (Simulation time: 0 hr 40 min 21 sec) 
Heartbeat CPU 0 instructions: 30000000 cycles: 15229118 heartbeat IPC: 2.01435 cumulative IPC: 1.96991 (Simulation time: 0 hr 41 min 40 sec) 
Heartbeat CPU 0 instructions: 31000002 cycles: 15766364 heartbeat IPC: 1.86135 cumulative IPC: 1.96621 (Simulation time: 0 hr 43 min 10 sec) 
Heartbeat CPU 0 instructions: 32000000 cycles: 16245121 heartbeat IPC: 2.08874 cumulative IPC: 1.96982 (Simulation time: 0 hr 44 min 41 sec) 
Heartbeat CPU 0 instructions: 33000000 cycles: 16749551 heartbeat IPC: 1.98244 cumulative IPC: 1.9702 (Simulation time: 0 hr 46 min 7 sec) 
Heartbeat CPU 0 instructions: 34000000 cycles: 17294989 heartbeat IPC: 1.83339 cumulative IPC: 1.96589 (Simulation time: 0 hr 47 min 30 sec) 
Heartbeat CPU 0 instructions: 35000001 cycles: 17784125 heartbeat IPC: 2.04442 cumulative IPC: 1.96805 (Simulation time: 0 hr 48 min 47 sec) 
Heartbeat CPU 0 instructions: 36000000 cycles: 18289250 heartbeat IPC: 1.97971 cumulative IPC: 1.96837 (Simulation time: 0 hr 50 min 8 sec) 
Heartbeat CPU 0 instructions: 37000002 cycles: 18806304 heartbeat IPC: 1.93404 cumulative IPC: 1.96743 (Simulation time: 0 hr 51 min 24 sec) 
Heartbeat CPU 0 instructions: 38000001 cycles: 19323707 heartbeat IPC: 1.93273 cumulative IPC: 1.9665 (Simulation time: 0 hr 52 min 54 sec) 
Heartbeat CPU 0 instructions: 39000000 cycles: 19800537 heartbeat IPC: 2.09718 cumulative IPC: 1.96964 (Simulation time: 0 hr 54 min 20 sec) 
Heartbeat CPU 0 instructions: 40000000 cycles: 20288842 heartbeat IPC: 2.0479 cumulative IPC: 1.97153 (Simulation time: 0 hr 55 min 51 sec) 
Heartbeat CPU 0 instructions: 41000000 cycles: 20831475 heartbeat IPC: 1.84287 cumulative IPC: 1.96818 (Simulation time: 0 hr 57 min 22 sec) 
Heartbeat CPU 0 instructions: 42000001 cycles: 21314475 heartbeat IPC: 2.0704 cumulative IPC: 1.97049 (Simulation time: 0 hr 58 min 52 sec) 
Heartbeat CPU 0 instructions: 43000000 cycles: 21791545 heartbeat IPC: 2.09613 cumulative IPC: 1.97324 (Simulation time: 1 hr 0 min 22 sec) 
Heartbeat CPU 0 instructions: 44000000 cycles: 22327162 heartbeat IPC: 1.86701 cumulative IPC: 1.97069 (Simulation time: 1 hr 2 min 7 sec) 
Heartbeat CPU 0 instructions: 45000001 cycles: 22822664 heartbeat IPC: 2.01816 cumulative IPC: 1.97172 (Simulation time: 1 hr 3 min 39 sec) 
Heartbeat CPU 0 instructions: 46000001 cycles: 23302112 heartbeat IPC: 2.08573 cumulative IPC: 1.97407 (Simulation time: 1 hr 4 min 53 sec) 
Heartbeat CPU 0 instructions: 47000002 cycles: 23814360 heartbeat IPC: 1.95218 cumulative IPC: 1.9736 (Simulation time: 1 hr 6 min 9 sec) 
Heartbeat CPU 0 instructions: 48000000 cycles: 24337628 heartbeat IPC: 1.91106 cumulative IPC: 1.97225 (Simulation time: 1 hr 7 min 33 sec) 
Heartbeat CPU 0 instructions: 49000000 cycles: 24820104 heartbeat IPC: 2.07264 cumulative IPC: 1.97421 (Simulation time: 1 hr 8 min 51 sec) 
Heartbeat CPU 0 instructions: 50000000 cycles: 25310725 heartbeat IPC: 2.03823 cumulative IPC: 1.97545 (Simulation time: 1 hr 10 min 7 sec) 

Warmup complete CPU 0 instructions: 50000004 cycles: 25310726 (Simulation time: 1 hr 10 min 7 sec) 

Heartbeat CPU 0 instructions: 51000001 cycles: 39983372 heartbeat IPC: 0.0681541 cumulative IPC: 0.0681538 (Simulation time: 1 hr 12 min 43 sec) 
Heartbeat CPU 0 instructions: 52000000 cycles: 44499566 heartbeat IPC: 0.221425 cumulative IPC: 0.104227 (Simulation time: 1 hr 14 min 15 sec) 
Heartbeat CPU 0 instructions: 53000000 cycles: 48568794 heartbeat IPC: 0.245747 cumulative IPC: 0.128987 (Simulation time: 1 hr 15 min 50 sec) 
Heartbeat CPU 0 instructions: 54000002 cycles: 64375473 heartbeat IPC: 0.0632645 cumulative IPC: 0.102394 (Simulation time: 1 hr 18 min 43 sec) 
Heartbeat CPU 0 instructions: 55000002 cycles: 69514801 heartbeat IPC: 0.194578 cumulative IPC: 0.113112 (Simulation time: 1 hr 20 min 37 sec) 
Heartbeat CPU 0 instructions: 56000000 cycles: 73719358 heartbeat IPC: 0.237837 cumulative IPC: 0.123945 (Simulation time: 1 hr 22 min 25 sec) 
Heartbeat CPU 0 instructions: 57000000 cycles: 87325846 heartbeat IPC: 0.0734944 cumulative IPC: 0.112876 (Simulation time: 1 hr 25 min 11 sec) 
Heartbeat CPU 0 instructions: 58000000 cycles: 94931084 heartbeat IPC: 0.131488 cumulative IPC: 0.114909 (Simulation time: 1 hr 27 min 14 sec) 
Heartbeat CPU 0 instructions: 59000002 cycles: 99080953 heartbeat IPC: 0.240972 cumulative IPC: 0.122 (Simulation time: 1 hr 28 min 50 sec) 
Heartbeat CPU 0 instructions: 60000000 cycles: 110867383 heartbeat IPC: 0.0848432 cumulative IPC: 0.116882 (Simulation time: 1 hr 31 min 9 sec) 
Heartbeat CPU 0 instructions: 61000002 cycles: 120459518 heartbeat IPC: 0.104252 cumulative IPC: 0.115608 (Simulation time: 1 hr 33 min 20 sec) 
Heartbeat CPU 0 instructions: 62000001 cycles: 124608263 heartbeat IPC: 0.241037 cumulative IPC: 0.120849 (Simulation time: 1 hr 35 min 4 sec) 
Heartbeat CPU 0 instructions: 63000001 cycles: 134624518 heartbeat IPC: 0.0998377 cumulative IPC: 0.118924 (Simulation time: 1 hr 37 min 34 sec) 
Heartbeat CPU 0 instructions: 64000000 cycles: 146385132 heartbeat IPC: 0.0850295 cumulative IPC: 0.115631 (Simulation time: 1 hr 40 min 25 sec) 
Heartbeat CPU 0 instructions: 65000002 cycles: 151640304 heartbeat IPC: 0.190289 cumulative IPC: 0.118737 (Simulation time: 1 hr 41 min 59 sec) 
Heartbeat CPU 0 instructions: 66000000 cycles: 157848477 heartbeat IPC: 0.161078 cumulative IPC: 0.12072 (Simulation time: 1 hr 43 min 45 sec) 
Heartbeat CPU 0 instructions: 67000002 cycles: 173992372 heartbeat IPC: 0.061943 cumulative IPC: 0.114338 (Simulation time: 1 hr 46 min 30 sec) 
Heartbeat CPU 0 instructions: 68000000 cycles: 178422003 heartbeat IPC: 0.225752 cumulative IPC: 0.117562 (Simulation time: 1 hr 48 min 5 sec) 
Heartbeat CPU 0 instructions: 69000000 cycles: 182417877 heartbeat IPC: 0.250258 cumulative IPC: 0.120937 (Simulation time: 1 hr 50 min 1 sec) 
Heartbeat CPU 0 instructions: 70000001 cycles: 196734026 heartbeat IPC: 0.0698513 cumulative IPC: 0.11667 (Simulation time: 1 hr 52 min 45 sec) 
Heartbeat CPU 0 instructions: 71000002 cycles: 205017514 heartbeat IPC: 0.120722 cumulative IPC: 0.116857 (Simulation time: 1 hr 54 min 43 sec) 
Heartbeat CPU 0 instructions: 72000000 cycles: 209788115 heartbeat IPC: 0.209617 cumulative IPC: 0.119256 (Simulation time: 1 hr 56 min 18 sec) 
Heartbeat CPU 0 instructions: 73000002 cycles: 218805575 heartbeat IPC: 0.110896 cumulative IPC: 0.118866 (Simulation time: 1 hr 58 min 18 sec) 
Heartbeat CPU 0 instructions: 74000001 cycles: 230891219 heartbeat IPC: 0.0827427 cumulative IPC: 0.116743 (Simulation time: 2 hr 0 min 33 sec) 
Heartbeat CPU 0 instructions: 75000001 cycles: 235330601 heartbeat IPC: 0.225257 cumulative IPC: 0.119036 (Simulation time: 2 hr 2 min 23 sec) 
Heartbeat CPU 0 instructions: 76000000 cycles: 241246514 heartbeat IPC: 0.169035 cumulative IPC: 0.120406 (Simulation time: 2 hr 4 min 11 sec) 
Heartbeat CPU 0 instructions: 77000001 cycles: 257346985 heartbeat IPC: 0.06211 cumulative IPC: 0.116361 (Simulation time: 2 hr 6 min 54 sec) 
Heartbeat CPU 0 instructions: 78000002 cycles: 262074706 heartbeat IPC: 0.211519 cumulative IPC: 0.118261 (Simulation time: 2 hr 8 min 41 sec) 
Heartbeat CPU 0 instructions: 79000001 cycles: 266344726 heartbeat IPC: 0.234191 cumulative IPC: 0.120315 (Simulation time: 2 hr 10 min 17 sec) 
Heartbeat CPU 0 instructions: 80000000 cycles: 279774808 heartbeat IPC: 0.0744596 cumulative IPC: 0.117895 (Simulation time: 2 hr 12 min 48 sec) 
Heartbeat CPU 0 instructions: 81000000 cycles: 287168295 heartbeat IPC: 0.135254 cumulative IPC: 0.118385 (Simulation time: 2 hr 14 min 42 sec) 
Heartbeat CPU 0 instructions: 82000000 cycles: 291931639 heartbeat IPC: 0.209937 cumulative IPC: 0.120021 (Simulation time: 2 hr 16 min 9 sec) 
Heartbeat CPU 0 instructions: 83000001 cycles: 301549313 heartbeat IPC: 0.103975 cumulative IPC: 0.119462 (Simulation time: 2 hr 18 min 14 sec) 
Heartbeat CPU 0 instructions: 84000000 cycles: 313063533 heartbeat IPC: 0.086849 cumulative IPC: 0.118157 (Simulation time: 2 hr 20 min 42 sec) 
Heartbeat CPU 0 instructions: 85000001 cycles: 317234845 heartbeat IPC: 0.239733 cumulative IPC: 0.119894 (Simulation time: 2 hr 22 min 9 sec) 
Heartbeat CPU 0 instructions: 86000000 cycles: 325052757 heartbeat IPC: 0.127911 cumulative IPC: 0.120103 (Simulation time: 2 hr 23 min 40 sec) 
Heartbeat CPU 0 instructions: 87000000 cycles: 340007128 heartbeat IPC: 0.0668701 cumulative IPC: 0.117574 (Simulation time: 2 hr 26 min 2 sec) 
Heartbeat CPU 0 instructions: 88000000 cycles: 346089723 heartbeat IPC: 0.164404 cumulative IPC: 0.118462 (Simulation time: 2 hr 27 min 34 sec) 
Heartbeat CPU 0 instructions: 89000000 cycles: 350167385 heartbeat IPC: 0.245239 cumulative IPC: 0.120053 (Simulation time: 2 hr 28 min 57 sec) 
Heartbeat CPU 0 instructions: 90000003 cycles: 362178689 heartbeat IPC: 0.0832552 cumulative IPC: 0.118741 (Simulation time: 2 hr 30 min 37 sec) 
Heartbeat CPU 0 instructions: 91000000 cycles: 371323575 heartbeat IPC: 0.10935 cumulative IPC: 0.118493 (Simulation time: 2 hr 32 min 5 sec) 
Heartbeat CPU 0 instructions: 92000000 cycles: 375488722 heartbeat IPC: 0.240088 cumulative IPC: 0.119939 (Simulation time: 2 hr 33 min 11 sec) 
Heartbeat CPU 0 instructions: 93000002 cycles: 384430983 heartbeat IPC: 0.111829 cumulative IPC: 0.119737 (Simulation time: 2 hr 34 min 37 sec) 
Heartbeat CPU 0 instructions: 94000002 cycles: 396515850 heartbeat IPC: 0.0827481 cumulative IPC: 0.118533 (Simulation time: 2 hr 36 min 28 sec) 
Heartbeat CPU 0 instructions: 95000000 cycles: 402212197 heartbeat IPC: 0.175551 cumulative IPC: 0.119395 (Simulation time: 2 hr 37 min 48 sec) 
Heartbeat CPU 0 instructions: 96000000 cycles: 407715117 heartbeat IPC: 0.181722 cumulative IPC: 0.120291 (Simulation time: 2 hr 38 min 58 sec) 
Heartbeat CPU 0 instructions: 97000000 cycles: 423190108 heartbeat IPC: 0.0646204 cumulative IPC: 0.118126 (Simulation time: 2 hr 40 min 36 sec) 
Heartbeat CPU 0 instructions: 98000002 cycles: 427833238 heartbeat IPC: 0.215372 cumulative IPC: 0.119248 (Simulation time: 2 hr 41 min 38 sec) 
Heartbeat CPU 0 instructions: 99000002 cycles: 432399735 heartbeat IPC: 0.218986 cumulative IPC: 0.120367 (Simulation time: 2 hr 42 min 42 sec) 
Heartbeat CPU 0 instructions: 100000000 cycles: 446860751 heartbeat IPC: 0.0691513 cumulative IPC: 0.11861 (Simulation time: 2 hr 44 min 6 sec) 
Heartbeat CPU 0 instructions: 101000000 cycles: 453697752 heartbeat IPC: 0.146263 cumulative IPC: 0.119051 (Simulation time: 2 hr 45 min 12 sec) 
Heartbeat CPU 0 instructions: 102000003 cycles: 457814829 heartbeat IPC: 0.242892 cumulative IPC: 0.12023 (Simulation time: 2 hr 46 min 7 sec) 
Heartbeat CPU 0 instructions: 103000003 cycles: 469965320 heartbeat IPC: 0.0823012 cumulative IPC: 0.119194 (Simulation time: 2 hr 47 min 18 sec) 
Heartbeat CPU 0 instructions: 104000000 cycles: 481179396 heartbeat IPC: 0.0891734 cumulative IPC: 0.118455 (Simulation time: 2 hr 48 min 31 sec) 
Heartbeat CPU 0 instructions: 105000000 cycles: 485854982 heartbeat IPC: 0.213877 cumulative IPC: 0.119424 (Simulation time: 2 hr 49 min 23 sec) 
Heartbeat CPU 0 instructions: 106000000 cycles: 489916206 heartbeat IPC: 0.246231 cumulative IPC: 0.120532 (Simulation time: 2 hr 50 min 10 sec) 
Heartbeat CPU 0 instructions: 107000002 cycles: 505753434 heartbeat IPC: 0.0631425 cumulative IPC: 0.118641 (Simulation time: 2 hr 51 min 23 sec) 
Heartbeat CPU 0 instructions: 108000000 cycles: 510994213 heartbeat IPC: 0.190811 cumulative IPC: 0.119419 (Simulation time: 2 hr 52 min 19 sec) 
Heartbeat CPU 0 instructions: 109000001 cycles: 515224543 heartbeat IPC: 0.236388 cumulative IPC: 0.120429 (Simulation time: 2 hr 53 min 3 sec) 
Heartbeat CPU 0 instructions: 110000002 cycles: 524985113 heartbeat IPC: 0.102453 cumulative IPC: 0.120078 (Simulation time: 2 hr 53 min 59 sec) 
Heartbeat CPU 0 instructions: 111000003 cycles: 536273870 heartbeat IPC: 0.0885838 cumulative IPC: 0.119382 (Simulation time: 2 hr 54 min 51 sec) 
Heartbeat CPU 0 instructions: 112000000 cycles: 540271768 heartbeat IPC: 0.250131 cumulative IPC: 0.120397 (Simulation time: 2 hr 55 min 28 sec) 
Heartbeat CPU 0 instructions: 113000000 cycles: 547746267 heartbeat IPC: 0.133788 cumulative IPC: 0.120589 (Simulation time: 2 hr 56 min 9 sec) 
Heartbeat CPU 0 instructions: 114000000 cycles: 561711582 heartbeat IPC: 0.071606 cumulative IPC: 0.119314 (Simulation time: 2 hr 56 min 57 sec) 
Heartbeat CPU 0 instructions: 115000000 cycles: 569359178 heartbeat IPC: 0.13076 cumulative IPC: 0.119475 (Simulation time: 2 hr 57 min 38 sec) 
Heartbeat CPU 0 instructions: 116000000 cycles: 573330879 heartbeat IPC: 0.251781 cumulative IPC: 0.120434 (Simulation time: 2 hr 58 min 12 sec) 
Heartbeat CPU 0 instructions: 117000000 cycles: 583749128 heartbeat IPC: 0.0959854 cumulative IPC: 0.119977 (Simulation time: 2 hr 58 min 51 sec) 
Heartbeat CPU 0 instructions: 118000000 cycles: 594290609 heartbeat IPC: 0.0948633 cumulative IPC: 0.119512 (Simulation time: 2 hr 59 min 28 sec) 
Heartbeat CPU 0 instructions: 119000000 cycles: 598405589 heartbeat IPC: 0.243015 cumulative IPC: 0.120399 (Simulation time: 2 hr 59 min 53 sec) 
Heartbeat CPU 0 instructions: 120000000 cycles: 604837146 heartbeat IPC: 0.155483 cumulative IPC: 0.120788 (Simulation time: 3 hr 0 min 20 sec) 
Heartbeat CPU 0 instructions: 121000000 cycles: 619202407 heartbeat IPC: 0.0696124 cumulative IPC: 0.11955 (Simulation time: 3 hr 0 min 52 sec) 
Heartbeat CPU 0 instructions: 122000001 cycles: 623303839 heartbeat IPC: 0.243818 cumulative IPC: 0.120403 (Simulation time: 3 hr 1 min 9 sec) 
Heartbeat CPU 0 instructions: 123000000 cycles: 627422189 heartbeat IPC: 0.242815 cumulative IPC: 0.12124 (Simulation time: 3 hr 1 min 24 sec) 
Heartbeat CPU 0 instructions: 124000000 cycles: 642611353 heartbeat IPC: 0.0658364 cumulative IPC: 0.119877 (Simulation time: 3 hr 1 min 48 sec) 
Heartbeat CPU 0 instructions: 125000000 cycles: 648422712 heartbeat IPC: 0.172077 cumulative IPC: 0.120364 (Simulation time: 3 hr 2 min 3 sec) 
Heartbeat CPU 0 instructions: 126000000 cycles: 652481028 heartbeat IPC: 0.246408 cumulative IPC: 0.121179 (Simulation time: 3 hr 2 min 14 sec) 
Heartbeat CPU 0 instructions: 127000002 cycles: 664791624 heartbeat IPC: 0.081231 cumulative IPC: 0.12041 (Simulation time: 3 hr 2 min 30 sec) 
Heartbeat CPU 0 instructions: 128000000 cycles: 673504826 heartbeat IPC: 0.114768 cumulative IPC: 0.120334 (Simulation time: 3 hr 2 min 44 sec) 
Heartbeat CPU 0 instructions: 129000000 cycles: 677550834 heartbeat IPC: 0.247157 cumulative IPC: 0.121121 (Simulation time: 3 hr 2 min 55 sec) 
Heartbeat CPU 0 instructions: 130000000 cycles: 686242864 heartbeat IPC: 0.115048 cumulative IPC: 0.121041 (Simulation time: 3 hr 3 min 8 sec) 
Heartbeat CPU 0 instructions: 131000000 cycles: 699336983 heartbeat IPC: 0.0763702 cumulative IPC: 0.120173 (Simulation time: 3 hr 3 min 22 sec) 
Heartbeat CPU 0 instructions: 132000000 cycles: 704190522 heartbeat IPC: 0.206035 cumulative IPC: 0.120787 (Simulation time: 3 hr 3 min 30 sec) 
Heartbeat CPU 0 instructions: 133000002 cycles: 708755667 heartbeat IPC: 0.219052 cumulative IPC: 0.121444 (Simulation time: 3 hr 3 min 39 sec) 
Heartbeat CPU 0 instructions: 134000001 cycles: 724865638 heartbeat IPC: 0.0620733 cumulative IPC: 0.120076 (Simulation time: 3 hr 3 min 51 sec) 
Heartbeat CPU 0 instructions: 135000001 cycles: 729191942 heartbeat IPC: 0.231144 cumulative IPC: 0.120759 (Simulation time: 3 hr 3 min 58 sec) 
Heartbeat CPU 0 instructions: 136000000 cycles: 737417884 heartbeat IPC: 0.121567 cumulative IPC: 0.120768 (Simulation time: 3 hr 4 min 4 sec) 
Heartbeat CPU 0 instructions: 137000000 cycles: 747589709 heartbeat IPC: 0.0983108 cumulative IPC: 0.120452 (Simulation time: 3 hr 4 min 12 sec) 
Heartbeat CPU 0 instructions: 138000001 cycles: 758831268 heartbeat IPC: 0.0889557 cumulative IPC: 0.119969 (Simulation time: 3 hr 4 min 20 sec) 
Heartbeat CPU 0 instructions: 139000002 cycles: 762974118 heartbeat IPC: 0.24138 cumulative IPC: 0.120651 (Simulation time: 3 hr 4 min 25 sec) 
Heartbeat CPU 0 instructions: 140000000 cycles: 769074094 heartbeat IPC: 0.163935 cumulative IPC: 0.121006 (Simulation time: 3 hr 4 min 32 sec) 
Heartbeat CPU 0 instructions: 141000002 cycles: 783575349 heartbeat IPC: 0.0689597 cumulative IPC: 0.120011 (Simulation time: 3 hr 4 min 40 sec) 
Heartbeat CPU 0 instructions: 142000002 cycles: 787578611 heartbeat IPC: 0.249796 cumulative IPC: 0.120692 (Simulation time: 3 hr 4 min 46 sec) 
Heartbeat CPU 0 instructions: 143000002 cycles: 791367504 heartbeat IPC: 0.263929 cumulative IPC: 0.121401 (Simulation time: 3 hr 4 min 52 sec) 
Heartbeat CPU 0 instructions: 144000000 cycles: 806730165 heartbeat IPC: 0.0650928 cumulative IPC: 0.120294 (Simulation time: 3 hr 5 min 1 sec) 
Heartbeat CPU 0 instructions: 145000001 cycles: 811914199 heartbeat IPC: 0.1929 cumulative IPC: 0.120772 (Simulation time: 3 hr 5 min 7 sec) 
Heartbeat CPU 0 instructions: 146000001 cycles: 815919468 heartbeat IPC: 0.249671 cumulative IPC: 0.121425 (Simulation time: 3 hr 5 min 13 sec) 
Heartbeat CPU 0 instructions: 147000000 cycles: 829347247 heartbeat IPC: 0.0744724 cumulative IPC: 0.120641 (Simulation time: 3 hr 5 min 22 sec) 
Heartbeat CPU 0 instructions: 148000000 cycles: 836975362 heartbeat IPC: 0.131094 cumulative IPC: 0.12074 (Simulation time: 3 hr 5 min 30 sec) 
Heartbeat CPU 0 instructions: 149000000 cycles: 841066113 heartbeat IPC: 0.244454 cumulative IPC: 0.12136 (Simulation time: 3 hr 5 min 36 sec) 
Heartbeat CPU 0 instructions: 150000000 cycles: 852112929 heartbeat IPC: 0.0905238 cumulative IPC: 0.120948 (Simulation time: 3 hr 5 min 44 sec) 
Finished CPU 0 instructions: 100000000 cycles: 826802370 cummulative IPC: 0.120948 (Simulation time: 3 hr 5 min 44 sec) 

ChampSim completed all CPUs

Region of Interest Statistics

CPU 0 cummulative IPC: 0.120948 instructions: 100000000 cycles: 826802370
LLC TOTAL     ACCESS:   18805803  HIT:    8264211  MISS:   10541592
LLC LOAD      ACCESS:    8509383  HIT:    4416554  MISS:    4092829
LLC RFO       ACCESS:     210475  HIT:      69555  MISS:     140920
LLC PREFETCH  ACCESS:    7991203  HIT:    2089492  MISS:    5901711
LLC WRITEBACK ACCESS:    2094742  HIT:    1688610  MISS:     406132
Insertion Distribution: 
	LOAD 1138480 0 812206 3826991 
	RFO 108996 0 76292 21990 
	PREF 0 1982422 1155655 5967279 
	WRITEBACK 0 0 0 646428 
Total Prefetch Downgrades: 1604912
