
*** ChampSim Multicore Out-of-Order Simulator ***

Warmup Instructions: 50000000
Simulation Instructions: 100000000
Configuration: 2
Number of CPUs: 1
LLC sets: 2048
LLC ways: 16
Off-chip DRAM Channels: 1 Width: 64-bit Data Rate: 1600 MT/s

CPU 0 runs /datasets/cs240c-wi22-a00-public/data/Assignment2-gz/gcc_13B.trace.gz
CPU 0 L1D next line prefetcher
CPU 0 L2C IP-based stride prefetcher
Initialize SRRIP state
Heartbeat CPU 0 instructions: 1000000 cycles: 633320 heartbeat IPC: 1.57898 cumulative IPC: 1.57898 (Simulation time: 0 hr 1 min 35 sec) 
Heartbeat CPU 0 instructions: 2000001 cycles: 1243585 heartbeat IPC: 1.63863 cumulative IPC: 1.60825 (Simulation time: 0 hr 2 min 53 sec) 
Heartbeat CPU 0 instructions: 3000001 cycles: 1717445 heartbeat IPC: 2.11033 cumulative IPC: 1.74678 (Simulation time: 0 hr 4 min 10 sec) 
Heartbeat CPU 0 instructions: 4000000 cycles: 2190983 heartbeat IPC: 2.11176 cumulative IPC: 1.82566 (Simulation time: 0 hr 5 min 25 sec) 
Heartbeat CPU 0 instructions: 5000002 cycles: 2665030 heartbeat IPC: 2.1095 cumulative IPC: 1.87615 (Simulation time: 0 hr 6 min 47 sec) 
Heartbeat CPU 0 instructions: 6000002 cycles: 3138855 heartbeat IPC: 2.11048 cumulative IPC: 1.91153 (Simulation time: 0 hr 8 min 9 sec) 
Heartbeat CPU 0 instructions: 7000001 cycles: 3614186 heartbeat IPC: 2.1038 cumulative IPC: 1.93681 (Simulation time: 0 hr 9 min 18 sec) 
Heartbeat CPU 0 instructions: 8000000 cycles: 4090601 heartbeat IPC: 2.09901 cumulative IPC: 1.9557 (Simulation time: 0 hr 10 min 38 sec) 
Heartbeat CPU 0 instructions: 9000001 cycles: 4831611 heartbeat IPC: 1.34951 cumulative IPC: 1.86273 (Simulation time: 0 hr 12 min 2 sec) 
Heartbeat CPU 0 instructions: 10000001 cycles: 5535999 heartbeat IPC: 1.41967 cumulative IPC: 1.80636 (Simulation time: 0 hr 13 min 25 sec) 
Heartbeat CPU 0 instructions: 11000002 cycles: 6156345 heartbeat IPC: 1.61201 cumulative IPC: 1.78677 (Simulation time: 0 hr 14 min 43 sec) 
Heartbeat CPU 0 instructions: 12000000 cycles: 6769643 heartbeat IPC: 1.63053 cumulative IPC: 1.77262 (Simulation time: 0 hr 16 min 12 sec) 
Heartbeat CPU 0 instructions: 13000000 cycles: 7375749 heartbeat IPC: 1.64988 cumulative IPC: 1.76253 (Simulation time: 0 hr 17 min 28 sec) 
Heartbeat CPU 0 instructions: 14000000 cycles: 8015257 heartbeat IPC: 1.5637 cumulative IPC: 1.74667 (Simulation time: 0 hr 18 min 43 sec) 
Heartbeat CPU 0 instructions: 15000001 cycles: 8614264 heartbeat IPC: 1.66943 cumulative IPC: 1.7413 (Simulation time: 0 hr 19 min 56 sec) 
Heartbeat CPU 0 instructions: 16000000 cycles: 9087164 heartbeat IPC: 2.11461 cumulative IPC: 1.76073 (Simulation time: 0 hr 21 min 14 sec) 
Heartbeat CPU 0 instructions: 17000000 cycles: 9560608 heartbeat IPC: 2.11218 cumulative IPC: 1.77813 (Simulation time: 0 hr 22 min 32 sec) 
Heartbeat CPU 0 instructions: 18000000 cycles: 10034020 heartbeat IPC: 2.11232 cumulative IPC: 1.7939 (Simulation time: 0 hr 23 min 46 sec) 
Heartbeat CPU 0 instructions: 19000002 cycles: 10507493 heartbeat IPC: 2.11206 cumulative IPC: 1.80823 (Simulation time: 0 hr 24 min 54 sec) 
Heartbeat CPU 0 instructions: 20000000 cycles: 10983017 heartbeat IPC: 2.10294 cumulative IPC: 1.82099 (Simulation time: 0 hr 26 min 11 sec) 
Heartbeat CPU 0 instructions: 21000001 cycles: 11463441 heartbeat IPC: 2.0815 cumulative IPC: 1.83191 (Simulation time: 0 hr 27 min 19 sec) 
Heartbeat CPU 0 instructions: 22000000 cycles: 12200374 heartbeat IPC: 1.35697 cumulative IPC: 1.80322 (Simulation time: 0 hr 28 min 48 sec) 
Heartbeat CPU 0 instructions: 23000002 cycles: 12897846 heartbeat IPC: 1.43375 cumulative IPC: 1.78324 (Simulation time: 0 hr 30 min 10 sec) 
Heartbeat CPU 0 instructions: 24000000 cycles: 13517919 heartbeat IPC: 1.61271 cumulative IPC: 1.77542 (Simulation time: 0 hr 31 min 36 sec) 
Heartbeat CPU 0 instructions: 25000000 cycles: 14132969 heartbeat IPC: 1.62588 cumulative IPC: 1.76891 (Simulation time: 0 hr 33 min 3 sec) 
Heartbeat CPU 0 instructions: 26000002 cycles: 14740141 heartbeat IPC: 1.64698 cumulative IPC: 1.76389 (Simulation time: 0 hr 34 min 18 sec) 
Heartbeat CPU 0 instructions: 27000001 cycles: 15390729 heartbeat IPC: 1.53707 cumulative IPC: 1.7543 (Simulation time: 0 hr 35 min 42 sec) 
Heartbeat CPU 0 instructions: 28000000 cycles: 15973121 heartbeat IPC: 1.71705 cumulative IPC: 1.75294 (Simulation time: 0 hr 36 min 56 sec) 
Heartbeat CPU 0 instructions: 29000001 cycles: 16446364 heartbeat IPC: 2.11308 cumulative IPC: 1.76331 (Simulation time: 0 hr 38 min 13 sec) 
Heartbeat CPU 0 instructions: 30000000 cycles: 16919610 heartbeat IPC: 2.11306 cumulative IPC: 1.77309 (Simulation time: 0 hr 39 min 25 sec) 
Heartbeat CPU 0 instructions: 31000000 cycles: 17393233 heartbeat IPC: 2.11138 cumulative IPC: 1.7823 (Simulation time: 0 hr 40 min 38 sec) 
Heartbeat CPU 0 instructions: 32000000 cycles: 17866812 heartbeat IPC: 2.11158 cumulative IPC: 1.79103 (Simulation time: 0 hr 41 min 47 sec) 
Heartbeat CPU 0 instructions: 33000002 cycles: 18342186 heartbeat IPC: 2.10361 cumulative IPC: 1.79913 (Simulation time: 0 hr 43 min 5 sec) 
Heartbeat CPU 0 instructions: 34000001 cycles: 18815021 heartbeat IPC: 2.1149 cumulative IPC: 1.80707 (Simulation time: 0 hr 44 min 18 sec) 
Heartbeat CPU 0 instructions: 35000000 cycles: 19459867 heartbeat IPC: 1.55076 cumulative IPC: 1.79857 (Simulation time: 0 hr 45 min 45 sec) 
Heartbeat CPU 0 instructions: 36000000 cycles: 20144944 heartbeat IPC: 1.45969 cumulative IPC: 1.78705 (Simulation time: 0 hr 46 min 58 sec) 
Heartbeat CPU 0 instructions: 37000003 cycles: 20830135 heartbeat IPC: 1.45945 cumulative IPC: 1.77627 (Simulation time: 0 hr 48 min 21 sec) 
Heartbeat CPU 0 instructions: 38000000 cycles: 21515653 heartbeat IPC: 1.45875 cumulative IPC: 1.76616 (Simulation time: 0 hr 49 min 40 sec) 
Heartbeat CPU 0 instructions: 39000002 cycles: 22200608 heartbeat IPC: 1.45995 cumulative IPC: 1.75671 (Simulation time: 0 hr 50 min 55 sec) 
Heartbeat CPU 0 instructions: 40000000 cycles: 22886086 heartbeat IPC: 1.45883 cumulative IPC: 1.74779 (Simulation time: 0 hr 52 min 13 sec) 
Heartbeat CPU 0 instructions: 41000000 cycles: 23571340 heartbeat IPC: 1.45931 cumulative IPC: 1.7394 (Simulation time: 0 hr 53 min 36 sec) 
Heartbeat CPU 0 instructions: 42000000 cycles: 24255999 heartbeat IPC: 1.46058 cumulative IPC: 1.73153 (Simulation time: 0 hr 54 min 54 sec) 
Heartbeat CPU 0 instructions: 43000002 cycles: 24941056 heartbeat IPC: 1.45974 cumulative IPC: 1.72407 (Simulation time: 0 hr 56 min 19 sec) 
Heartbeat CPU 0 instructions: 44000000 cycles: 25626129 heartbeat IPC: 1.4597 cumulative IPC: 1.717 (Simulation time: 0 hr 57 min 43 sec) 
Heartbeat CPU 0 instructions: 45000000 cycles: 26311878 heartbeat IPC: 1.45826 cumulative IPC: 1.71025 (Simulation time: 0 hr 59 min 9 sec) 
Heartbeat CPU 0 instructions: 46000002 cycles: 26997130 heartbeat IPC: 1.45932 cumulative IPC: 1.70388 (Simulation time: 1 hr 0 min 35 sec) 
Heartbeat CPU 0 instructions: 47000001 cycles: 27681822 heartbeat IPC: 1.46051 cumulative IPC: 1.69787 (Simulation time: 1 hr 2 min 12 sec) 
Heartbeat CPU 0 instructions: 48000000 cycles: 28366111 heartbeat IPC: 1.46137 cumulative IPC: 1.69216 (Simulation time: 1 hr 3 min 31 sec) 
Heartbeat CPU 0 instructions: 49000000 cycles: 29051311 heartbeat IPC: 1.45943 cumulative IPC: 1.68667 (Simulation time: 1 hr 4 min 52 sec) 
Heartbeat CPU 0 instructions: 50000003 cycles: 29735611 heartbeat IPC: 1.46135 cumulative IPC: 1.68149 (Simulation time: 1 hr 6 min 10 sec) 

Warmup complete CPU 0 instructions: 50000003 cycles: 29735611 (Simulation time: 1 hr 6 min 10 sec) 

Heartbeat CPU 0 instructions: 51000001 cycles: 33315127 heartbeat IPC: 0.279367 cumulative IPC: 0.279367 (Simulation time: 1 hr 7 min 29 sec) 
Heartbeat CPU 0 instructions: 52000000 cycles: 36880522 heartbeat IPC: 0.280474 cumulative IPC: 0.279919 (Simulation time: 1 hr 8 min 44 sec) 
Heartbeat CPU 0 instructions: 53000001 cycles: 40461163 heartbeat IPC: 0.27928 cumulative IPC: 0.279706 (Simulation time: 1 hr 10 min 1 sec) 
Heartbeat CPU 0 instructions: 54000000 cycles: 44035425 heartbeat IPC: 0.279778 cumulative IPC: 0.279724 (Simulation time: 1 hr 11 min 17 sec) 
Heartbeat CPU 0 instructions: 55000000 cycles: 47619032 heartbeat IPC: 0.279048 cumulative IPC: 0.279588 (Simulation time: 1 hr 12 min 33 sec) 
Heartbeat CPU 0 instructions: 56000000 cycles: 51192235 heartbeat IPC: 0.279861 cumulative IPC: 0.279634 (Simulation time: 1 hr 13 min 59 sec) 
Heartbeat CPU 0 instructions: 57000002 cycles: 54732403 heartbeat IPC: 0.282473 cumulative IPC: 0.280036 (Simulation time: 1 hr 15 min 24 sec) 
Heartbeat CPU 0 instructions: 58000001 cycles: 58278413 heartbeat IPC: 0.282007 cumulative IPC: 0.280281 (Simulation time: 1 hr 16 min 45 sec) 
Heartbeat CPU 0 instructions: 59000003 cycles: 61796811 heartbeat IPC: 0.284221 cumulative IPC: 0.280713 (Simulation time: 1 hr 18 min 2 sec) 
Heartbeat CPU 0 instructions: 60000000 cycles: 65312188 heartbeat IPC: 0.284464 cumulative IPC: 0.281084 (Simulation time: 1 hr 19 min 18 sec) 
Heartbeat CPU 0 instructions: 61000000 cycles: 68823498 heartbeat IPC: 0.284794 cumulative IPC: 0.281417 (Simulation time: 1 hr 20 min 35 sec) 
Heartbeat CPU 0 instructions: 62000003 cycles: 72331335 heartbeat IPC: 0.285077 cumulative IPC: 0.281718 (Simulation time: 1 hr 21 min 55 sec) 
Heartbeat CPU 0 instructions: 63000001 cycles: 75841665 heartbeat IPC: 0.284873 cumulative IPC: 0.281959 (Simulation time: 1 hr 23 min 15 sec) 
Heartbeat CPU 0 instructions: 64000000 cycles: 79371226 heartbeat IPC: 0.283321 cumulative IPC: 0.282055 (Simulation time: 1 hr 24 min 33 sec) 
Heartbeat CPU 0 instructions: 65000000 cycles: 82941784 heartbeat IPC: 0.280068 cumulative IPC: 0.281922 (Simulation time: 1 hr 25 min 50 sec) 
Heartbeat CPU 0 instructions: 66000000 cycles: 86511923 heartbeat IPC: 0.280101 cumulative IPC: 0.281808 (Simulation time: 1 hr 27 min 8 sec) 
Heartbeat CPU 0 instructions: 67000001 cycles: 90238609 heartbeat IPC: 0.268335 cumulative IPC: 0.280978 (Simulation time: 1 hr 28 min 46 sec) 
Heartbeat CPU 0 instructions: 68000000 cycles: 94036255 heartbeat IPC: 0.263321 cumulative IPC: 0.279935 (Simulation time: 1 hr 30 min 11 sec) 
Heartbeat CPU 0 instructions: 69000003 cycles: 97835923 heartbeat IPC: 0.263182 cumulative IPC: 0.279 (Simulation time: 1 hr 31 min 34 sec) 
Heartbeat CPU 0 instructions: 70000000 cycles: 101665005 heartbeat IPC: 0.261158 cumulative IPC: 0.27805 (Simulation time: 1 hr 33 min 0 sec) 
Heartbeat CPU 0 instructions: 71000002 cycles: 105284714 heartbeat IPC: 0.276266 cumulative IPC: 0.277965 (Simulation time: 1 hr 34 min 23 sec) 
Heartbeat CPU 0 instructions: 72000000 cycles: 108884846 heartbeat IPC: 0.277767 cumulative IPC: 0.277956 (Simulation time: 1 hr 35 min 48 sec) 
Heartbeat CPU 0 instructions: 73000003 cycles: 112483010 heartbeat IPC: 0.27792 cumulative IPC: 0.277954 (Simulation time: 1 hr 37 min 24 sec) 
Heartbeat CPU 0 instructions: 74000000 cycles: 116104715 heartbeat IPC: 0.276112 cumulative IPC: 0.277877 (Simulation time: 1 hr 38 min 59 sec) 
Heartbeat CPU 0 instructions: 75000000 cycles: 119723977 heartbeat IPC: 0.276299 cumulative IPC: 0.277814 (Simulation time: 1 hr 40 min 39 sec) 
Heartbeat CPU 0 instructions: 76000000 cycles: 123359262 heartbeat IPC: 0.275082 cumulative IPC: 0.277708 (Simulation time: 1 hr 42 min 13 sec) 
Heartbeat CPU 0 instructions: 77000000 cycles: 126965436 heartbeat IPC: 0.277302 cumulative IPC: 0.277693 (Simulation time: 1 hr 43 min 37 sec) 
Heartbeat CPU 0 instructions: 78000003 cycles: 130518199 heartbeat IPC: 0.281472 cumulative IPC: 0.277826 (Simulation time: 1 hr 45 min 0 sec) 
Heartbeat CPU 0 instructions: 79000000 cycles: 134097442 heartbeat IPC: 0.279388 cumulative IPC: 0.277879 (Simulation time: 1 hr 46 min 23 sec) 
Heartbeat CPU 0 instructions: 80000000 cycles: 137645325 heartbeat IPC: 0.281858 cumulative IPC: 0.27801 (Simulation time: 1 hr 47 min 49 sec) 
Heartbeat CPU 0 instructions: 81000001 cycles: 141179822 heartbeat IPC: 0.282926 cumulative IPC: 0.278166 (Simulation time: 1 hr 49 min 13 sec) 
Heartbeat CPU 0 instructions: 82000000 cycles: 144718085 heartbeat IPC: 0.282624 cumulative IPC: 0.278303 (Simulation time: 1 hr 50 min 47 sec) 
Heartbeat CPU 0 instructions: 83000003 cycles: 148276104 heartbeat IPC: 0.281056 cumulative IPC: 0.278386 (Simulation time: 1 hr 52 min 24 sec) 
Heartbeat CPU 0 instructions: 84000000 cycles: 151816461 heartbeat IPC: 0.282457 cumulative IPC: 0.278504 (Simulation time: 1 hr 53 min 50 sec) 
Heartbeat CPU 0 instructions: 85000000 cycles: 155350435 heartbeat IPC: 0.282968 cumulative IPC: 0.27863 (Simulation time: 1 hr 55 min 13 sec) 
Heartbeat CPU 0 instructions: 86000001 cycles: 158896717 heartbeat IPC: 0.281986 cumulative IPC: 0.278722 (Simulation time: 1 hr 56 min 40 sec) 
Heartbeat CPU 0 instructions: 87000001 cycles: 162447998 heartbeat IPC: 0.281589 cumulative IPC: 0.278798 (Simulation time: 1 hr 58 min 30 sec) 
Heartbeat CPU 0 instructions: 88000000 cycles: 165989363 heartbeat IPC: 0.282377 cumulative IPC: 0.278891 (Simulation time: 2 hr 0 min 20 sec) 
Heartbeat CPU 0 instructions: 89000003 cycles: 169529114 heartbeat IPC: 0.282507 cumulative IPC: 0.278983 (Simulation time: 2 hr 1 min 57 sec) 
Heartbeat CPU 0 instructions: 90000000 cycles: 173069312 heartbeat IPC: 0.282469 cumulative IPC: 0.279069 (Simulation time: 2 hr 3 min 28 sec) 
Heartbeat CPU 0 instructions: 91000000 cycles: 176597684 heartbeat IPC: 0.283417 cumulative IPC: 0.279173 (Simulation time: 2 hr 5 min 9 sec) 
Heartbeat CPU 0 instructions: 92000000 cycles: 180110466 heartbeat IPC: 0.284675 cumulative IPC: 0.279302 (Simulation time: 2 hr 6 min 40 sec) 
Heartbeat CPU 0 instructions: 93000001 cycles: 183627148 heartbeat IPC: 0.284359 cumulative IPC: 0.279418 (Simulation time: 2 hr 8 min 21 sec) 
Heartbeat CPU 0 instructions: 94000003 cycles: 187132804 heartbeat IPC: 0.285254 cumulative IPC: 0.279548 (Simulation time: 2 hr 10 min 11 sec) 
Heartbeat CPU 0 instructions: 95000002 cycles: 190646193 heartbeat IPC: 0.284625 cumulative IPC: 0.279658 (Simulation time: 2 hr 11 min 53 sec) 
Heartbeat CPU 0 instructions: 96000000 cycles: 194141986 heartbeat IPC: 0.286058 cumulative IPC: 0.279794 (Simulation time: 2 hr 13 min 32 sec) 
Heartbeat CPU 0 instructions: 97000000 cycles: 197633621 heartbeat IPC: 0.286399 cumulative IPC: 0.279932 (Simulation time: 2 hr 14 min 58 sec) 
Heartbeat CPU 0 instructions: 98000000 cycles: 201119670 heartbeat IPC: 0.286858 cumulative IPC: 0.280073 (Simulation time: 2 hr 16 min 36 sec) 
Heartbeat CPU 0 instructions: 99000000 cycles: 204624812 heartbeat IPC: 0.285295 cumulative IPC: 0.280177 (Simulation time: 2 hr 18 min 8 sec) 
Heartbeat CPU 0 instructions: 100000000 cycles: 208161419 heartbeat IPC: 0.282757 cumulative IPC: 0.280228 (Simulation time: 2 hr 19 min 24 sec) 
Heartbeat CPU 0 instructions: 101000003 cycles: 211675551 heartbeat IPC: 0.284566 cumulative IPC: 0.280312 (Simulation time: 2 hr 20 min 45 sec) 
Heartbeat CPU 0 instructions: 102000000 cycles: 215439202 heartbeat IPC: 0.265699 cumulative IPC: 0.280016 (Simulation time: 2 hr 22 min 10 sec) 
Heartbeat CPU 0 instructions: 103000002 cycles: 219554142 heartbeat IPC: 0.243017 cumulative IPC: 0.279214 (Simulation time: 2 hr 23 min 26 sec) 
Heartbeat CPU 0 instructions: 104000000 cycles: 223650986 heartbeat IPC: 0.24409 cumulative IPC: 0.278472 (Simulation time: 2 hr 24 min 53 sec) 
Heartbeat CPU 0 instructions: 105000000 cycles: 227564077 heartbeat IPC: 0.255552 cumulative IPC: 0.278019 (Simulation time: 2 hr 26 min 8 sec) 
Heartbeat CPU 0 instructions: 106000002 cycles: 231442235 heartbeat IPC: 0.257855 cumulative IPC: 0.277631 (Simulation time: 2 hr 27 min 23 sec) 
Heartbeat CPU 0 instructions: 107000001 cycles: 235367537 heartbeat IPC: 0.254757 cumulative IPC: 0.277194 (Simulation time: 2 hr 28 min 47 sec) 
Heartbeat CPU 0 instructions: 108000000 cycles: 239176698 heartbeat IPC: 0.262525 cumulative IPC: 0.276928 (Simulation time: 2 hr 30 min 4 sec) 
Heartbeat CPU 0 instructions: 109000000 cycles: 242903166 heartbeat IPC: 0.268351 cumulative IPC: 0.276778 (Simulation time: 2 hr 31 min 9 sec) 
Heartbeat CPU 0 instructions: 110000002 cycles: 246604617 heartbeat IPC: 0.270165 cumulative IPC: 0.276665 (Simulation time: 2 hr 32 min 12 sec) 
Heartbeat CPU 0 instructions: 111000000 cycles: 250287008 heartbeat IPC: 0.271562 cumulative IPC: 0.276579 (Simulation time: 2 hr 33 min 14 sec) 
Heartbeat CPU 0 instructions: 112000000 cycles: 253970835 heartbeat IPC: 0.271457 cumulative IPC: 0.276495 (Simulation time: 2 hr 34 min 12 sec) 
Heartbeat CPU 0 instructions: 113000001 cycles: 257670232 heartbeat IPC: 0.270315 cumulative IPC: 0.276395 (Simulation time: 2 hr 35 min 8 sec) 
Heartbeat CPU 0 instructions: 114000000 cycles: 261355216 heartbeat IPC: 0.271371 cumulative IPC: 0.276315 (Simulation time: 2 hr 36 min 2 sec) 
Heartbeat CPU 0 instructions: 115000003 cycles: 264922060 heartbeat IPC: 0.280361 cumulative IPC: 0.276376 (Simulation time: 2 hr 36 min 56 sec) 
Heartbeat CPU 0 instructions: 116000000 cycles: 268450189 heartbeat IPC: 0.283435 cumulative IPC: 0.276481 (Simulation time: 2 hr 38 min 2 sec) 
Heartbeat CPU 0 instructions: 117000001 cycles: 271967308 heartbeat IPC: 0.284324 cumulative IPC: 0.276595 (Simulation time: 2 hr 38 min 53 sec) 
Heartbeat CPU 0 instructions: 118000000 cycles: 275485764 heartbeat IPC: 0.284215 cumulative IPC: 0.276704 (Simulation time: 2 hr 39 min 40 sec) 
Heartbeat CPU 0 instructions: 119000001 cycles: 279189545 heartbeat IPC: 0.269995 cumulative IPC: 0.276604 (Simulation time: 2 hr 40 min 31 sec) 
Heartbeat CPU 0 instructions: 120000000 cycles: 283865078 heartbeat IPC: 0.213879 cumulative IPC: 0.27545 (Simulation time: 2 hr 41 min 26 sec) 
Heartbeat CPU 0 instructions: 121000001 cycles: 289643232 heartbeat IPC: 0.173066 cumulative IPC: 0.273174 (Simulation time: 2 hr 42 min 29 sec) 
Heartbeat CPU 0 instructions: 122000000 cycles: 295329346 heartbeat IPC: 0.175867 cumulative IPC: 0.271091 (Simulation time: 2 hr 43 min 31 sec) 
Heartbeat CPU 0 instructions: 123000001 cycles: 300947919 heartbeat IPC: 0.177981 cumulative IPC: 0.269162 (Simulation time: 2 hr 44 min 30 sec) 
Heartbeat CPU 0 instructions: 124000000 cycles: 306484421 heartbeat IPC: 0.180619 cumulative IPC: 0.26739 (Simulation time: 2 hr 45 min 29 sec) 
Heartbeat CPU 0 instructions: 125000000 cycles: 311923698 heartbeat IPC: 0.183848 cumulative IPC: 0.26578 (Simulation time: 2 hr 46 min 28 sec) 
Heartbeat CPU 0 instructions: 126000000 cycles: 317371886 heartbeat IPC: 0.183547 cumulative IPC: 0.264223 (Simulation time: 2 hr 47 min 24 sec) 
Heartbeat CPU 0 instructions: 127000003 cycles: 322821408 heartbeat IPC: 0.183503 cumulative IPC: 0.262722 (Simulation time: 2 hr 48 min 21 sec) 
Heartbeat CPU 0 instructions: 128000000 cycles: 328160690 heartbeat IPC: 0.187291 cumulative IPC: 0.261372 (Simulation time: 2 hr 49 min 13 sec) 
Heartbeat CPU 0 instructions: 129000002 cycles: 333370043 heartbeat IPC: 0.191963 cumulative IPC: 0.260181 (Simulation time: 2 hr 50 min 10 sec) 
Heartbeat CPU 0 instructions: 130000000 cycles: 338551595 heartbeat IPC: 0.192992 cumulative IPC: 0.259054 (Simulation time: 2 hr 51 min 5 sec) 
Heartbeat CPU 0 instructions: 131000001 cycles: 343930021 heartbeat IPC: 0.185928 cumulative IPC: 0.257802 (Simulation time: 2 hr 52 min 3 sec) 
Heartbeat CPU 0 instructions: 132000000 cycles: 348903324 heartbeat IPC: 0.201073 cumulative IPC: 0.256918 (Simulation time: 2 hr 52 min 58 sec) 
Heartbeat CPU 0 instructions: 133000001 cycles: 354049346 heartbeat IPC: 0.194325 cumulative IPC: 0.255925 (Simulation time: 2 hr 53 min 42 sec) 
Heartbeat CPU 0 instructions: 134000002 cycles: 359029447 heartbeat IPC: 0.200799 cumulative IPC: 0.255091 (Simulation time: 2 hr 54 min 24 sec) 
Heartbeat CPU 0 instructions: 135000000 cycles: 364143316 heartbeat IPC: 0.195546 cumulative IPC: 0.254181 (Simulation time: 2 hr 55 min 2 sec) 
Heartbeat CPU 0 instructions: 136000000 cycles: 369298564 heartbeat IPC: 0.193977 cumulative IPC: 0.253267 (Simulation time: 2 hr 55 min 38 sec) 
Heartbeat CPU 0 instructions: 137000001 cycles: 374352490 heartbeat IPC: 0.197866 cumulative IPC: 0.252454 (Simulation time: 2 hr 56 min 14 sec) 
Heartbeat CPU 0 instructions: 138000002 cycles: 379301891 heartbeat IPC: 0.202045 cumulative IPC: 0.251741 (Simulation time: 2 hr 56 min 48 sec) 
Heartbeat CPU 0 instructions: 139000000 cycles: 384254657 heartbeat IPC: 0.201907 cumulative IPC: 0.251044 (Simulation time: 2 hr 57 min 21 sec) 
Heartbeat CPU 0 instructions: 140000000 cycles: 389205982 heartbeat IPC: 0.201966 cumulative IPC: 0.250368 (Simulation time: 2 hr 57 min 55 sec) 
Heartbeat CPU 0 instructions: 141000000 cycles: 394152611 heartbeat IPC: 0.202158 cumulative IPC: 0.249714 (Simulation time: 2 hr 58 min 29 sec) 
Heartbeat CPU 0 instructions: 142000000 cycles: 399053307 heartbeat IPC: 0.204053 cumulative IPC: 0.249108 (Simulation time: 2 hr 59 min 0 sec) 
Heartbeat CPU 0 instructions: 143000000 cycles: 403931733 heartbeat IPC: 0.204984 cumulative IPC: 0.248533 (Simulation time: 2 hr 59 min 27 sec) 
Heartbeat CPU 0 instructions: 144000000 cycles: 408800881 heartbeat IPC: 0.205375 cumulative IPC: 0.247978 (Simulation time: 2 hr 59 min 54 sec) 
Heartbeat CPU 0 instructions: 145000000 cycles: 413652965 heartbeat IPC: 0.206097 cumulative IPC: 0.247449 (Simulation time: 3 hr 0 min 21 sec) 
Heartbeat CPU 0 instructions: 146000000 cycles: 418582278 heartbeat IPC: 0.202868 cumulative IPC: 0.246884 (Simulation time: 3 hr 0 min 46 sec) 
Heartbeat CPU 0 instructions: 147000000 cycles: 421681910 heartbeat IPC: 0.322619 cumulative IPC: 0.247483 (Simulation time: 3 hr 1 min 8 sec) 
Heartbeat CPU 0 instructions: 148000000 cycles: 426363930 heartbeat IPC: 0.213583 cumulative IPC: 0.247083 (Simulation time: 3 hr 1 min 27 sec) 
Heartbeat CPU 0 instructions: 149000003 cycles: 431074442 heartbeat IPC: 0.212292 cumulative IPC: 0.246674 (Simulation time: 3 hr 1 min 42 sec) 
Heartbeat CPU 0 instructions: 150000001 cycles: 435298477 heartbeat IPC: 0.23674 cumulative IPC: 0.246571 (Simulation time: 3 hr 1 min 57 sec) 
Finished CPU 0 instructions: 100000002 cycles: 405562867 cummulative IPC: 0.246571 (Simulation time: 3 hr 1 min 57 sec) 

ChampSim completed all CPUs

Region of Interest Statistics

CPU 0 cummulative IPC: 0.246571 instructions: 100000002 cycles: 405562867
LLC TOTAL     ACCESS:    1690051  HIT:     167607  MISS:    1522444
LLC LOAD      ACCESS:     565215  HIT:      40987  MISS:     524228
LLC RFO       ACCESS:      88719  HIT:      19065  MISS:      69654
LLC PREFETCH  ACCESS:     720315  HIT:      19400  MISS:     700915
LLC WRITEBACK ACCESS:     315802  HIT:      88155  MISS:     227647
Insertion Distribution: 
	LOAD 29068 0 90628 894757 
	RFO 34227 0 57305 278580 
	PREF 0 2575 110356 1633760 
	WRITEBACK 0 0 0 706138 
Total Prefetch Downgrades: 7104
