
*** ChampSim Multicore Out-of-Order Simulator ***

Warmup Instructions: 50000000
Simulation Instructions: 100000000
Configuration: 2
Number of CPUs: 1
LLC sets: 2048
LLC ways: 16
Off-chip DRAM Channels: 1 Width: 64-bit Data Rate: 1600 MT/s

CPU 0 runs /datasets/cs240c-wi22-a00-public/data/Assignment2-gz/omnetpp_4B.trace.gz
CPU 0 L1D next line prefetcher
CPU 0 L2C IP-based stride prefetcher
Initialize SRRIP state
Heartbeat CPU 0 instructions: 1000001 cycles: 566984 heartbeat IPC: 1.76372 cumulative IPC: 1.76372 (Simulation time: 0 hr 1 min 6 sec) 
Heartbeat CPU 0 instructions: 2000001 cycles: 1135714 heartbeat IPC: 1.7583 cumulative IPC: 1.76101 (Simulation time: 0 hr 2 min 11 sec) 
Heartbeat CPU 0 instructions: 3000001 cycles: 1722947 heartbeat IPC: 1.7029 cumulative IPC: 1.7412 (Simulation time: 0 hr 3 min 18 sec) 
Heartbeat CPU 0 instructions: 4000000 cycles: 2292434 heartbeat IPC: 1.75596 cumulative IPC: 1.74487 (Simulation time: 0 hr 4 min 13 sec) 
Heartbeat CPU 0 instructions: 5000000 cycles: 2866649 heartbeat IPC: 1.74151 cumulative IPC: 1.7442 (Simulation time: 0 hr 5 min 16 sec) 
Heartbeat CPU 0 instructions: 6000000 cycles: 3442825 heartbeat IPC: 1.73558 cumulative IPC: 1.74275 (Simulation time: 0 hr 6 min 20 sec) 
Heartbeat CPU 0 instructions: 7000000 cycles: 4012149 heartbeat IPC: 1.75647 cumulative IPC: 1.7447 (Simulation time: 0 hr 7 min 15 sec) 
Heartbeat CPU 0 instructions: 8000000 cycles: 4565619 heartbeat IPC: 1.80678 cumulative IPC: 1.75223 (Simulation time: 0 hr 8 min 7 sec) 
Heartbeat CPU 0 instructions: 9000001 cycles: 5147702 heartbeat IPC: 1.71797 cumulative IPC: 1.74835 (Simulation time: 0 hr 9 min 3 sec) 
Heartbeat CPU 0 instructions: 10000000 cycles: 5701668 heartbeat IPC: 1.80516 cumulative IPC: 1.75387 (Simulation time: 0 hr 10 min 11 sec) 
Heartbeat CPU 0 instructions: 11000000 cycles: 6288788 heartbeat IPC: 1.70323 cumulative IPC: 1.74914 (Simulation time: 0 hr 11 min 9 sec) 
Heartbeat CPU 0 instructions: 12000000 cycles: 6939865 heartbeat IPC: 1.53592 cumulative IPC: 1.72914 (Simulation time: 0 hr 12 min 6 sec) 
Heartbeat CPU 0 instructions: 13000002 cycles: 7587052 heartbeat IPC: 1.54515 cumulative IPC: 1.71345 (Simulation time: 0 hr 12 min 55 sec) 
Heartbeat CPU 0 instructions: 14000000 cycles: 8237555 heartbeat IPC: 1.53727 cumulative IPC: 1.69953 (Simulation time: 0 hr 13 min 49 sec) 
Heartbeat CPU 0 instructions: 15000000 cycles: 8891079 heartbeat IPC: 1.53017 cumulative IPC: 1.68708 (Simulation time: 0 hr 14 min 39 sec) 
Heartbeat CPU 0 instructions: 16000000 cycles: 9461485 heartbeat IPC: 1.75314 cumulative IPC: 1.69107 (Simulation time: 0 hr 15 min 35 sec) 
Heartbeat CPU 0 instructions: 17000000 cycles: 10043426 heartbeat IPC: 1.71839 cumulative IPC: 1.69265 (Simulation time: 0 hr 16 min 29 sec) 
Heartbeat CPU 0 instructions: 18000000 cycles: 10614912 heartbeat IPC: 1.74982 cumulative IPC: 1.69573 (Simulation time: 0 hr 17 min 32 sec) 
Heartbeat CPU 0 instructions: 19000002 cycles: 11183653 heartbeat IPC: 1.75827 cumulative IPC: 1.69891 (Simulation time: 0 hr 18 min 27 sec) 
Heartbeat CPU 0 instructions: 20000000 cycles: 11731333 heartbeat IPC: 1.82588 cumulative IPC: 1.70484 (Simulation time: 0 hr 19 min 19 sec) 
Heartbeat CPU 0 instructions: 21000000 cycles: 12279481 heartbeat IPC: 1.82432 cumulative IPC: 1.71017 (Simulation time: 0 hr 20 min 20 sec) 
Heartbeat CPU 0 instructions: 22000001 cycles: 12832416 heartbeat IPC: 1.80853 cumulative IPC: 1.71441 (Simulation time: 0 hr 21 min 22 sec) 
Heartbeat CPU 0 instructions: 23000000 cycles: 13413989 heartbeat IPC: 1.71947 cumulative IPC: 1.71463 (Simulation time: 0 hr 22 min 23 sec) 
Heartbeat CPU 0 instructions: 24000000 cycles: 13983740 heartbeat IPC: 1.75515 cumulative IPC: 1.71628 (Simulation time: 0 hr 23 min 26 sec) 
Heartbeat CPU 0 instructions: 25000000 cycles: 14546505 heartbeat IPC: 1.77694 cumulative IPC: 1.71863 (Simulation time: 0 hr 24 min 23 sec) 
Heartbeat CPU 0 instructions: 26000001 cycles: 15115987 heartbeat IPC: 1.75598 cumulative IPC: 1.72003 (Simulation time: 0 hr 25 min 18 sec) 
Heartbeat CPU 0 instructions: 27000001 cycles: 15682624 heartbeat IPC: 1.7648 cumulative IPC: 1.72165 (Simulation time: 0 hr 26 min 18 sec) 
Heartbeat CPU 0 instructions: 28000000 cycles: 16251784 heartbeat IPC: 1.75697 cumulative IPC: 1.72289 (Simulation time: 0 hr 27 min 17 sec) 
Heartbeat CPU 0 instructions: 29000000 cycles: 16838239 heartbeat IPC: 1.70516 cumulative IPC: 1.72227 (Simulation time: 0 hr 28 min 14 sec) 
Heartbeat CPU 0 instructions: 30000000 cycles: 17408980 heartbeat IPC: 1.75211 cumulative IPC: 1.72325 (Simulation time: 0 hr 29 min 12 sec) 
Heartbeat CPU 0 instructions: 31000000 cycles: 17984564 heartbeat IPC: 1.73737 cumulative IPC: 1.7237 (Simulation time: 0 hr 30 min 5 sec) 
Heartbeat CPU 0 instructions: 32000000 cycles: 18554329 heartbeat IPC: 1.75511 cumulative IPC: 1.72466 (Simulation time: 0 hr 31 min 8 sec) 
Heartbeat CPU 0 instructions: 33000000 cycles: 19112894 heartbeat IPC: 1.7903 cumulative IPC: 1.72658 (Simulation time: 0 hr 32 min 6 sec) 
Heartbeat CPU 0 instructions: 34000001 cycles: 19665453 heartbeat IPC: 1.80976 cumulative IPC: 1.72892 (Simulation time: 0 hr 33 min 1 sec) 
Heartbeat CPU 0 instructions: 35000001 cycles: 20246430 heartbeat IPC: 1.72124 cumulative IPC: 1.7287 (Simulation time: 0 hr 34 min 2 sec) 
Heartbeat CPU 0 instructions: 36000000 cycles: 20802063 heartbeat IPC: 1.79975 cumulative IPC: 1.7306 (Simulation time: 0 hr 35 min 5 sec) 
Heartbeat CPU 0 instructions: 37000001 cycles: 21374270 heartbeat IPC: 1.74762 cumulative IPC: 1.73105 (Simulation time: 0 hr 36 min 5 sec) 
Heartbeat CPU 0 instructions: 38000001 cycles: 21934768 heartbeat IPC: 1.78413 cumulative IPC: 1.73241 (Simulation time: 0 hr 37 min 6 sec) 
Heartbeat CPU 0 instructions: 39000001 cycles: 22547598 heartbeat IPC: 1.63177 cumulative IPC: 1.72967 (Simulation time: 0 hr 38 min 9 sec) 
Heartbeat CPU 0 instructions: 40000000 cycles: 23196603 heartbeat IPC: 1.54082 cumulative IPC: 1.72439 (Simulation time: 0 hr 39 min 6 sec) 
Heartbeat CPU 0 instructions: 41000001 cycles: 23845554 heartbeat IPC: 1.54095 cumulative IPC: 1.7194 (Simulation time: 0 hr 40 min 2 sec) 
Heartbeat CPU 0 instructions: 42000001 cycles: 24492464 heartbeat IPC: 1.54581 cumulative IPC: 1.71481 (Simulation time: 0 hr 40 min 56 sec) 
Heartbeat CPU 0 instructions: 43000000 cycles: 25161107 heartbeat IPC: 1.49556 cumulative IPC: 1.70899 (Simulation time: 0 hr 41 min 53 sec) 
Heartbeat CPU 0 instructions: 44000000 cycles: 25724883 heartbeat IPC: 1.77375 cumulative IPC: 1.71041 (Simulation time: 0 hr 42 min 51 sec) 
Heartbeat CPU 0 instructions: 45000000 cycles: 26288537 heartbeat IPC: 1.77414 cumulative IPC: 1.71177 (Simulation time: 0 hr 43 min 46 sec) 
Heartbeat CPU 0 instructions: 46000000 cycles: 26834629 heartbeat IPC: 1.83119 cumulative IPC: 1.7142 (Simulation time: 0 hr 44 min 42 sec) 
Heartbeat CPU 0 instructions: 47000000 cycles: 27380695 heartbeat IPC: 1.83128 cumulative IPC: 1.71654 (Simulation time: 0 hr 45 min 38 sec) 
Heartbeat CPU 0 instructions: 48000000 cycles: 27932101 heartbeat IPC: 1.81355 cumulative IPC: 1.71845 (Simulation time: 0 hr 46 min 33 sec) 
Heartbeat CPU 0 instructions: 49000002 cycles: 28512930 heartbeat IPC: 1.72168 cumulative IPC: 1.71852 (Simulation time: 0 hr 47 min 38 sec) 
Heartbeat CPU 0 instructions: 50000000 cycles: 29082870 heartbeat IPC: 1.75457 cumulative IPC: 1.71923 (Simulation time: 0 hr 48 min 33 sec) 

Warmup complete CPU 0 instructions: 50000002 cycles: 29082871 (Simulation time: 0 hr 48 min 33 sec) 

Heartbeat CPU 0 instructions: 51000003 cycles: 31888848 heartbeat IPC: 0.356383 cumulative IPC: 0.356382 (Simulation time: 0 hr 49 min 36 sec) 
Heartbeat CPU 0 instructions: 52000000 cycles: 34673713 heartbeat IPC: 0.359083 cumulative IPC: 0.357727 (Simulation time: 0 hr 50 min 44 sec) 
Heartbeat CPU 0 instructions: 53000003 cycles: 37461434 heartbeat IPC: 0.358717 cumulative IPC: 0.358057 (Simulation time: 0 hr 52 min 0 sec) 
Heartbeat CPU 0 instructions: 54000001 cycles: 40221057 heartbeat IPC: 0.362368 cumulative IPC: 0.359125 (Simulation time: 0 hr 53 min 3 sec) 
Heartbeat CPU 0 instructions: 55000001 cycles: 43145056 heartbeat IPC: 0.341997 cumulative IPC: 0.355563 (Simulation time: 0 hr 54 min 20 sec) 
Heartbeat CPU 0 instructions: 56000000 cycles: 45957431 heartbeat IPC: 0.355571 cumulative IPC: 0.355565 (Simulation time: 0 hr 55 min 25 sec) 
Heartbeat CPU 0 instructions: 57000003 cycles: 48732132 heartbeat IPC: 0.3604 cumulative IPC: 0.356248 (Simulation time: 0 hr 56 min 35 sec) 
Heartbeat CPU 0 instructions: 58000001 cycles: 51720183 heartbeat IPC: 0.334666 cumulative IPC: 0.353399 (Simulation time: 0 hr 57 min 41 sec) 
Heartbeat CPU 0 instructions: 59000001 cycles: 55009606 heartbeat IPC: 0.304005 cumulative IPC: 0.347132 (Simulation time: 0 hr 59 min 2 sec) 
Heartbeat CPU 0 instructions: 60000000 cycles: 57990765 heartbeat IPC: 0.33544 cumulative IPC: 0.345926 (Simulation time: 1 hr 0 min 9 sec) 
Heartbeat CPU 0 instructions: 61000001 cycles: 61041810 heartbeat IPC: 0.327757 cumulative IPC: 0.344192 (Simulation time: 1 hr 1 min 30 sec) 
Heartbeat CPU 0 instructions: 62000000 cycles: 64377640 heartbeat IPC: 0.299775 cumulative IPC: 0.339994 (Simulation time: 1 hr 2 min 34 sec) 
Heartbeat CPU 0 instructions: 63000001 cycles: 67213725 heartbeat IPC: 0.352599 cumulative IPC: 0.340931 (Simulation time: 1 hr 3 min 35 sec) 
Heartbeat CPU 0 instructions: 64000000 cycles: 70024364 heartbeat IPC: 0.355791 cumulative IPC: 0.341951 (Simulation time: 1 hr 4 min 38 sec) 
Heartbeat CPU 0 instructions: 65000001 cycles: 72814616 heartbeat IPC: 0.358391 cumulative IPC: 0.343 (Simulation time: 1 hr 5 min 41 sec) 
Heartbeat CPU 0 instructions: 66000002 cycles: 76948127 heartbeat IPC: 0.241925 cumulative IPC: 0.334272 (Simulation time: 1 hr 6 min 52 sec) 
Heartbeat CPU 0 instructions: 67000001 cycles: 78611042 heartbeat IPC: 0.601353 cumulative IPC: 0.343239 (Simulation time: 1 hr 7 min 55 sec) 
Heartbeat CPU 0 instructions: 68000000 cycles: 79735296 heartbeat IPC: 0.889478 cumulative IPC: 0.355363 (Simulation time: 1 hr 8 min 43 sec) 
Heartbeat CPU 0 instructions: 69000003 cycles: 80877593 heartbeat IPC: 0.875432 cumulative IPC: 0.366833 (Simulation time: 1 hr 9 min 34 sec) 
Heartbeat CPU 0 instructions: 70000000 cycles: 81997838 heartbeat IPC: 0.892659 cumulative IPC: 0.377965 (Simulation time: 1 hr 10 min 20 sec) 
Heartbeat CPU 0 instructions: 71000001 cycles: 83172815 heartbeat IPC: 0.851081 cumulative IPC: 0.388242 (Simulation time: 1 hr 11 min 14 sec) 
Heartbeat CPU 0 instructions: 72000000 cycles: 86520558 heartbeat IPC: 0.298708 cumulative IPC: 0.383024 (Simulation time: 1 hr 12 min 19 sec) 
Heartbeat CPU 0 instructions: 73000000 cycles: 89929117 heartbeat IPC: 0.293379 cumulative IPC: 0.378002 (Simulation time: 1 hr 13 min 21 sec) 
Heartbeat CPU 0 instructions: 74000001 cycles: 93254726 heartbeat IPC: 0.300697 cumulative IPC: 0.373996 (Simulation time: 1 hr 14 min 24 sec) 
Heartbeat CPU 0 instructions: 75000001 cycles: 96178454 heartbeat IPC: 0.342029 cumulative IPC: 0.372603 (Simulation time: 1 hr 15 min 29 sec) 
Heartbeat CPU 0 instructions: 76000000 cycles: 98977403 heartbeat IPC: 0.357277 cumulative IPC: 0.371989 (Simulation time: 1 hr 16 min 27 sec) 
Heartbeat CPU 0 instructions: 77000000 cycles: 101784456 heartbeat IPC: 0.356245 cumulative IPC: 0.371381 (Simulation time: 1 hr 17 min 22 sec) 
Heartbeat CPU 0 instructions: 78000001 cycles: 104588038 heartbeat IPC: 0.356687 cumulative IPC: 0.370836 (Simulation time: 1 hr 18 min 23 sec) 
Heartbeat CPU 0 instructions: 79000001 cycles: 107381313 heartbeat IPC: 0.358003 cumulative IPC: 0.370378 (Simulation time: 1 hr 19 min 20 sec) 
Heartbeat CPU 0 instructions: 80000000 cycles: 110155567 heartbeat IPC: 0.360457 cumulative IPC: 0.370038 (Simulation time: 1 hr 20 min 21 sec) 
Heartbeat CPU 0 instructions: 81000002 cycles: 113006478 heartbeat IPC: 0.350766 cumulative IPC: 0.369384 (Simulation time: 1 hr 21 min 28 sec) 
Heartbeat CPU 0 instructions: 82000001 cycles: 115818752 heartbeat IPC: 0.355584 cumulative IPC: 0.368936 (Simulation time: 1 hr 22 min 36 sec) 
Heartbeat CPU 0 instructions: 83000002 cycles: 118672039 heartbeat IPC: 0.350473 cumulative IPC: 0.368348 (Simulation time: 1 hr 23 min 36 sec) 
Heartbeat CPU 0 instructions: 84000000 cycles: 121522487 heartbeat IPC: 0.350821 cumulative IPC: 0.367808 (Simulation time: 1 hr 24 min 38 sec) 
Heartbeat CPU 0 instructions: 85000002 cycles: 124825038 heartbeat IPC: 0.302797 cumulative IPC: 0.365565 (Simulation time: 1 hr 25 min 41 sec) 
Heartbeat CPU 0 instructions: 86000002 cycles: 128119343 heartbeat IPC: 0.303554 cumulative IPC: 0.363502 (Simulation time: 1 hr 26 min 44 sec) 
Heartbeat CPU 0 instructions: 87000000 cycles: 131157999 heartbeat IPC: 0.329092 cumulative IPC: 0.362478 (Simulation time: 1 hr 27 min 46 sec) 
Heartbeat CPU 0 instructions: 88000000 cycles: 134179016 heartbeat IPC: 0.331014 cumulative IPC: 0.361574 (Simulation time: 1 hr 28 min 54 sec) 
Heartbeat CPU 0 instructions: 89000002 cycles: 137260936 heartbeat IPC: 0.324474 cumulative IPC: 0.360517 (Simulation time: 1 hr 29 min 58 sec) 
Heartbeat CPU 0 instructions: 90000001 cycles: 140040132 heartbeat IPC: 0.359816 cumulative IPC: 0.360499 (Simulation time: 1 hr 30 min 58 sec) 
Heartbeat CPU 0 instructions: 91000001 cycles: 142850281 heartbeat IPC: 0.355853 cumulative IPC: 0.360384 (Simulation time: 1 hr 31 min 59 sec) 
Heartbeat CPU 0 instructions: 92000000 cycles: 145744956 heartbeat IPC: 0.345462 cumulative IPC: 0.360014 (Simulation time: 1 hr 33 min 2 sec) 
Heartbeat CPU 0 instructions: 93000000 cycles: 148571744 heartbeat IPC: 0.353758 cumulative IPC: 0.359866 (Simulation time: 1 hr 33 min 59 sec) 
Heartbeat CPU 0 instructions: 94000000 cycles: 153101250 heartbeat IPC: 0.220775 cumulative IPC: 0.354786 (Simulation time: 1 hr 35 min 21 sec) 
Heartbeat CPU 0 instructions: 95000000 cycles: 154283312 heartbeat IPC: 0.845979 cumulative IPC: 0.359424 (Simulation time: 1 hr 36 min 17 sec) 
Heartbeat CPU 0 instructions: 96000000 cycles: 155426293 heartbeat IPC: 0.874905 cumulative IPC: 0.364087 (Simulation time: 1 hr 37 min 7 sec) 
Heartbeat CPU 0 instructions: 97000002 cycles: 156544997 heartbeat IPC: 0.893893 cumulative IPC: 0.368737 (Simulation time: 1 hr 37 min 56 sec) 
Heartbeat CPU 0 instructions: 98000001 cycles: 157686938 heartbeat IPC: 0.875701 cumulative IPC: 0.373239 (Simulation time: 1 hr 38 min 49 sec) 
Heartbeat CPU 0 instructions: 99000002 cycles: 159560981 heartbeat IPC: 0.533606 cumulative IPC: 0.375542 (Simulation time: 1 hr 39 min 49 sec) 
Heartbeat CPU 0 instructions: 100000000 cycles: 162940761 heartbeat IPC: 0.295877 cumulative IPC: 0.37353 (Simulation time: 1 hr 40 min 53 sec) 
Heartbeat CPU 0 instructions: 101000002 cycles: 166034794 heartbeat IPC: 0.323203 cumulative IPC: 0.372393 (Simulation time: 1 hr 42 min 5 sec) 
Heartbeat CPU 0 instructions: 102000001 cycles: 169031246 heartbeat IPC: 0.333728 cumulative IPC: 0.371566 (Simulation time: 1 hr 43 min 8 sec) 
Heartbeat CPU 0 instructions: 103000000 cycles: 171836103 heartbeat IPC: 0.356524 cumulative IPC: 0.37127 (Simulation time: 1 hr 44 min 21 sec) 
Heartbeat CPU 0 instructions: 104000000 cycles: 174653664 heartbeat IPC: 0.354917 cumulative IPC: 0.370954 (Simulation time: 1 hr 45 min 33 sec) 
Heartbeat CPU 0 instructions: 105000001 cycles: 177460031 heartbeat IPC: 0.356333 cumulative IPC: 0.370677 (Simulation time: 1 hr 46 min 51 sec) 
Heartbeat CPU 0 instructions: 106000000 cycles: 180369032 heartbeat IPC: 0.34376 cumulative IPC: 0.370159 (Simulation time: 1 hr 48 min 14 sec) 
Heartbeat CPU 0 instructions: 107000002 cycles: 183227802 heartbeat IPC: 0.349801 cumulative IPC: 0.369782 (Simulation time: 1 hr 49 min 25 sec) 
Heartbeat CPU 0 instructions: 108000000 cycles: 186034663 heartbeat IPC: 0.356269 cumulative IPC: 0.36954 (Simulation time: 1 hr 50 min 49 sec) 
Heartbeat CPU 0 instructions: 109000002 cycles: 188822036 heartbeat IPC: 0.358761 cumulative IPC: 0.369352 (Simulation time: 1 hr 51 min 53 sec) 
Heartbeat CPU 0 instructions: 110000001 cycles: 191656480 heartbeat IPC: 0.352803 cumulative IPC: 0.369064 (Simulation time: 1 hr 53 min 8 sec) 
Heartbeat CPU 0 instructions: 111000001 cycles: 194638266 heartbeat IPC: 0.335369 cumulative IPC: 0.368457 (Simulation time: 1 hr 54 min 10 sec) 
Heartbeat CPU 0 instructions: 112000000 cycles: 197954887 heartbeat IPC: 0.301511 cumulative IPC: 0.367142 (Simulation time: 1 hr 55 min 16 sec) 
Heartbeat CPU 0 instructions: 113000002 cycles: 200990390 heartbeat IPC: 0.329435 cumulative IPC: 0.366476 (Simulation time: 1 hr 56 min 19 sec) 
Heartbeat CPU 0 instructions: 114000001 cycles: 204338203 heartbeat IPC: 0.298702 cumulative IPC: 0.365181 (Simulation time: 1 hr 57 min 20 sec) 
Heartbeat CPU 0 instructions: 115000001 cycles: 207435668 heartbeat IPC: 0.322845 cumulative IPC: 0.364446 (Simulation time: 1 hr 58 min 22 sec) 
Heartbeat CPU 0 instructions: 116000000 cycles: 210302694 heartbeat IPC: 0.348793 cumulative IPC: 0.364199 (Simulation time: 1 hr 59 min 22 sec) 
Heartbeat CPU 0 instructions: 117000001 cycles: 213122844 heartbeat IPC: 0.354591 cumulative IPC: 0.364051 (Simulation time: 2 hr 0 min 35 sec) 
Heartbeat CPU 0 instructions: 118000000 cycles: 216022268 heartbeat IPC: 0.344896 cumulative IPC: 0.363754 (Simulation time: 2 hr 1 min 50 sec) 
Heartbeat CPU 0 instructions: 119000001 cycles: 218890657 heartbeat IPC: 0.348628 cumulative IPC: 0.363526 (Simulation time: 2 hr 2 min 49 sec) 
Heartbeat CPU 0 instructions: 120000000 cycles: 221727325 heartbeat IPC: 0.352526 cumulative IPC: 0.363364 (Simulation time: 2 hr 3 min 49 sec) 
Heartbeat CPU 0 instructions: 121000003 cycles: 224580444 heartbeat IPC: 0.350495 cumulative IPC: 0.363176 (Simulation time: 2 hr 4 min 52 sec) 
Heartbeat CPU 0 instructions: 122000000 cycles: 229129826 heartbeat IPC: 0.219809 cumulative IPC: 0.359915 (Simulation time: 2 hr 6 min 14 sec) 
Heartbeat CPU 0 instructions: 123000001 cycles: 230296603 heartbeat IPC: 0.857063 cumulative IPC: 0.362798 (Simulation time: 2 hr 7 min 5 sec) 
Heartbeat CPU 0 instructions: 124000000 cycles: 231418641 heartbeat IPC: 0.891235 cumulative IPC: 0.365729 (Simulation time: 2 hr 7 min 59 sec) 
Heartbeat CPU 0 instructions: 125000000 cycles: 232560282 heartbeat IPC: 0.875932 cumulative IPC: 0.368591 (Simulation time: 2 hr 8 min 54 sec) 
Heartbeat CPU 0 instructions: 126000001 cycles: 233779763 heartbeat IPC: 0.820022 cumulative IPC: 0.371281 (Simulation time: 2 hr 10 min 1 sec) 
Heartbeat CPU 0 instructions: 127000000 cycles: 235792835 heartbeat IPC: 0.496753 cumulative IPC: 0.372503 (Simulation time: 2 hr 11 min 9 sec) 
Heartbeat CPU 0 instructions: 128000000 cycles: 239203195 heartbeat IPC: 0.293224 cumulative IPC: 0.371216 (Simulation time: 2 hr 12 min 24 sec) 
Heartbeat CPU 0 instructions: 129000001 cycles: 242301329 heartbeat IPC: 0.322775 cumulative IPC: 0.370512 (Simulation time: 2 hr 13 min 22 sec) 
Heartbeat CPU 0 instructions: 130000000 cycles: 245101171 heartbeat IPC: 0.357163 cumulative IPC: 0.370339 (Simulation time: 2 hr 14 min 21 sec) 
Heartbeat CPU 0 instructions: 131000001 cycles: 247916497 heartbeat IPC: 0.355199 cumulative IPC: 0.370144 (Simulation time: 2 hr 15 min 27 sec) 
Heartbeat CPU 0 instructions: 132000000 cycles: 250772619 heartbeat IPC: 0.350125 cumulative IPC: 0.369886 (Simulation time: 2 hr 16 min 37 sec) 
Heartbeat CPU 0 instructions: 133000000 cycles: 253683612 heartbeat IPC: 0.343525 cumulative IPC: 0.369545 (Simulation time: 2 hr 17 min 30 sec) 
Heartbeat CPU 0 instructions: 134000000 cycles: 256526098 heartbeat IPC: 0.351805 cumulative IPC: 0.369323 (Simulation time: 2 hr 18 min 28 sec) 
Heartbeat CPU 0 instructions: 135000000 cycles: 259330523 heartbeat IPC: 0.356579 cumulative IPC: 0.369168 (Simulation time: 2 hr 19 min 25 sec) 
Heartbeat CPU 0 instructions: 136000000 cycles: 262150663 heartbeat IPC: 0.354592 cumulative IPC: 0.368991 (Simulation time: 2 hr 20 min 19 sec) 
Heartbeat CPU 0 instructions: 137000000 cycles: 264961346 heartbeat IPC: 0.355785 cumulative IPC: 0.368834 (Simulation time: 2 hr 21 min 21 sec) 
Heartbeat CPU 0 instructions: 138000001 cycles: 268200417 heartbeat IPC: 0.308731 cumulative IPC: 0.36802 (Simulation time: 2 hr 22 min 10 sec) 
Heartbeat CPU 0 instructions: 139000000 cycles: 270915039 heartbeat IPC: 0.368375 cumulative IPC: 0.368024 (Simulation time: 2 hr 23 min 14 sec) 
Heartbeat CPU 0 instructions: 140000000 cycles: 274311896 heartbeat IPC: 0.29439 cumulative IPC: 0.367004 (Simulation time: 2 hr 24 min 6 sec) 
Heartbeat CPU 0 instructions: 141000002 cycles: 277656043 heartbeat IPC: 0.299031 cumulative IPC: 0.366089 (Simulation time: 2 hr 24 min 59 sec) 
Heartbeat CPU 0 instructions: 142000001 cycles: 280902486 heartbeat IPC: 0.308029 cumulative IPC: 0.365341 (Simulation time: 2 hr 25 min 47 sec) 
Heartbeat CPU 0 instructions: 143000001 cycles: 283771084 heartbeat IPC: 0.348602 cumulative IPC: 0.365152 (Simulation time: 2 hr 26 min 42 sec) 
Heartbeat CPU 0 instructions: 144000000 cycles: 286663781 heartbeat IPC: 0.345698 cumulative IPC: 0.364934 (Simulation time: 2 hr 27 min 33 sec) 
Heartbeat CPU 0 instructions: 145000001 cycles: 289503141 heartbeat IPC: 0.352192 cumulative IPC: 0.364795 (Simulation time: 2 hr 28 min 20 sec) 
Heartbeat CPU 0 instructions: 146000000 cycles: 292354340 heartbeat IPC: 0.350729 cumulative IPC: 0.364643 (Simulation time: 2 hr 29 min 6 sec) 
Heartbeat CPU 0 instructions: 147000001 cycles: 295197871 heartbeat IPC: 0.351676 cumulative IPC: 0.364504 (Simulation time: 2 hr 29 min 52 sec) 
Heartbeat CPU 0 instructions: 148000000 cycles: 298023580 heartbeat IPC: 0.353893 cumulative IPC: 0.364393 (Simulation time: 2 hr 30 min 37 sec) 
Heartbeat CPU 0 instructions: 149000002 cycles: 300824333 heartbeat IPC: 0.357048 cumulative IPC: 0.364317 (Simulation time: 2 hr 31 min 23 sec) 
Heartbeat CPU 0 instructions: 150000001 cycles: 305379455 heartbeat IPC: 0.219533 cumulative IPC: 0.36193 (Simulation time: 2 hr 32 min 19 sec) 
Finished CPU 0 instructions: 100000000 cycles: 276296587 cummulative IPC: 0.36193 (Simulation time: 2 hr 32 min 19 sec) 

ChampSim completed all CPUs

Region of Interest Statistics

CPU 0 cummulative IPC: 0.36193 instructions: 100000000 cycles: 276296587
LLC TOTAL     ACCESS:    4942402  HIT:    2507393  MISS:    2435009
LLC LOAD      ACCESS:    2319237  HIT:    2161578  MISS:     157659
LLC RFO       ACCESS:      25001  HIT:      11944  MISS:      13057
LLC PREFETCH  ACCESS:    2516862  HIT:     272807  MISS:    2244055
LLC WRITEBACK ACCESS:      81302  HIT:      61064  MISS:      20238
Insertion Distribution: 
	LOAD 64867 0 114446 106849 
	RFO 5085 0 5496 9174 
	PREF 0 11973 73181 3126320 
	WRITEBACK 0 0 0 27395 
Total Prefetch Downgrades: 12928
