
*** ChampSim Multicore Out-of-Order Simulator ***

Warmup Instructions: 50000000
Simulation Instructions: 100000000
Configuration: 2
Number of CPUs: 1
LLC sets: 2048
LLC ways: 16
Off-chip DRAM Channels: 1 Width: 64-bit Data Rate: 1600 MT/s

CPU 0 runs /datasets/cs240c-wi22-a00-public/data/Assignment2-gz/zeusmp_600B.trace.gz
CPU 0 L1D next line prefetcher
CPU 0 L2C IP-based stride prefetcher
Initialize SRRIP state
Heartbeat CPU 0 instructions: 1000000 cycles: 407346 heartbeat IPC: 2.45492 cumulative IPC: 2.45492 (Simulation time: 0 hr 1 min 4 sec) 
Heartbeat CPU 0 instructions: 2000001 cycles: 814284 heartbeat IPC: 2.45738 cumulative IPC: 2.45615 (Simulation time: 0 hr 2 min 4 sec) 
Heartbeat CPU 0 instructions: 3000000 cycles: 1221753 heartbeat IPC: 2.45417 cumulative IPC: 2.45549 (Simulation time: 0 hr 3 min 1 sec) 
Heartbeat CPU 0 instructions: 4000000 cycles: 1629404 heartbeat IPC: 2.45308 cumulative IPC: 2.45489 (Simulation time: 0 hr 4 min 1 sec) 
Heartbeat CPU 0 instructions: 5000001 cycles: 2036967 heartbeat IPC: 2.45361 cumulative IPC: 2.45463 (Simulation time: 0 hr 4 min 55 sec) 
Heartbeat CPU 0 instructions: 6000000 cycles: 2444291 heartbeat IPC: 2.45505 cumulative IPC: 2.4547 (Simulation time: 0 hr 5 min 59 sec) 
Heartbeat CPU 0 instructions: 7000000 cycles: 2851775 heartbeat IPC: 2.45408 cumulative IPC: 2.45461 (Simulation time: 0 hr 7 min 11 sec) 
Heartbeat CPU 0 instructions: 8000000 cycles: 3259377 heartbeat IPC: 2.45337 cumulative IPC: 2.45446 (Simulation time: 0 hr 8 min 2 sec) 
Heartbeat CPU 0 instructions: 9000003 cycles: 3666450 heartbeat IPC: 2.45657 cumulative IPC: 2.45469 (Simulation time: 0 hr 8 min 58 sec) 
Heartbeat CPU 0 instructions: 10000001 cycles: 4073953 heartbeat IPC: 2.45396 cumulative IPC: 2.45462 (Simulation time: 0 hr 9 min 48 sec) 
Heartbeat CPU 0 instructions: 11000000 cycles: 4481322 heartbeat IPC: 2.45477 cumulative IPC: 2.45463 (Simulation time: 0 hr 10 min 37 sec) 
Heartbeat CPU 0 instructions: 12000000 cycles: 4888914 heartbeat IPC: 2.45343 cumulative IPC: 2.45453 (Simulation time: 0 hr 11 min 36 sec) 
Heartbeat CPU 0 instructions: 13000003 cycles: 5296042 heartbeat IPC: 2.45624 cumulative IPC: 2.45466 (Simulation time: 0 hr 12 min 31 sec) 
Heartbeat CPU 0 instructions: 14000001 cycles: 5703623 heartbeat IPC: 2.4535 cumulative IPC: 2.45458 (Simulation time: 0 hr 13 min 30 sec) 
Heartbeat CPU 0 instructions: 15000003 cycles: 6111275 heartbeat IPC: 2.45308 cumulative IPC: 2.45448 (Simulation time: 0 hr 14 min 30 sec) 
Heartbeat CPU 0 instructions: 16000000 cycles: 6519159 heartbeat IPC: 2.45167 cumulative IPC: 2.4543 (Simulation time: 0 hr 15 min 26 sec) 
Heartbeat CPU 0 instructions: 17000002 cycles: 6945429 heartbeat IPC: 2.34594 cumulative IPC: 2.44765 (Simulation time: 0 hr 16 min 19 sec) 
Heartbeat CPU 0 instructions: 18000000 cycles: 7402891 heartbeat IPC: 2.18597 cumulative IPC: 2.43148 (Simulation time: 0 hr 17 min 14 sec) 
Heartbeat CPU 0 instructions: 19000000 cycles: 7812634 heartbeat IPC: 2.44055 cumulative IPC: 2.43196 (Simulation time: 0 hr 18 min 9 sec) 
Heartbeat CPU 0 instructions: 20000000 cycles: 8225108 heartbeat IPC: 2.4244 cumulative IPC: 2.43158 (Simulation time: 0 hr 18 min 59 sec) 
Heartbeat CPU 0 instructions: 21000001 cycles: 8686465 heartbeat IPC: 2.16752 cumulative IPC: 2.41755 (Simulation time: 0 hr 20 min 3 sec) 
Heartbeat CPU 0 instructions: 22000000 cycles: 9108338 heartbeat IPC: 2.37038 cumulative IPC: 2.41537 (Simulation time: 0 hr 21 min 0 sec) 
Heartbeat CPU 0 instructions: 23000000 cycles: 9515152 heartbeat IPC: 2.45813 cumulative IPC: 2.4172 (Simulation time: 0 hr 22 min 1 sec) 
Heartbeat CPU 0 instructions: 24000000 cycles: 9968806 heartbeat IPC: 2.20432 cumulative IPC: 2.40751 (Simulation time: 0 hr 22 min 56 sec) 
Heartbeat CPU 0 instructions: 25000000 cycles: 10408187 heartbeat IPC: 2.27593 cumulative IPC: 2.40196 (Simulation time: 0 hr 23 min 47 sec) 
Heartbeat CPU 0 instructions: 26000000 cycles: 10815142 heartbeat IPC: 2.45727 cumulative IPC: 2.40404 (Simulation time: 0 hr 24 min 34 sec) 
Heartbeat CPU 0 instructions: 27000003 cycles: 11253217 heartbeat IPC: 2.28272 cumulative IPC: 2.39931 (Simulation time: 0 hr 25 min 25 sec) 
Heartbeat CPU 0 instructions: 28000000 cycles: 11711462 heartbeat IPC: 2.18223 cumulative IPC: 2.39082 (Simulation time: 0 hr 26 min 24 sec) 
Heartbeat CPU 0 instructions: 29000000 cycles: 12119010 heartbeat IPC: 2.4537 cumulative IPC: 2.39293 (Simulation time: 0 hr 27 min 18 sec) 
Heartbeat CPU 0 instructions: 30000002 cycles: 12541770 heartbeat IPC: 2.36541 cumulative IPC: 2.39201 (Simulation time: 0 hr 28 min 8 sec) 
Heartbeat CPU 0 instructions: 31000002 cycles: 13008155 heartbeat IPC: 2.14415 cumulative IPC: 2.38312 (Simulation time: 0 hr 28 min 59 sec) 
Heartbeat CPU 0 instructions: 32000000 cycles: 13426554 heartbeat IPC: 2.39006 cumulative IPC: 2.38334 (Simulation time: 0 hr 29 min 55 sec) 
Heartbeat CPU 0 instructions: 33000002 cycles: 13838105 heartbeat IPC: 2.42984 cumulative IPC: 2.38472 (Simulation time: 0 hr 30 min 44 sec) 
Heartbeat CPU 0 instructions: 34000000 cycles: 14301786 heartbeat IPC: 2.15665 cumulative IPC: 2.37733 (Simulation time: 0 hr 31 min 39 sec) 
Heartbeat CPU 0 instructions: 35000001 cycles: 14738015 heartbeat IPC: 2.29238 cumulative IPC: 2.37481 (Simulation time: 0 hr 32 min 35 sec) 
Heartbeat CPU 0 instructions: 36000000 cycles: 15145664 heartbeat IPC: 2.45309 cumulative IPC: 2.37692 (Simulation time: 0 hr 33 min 33 sec) 
Heartbeat CPU 0 instructions: 37000001 cycles: 15596604 heartbeat IPC: 2.21759 cumulative IPC: 2.37231 (Simulation time: 0 hr 34 min 29 sec) 
Heartbeat CPU 0 instructions: 38000001 cycles: 16052831 heartbeat IPC: 2.19189 cumulative IPC: 2.36718 (Simulation time: 0 hr 35 min 32 sec) 
Heartbeat CPU 0 instructions: 39000002 cycles: 16459968 heartbeat IPC: 2.45618 cumulative IPC: 2.36939 (Simulation time: 0 hr 36 min 40 sec) 
Heartbeat CPU 0 instructions: 40000000 cycles: 16894199 heartbeat IPC: 2.30292 cumulative IPC: 2.36768 (Simulation time: 0 hr 37 min 45 sec) 
Heartbeat CPU 0 instructions: 41000002 cycles: 17361935 heartbeat IPC: 2.13796 cumulative IPC: 2.36149 (Simulation time: 0 hr 38 min 44 sec) 
Heartbeat CPU 0 instructions: 42000000 cycles: 17776376 heartbeat IPC: 2.41288 cumulative IPC: 2.36269 (Simulation time: 0 hr 39 min 43 sec) 
Heartbeat CPU 0 instructions: 43000003 cycles: 18194819 heartbeat IPC: 2.38982 cumulative IPC: 2.36331 (Simulation time: 0 hr 40 min 34 sec) 
Heartbeat CPU 0 instructions: 44000000 cycles: 18662033 heartbeat IPC: 2.14034 cumulative IPC: 2.35773 (Simulation time: 0 hr 41 min 24 sec) 
Heartbeat CPU 0 instructions: 45000003 cycles: 19093780 heartbeat IPC: 2.31618 cumulative IPC: 2.35679 (Simulation time: 0 hr 42 min 23 sec) 
Heartbeat CPU 0 instructions: 46000003 cycles: 19502056 heartbeat IPC: 2.44932 cumulative IPC: 2.35873 (Simulation time: 0 hr 43 min 14 sec) 
Heartbeat CPU 0 instructions: 47000001 cycles: 19962549 heartbeat IPC: 2.17158 cumulative IPC: 2.35441 (Simulation time: 0 hr 44 min 6 sec) 
Heartbeat CPU 0 instructions: 48000000 cycles: 20413621 heartbeat IPC: 2.21694 cumulative IPC: 2.35137 (Simulation time: 0 hr 45 min 2 sec) 
Heartbeat CPU 0 instructions: 49000001 cycles: 20820471 heartbeat IPC: 2.45791 cumulative IPC: 2.35345 (Simulation time: 0 hr 45 min 55 sec) 
Heartbeat CPU 0 instructions: 50000000 cycles: 21265978 heartbeat IPC: 2.24463 cumulative IPC: 2.35117 (Simulation time: 0 hr 46 min 50 sec) 

Warmup complete CPU 0 instructions: 50000001 cycles: 21265979 (Simulation time: 0 hr 46 min 50 sec) 

Heartbeat CPU 0 instructions: 51000001 cycles: 22047456 heartbeat IPC: 1.27963 cumulative IPC: 1.27963 (Simulation time: 0 hr 47 min 58 sec) 
Heartbeat CPU 0 instructions: 52000000 cycles: 22815939 heartbeat IPC: 1.30126 cumulative IPC: 1.29036 (Simulation time: 0 hr 48 min 57 sec) 
Heartbeat CPU 0 instructions: 53000001 cycles: 23600475 heartbeat IPC: 1.27464 cumulative IPC: 1.28507 (Simulation time: 0 hr 49 min 56 sec) 
Heartbeat CPU 0 instructions: 54000000 cycles: 24385006 heartbeat IPC: 1.27465 cumulative IPC: 1.28245 (Simulation time: 0 hr 50 min 58 sec) 
Heartbeat CPU 0 instructions: 55000001 cycles: 25160310 heartbeat IPC: 1.28982 cumulative IPC: 1.28392 (Simulation time: 0 hr 52 min 4 sec) 
Heartbeat CPU 0 instructions: 56000000 cycles: 25936883 heartbeat IPC: 1.28771 cumulative IPC: 1.28455 (Simulation time: 0 hr 53 min 8 sec) 
Heartbeat CPU 0 instructions: 57000003 cycles: 26728389 heartbeat IPC: 1.26342 cumulative IPC: 1.28149 (Simulation time: 0 hr 54 min 18 sec) 
Heartbeat CPU 0 instructions: 58000001 cycles: 27503101 heartbeat IPC: 1.2908 cumulative IPC: 1.28264 (Simulation time: 0 hr 55 min 22 sec) 
Heartbeat CPU 0 instructions: 59000000 cycles: 28281101 heartbeat IPC: 1.28535 cumulative IPC: 1.28294 (Simulation time: 0 hr 56 min 31 sec) 
Heartbeat CPU 0 instructions: 60000000 cycles: 29055420 heartbeat IPC: 1.29146 cumulative IPC: 1.28379 (Simulation time: 0 hr 57 min 50 sec) 
Heartbeat CPU 0 instructions: 61000003 cycles: 29835117 heartbeat IPC: 1.28255 cumulative IPC: 1.28368 (Simulation time: 0 hr 58 min 54 sec) 
Heartbeat CPU 0 instructions: 62000001 cycles: 30616856 heartbeat IPC: 1.2792 cumulative IPC: 1.2833 (Simulation time: 0 hr 59 min 56 sec) 
Heartbeat CPU 0 instructions: 63000000 cycles: 31394126 heartbeat IPC: 1.28655 cumulative IPC: 1.28355 (Simulation time: 1 hr 1 min 15 sec) 
Heartbeat CPU 0 instructions: 64000000 cycles: 32169827 heartbeat IPC: 1.28916 cumulative IPC: 1.28395 (Simulation time: 1 hr 2 min 19 sec) 
Heartbeat CPU 0 instructions: 65000001 cycles: 32957615 heartbeat IPC: 1.26938 cumulative IPC: 1.28297 (Simulation time: 1 hr 3 min 18 sec) 
Heartbeat CPU 0 instructions: 66000000 cycles: 33746057 heartbeat IPC: 1.26832 cumulative IPC: 1.28204 (Simulation time: 1 hr 4 min 22 sec) 
Heartbeat CPU 0 instructions: 67000001 cycles: 34532625 heartbeat IPC: 1.27135 cumulative IPC: 1.28141 (Simulation time: 1 hr 5 min 21 sec) 
Heartbeat CPU 0 instructions: 68000000 cycles: 35309794 heartbeat IPC: 1.28672 cumulative IPC: 1.2817 (Simulation time: 1 hr 6 min 20 sec) 
Heartbeat CPU 0 instructions: 69000002 cycles: 36100256 heartbeat IPC: 1.26509 cumulative IPC: 1.28082 (Simulation time: 1 hr 7 min 19 sec) 
Heartbeat CPU 0 instructions: 70000000 cycles: 36876256 heartbeat IPC: 1.28866 cumulative IPC: 1.28121 (Simulation time: 1 hr 8 min 24 sec) 
Heartbeat CPU 0 instructions: 71000001 cycles: 37663733 heartbeat IPC: 1.26988 cumulative IPC: 1.28066 (Simulation time: 1 hr 9 min 24 sec) 
Heartbeat CPU 0 instructions: 72000000 cycles: 38447832 heartbeat IPC: 1.27535 cumulative IPC: 1.28042 (Simulation time: 1 hr 10 min 21 sec) 
Heartbeat CPU 0 instructions: 73000003 cycles: 39225957 heartbeat IPC: 1.28514 cumulative IPC: 1.28063 (Simulation time: 1 hr 11 min 21 sec) 
Heartbeat CPU 0 instructions: 74000002 cycles: 40004903 heartbeat IPC: 1.28378 cumulative IPC: 1.28076 (Simulation time: 1 hr 12 min 16 sec) 
Heartbeat CPU 0 instructions: 75000003 cycles: 40786632 heartbeat IPC: 1.27922 cumulative IPC: 1.28069 (Simulation time: 1 hr 13 min 17 sec) 
Heartbeat CPU 0 instructions: 76000000 cycles: 41573439 heartbeat IPC: 1.27096 cumulative IPC: 1.28032 (Simulation time: 1 hr 14 min 16 sec) 
Heartbeat CPU 0 instructions: 77000000 cycles: 42351382 heartbeat IPC: 1.28544 cumulative IPC: 1.28051 (Simulation time: 1 hr 15 min 13 sec) 
Heartbeat CPU 0 instructions: 78000003 cycles: 43131048 heartbeat IPC: 1.2826 cumulative IPC: 1.28058 (Simulation time: 1 hr 16 min 14 sec) 
Heartbeat CPU 0 instructions: 79000000 cycles: 43912246 heartbeat IPC: 1.28008 cumulative IPC: 1.28056 (Simulation time: 1 hr 17 min 12 sec) 
Heartbeat CPU 0 instructions: 80000000 cycles: 44695260 heartbeat IPC: 1.27712 cumulative IPC: 1.28045 (Simulation time: 1 hr 18 min 11 sec) 
Heartbeat CPU 0 instructions: 81000002 cycles: 45470676 heartbeat IPC: 1.28963 cumulative IPC: 1.28074 (Simulation time: 1 hr 19 min 8 sec) 
Heartbeat CPU 0 instructions: 82000002 cycles: 46254427 heartbeat IPC: 1.27592 cumulative IPC: 1.28059 (Simulation time: 1 hr 20 min 9 sec) 
Heartbeat CPU 0 instructions: 83000001 cycles: 47030205 heartbeat IPC: 1.28903 cumulative IPC: 1.28085 (Simulation time: 1 hr 21 min 4 sec) 
Heartbeat CPU 0 instructions: 84000000 cycles: 47812759 heartbeat IPC: 1.27787 cumulative IPC: 1.28076 (Simulation time: 1 hr 22 min 1 sec) 
Heartbeat CPU 0 instructions: 85000002 cycles: 48596991 heartbeat IPC: 1.27514 cumulative IPC: 1.2806 (Simulation time: 1 hr 23 min 8 sec) 
Heartbeat CPU 0 instructions: 86000002 cycles: 49375434 heartbeat IPC: 1.28462 cumulative IPC: 1.28071 (Simulation time: 1 hr 24 min 4 sec) 
Heartbeat CPU 0 instructions: 87000000 cycles: 50158997 heartbeat IPC: 1.27622 cumulative IPC: 1.28059 (Simulation time: 1 hr 25 min 4 sec) 
Heartbeat CPU 0 instructions: 88000000 cycles: 50946590 heartbeat IPC: 1.26969 cumulative IPC: 1.2803 (Simulation time: 1 hr 26 min 8 sec) 
Heartbeat CPU 0 instructions: 89000002 cycles: 51725628 heartbeat IPC: 1.28364 cumulative IPC: 1.28038 (Simulation time: 1 hr 27 min 3 sec) 
Heartbeat CPU 0 instructions: 90000002 cycles: 52499805 heartbeat IPC: 1.29169 cumulative IPC: 1.28066 (Simulation time: 1 hr 28 min 4 sec) 
Heartbeat CPU 0 instructions: 91000001 cycles: 53278493 heartbeat IPC: 1.28421 cumulative IPC: 1.28075 (Simulation time: 1 hr 29 min 4 sec) 
Heartbeat CPU 0 instructions: 92000000 cycles: 54066145 heartbeat IPC: 1.26959 cumulative IPC: 1.28048 (Simulation time: 1 hr 30 min 9 sec) 
Heartbeat CPU 0 instructions: 93000000 cycles: 54837788 heartbeat IPC: 1.29594 cumulative IPC: 1.28084 (Simulation time: 1 hr 31 min 9 sec) 
Heartbeat CPU 0 instructions: 94000002 cycles: 55615746 heartbeat IPC: 1.28542 cumulative IPC: 1.28094 (Simulation time: 1 hr 32 min 10 sec) 
Heartbeat CPU 0 instructions: 95000001 cycles: 56397133 heartbeat IPC: 1.27977 cumulative IPC: 1.28091 (Simulation time: 1 hr 33 min 5 sec) 
Heartbeat CPU 0 instructions: 96000000 cycles: 57176230 heartbeat IPC: 1.28354 cumulative IPC: 1.28097 (Simulation time: 1 hr 34 min 6 sec) 
Heartbeat CPU 0 instructions: 97000003 cycles: 57946063 heartbeat IPC: 1.29899 cumulative IPC: 1.28135 (Simulation time: 1 hr 35 min 0 sec) 
Heartbeat CPU 0 instructions: 98000002 cycles: 58723874 heartbeat IPC: 1.28566 cumulative IPC: 1.28144 (Simulation time: 1 hr 36 min 4 sec) 
Heartbeat CPU 0 instructions: 99000000 cycles: 59511511 heartbeat IPC: 1.26962 cumulative IPC: 1.2812 (Simulation time: 1 hr 37 min 5 sec) 
Heartbeat CPU 0 instructions: 100000000 cycles: 60288685 heartbeat IPC: 1.28671 cumulative IPC: 1.28131 (Simulation time: 1 hr 38 min 0 sec) 
Heartbeat CPU 0 instructions: 101000002 cycles: 61061134 heartbeat IPC: 1.29459 cumulative IPC: 1.28156 (Simulation time: 1 hr 39 min 4 sec) 
Heartbeat CPU 0 instructions: 102000002 cycles: 61847021 heartbeat IPC: 1.27245 cumulative IPC: 1.28139 (Simulation time: 1 hr 40 min 13 sec) 
Heartbeat CPU 0 instructions: 103000001 cycles: 62627070 heartbeat IPC: 1.28197 cumulative IPC: 1.2814 (Simulation time: 1 hr 41 min 10 sec) 
Heartbeat CPU 0 instructions: 104000000 cycles: 63409489 heartbeat IPC: 1.27809 cumulative IPC: 1.28134 (Simulation time: 1 hr 42 min 26 sec) 
Heartbeat CPU 0 instructions: 105000001 cycles: 64189914 heartbeat IPC: 1.28135 cumulative IPC: 1.28134 (Simulation time: 1 hr 43 min 25 sec) 
Heartbeat CPU 0 instructions: 106000000 cycles: 64970050 heartbeat IPC: 1.28183 cumulative IPC: 1.28135 (Simulation time: 1 hr 44 min 27 sec) 
Heartbeat CPU 0 instructions: 107000000 cycles: 65751566 heartbeat IPC: 1.27956 cumulative IPC: 1.28131 (Simulation time: 1 hr 45 min 28 sec) 
Heartbeat CPU 0 instructions: 108000000 cycles: 66528842 heartbeat IPC: 1.28654 cumulative IPC: 1.2814 (Simulation time: 1 hr 46 min 28 sec) 
Heartbeat CPU 0 instructions: 109000000 cycles: 67314668 heartbeat IPC: 1.27255 cumulative IPC: 1.28125 (Simulation time: 1 hr 47 min 31 sec) 
Heartbeat CPU 0 instructions: 110000002 cycles: 68099974 heartbeat IPC: 1.27339 cumulative IPC: 1.28112 (Simulation time: 1 hr 48 min 32 sec) 
Heartbeat CPU 0 instructions: 111000000 cycles: 68877121 heartbeat IPC: 1.28676 cumulative IPC: 1.28121 (Simulation time: 1 hr 49 min 31 sec) 
Heartbeat CPU 0 instructions: 112000000 cycles: 69659040 heartbeat IPC: 1.2789 cumulative IPC: 1.28118 (Simulation time: 1 hr 50 min 33 sec) 
Heartbeat CPU 0 instructions: 113000003 cycles: 70442402 heartbeat IPC: 1.27655 cumulative IPC: 1.2811 (Simulation time: 1 hr 51 min 36 sec) 
Heartbeat CPU 0 instructions: 114000000 cycles: 71220824 heartbeat IPC: 1.28465 cumulative IPC: 1.28116 (Simulation time: 1 hr 52 min 45 sec) 
Heartbeat CPU 0 instructions: 115000000 cycles: 71991422 heartbeat IPC: 1.29769 cumulative IPC: 1.28141 (Simulation time: 1 hr 53 min 48 sec) 
Heartbeat CPU 0 instructions: 116000000 cycles: 72771995 heartbeat IPC: 1.28111 cumulative IPC: 1.2814 (Simulation time: 1 hr 54 min 45 sec) 
Heartbeat CPU 0 instructions: 117000000 cycles: 73551184 heartbeat IPC: 1.28339 cumulative IPC: 1.28143 (Simulation time: 1 hr 55 min 50 sec) 
Heartbeat CPU 0 instructions: 118000000 cycles: 74330793 heartbeat IPC: 1.28269 cumulative IPC: 1.28145 (Simulation time: 1 hr 56 min 55 sec) 
Heartbeat CPU 0 instructions: 119000000 cycles: 75103466 heartbeat IPC: 1.29421 cumulative IPC: 1.28163 (Simulation time: 1 hr 57 min 54 sec) 
Heartbeat CPU 0 instructions: 120000000 cycles: 75885995 heartbeat IPC: 1.27791 cumulative IPC: 1.28158 (Simulation time: 1 hr 58 min 57 sec) 
Heartbeat CPU 0 instructions: 121000000 cycles: 76665390 heartbeat IPC: 1.28305 cumulative IPC: 1.2816 (Simulation time: 2 hr 0 min 12 sec) 
Heartbeat CPU 0 instructions: 122000003 cycles: 77438537 heartbeat IPC: 1.29342 cumulative IPC: 1.28176 (Simulation time: 2 hr 1 min 22 sec) 
Heartbeat CPU 0 instructions: 123000001 cycles: 78221535 heartbeat IPC: 1.27714 cumulative IPC: 1.2817 (Simulation time: 2 hr 2 min 20 sec) 
Heartbeat CPU 0 instructions: 124000000 cycles: 78992970 heartbeat IPC: 1.29628 cumulative IPC: 1.2819 (Simulation time: 2 hr 3 min 28 sec) 
Heartbeat CPU 0 instructions: 125000001 cycles: 79775194 heartbeat IPC: 1.27841 cumulative IPC: 1.28185 (Simulation time: 2 hr 4 min 39 sec) 
Heartbeat CPU 0 instructions: 126000003 cycles: 80558225 heartbeat IPC: 1.27709 cumulative IPC: 1.28179 (Simulation time: 2 hr 5 min 43 sec) 
Heartbeat CPU 0 instructions: 127000003 cycles: 81338605 heartbeat IPC: 1.28143 cumulative IPC: 1.28178 (Simulation time: 2 hr 6 min 44 sec) 
Heartbeat CPU 0 instructions: 128000000 cycles: 82111651 heartbeat IPC: 1.29358 cumulative IPC: 1.28193 (Simulation time: 2 hr 7 min 54 sec) 
Heartbeat CPU 0 instructions: 129000002 cycles: 82884142 heartbeat IPC: 1.29452 cumulative IPC: 1.28209 (Simulation time: 2 hr 8 min 56 sec) 
Heartbeat CPU 0 instructions: 130000003 cycles: 83666813 heartbeat IPC: 1.27768 cumulative IPC: 1.28203 (Simulation time: 2 hr 10 min 7 sec) 
Heartbeat CPU 0 instructions: 131000003 cycles: 84446743 heartbeat IPC: 1.28217 cumulative IPC: 1.28204 (Simulation time: 2 hr 11 min 16 sec) 
Heartbeat CPU 0 instructions: 132000000 cycles: 85222257 heartbeat IPC: 1.28946 cumulative IPC: 1.28213 (Simulation time: 2 hr 12 min 29 sec) 
Heartbeat CPU 0 instructions: 133000001 cycles: 85999757 heartbeat IPC: 1.28617 cumulative IPC: 1.28217 (Simulation time: 2 hr 13 min 34 sec) 
Heartbeat CPU 0 instructions: 134000003 cycles: 86784465 heartbeat IPC: 1.27436 cumulative IPC: 1.28208 (Simulation time: 2 hr 14 min 43 sec) 
Heartbeat CPU 0 instructions: 135000003 cycles: 87558220 heartbeat IPC: 1.2924 cumulative IPC: 1.2822 (Simulation time: 2 hr 15 min 45 sec) 
Heartbeat CPU 0 instructions: 136000000 cycles: 88347154 heartbeat IPC: 1.26753 cumulative IPC: 1.28203 (Simulation time: 2 hr 16 min 40 sec) 
Heartbeat CPU 0 instructions: 137000003 cycles: 89122987 heartbeat IPC: 1.28894 cumulative IPC: 1.28211 (Simulation time: 2 hr 17 min 51 sec) 
Heartbeat CPU 0 instructions: 138000000 cycles: 89888256 heartbeat IPC: 1.30673 cumulative IPC: 1.28238 (Simulation time: 2 hr 18 min 45 sec) 
Heartbeat CPU 0 instructions: 139000000 cycles: 90670390 heartbeat IPC: 1.27855 cumulative IPC: 1.28234 (Simulation time: 2 hr 19 min 41 sec) 
Heartbeat CPU 0 instructions: 140000000 cycles: 91450022 heartbeat IPC: 1.28266 cumulative IPC: 1.28234 (Simulation time: 2 hr 20 min 42 sec) 
Heartbeat CPU 0 instructions: 141000000 cycles: 92230197 heartbeat IPC: 1.28176 cumulative IPC: 1.28234 (Simulation time: 2 hr 21 min 40 sec) 
Heartbeat CPU 0 instructions: 142000003 cycles: 93006889 heartbeat IPC: 1.28752 cumulative IPC: 1.28239 (Simulation time: 2 hr 22 min 31 sec) 
Heartbeat CPU 0 instructions: 143000001 cycles: 93788067 heartbeat IPC: 1.28012 cumulative IPC: 1.28237 (Simulation time: 2 hr 23 min 21 sec) 
Heartbeat CPU 0 instructions: 144000000 cycles: 94567038 heartbeat IPC: 1.28374 cumulative IPC: 1.28238 (Simulation time: 2 hr 24 min 13 sec) 
Heartbeat CPU 0 instructions: 145000001 cycles: 95342750 heartbeat IPC: 1.28914 cumulative IPC: 1.28245 (Simulation time: 2 hr 25 min 3 sec) 
Heartbeat CPU 0 instructions: 146000000 cycles: 96122065 heartbeat IPC: 1.28318 cumulative IPC: 1.28246 (Simulation time: 2 hr 25 min 52 sec) 
Heartbeat CPU 0 instructions: 147000000 cycles: 96905883 heartbeat IPC: 1.27581 cumulative IPC: 1.28239 (Simulation time: 2 hr 26 min 43 sec) 
Heartbeat CPU 0 instructions: 148000000 cycles: 97686096 heartbeat IPC: 1.2817 cumulative IPC: 1.28238 (Simulation time: 2 hr 27 min 53 sec) 
Heartbeat CPU 0 instructions: 149000001 cycles: 98462881 heartbeat IPC: 1.28736 cumulative IPC: 1.28243 (Simulation time: 2 hr 28 min 45 sec) 
Heartbeat CPU 0 instructions: 150000000 cycles: 99246179 heartbeat IPC: 1.27665 cumulative IPC: 1.28238 (Simulation time: 2 hr 29 min 40 sec) 
Finished CPU 0 instructions: 100000003 cycles: 77980201 cummulative IPC: 1.28238 (Simulation time: 2 hr 29 min 40 sec) 

ChampSim completed all CPUs

Region of Interest Statistics

CPU 0 cummulative IPC: 1.28238 instructions: 100000003 cycles: 77980201
LLC TOTAL     ACCESS:     381303  HIT:      10596  MISS:     370707
LLC LOAD      ACCESS:      29244  HIT:        173  MISS:      29071
LLC RFO       ACCESS:          0  HIT:          0  MISS:          0
LLC PREFETCH  ACCESS:     288301  HIT:       1820  MISS:     286481
LLC WRITEBACK ACCESS:      63758  HIT:       8603  MISS:      55155
Insertion Distribution: 
	LOAD 0 0 18422 13555 
	RFO 0 0 5449 3980 
	PREF 0 0 44732 388013 
	WRITEBACK 0 0 0 73522 
Total Prefetch Downgrades: 83
