
*** ChampSim Multicore Out-of-Order Simulator ***

Warmup Instructions: 50000000
Simulation Instructions: 100000000
Configuration: 2
Number of CPUs: 1
LLC sets: 2048
LLC ways: 16
Off-chip DRAM Channels: 1 Width: 64-bit Data Rate: 1600 MT/s

CPU 0 runs /datasets/cs240c-wi22-a00-public/data/Assignment2-gz/sphinx3_1339B.trace.gz
CPU 0 L1D next line prefetcher
CPU 0 L2C IP-based stride prefetcher
Initialize SRRIP state
Heartbeat CPU 0 instructions: 1000000 cycles: 339022 heartbeat IPC: 2.94966 cumulative IPC: 2.94966 (Simulation time: 0 hr 1 min 27 sec) 
Heartbeat CPU 0 instructions: 2000001 cycles: 693417 heartbeat IPC: 2.82171 cumulative IPC: 2.88427 (Simulation time: 0 hr 3 min 11 sec) 
Heartbeat CPU 0 instructions: 3000000 cycles: 1084463 heartbeat IPC: 2.55724 cumulative IPC: 2.76635 (Simulation time: 0 hr 4 min 59 sec) 
Heartbeat CPU 0 instructions: 4000000 cycles: 1529987 heartbeat IPC: 2.24455 cumulative IPC: 2.6144 (Simulation time: 0 hr 6 min 45 sec) 
Heartbeat CPU 0 instructions: 5000003 cycles: 1869000 heartbeat IPC: 2.94975 cumulative IPC: 2.67523 (Simulation time: 0 hr 8 min 30 sec) 
Heartbeat CPU 0 instructions: 6000002 cycles: 2253242 heartbeat IPC: 2.60252 cumulative IPC: 2.66283 (Simulation time: 0 hr 10 min 29 sec) 
Heartbeat CPU 0 instructions: 7000001 cycles: 2716996 heartbeat IPC: 2.15631 cumulative IPC: 2.57638 (Simulation time: 0 hr 12 min 13 sec) 
Heartbeat CPU 0 instructions: 8000000 cycles: 3055867 heartbeat IPC: 2.95097 cumulative IPC: 2.61791 (Simulation time: 0 hr 13 min 50 sec) 
Heartbeat CPU 0 instructions: 9000003 cycles: 3412460 heartbeat IPC: 2.80433 cumulative IPC: 2.63739 (Simulation time: 0 hr 15 min 18 sec) 
Heartbeat CPU 0 instructions: 10000001 cycles: 3799185 heartbeat IPC: 2.58581 cumulative IPC: 2.63214 (Simulation time: 0 hr 17 min 2 sec) 
Heartbeat CPU 0 instructions: 11000002 cycles: 4242308 heartbeat IPC: 2.25671 cumulative IPC: 2.59293 (Simulation time: 0 hr 18 min 38 sec) 
Heartbeat CPU 0 instructions: 12000000 cycles: 4581268 heartbeat IPC: 2.95019 cumulative IPC: 2.61936 (Simulation time: 0 hr 20 min 4 sec) 
Heartbeat CPU 0 instructions: 13000000 cycles: 4973089 heartbeat IPC: 2.55219 cumulative IPC: 2.61407 (Simulation time: 0 hr 21 min 37 sec) 
Heartbeat CPU 0 instructions: 14000003 cycles: 5427931 heartbeat IPC: 2.19857 cumulative IPC: 2.57925 (Simulation time: 0 hr 22 min 58 sec) 
Heartbeat CPU 0 instructions: 15000003 cycles: 5766888 heartbeat IPC: 2.95023 cumulative IPC: 2.60106 (Simulation time: 0 hr 24 min 16 sec) 
Heartbeat CPU 0 instructions: 16000000 cycles: 6131787 heartbeat IPC: 2.74048 cumulative IPC: 2.60935 (Simulation time: 0 hr 25 min 19 sec) 
Heartbeat CPU 0 instructions: 17000000 cycles: 6578656 heartbeat IPC: 2.23779 cumulative IPC: 2.58411 (Simulation time: 0 hr 26 min 25 sec) 
Heartbeat CPU 0 instructions: 18000000 cycles: 7017938 heartbeat IPC: 2.27644 cumulative IPC: 2.56486 (Simulation time: 0 hr 27 min 36 sec) 
Heartbeat CPU 0 instructions: 19000001 cycles: 7462906 heartbeat IPC: 2.24735 cumulative IPC: 2.54593 (Simulation time: 0 hr 28 min 35 sec) 
Heartbeat CPU 0 instructions: 20000000 cycles: 7801963 heartbeat IPC: 2.94935 cumulative IPC: 2.56346 (Simulation time: 0 hr 29 min 33 sec) 
Heartbeat CPU 0 instructions: 21000000 cycles: 8183562 heartbeat IPC: 2.62055 cumulative IPC: 2.56612 (Simulation time: 0 hr 30 min 44 sec) 
Heartbeat CPU 0 instructions: 22000000 cycles: 8649240 heartbeat IPC: 2.14741 cumulative IPC: 2.54358 (Simulation time: 0 hr 31 min 38 sec) 
Heartbeat CPU 0 instructions: 23000001 cycles: 8988273 heartbeat IPC: 2.94957 cumulative IPC: 2.55889 (Simulation time: 0 hr 32 min 32 sec) 
Heartbeat CPU 0 instructions: 24000000 cycles: 9338607 heartbeat IPC: 2.85442 cumulative IPC: 2.56998 (Simulation time: 0 hr 33 min 29 sec) 
Heartbeat CPU 0 instructions: 25000000 cycles: 9746811 heartbeat IPC: 2.44976 cumulative IPC: 2.56494 (Simulation time: 0 hr 34 min 25 sec) 
Heartbeat CPU 0 instructions: 26000003 cycles: 10149728 heartbeat IPC: 2.48191 cumulative IPC: 2.56165 (Simulation time: 0 hr 35 min 25 sec) 
Heartbeat CPU 0 instructions: 27000002 cycles: 10488669 heartbeat IPC: 2.95036 cumulative IPC: 2.57421 (Simulation time: 0 hr 36 min 28 sec) 
Heartbeat CPU 0 instructions: 28000000 cycles: 10865794 heartbeat IPC: 2.65164 cumulative IPC: 2.57689 (Simulation time: 0 hr 37 min 34 sec) 
Heartbeat CPU 0 instructions: 29000001 cycles: 11306448 heartbeat IPC: 2.26936 cumulative IPC: 2.56491 (Simulation time: 0 hr 38 min 47 sec) 
Heartbeat CPU 0 instructions: 30000002 cycles: 11645467 heartbeat IPC: 2.94969 cumulative IPC: 2.57611 (Simulation time: 0 hr 39 min 48 sec) 
Heartbeat CPU 0 instructions: 31000003 cycles: 12016067 heartbeat IPC: 2.69833 cumulative IPC: 2.57988 (Simulation time: 0 hr 40 min 41 sec) 
Heartbeat CPU 0 instructions: 32000000 cycles: 12458804 heartbeat IPC: 2.25867 cumulative IPC: 2.56846 (Simulation time: 0 hr 41 min 42 sec) 
Heartbeat CPU 0 instructions: 33000000 cycles: 12797868 heartbeat IPC: 2.9493 cumulative IPC: 2.57855 (Simulation time: 0 hr 42 min 48 sec) 
Heartbeat CPU 0 instructions: 34000001 cycles: 13185499 heartbeat IPC: 2.57978 cumulative IPC: 2.57859 (Simulation time: 0 hr 43 min 54 sec) 
Heartbeat CPU 0 instructions: 35000003 cycles: 13646616 heartbeat IPC: 2.16865 cumulative IPC: 2.56474 (Simulation time: 0 hr 44 min 49 sec) 
Heartbeat CPU 0 instructions: 36000000 cycles: 13985497 heartbeat IPC: 2.95088 cumulative IPC: 2.5741 (Simulation time: 0 hr 45 min 41 sec) 
Heartbeat CPU 0 instructions: 37000003 cycles: 14342156 heartbeat IPC: 2.80381 cumulative IPC: 2.57981 (Simulation time: 0 hr 46 min 33 sec) 
Heartbeat CPU 0 instructions: 38000000 cycles: 14730079 heartbeat IPC: 2.57782 cumulative IPC: 2.57976 (Simulation time: 0 hr 47 min 39 sec) 
Heartbeat CPU 0 instructions: 39000002 cycles: 15173336 heartbeat IPC: 2.25603 cumulative IPC: 2.5703 (Simulation time: 0 hr 48 min 35 sec) 
Heartbeat CPU 0 instructions: 40000000 cycles: 15512358 heartbeat IPC: 2.94966 cumulative IPC: 2.57859 (Simulation time: 0 hr 49 min 31 sec) 
Heartbeat CPU 0 instructions: 41000003 cycles: 15896978 heartbeat IPC: 2.59998 cumulative IPC: 2.57911 (Simulation time: 0 hr 50 min 37 sec) 
Heartbeat CPU 0 instructions: 42000002 cycles: 16351715 heartbeat IPC: 2.19907 cumulative IPC: 2.56854 (Simulation time: 0 hr 51 min 38 sec) 
Heartbeat CPU 0 instructions: 43000001 cycles: 16690705 heartbeat IPC: 2.94994 cumulative IPC: 2.57628 (Simulation time: 0 hr 52 min 31 sec) 
Heartbeat CPU 0 instructions: 44000000 cycles: 17054787 heartbeat IPC: 2.74663 cumulative IPC: 2.57992 (Simulation time: 0 hr 53 min 31 sec) 
Heartbeat CPU 0 instructions: 45000000 cycles: 17467921 heartbeat IPC: 2.42052 cumulative IPC: 2.57615 (Simulation time: 0 hr 54 min 34 sec) 
Heartbeat CPU 0 instructions: 46000002 cycles: 17867479 heartbeat IPC: 2.50277 cumulative IPC: 2.57451 (Simulation time: 0 hr 55 min 37 sec) 
Heartbeat CPU 0 instructions: 47000003 cycles: 18206448 heartbeat IPC: 2.95013 cumulative IPC: 2.5815 (Simulation time: 0 hr 56 min 42 sec) 
Heartbeat CPU 0 instructions: 48000000 cycles: 18583422 heartbeat IPC: 2.65269 cumulative IPC: 2.58295 (Simulation time: 0 hr 57 min 54 sec) 
Heartbeat CPU 0 instructions: 49000002 cycles: 19024519 heartbeat IPC: 2.26708 cumulative IPC: 2.57562 (Simulation time: 0 hr 58 min 59 sec) 
Heartbeat CPU 0 instructions: 50000002 cycles: 19363460 heartbeat IPC: 2.95037 cumulative IPC: 2.58218 (Simulation time: 0 hr 59 min 59 sec) 

Warmup complete CPU 0 instructions: 50000002 cycles: 19363460 (Simulation time: 0 hr 59 min 59 sec) 

Heartbeat CPU 0 instructions: 51000003 cycles: 20575903 heartbeat IPC: 0.824782 cumulative IPC: 0.824782 (Simulation time: 1 hr 1 min 25 sec) 
Heartbeat CPU 0 instructions: 52000000 cycles: 21398837 heartbeat IPC: 1.21516 cumulative IPC: 0.982618 (Simulation time: 1 hr 2 min 34 sec) 
Heartbeat CPU 0 instructions: 53000002 cycles: 22254621 heartbeat IPC: 1.16852 cumulative IPC: 1.03765 (Simulation time: 1 hr 3 min 49 sec) 
Heartbeat CPU 0 instructions: 54000003 cycles: 23427322 heartbeat IPC: 0.852733 cumulative IPC: 0.984286 (Simulation time: 1 hr 4 min 56 sec) 
Heartbeat CPU 0 instructions: 55000002 cycles: 24309819 heartbeat IPC: 1.13315 cumulative IPC: 1.01084 (Simulation time: 1 hr 5 min 54 sec) 
Heartbeat CPU 0 instructions: 56000000 cycles: 25144770 heartbeat IPC: 1.19767 cumulative IPC: 1.03783 (Simulation time: 1 hr 6 min 55 sec) 
Heartbeat CPU 0 instructions: 57000000 cycles: 26140768 heartbeat IPC: 1.00402 cumulative IPC: 1.03286 (Simulation time: 1 hr 8 min 3 sec) 
Heartbeat CPU 0 instructions: 58000000 cycles: 27240909 heartbeat IPC: 0.908974 cumulative IPC: 1.01556 (Simulation time: 1 hr 9 min 12 sec) 
Heartbeat CPU 0 instructions: 59000002 cycles: 28013120 heartbeat IPC: 1.29499 cumulative IPC: 1.0405 (Simulation time: 1 hr 10 min 9 sec) 
Heartbeat CPU 0 instructions: 60000000 cycles: 28817762 heartbeat IPC: 1.24279 cumulative IPC: 1.05772 (Simulation time: 1 hr 11 min 15 sec) 
Heartbeat CPU 0 instructions: 61000000 cycles: 30181485 heartbeat IPC: 0.733287 cumulative IPC: 1.01682 (Simulation time: 1 hr 12 min 21 sec) 
Heartbeat CPU 0 instructions: 62000002 cycles: 31324392 heartbeat IPC: 0.874964 cumulative IPC: 1.00327 (Simulation time: 1 hr 13 min 25 sec) 
Heartbeat CPU 0 instructions: 63000001 cycles: 32140331 heartbeat IPC: 1.22558 cumulative IPC: 1.01746 (Simulation time: 1 hr 14 min 24 sec) 
Heartbeat CPU 0 instructions: 64000000 cycles: 32914788 heartbeat IPC: 1.29123 cumulative IPC: 1.03311 (Simulation time: 1 hr 15 min 30 sec) 
Heartbeat CPU 0 instructions: 65000000 cycles: 34010075 heartbeat IPC: 0.913003 cumulative IPC: 1.02413 (Simulation time: 1 hr 16 min 34 sec) 
Heartbeat CPU 0 instructions: 66000001 cycles: 34979036 heartbeat IPC: 1.03203 cumulative IPC: 1.02462 (Simulation time: 1 hr 17 min 31 sec) 
Heartbeat CPU 0 instructions: 67000000 cycles: 35778792 heartbeat IPC: 1.25038 cumulative IPC: 1.03562 (Simulation time: 1 hr 18 min 34 sec) 
Heartbeat CPU 0 instructions: 68000000 cycles: 36646704 heartbeat IPC: 1.15219 cumulative IPC: 1.04147 (Simulation time: 1 hr 19 min 30 sec) 
Heartbeat CPU 0 instructions: 69000003 cycles: 37781857 heartbeat IPC: 0.880941 cumulative IPC: 1.03158 (Simulation time: 1 hr 20 min 32 sec) 
Heartbeat CPU 0 instructions: 70000003 cycles: 38619138 heartbeat IPC: 1.19434 cumulative IPC: 1.03865 (Simulation time: 1 hr 21 min 35 sec) 
Heartbeat CPU 0 instructions: 71000001 cycles: 39419339 heartbeat IPC: 1.24968 cumulative IPC: 1.04707 (Simulation time: 1 hr 22 min 39 sec) 
Heartbeat CPU 0 instructions: 72000000 cycles: 40649530 heartbeat IPC: 0.812881 cumulative IPC: 1.03354 (Simulation time: 1 hr 23 min 49 sec) 
Heartbeat CPU 0 instructions: 73000001 cycles: 41465717 heartbeat IPC: 1.22521 cumulative IPC: 1.04062 (Simulation time: 1 hr 24 min 51 sec) 
Heartbeat CPU 0 instructions: 74000000 cycles: 42259808 heartbeat IPC: 1.2593 cumulative IPC: 1.0482 (Simulation time: 1 hr 25 min 54 sec) 
Heartbeat CPU 0 instructions: 75000003 cycles: 43372166 heartbeat IPC: 0.898994 cumulative IPC: 1.04129 (Simulation time: 1 hr 27 min 4 sec) 
Heartbeat CPU 0 instructions: 76000000 cycles: 44287975 heartbeat IPC: 1.09193 cumulative IPC: 1.04315 (Simulation time: 1 hr 28 min 4 sec) 
Heartbeat CPU 0 instructions: 77000002 cycles: 45084889 heartbeat IPC: 1.25484 cumulative IPC: 1.04971 (Simulation time: 1 hr 29 min 4 sec) 
Heartbeat CPU 0 instructions: 78000002 cycles: 45996376 heartbeat IPC: 1.09711 cumulative IPC: 1.05133 (Simulation time: 1 hr 30 min 5 sec) 
Heartbeat CPU 0 instructions: 79000001 cycles: 47069120 heartbeat IPC: 0.932188 cumulative IPC: 1.04672 (Simulation time: 1 hr 31 min 2 sec) 
Heartbeat CPU 0 instructions: 80000000 cycles: 47865108 heartbeat IPC: 1.2563 cumulative IPC: 1.05257 (Simulation time: 1 hr 32 min 5 sec) 
Heartbeat CPU 0 instructions: 81000001 cycles: 48673817 heartbeat IPC: 1.23654 cumulative IPC: 1.05765 (Simulation time: 1 hr 33 min 10 sec) 
Heartbeat CPU 0 instructions: 82000003 cycles: 49865306 heartbeat IPC: 0.839288 cumulative IPC: 1.04912 (Simulation time: 1 hr 34 min 10 sec) 
Heartbeat CPU 0 instructions: 83000001 cycles: 50674397 heartbeat IPC: 1.23595 cumulative IPC: 1.05394 (Simulation time: 1 hr 35 min 16 sec) 
Heartbeat CPU 0 instructions: 84000000 cycles: 51448488 heartbeat IPC: 1.29184 cumulative IPC: 1.05968 (Simulation time: 1 hr 36 min 28 sec) 
Heartbeat CPU 0 instructions: 85000002 cycles: 52611374 heartbeat IPC: 0.859931 cumulative IPC: 1.0527 (Simulation time: 1 hr 37 min 38 sec) 
Heartbeat CPU 0 instructions: 86000003 cycles: 53478239 heartbeat IPC: 1.15358 cumulative IPC: 1.05526 (Simulation time: 1 hr 38 min 45 sec) 
Heartbeat CPU 0 instructions: 87000003 cycles: 54237187 heartbeat IPC: 1.31761 cumulative IPC: 1.06097 (Simulation time: 1 hr 39 min 50 sec) 
Heartbeat CPU 0 instructions: 88000000 cycles: 55262723 heartbeat IPC: 0.975097 cumulative IPC: 1.05852 (Simulation time: 1 hr 41 min 0 sec) 
Heartbeat CPU 0 instructions: 89000000 cycles: 56265448 heartbeat IPC: 0.997282 cumulative IPC: 1.05685 (Simulation time: 1 hr 42 min 0 sec) 
Heartbeat CPU 0 instructions: 90000003 cycles: 57033534 heartbeat IPC: 1.30194 cumulative IPC: 1.06185 (Simulation time: 1 hr 42 min 57 sec) 
Heartbeat CPU 0 instructions: 91000000 cycles: 57855984 heartbeat IPC: 1.21588 cumulative IPC: 1.06514 (Simulation time: 1 hr 43 min 55 sec) 
Heartbeat CPU 0 instructions: 92000000 cycles: 59039226 heartbeat IPC: 0.845136 cumulative IPC: 1.05858 (Simulation time: 1 hr 44 min 52 sec) 
Heartbeat CPU 0 instructions: 93000000 cycles: 59842293 heartbeat IPC: 1.24523 cumulative IPC: 1.06228 (Simulation time: 1 hr 45 min 50 sec) 
Heartbeat CPU 0 instructions: 94000000 cycles: 60628369 heartbeat IPC: 1.27214 cumulative IPC: 1.06628 (Simulation time: 1 hr 46 min 47 sec) 
Heartbeat CPU 0 instructions: 95000002 cycles: 61860396 heartbeat IPC: 0.811672 cumulative IPC: 1.0589 (Simulation time: 1 hr 47 min 50 sec) 
Heartbeat CPU 0 instructions: 96000000 cycles: 62681538 heartbeat IPC: 1.21781 cumulative IPC: 1.06191 (Simulation time: 1 hr 48 min 59 sec) 
Heartbeat CPU 0 instructions: 97000002 cycles: 63441479 heartbeat IPC: 1.31589 cumulative IPC: 1.06629 (Simulation time: 1 hr 50 min 9 sec) 
Heartbeat CPU 0 instructions: 98000000 cycles: 64537578 heartbeat IPC: 0.912325 cumulative IPC: 1.06256 (Simulation time: 1 hr 51 min 13 sec) 
Heartbeat CPU 0 instructions: 99000003 cycles: 65621226 heartbeat IPC: 0.922812 cumulative IPC: 1.05928 (Simulation time: 1 hr 52 min 28 sec) 
Heartbeat CPU 0 instructions: 100000000 cycles: 66433571 heartbeat IPC: 1.231 cumulative IPC: 1.06225 (Simulation time: 1 hr 53 min 40 sec) 
Heartbeat CPU 0 instructions: 101000000 cycles: 67267293 heartbeat IPC: 1.19944 cumulative IPC: 1.06463 (Simulation time: 1 hr 54 min 38 sec) 
Heartbeat CPU 0 instructions: 102000001 cycles: 68731302 heartbeat IPC: 0.683057 cumulative IPC: 1.05332 (Simulation time: 1 hr 55 min 41 sec) 
Heartbeat CPU 0 instructions: 103000000 cycles: 70000719 heartbeat IPC: 0.787762 cumulative IPC: 1.04666 (Simulation time: 1 hr 56 min 47 sec) 
Heartbeat CPU 0 instructions: 104000000 cycles: 70931133 heartbeat IPC: 1.07479 cumulative IPC: 1.04717 (Simulation time: 1 hr 57 min 45 sec) 
Heartbeat CPU 0 instructions: 105000003 cycles: 71741645 heartbeat IPC: 1.23379 cumulative IPC: 1.05006 (Simulation time: 1 hr 58 min 50 sec) 
Heartbeat CPU 0 instructions: 106000000 cycles: 72616665 heartbeat IPC: 1.14283 cumulative IPC: 1.05158 (Simulation time: 1 hr 59 min 48 sec) 
Heartbeat CPU 0 instructions: 107000001 cycles: 74074255 heartbeat IPC: 0.686065 cumulative IPC: 1.04184 (Simulation time: 2 hr 0 min 53 sec) 
Heartbeat CPU 0 instructions: 108000000 cycles: 74963341 heartbeat IPC: 1.12475 cumulative IPC: 1.04317 (Simulation time: 2 hr 2 min 6 sec) 
Heartbeat CPU 0 instructions: 109000000 cycles: 75780963 heartbeat IPC: 1.22306 cumulative IPC: 1.04577 (Simulation time: 2 hr 3 min 9 sec) 
Heartbeat CPU 0 instructions: 110000000 cycles: 76911978 heartbeat IPC: 0.884162 cumulative IPC: 1.0426 (Simulation time: 2 hr 4 min 11 sec) 
Heartbeat CPU 0 instructions: 111000000 cycles: 78306872 heartbeat IPC: 0.7169 cumulative IPC: 1.03489 (Simulation time: 2 hr 5 min 17 sec) 
Heartbeat CPU 0 instructions: 112000000 cycles: 79248052 heartbeat IPC: 1.0625 cumulative IPC: 1.03532 (Simulation time: 2 hr 6 min 16 sec) 
Heartbeat CPU 0 instructions: 113000002 cycles: 80087249 heartbeat IPC: 1.19162 cumulative IPC: 1.03748 (Simulation time: 2 hr 7 min 32 sec) 
Heartbeat CPU 0 instructions: 114000000 cycles: 81334435 heartbeat IPC: 0.801803 cumulative IPC: 1.03274 (Simulation time: 2 hr 8 min 37 sec) 
Heartbeat CPU 0 instructions: 115000000 cycles: 82710307 heartbeat IPC: 0.726812 cumulative IPC: 1.0261 (Simulation time: 2 hr 9 min 39 sec) 
Heartbeat CPU 0 instructions: 116000000 cycles: 83574324 heartbeat IPC: 1.15738 cumulative IPC: 1.02786 (Simulation time: 2 hr 10 min 48 sec) 
Heartbeat CPU 0 instructions: 117000003 cycles: 84425594 heartbeat IPC: 1.17472 cumulative IPC: 1.02978 (Simulation time: 2 hr 11 min 56 sec) 
Heartbeat CPU 0 instructions: 118000003 cycles: 85686616 heartbeat IPC: 0.793008 cumulative IPC: 1.02528 (Simulation time: 2 hr 13 min 14 sec) 
Heartbeat CPU 0 instructions: 119000003 cycles: 86719653 heartbeat IPC: 0.96802 cumulative IPC: 1.0244 (Simulation time: 2 hr 14 min 21 sec) 
Heartbeat CPU 0 instructions: 120000000 cycles: 87537700 heartbeat IPC: 1.22242 cumulative IPC: 1.02678 (Simulation time: 2 hr 15 min 22 sec) 
Heartbeat CPU 0 instructions: 121000001 cycles: 88423729 heartbeat IPC: 1.12863 cumulative IPC: 1.02809 (Simulation time: 2 hr 16 min 17 sec) 
Heartbeat CPU 0 instructions: 122000002 cycles: 89694860 heartbeat IPC: 0.786702 cumulative IPC: 1.02372 (Simulation time: 2 hr 17 min 14 sec) 
Heartbeat CPU 0 instructions: 123000000 cycles: 90510607 heartbeat IPC: 1.22587 cumulative IPC: 1.02604 (Simulation time: 2 hr 18 min 8 sec) 
Heartbeat CPU 0 instructions: 124000000 cycles: 91344989 heartbeat IPC: 1.19849 cumulative IPC: 1.02804 (Simulation time: 2 hr 19 min 12 sec) 
Heartbeat CPU 0 instructions: 125000002 cycles: 92549178 heartbeat IPC: 0.830436 cumulative IPC: 1.02479 (Simulation time: 2 hr 20 min 14 sec) 
Heartbeat CPU 0 instructions: 126000000 cycles: 93407417 heartbeat IPC: 1.16517 cumulative IPC: 1.02642 (Simulation time: 2 hr 21 min 18 sec) 
Heartbeat CPU 0 instructions: 127000000 cycles: 94230976 heartbeat IPC: 1.21424 cumulative IPC: 1.02848 (Simulation time: 2 hr 22 min 19 sec) 
Heartbeat CPU 0 instructions: 128000000 cycles: 95128155 heartbeat IPC: 1.1146 cumulative IPC: 1.0295 (Simulation time: 2 hr 23 min 17 sec) 
Heartbeat CPU 0 instructions: 129000002 cycles: 95983962 heartbeat IPC: 1.16849 cumulative IPC: 1.03106 (Simulation time: 2 hr 24 min 17 sec) 
Heartbeat CPU 0 instructions: 130000002 cycles: 96788262 heartbeat IPC: 1.24332 cumulative IPC: 1.03326 (Simulation time: 2 hr 25 min 7 sec) 
Heartbeat CPU 0 instructions: 131000000 cycles: 97638252 heartbeat IPC: 1.17648 cumulative IPC: 1.03482 (Simulation time: 2 hr 26 min 1 sec) 
Heartbeat CPU 0 instructions: 132000000 cycles: 98536672 heartbeat IPC: 1.11307 cumulative IPC: 1.0357 (Simulation time: 2 hr 26 min 50 sec) 
Heartbeat CPU 0 instructions: 133000002 cycles: 99338406 heartbeat IPC: 1.2473 cumulative IPC: 1.03782 (Simulation time: 2 hr 27 min 40 sec) 
Heartbeat CPU 0 instructions: 134000000 cycles: 100253017 heartbeat IPC: 1.09336 cumulative IPC: 1.03845 (Simulation time: 2 hr 28 min 27 sec) 
Heartbeat CPU 0 instructions: 135000001 cycles: 101434711 heartbeat IPC: 0.846244 cumulative IPC: 1.03569 (Simulation time: 2 hr 29 min 16 sec) 
Heartbeat CPU 0 instructions: 136000000 cycles: 102280462 heartbeat IPC: 1.18238 cumulative IPC: 1.03718 (Simulation time: 2 hr 30 min 4 sec) 
Heartbeat CPU 0 instructions: 137000001 cycles: 103104039 heartbeat IPC: 1.21422 cumulative IPC: 1.03892 (Simulation time: 2 hr 30 min 49 sec) 
Heartbeat CPU 0 instructions: 138000001 cycles: 104357125 heartbeat IPC: 0.79803 cumulative IPC: 1.03537 (Simulation time: 2 hr 31 min 43 sec) 
Heartbeat CPU 0 instructions: 139000000 cycles: 105179140 heartbeat IPC: 1.21652 cumulative IPC: 1.03711 (Simulation time: 2 hr 32 min 26 sec) 
Heartbeat CPU 0 instructions: 140000000 cycles: 106002617 heartbeat IPC: 1.21436 cumulative IPC: 1.03879 (Simulation time: 2 hr 33 min 8 sec) 
Heartbeat CPU 0 instructions: 141000001 cycles: 107073858 heartbeat IPC: 0.933498 cumulative IPC: 1.03751 (Simulation time: 2 hr 33 min 52 sec) 
Heartbeat CPU 0 instructions: 142000000 cycles: 108031604 heartbeat IPC: 1.04412 cumulative IPC: 1.03758 (Simulation time: 2 hr 34 min 33 sec) 
Heartbeat CPU 0 instructions: 143000000 cycles: 108850464 heartbeat IPC: 1.22121 cumulative IPC: 1.03926 (Simulation time: 2 hr 35 min 18 sec) 
Heartbeat CPU 0 instructions: 144000000 cycles: 109733852 heartbeat IPC: 1.13201 cumulative IPC: 1.04016 (Simulation time: 2 hr 35 min 59 sec) 
Heartbeat CPU 0 instructions: 145000002 cycles: 110852328 heartbeat IPC: 0.894076 cumulative IPC: 1.03838 (Simulation time: 2 hr 36 min 39 sec) 
Heartbeat CPU 0 instructions: 146000000 cycles: 111661635 heartbeat IPC: 1.23562 cumulative IPC: 1.04011 (Simulation time: 2 hr 37 min 27 sec) 
Heartbeat CPU 0 instructions: 147000002 cycles: 112487708 heartbeat IPC: 1.21055 cumulative IPC: 1.04162 (Simulation time: 2 hr 38 min 19 sec) 
Heartbeat CPU 0 instructions: 148000000 cycles: 113769539 heartbeat IPC: 0.780132 cumulative IPC: 1.03807 (Simulation time: 2 hr 39 min 4 sec) 
Heartbeat CPU 0 instructions: 149000000 cycles: 114932305 heartbeat IPC: 0.860018 cumulative IPC: 1.0359 (Simulation time: 2 hr 39 min 46 sec) 
Heartbeat CPU 0 instructions: 150000003 cycles: 115783886 heartbeat IPC: 1.17429 cumulative IPC: 1.03712 (Simulation time: 2 hr 40 min 23 sec) 
Finished CPU 0 instructions: 100000001 cycles: 96420426 cummulative IPC: 1.03712 (Simulation time: 2 hr 40 min 23 sec) 

ChampSim completed all CPUs

Region of Interest Statistics

CPU 0 cummulative IPC: 1.03712 instructions: 100000001 cycles: 96420426
LLC TOTAL     ACCESS:    1600682  HIT:     832260  MISS:     768422
LLC LOAD      ACCESS:     216429  HIT:     181711  MISS:      34718
LLC RFO       ACCESS:     111273  HIT:     109468  MISS:       1805
LLC PREFETCH  ACCESS:    1136005  HIT:     405207  MISS:     730798
LLC WRITEBACK ACCESS:     136975  HIT:     135874  MISS:       1101
Insertion Distribution: 
	LOAD 17822 0 19350 17317 
	RFO 1354 0 4547 218 
	PREF 0 6327 127129 962033 
	WRITEBACK 0 0 0 2797 
Total Prefetch Downgrades: 8953
