
*** ChampSim Multicore Out-of-Order Simulator ***

Warmup Instructions: 50000000
Simulation Instructions: 100000000
Configuration: 2
Number of CPUs: 1
LLC sets: 2048
LLC ways: 16
Off-chip DRAM Channels: 1 Width: 64-bit Data Rate: 1600 MT/s

CPU 0 runs /datasets/cs240c-wi22-a00-public/data/Assignment2-gz/mcf_250B.trace.gz
CPU 0 L1D next line prefetcher
CPU 0 L2C IP-based stride prefetcher
Initialize SRRIP state
Heartbeat CPU 0 instructions: 1000000 cycles: 533286 heartbeat IPC: 1.87517 cumulative IPC: 1.87517 (Simulation time: 0 hr 1 min 37 sec) 
Heartbeat CPU 0 instructions: 2000003 cycles: 1045831 heartbeat IPC: 1.95105 cumulative IPC: 1.91236 (Simulation time: 0 hr 3 min 7 sec) 
Heartbeat CPU 0 instructions: 3000002 cycles: 1541623 heartbeat IPC: 2.01697 cumulative IPC: 1.946 (Simulation time: 0 hr 4 min 26 sec) 
Heartbeat CPU 0 instructions: 4000000 cycles: 2051730 heartbeat IPC: 1.96037 cumulative IPC: 1.94957 (Simulation time: 0 hr 5 min 52 sec) 
Heartbeat CPU 0 instructions: 5000002 cycles: 2556580 heartbeat IPC: 1.98079 cumulative IPC: 1.95574 (Simulation time: 0 hr 7 min 11 sec) 
Heartbeat CPU 0 instructions: 6000002 cycles: 3060575 heartbeat IPC: 1.98415 cumulative IPC: 1.96042 (Simulation time: 0 hr 8 min 34 sec) 
Heartbeat CPU 0 instructions: 7000002 cycles: 3598998 heartbeat IPC: 1.85728 cumulative IPC: 1.94499 (Simulation time: 0 hr 9 min 57 sec) 
Heartbeat CPU 0 instructions: 8000000 cycles: 4112346 heartbeat IPC: 1.94799 cumulative IPC: 1.94536 (Simulation time: 0 hr 11 min 26 sec) 
Heartbeat CPU 0 instructions: 9000002 cycles: 4625258 heartbeat IPC: 1.94966 cumulative IPC: 1.94584 (Simulation time: 0 hr 12 min 51 sec) 
Heartbeat CPU 0 instructions: 10000000 cycles: 5134998 heartbeat IPC: 1.96178 cumulative IPC: 1.94742 (Simulation time: 0 hr 14 min 13 sec) 
Heartbeat CPU 0 instructions: 11000001 cycles: 5645591 heartbeat IPC: 1.95851 cumulative IPC: 1.94842 (Simulation time: 0 hr 15 min 37 sec) 
Heartbeat CPU 0 instructions: 12000000 cycles: 6180940 heartbeat IPC: 1.86794 cumulative IPC: 1.94145 (Simulation time: 0 hr 17 min 7 sec) 
Heartbeat CPU 0 instructions: 13000001 cycles: 6700873 heartbeat IPC: 1.92333 cumulative IPC: 1.94005 (Simulation time: 0 hr 18 min 26 sec) 
Heartbeat CPU 0 instructions: 14000003 cycles: 7212368 heartbeat IPC: 1.95506 cumulative IPC: 1.94111 (Simulation time: 0 hr 19 min 58 sec) 
Heartbeat CPU 0 instructions: 15000002 cycles: 7723782 heartbeat IPC: 1.95536 cumulative IPC: 1.94205 (Simulation time: 0 hr 21 min 33 sec) 
Heartbeat CPU 0 instructions: 16000000 cycles: 8231528 heartbeat IPC: 1.96948 cumulative IPC: 1.94375 (Simulation time: 0 hr 23 min 2 sec) 
Heartbeat CPU 0 instructions: 17000000 cycles: 8741823 heartbeat IPC: 1.95965 cumulative IPC: 1.94467 (Simulation time: 0 hr 24 min 24 sec) 
Heartbeat CPU 0 instructions: 18000002 cycles: 9250057 heartbeat IPC: 1.9676 cumulative IPC: 1.94593 (Simulation time: 0 hr 25 min 58 sec) 
Heartbeat CPU 0 instructions: 19000001 cycles: 9760210 heartbeat IPC: 1.96019 cumulative IPC: 1.94668 (Simulation time: 0 hr 27 min 21 sec) 
Heartbeat CPU 0 instructions: 20000000 cycles: 10269751 heartbeat IPC: 1.96255 cumulative IPC: 1.94747 (Simulation time: 0 hr 28 min 45 sec) 
Heartbeat CPU 0 instructions: 21000001 cycles: 10775112 heartbeat IPC: 1.97879 cumulative IPC: 1.94894 (Simulation time: 0 hr 30 min 8 sec) 
Heartbeat CPU 0 instructions: 22000000 cycles: 11278303 heartbeat IPC: 1.98731 cumulative IPC: 1.95065 (Simulation time: 0 hr 31 min 27 sec) 
Heartbeat CPU 0 instructions: 23000003 cycles: 11785350 heartbeat IPC: 1.97221 cumulative IPC: 1.95158 (Simulation time: 0 hr 32 min 52 sec) 
Heartbeat CPU 0 instructions: 24000000 cycles: 12290981 heartbeat IPC: 1.97772 cumulative IPC: 1.95265 (Simulation time: 0 hr 34 min 12 sec) 
Heartbeat CPU 0 instructions: 25000002 cycles: 12798752 heartbeat IPC: 1.9694 cumulative IPC: 1.95332 (Simulation time: 0 hr 35 min 38 sec) 
Heartbeat CPU 0 instructions: 26000000 cycles: 13310559 heartbeat IPC: 1.95386 cumulative IPC: 1.95334 (Simulation time: 0 hr 37 min 13 sec) 
Heartbeat CPU 0 instructions: 27000003 cycles: 13823583 heartbeat IPC: 1.94923 cumulative IPC: 1.95318 (Simulation time: 0 hr 38 min 52 sec) 
Heartbeat CPU 0 instructions: 28000000 cycles: 14336004 heartbeat IPC: 1.95151 cumulative IPC: 1.95312 (Simulation time: 0 hr 40 min 16 sec) 
Heartbeat CPU 0 instructions: 29000000 cycles: 14849354 heartbeat IPC: 1.94799 cumulative IPC: 1.95295 (Simulation time: 0 hr 41 min 40 sec) 
Heartbeat CPU 0 instructions: 30000000 cycles: 15361968 heartbeat IPC: 1.95079 cumulative IPC: 1.95287 (Simulation time: 0 hr 43 min 10 sec) 
Heartbeat CPU 0 instructions: 31000000 cycles: 15873703 heartbeat IPC: 1.95414 cumulative IPC: 1.95292 (Simulation time: 0 hr 44 min 35 sec) 
Heartbeat CPU 0 instructions: 32000000 cycles: 16380605 heartbeat IPC: 1.97277 cumulative IPC: 1.95353 (Simulation time: 0 hr 46 min 8 sec) 
Heartbeat CPU 0 instructions: 33000002 cycles: 16891926 heartbeat IPC: 1.95572 cumulative IPC: 1.9536 (Simulation time: 0 hr 47 min 38 sec) 
Heartbeat CPU 0 instructions: 34000000 cycles: 17404200 heartbeat IPC: 1.95208 cumulative IPC: 1.95355 (Simulation time: 0 hr 48 min 58 sec) 
Heartbeat CPU 0 instructions: 35000000 cycles: 17928464 heartbeat IPC: 1.90744 cumulative IPC: 1.9522 (Simulation time: 0 hr 50 min 22 sec) 
Heartbeat CPU 0 instructions: 36000000 cycles: 18459377 heartbeat IPC: 1.88355 cumulative IPC: 1.95023 (Simulation time: 0 hr 51 min 43 sec) 
Heartbeat CPU 0 instructions: 37000002 cycles: 18971119 heartbeat IPC: 1.95411 cumulative IPC: 1.95033 (Simulation time: 0 hr 53 min 6 sec) 
Heartbeat CPU 0 instructions: 38000000 cycles: 19482976 heartbeat IPC: 1.95367 cumulative IPC: 1.95042 (Simulation time: 0 hr 54 min 40 sec) 
Heartbeat CPU 0 instructions: 39000002 cycles: 19994659 heartbeat IPC: 1.95434 cumulative IPC: 1.95052 (Simulation time: 0 hr 56 min 8 sec) 
Heartbeat CPU 0 instructions: 40000000 cycles: 20507578 heartbeat IPC: 1.94962 cumulative IPC: 1.9505 (Simulation time: 0 hr 57 min 29 sec) 
Heartbeat CPU 0 instructions: 41000000 cycles: 21020624 heartbeat IPC: 1.94914 cumulative IPC: 1.95047 (Simulation time: 0 hr 58 min 52 sec) 
Heartbeat CPU 0 instructions: 42000001 cycles: 21534315 heartbeat IPC: 1.9467 cumulative IPC: 1.95038 (Simulation time: 1 hr 0 min 18 sec) 
Heartbeat CPU 0 instructions: 43000000 cycles: 22045542 heartbeat IPC: 1.95608 cumulative IPC: 1.95051 (Simulation time: 1 hr 2 min 2 sec) 
Heartbeat CPU 0 instructions: 44000000 cycles: 22556801 heartbeat IPC: 1.95596 cumulative IPC: 1.95063 (Simulation time: 1 hr 3 min 24 sec) 
Heartbeat CPU 0 instructions: 45000001 cycles: 23069288 heartbeat IPC: 1.95127 cumulative IPC: 1.95065 (Simulation time: 1 hr 4 min 54 sec) 
Heartbeat CPU 0 instructions: 46000002 cycles: 23581695 heartbeat IPC: 1.95158 cumulative IPC: 1.95067 (Simulation time: 1 hr 6 min 41 sec) 
Heartbeat CPU 0 instructions: 47000002 cycles: 24094200 heartbeat IPC: 1.9512 cumulative IPC: 1.95068 (Simulation time: 1 hr 8 min 5 sec) 
Heartbeat CPU 0 instructions: 48000000 cycles: 24606386 heartbeat IPC: 1.95241 cumulative IPC: 1.95071 (Simulation time: 1 hr 9 min 26 sec) 
Heartbeat CPU 0 instructions: 49000000 cycles: 25118832 heartbeat IPC: 1.95143 cumulative IPC: 1.95073 (Simulation time: 1 hr 10 min 47 sec) 
Heartbeat CPU 0 instructions: 50000002 cycles: 25630462 heartbeat IPC: 1.95454 cumulative IPC: 1.9508 (Simulation time: 1 hr 12 min 8 sec) 

Warmup complete CPU 0 instructions: 50000002 cycles: 25630462 (Simulation time: 1 hr 12 min 8 sec) 

Heartbeat CPU 0 instructions: 51000002 cycles: 33721510 heartbeat IPC: 0.123593 cumulative IPC: 0.123593 (Simulation time: 1 hr 13 min 56 sec) 
Heartbeat CPU 0 instructions: 52000000 cycles: 42016576 heartbeat IPC: 0.120553 cumulative IPC: 0.122054 (Simulation time: 1 hr 15 min 42 sec) 
Heartbeat CPU 0 instructions: 53000000 cycles: 49704221 heartbeat IPC: 0.130079 cumulative IPC: 0.124617 (Simulation time: 1 hr 17 min 27 sec) 
Heartbeat CPU 0 instructions: 54000000 cycles: 57632040 heartbeat IPC: 0.126138 cumulative IPC: 0.124994 (Simulation time: 1 hr 19 min 22 sec) 
Heartbeat CPU 0 instructions: 55000000 cycles: 65416714 heartbeat IPC: 0.128458 cumulative IPC: 0.125672 (Simulation time: 1 hr 21 min 9 sec) 
Heartbeat CPU 0 instructions: 56000000 cycles: 73290370 heartbeat IPC: 0.127006 cumulative IPC: 0.125892 (Simulation time: 1 hr 22 min 58 sec) 
Heartbeat CPU 0 instructions: 57000000 cycles: 81376224 heartbeat IPC: 0.123673 cumulative IPC: 0.12557 (Simulation time: 1 hr 24 min 44 sec) 
Heartbeat CPU 0 instructions: 58000000 cycles: 89189352 heartbeat IPC: 0.12799 cumulative IPC: 0.125867 (Simulation time: 1 hr 26 min 30 sec) 
Heartbeat CPU 0 instructions: 59000001 cycles: 96976599 heartbeat IPC: 0.128415 cumulative IPC: 0.126146 (Simulation time: 1 hr 28 min 18 sec) 
Heartbeat CPU 0 instructions: 60000000 cycles: 104556397 heartbeat IPC: 0.13193 cumulative IPC: 0.126701 (Simulation time: 1 hr 30 min 6 sec) 
Heartbeat CPU 0 instructions: 61000001 cycles: 112302778 heartbeat IPC: 0.129093 cumulative IPC: 0.126915 (Simulation time: 1 hr 31 min 54 sec) 
Heartbeat CPU 0 instructions: 62000000 cycles: 118821121 heartbeat IPC: 0.153413 cumulative IPC: 0.128768 (Simulation time: 1 hr 33 min 40 sec) 
Heartbeat CPU 0 instructions: 63000001 cycles: 126451646 heartbeat IPC: 0.131053 cumulative IPC: 0.128941 (Simulation time: 1 hr 35 min 34 sec) 
Heartbeat CPU 0 instructions: 64000000 cycles: 134341636 heartbeat IPC: 0.126743 cumulative IPC: 0.128782 (Simulation time: 1 hr 37 min 36 sec) 
Heartbeat CPU 0 instructions: 65000000 cycles: 141258616 heartbeat IPC: 0.144572 cumulative IPC: 0.129726 (Simulation time: 1 hr 39 min 20 sec) 
Heartbeat CPU 0 instructions: 66000000 cycles: 149375564 heartbeat IPC: 0.123199 cumulative IPC: 0.129298 (Simulation time: 1 hr 41 min 12 sec) 
Heartbeat CPU 0 instructions: 67000000 cycles: 157285125 heartbeat IPC: 0.126429 cumulative IPC: 0.129126 (Simulation time: 1 hr 43 min 5 sec) 
Heartbeat CPU 0 instructions: 68000000 cycles: 164910741 heartbeat IPC: 0.131137 cumulative IPC: 0.129236 (Simulation time: 1 hr 45 min 14 sec) 
Heartbeat CPU 0 instructions: 69000000 cycles: 172825098 heartbeat IPC: 0.126353 cumulative IPC: 0.129081 (Simulation time: 1 hr 47 min 18 sec) 
Heartbeat CPU 0 instructions: 70000000 cycles: 180921824 heartbeat IPC: 0.123507 cumulative IPC: 0.12879 (Simulation time: 1 hr 49 min 13 sec) 
Heartbeat CPU 0 instructions: 71000000 cycles: 188528069 heartbeat IPC: 0.131471 cumulative IPC: 0.128915 (Simulation time: 1 hr 51 min 4 sec) 
Heartbeat CPU 0 instructions: 72000000 cycles: 196679024 heartbeat IPC: 0.122685 cumulative IPC: 0.128618 (Simulation time: 1 hr 53 min 0 sec) 
Heartbeat CPU 0 instructions: 73000000 cycles: 204224098 heartbeat IPC: 0.132537 cumulative IPC: 0.128784 (Simulation time: 1 hr 55 min 0 sec) 
Heartbeat CPU 0 instructions: 74000001 cycles: 211965045 heartbeat IPC: 0.129183 cumulative IPC: 0.128801 (Simulation time: 1 hr 56 min 51 sec) 
Heartbeat CPU 0 instructions: 75000002 cycles: 219714589 heartbeat IPC: 0.12904 cumulative IPC: 0.12881 (Simulation time: 1 hr 58 min 40 sec) 
Heartbeat CPU 0 instructions: 76000000 cycles: 227517679 heartbeat IPC: 0.128154 cumulative IPC: 0.128785 (Simulation time: 2 hr 0 min 32 sec) 
Heartbeat CPU 0 instructions: 77000003 cycles: 241723585 heartbeat IPC: 0.0703935 cumulative IPC: 0.124946 (Simulation time: 2 hr 3 min 21 sec) 
Heartbeat CPU 0 instructions: 78000000 cycles: 251167697 heartbeat IPC: 0.105886 cumulative IPC: 0.124148 (Simulation time: 2 hr 5 min 39 sec) 
Heartbeat CPU 0 instructions: 79000000 cycles: 258881410 heartbeat IPC: 0.129639 cumulative IPC: 0.12433 (Simulation time: 2 hr 7 min 33 sec) 
Heartbeat CPU 0 instructions: 80000000 cycles: 266560735 heartbeat IPC: 0.13022 cumulative IPC: 0.124517 (Simulation time: 2 hr 9 min 16 sec) 
Heartbeat CPU 0 instructions: 81000001 cycles: 274217405 heartbeat IPC: 0.130605 cumulative IPC: 0.124705 (Simulation time: 2 hr 11 min 15 sec) 
Heartbeat CPU 0 instructions: 82000001 cycles: 280986065 heartbeat IPC: 0.14774 cumulative IPC: 0.125315 (Simulation time: 2 hr 12 min 59 sec) 
Heartbeat CPU 0 instructions: 83000002 cycles: 287281188 heartbeat IPC: 0.158853 cumulative IPC: 0.126122 (Simulation time: 2 hr 14 min 36 sec) 
Heartbeat CPU 0 instructions: 84000000 cycles: 293599964 heartbeat IPC: 0.158258 cumulative IPC: 0.12688 (Simulation time: 2 hr 16 min 22 sec) 
Heartbeat CPU 0 instructions: 85000000 cycles: 300305391 heartbeat IPC: 0.149133 cumulative IPC: 0.127423 (Simulation time: 2 hr 18 min 3 sec) 
Heartbeat CPU 0 instructions: 86000001 cycles: 306782237 heartbeat IPC: 0.154396 cumulative IPC: 0.128045 (Simulation time: 2 hr 20 min 0 sec) 
Heartbeat CPU 0 instructions: 87000001 cycles: 320306475 heartbeat IPC: 0.0739413 cumulative IPC: 0.125562 (Simulation time: 2 hr 22 min 22 sec) 
Heartbeat CPU 0 instructions: 88000000 cycles: 329758237 heartbeat IPC: 0.1058 cumulative IPC: 0.124947 (Simulation time: 2 hr 24 min 9 sec) 
Heartbeat CPU 0 instructions: 89000001 cycles: 336679985 heartbeat IPC: 0.144472 cumulative IPC: 0.125382 (Simulation time: 2 hr 26 min 1 sec) 
Heartbeat CPU 0 instructions: 90000001 cycles: 342776382 heartbeat IPC: 0.164031 cumulative IPC: 0.126125 (Simulation time: 2 hr 27 min 34 sec) 
Heartbeat CPU 0 instructions: 91000000 cycles: 351981397 heartbeat IPC: 0.108636 cumulative IPC: 0.125632 (Simulation time: 2 hr 29 min 12 sec) 
Heartbeat CPU 0 instructions: 92000000 cycles: 359085303 heartbeat IPC: 0.140768 cumulative IPC: 0.125954 (Simulation time: 2 hr 30 min 49 sec) 
Heartbeat CPU 0 instructions: 93000000 cycles: 366881748 heartbeat IPC: 0.128264 cumulative IPC: 0.126007 (Simulation time: 2 hr 32 min 15 sec) 
Heartbeat CPU 0 instructions: 94000000 cycles: 375238554 heartbeat IPC: 0.119663 cumulative IPC: 0.125855 (Simulation time: 2 hr 33 min 45 sec) 
Heartbeat CPU 0 instructions: 95000000 cycles: 382895676 heartbeat IPC: 0.130597 cumulative IPC: 0.125957 (Simulation time: 2 hr 35 min 4 sec) 
Heartbeat CPU 0 instructions: 96000000 cycles: 390942338 heartbeat IPC: 0.124275 cumulative IPC: 0.12592 (Simulation time: 2 hr 36 min 19 sec) 
Heartbeat CPU 0 instructions: 97000000 cycles: 398821101 heartbeat IPC: 0.126923 cumulative IPC: 0.125941 (Simulation time: 2 hr 37 min 31 sec) 
Heartbeat CPU 0 instructions: 98000000 cycles: 406531145 heartbeat IPC: 0.129701 cumulative IPC: 0.126017 (Simulation time: 2 hr 38 min 42 sec) 
Heartbeat CPU 0 instructions: 99000000 cycles: 414281200 heartbeat IPC: 0.129031 cumulative IPC: 0.126077 (Simulation time: 2 hr 39 min 48 sec) 
Heartbeat CPU 0 instructions: 100000000 cycles: 421835231 heartbeat IPC: 0.13238 cumulative IPC: 0.126197 (Simulation time: 2 hr 40 min 52 sec) 
Heartbeat CPU 0 instructions: 101000002 cycles: 430069417 heartbeat IPC: 0.121445 cumulative IPC: 0.126101 (Simulation time: 2 hr 41 min 57 sec) 
Heartbeat CPU 0 instructions: 102000002 cycles: 437895701 heartbeat IPC: 0.127775 cumulative IPC: 0.126132 (Simulation time: 2 hr 43 min 4 sec) 
Heartbeat CPU 0 instructions: 103000000 cycles: 445887747 heartbeat IPC: 0.125124 cumulative IPC: 0.126113 (Simulation time: 2 hr 44 min 7 sec) 
Heartbeat CPU 0 instructions: 104000000 cycles: 453866101 heartbeat IPC: 0.125339 cumulative IPC: 0.126099 (Simulation time: 2 hr 45 min 8 sec) 
Heartbeat CPU 0 instructions: 105000000 cycles: 461428853 heartbeat IPC: 0.132227 cumulative IPC: 0.126205 (Simulation time: 2 hr 46 min 8 sec) 
Heartbeat CPU 0 instructions: 106000003 cycles: 469124496 heartbeat IPC: 0.129944 cumulative IPC: 0.12627 (Simulation time: 2 hr 47 min 4 sec) 
Heartbeat CPU 0 instructions: 107000003 cycles: 477260767 heartbeat IPC: 0.122906 cumulative IPC: 0.126209 (Simulation time: 2 hr 47 min 59 sec) 
Heartbeat CPU 0 instructions: 108000000 cycles: 485393513 heartbeat IPC: 0.122959 cumulative IPC: 0.126152 (Simulation time: 2 hr 48 min 55 sec) 
Heartbeat CPU 0 instructions: 109000000 cycles: 492846325 heartbeat IPC: 0.134178 cumulative IPC: 0.12628 (Simulation time: 2 hr 49 min 48 sec) 
Heartbeat CPU 0 instructions: 110000000 cycles: 500562791 heartbeat IPC: 0.129593 cumulative IPC: 0.126334 (Simulation time: 2 hr 50 min 43 sec) 
Heartbeat CPU 0 instructions: 111000000 cycles: 508221241 heartbeat IPC: 0.130575 cumulative IPC: 0.126401 (Simulation time: 2 hr 51 min 33 sec) 
Heartbeat CPU 0 instructions: 112000000 cycles: 515812746 heartbeat IPC: 0.131726 cumulative IPC: 0.126484 (Simulation time: 2 hr 52 min 22 sec) 
Heartbeat CPU 0 instructions: 113000001 cycles: 523772732 heartbeat IPC: 0.125628 cumulative IPC: 0.12647 (Simulation time: 2 hr 53 min 10 sec) 
Heartbeat CPU 0 instructions: 114000000 cycles: 531261518 heartbeat IPC: 0.133533 cumulative IPC: 0.126575 (Simulation time: 2 hr 53 min 55 sec) 
Heartbeat CPU 0 instructions: 115000000 cycles: 539455127 heartbeat IPC: 0.122046 cumulative IPC: 0.126502 (Simulation time: 2 hr 54 min 39 sec) 
Heartbeat CPU 0 instructions: 116000000 cycles: 546977168 heartbeat IPC: 0.132943 cumulative IPC: 0.126595 (Simulation time: 2 hr 55 min 19 sec) 
Heartbeat CPU 0 instructions: 117000001 cycles: 554858883 heartbeat IPC: 0.126876 cumulative IPC: 0.126599 (Simulation time: 2 hr 55 min 59 sec) 
Heartbeat CPU 0 instructions: 118000000 cycles: 562524886 heartbeat IPC: 0.130446 cumulative IPC: 0.126654 (Simulation time: 2 hr 56 min 35 sec) 
Heartbeat CPU 0 instructions: 119000000 cycles: 570364467 heartbeat IPC: 0.127558 cumulative IPC: 0.126667 (Simulation time: 2 hr 57 min 12 sec) 
Heartbeat CPU 0 instructions: 120000000 cycles: 578209871 heartbeat IPC: 0.127463 cumulative IPC: 0.126679 (Simulation time: 2 hr 57 min 50 sec) 
Heartbeat CPU 0 instructions: 121000000 cycles: 585707837 heartbeat IPC: 0.13337 cumulative IPC: 0.126768 (Simulation time: 2 hr 58 min 26 sec) 
Heartbeat CPU 0 instructions: 122000001 cycles: 593280539 heartbeat IPC: 0.132053 cumulative IPC: 0.126839 (Simulation time: 2 hr 58 min 58 sec) 
Heartbeat CPU 0 instructions: 123000002 cycles: 601085617 heartbeat IPC: 0.128122 cumulative IPC: 0.126856 (Simulation time: 2 hr 59 min 24 sec) 
Heartbeat CPU 0 instructions: 124000000 cycles: 608852313 heartbeat IPC: 0.128755 cumulative IPC: 0.126881 (Simulation time: 2 hr 59 min 50 sec) 
Heartbeat CPU 0 instructions: 125000001 cycles: 617233689 heartbeat IPC: 0.119312 cumulative IPC: 0.126774 (Simulation time: 3 hr 0 min 14 sec) 
Heartbeat CPU 0 instructions: 126000002 cycles: 624884231 heartbeat IPC: 0.13071 cumulative IPC: 0.126824 (Simulation time: 3 hr 0 min 37 sec) 
Heartbeat CPU 0 instructions: 127000000 cycles: 633080006 heartbeat IPC: 0.122014 cumulative IPC: 0.126759 (Simulation time: 3 hr 0 min 59 sec) 
Heartbeat CPU 0 instructions: 128000000 cycles: 640869350 heartbeat IPC: 0.128381 cumulative IPC: 0.12678 (Simulation time: 3 hr 1 min 19 sec) 
Heartbeat CPU 0 instructions: 129000001 cycles: 648947792 heartbeat IPC: 0.123786 cumulative IPC: 0.126741 (Simulation time: 3 hr 1 min 38 sec) 
Heartbeat CPU 0 instructions: 130000000 cycles: 656972516 heartbeat IPC: 0.124615 cumulative IPC: 0.126714 (Simulation time: 3 hr 1 min 56 sec) 
Heartbeat CPU 0 instructions: 131000000 cycles: 664723839 heartbeat IPC: 0.12901 cumulative IPC: 0.126742 (Simulation time: 3 hr 2 min 11 sec) 
Heartbeat CPU 0 instructions: 132000000 cycles: 672427004 heartbeat IPC: 0.129817 cumulative IPC: 0.126779 (Simulation time: 3 hr 2 min 26 sec) 
Heartbeat CPU 0 instructions: 133000000 cycles: 680476260 heartbeat IPC: 0.124235 cumulative IPC: 0.126747 (Simulation time: 3 hr 2 min 40 sec) 
Heartbeat CPU 0 instructions: 134000002 cycles: 688296631 heartbeat IPC: 0.127871 cumulative IPC: 0.126761 (Simulation time: 3 hr 2 min 53 sec) 
Heartbeat CPU 0 instructions: 135000002 cycles: 696308634 heartbeat IPC: 0.124813 cumulative IPC: 0.126737 (Simulation time: 3 hr 3 min 6 sec) 
Heartbeat CPU 0 instructions: 136000000 cycles: 704024058 heartbeat IPC: 0.12961 cumulative IPC: 0.12677 (Simulation time: 3 hr 3 min 17 sec) 
Heartbeat CPU 0 instructions: 137000000 cycles: 711624577 heartbeat IPC: 0.13157 cumulative IPC: 0.126823 (Simulation time: 3 hr 3 min 28 sec) 
Heartbeat CPU 0 instructions: 138000000 cycles: 719872269 heartbeat IPC: 0.121246 cumulative IPC: 0.126757 (Simulation time: 3 hr 3 min 39 sec) 
Heartbeat CPU 0 instructions: 139000001 cycles: 727576117 heartbeat IPC: 0.129805 cumulative IPC: 0.12679 (Simulation time: 3 hr 3 min 47 sec) 
Heartbeat CPU 0 instructions: 140000000 cycles: 735136670 heartbeat IPC: 0.132265 cumulative IPC: 0.126849 (Simulation time: 3 hr 3 min 55 sec) 
Heartbeat CPU 0 instructions: 141000002 cycles: 748904255 heartbeat IPC: 0.0726345 cumulative IPC: 0.125817 (Simulation time: 3 hr 4 min 4 sec) 
Heartbeat CPU 0 instructions: 142000002 cycles: 758496035 heartbeat IPC: 0.104256 cumulative IPC: 0.125535 (Simulation time: 3 hr 4 min 11 sec) 
Heartbeat CPU 0 instructions: 143000001 cycles: 766122490 heartbeat IPC: 0.131122 cumulative IPC: 0.125592 (Simulation time: 3 hr 4 min 17 sec) 
Heartbeat CPU 0 instructions: 144000000 cycles: 773793308 heartbeat IPC: 0.130364 cumulative IPC: 0.125641 (Simulation time: 3 hr 4 min 24 sec) 
Heartbeat CPU 0 instructions: 145000000 cycles: 781561649 heartbeat IPC: 0.128728 cumulative IPC: 0.125673 (Simulation time: 3 hr 4 min 31 sec) 
Heartbeat CPU 0 instructions: 146000001 cycles: 789136277 heartbeat IPC: 0.13202 cumulative IPC: 0.125736 (Simulation time: 3 hr 4 min 39 sec) 
Heartbeat CPU 0 instructions: 147000001 cycles: 796335489 heartbeat IPC: 0.138904 cumulative IPC: 0.125859 (Simulation time: 3 hr 4 min 45 sec) 
Heartbeat CPU 0 instructions: 148000000 cycles: 803907819 heartbeat IPC: 0.13206 cumulative IPC: 0.125919 (Simulation time: 3 hr 4 min 52 sec) 
Heartbeat CPU 0 instructions: 149000001 cycles: 810772405 heartbeat IPC: 0.145675 cumulative IPC: 0.126092 (Simulation time: 3 hr 4 min 58 sec) 
Heartbeat CPU 0 instructions: 150000001 cycles: 818191636 heartbeat IPC: 0.134785 cumulative IPC: 0.126173 (Simulation time: 3 hr 5 min 5 sec) 
Finished CPU 0 instructions: 100000001 cycles: 792561223 cummulative IPC: 0.126173 (Simulation time: 3 hr 5 min 5 sec) 

ChampSim completed all CPUs

Region of Interest Statistics

CPU 0 cummulative IPC: 0.126173 instructions: 100000001 cycles: 792561223
LLC TOTAL     ACCESS:   27012104  HIT:   13449628  MISS:   13562476
LLC LOAD      ACCESS:   11733128  HIT:   10036365  MISS:    1696763
LLC RFO       ACCESS:      20876  HIT:       8220  MISS:      12656
LLC PREFETCH  ACCESS:   14984680  HIT:    3192930  MISS:   11791750
LLC WRITEBACK ACCESS:     273420  HIT:     212113  MISS:      61307
Insertion Distribution: 
	LOAD 765101 0 467568 1441221 
	RFO 15311 0 7173 2440 
	PREF 0 1400687 5262108 11040846 
	WRITEBACK 0 0 0 133004 
Total Prefetch Downgrades: 2720084
