
*** ChampSim Multicore Out-of-Order Simulator ***

Warmup Instructions: 50000000
Simulation Instructions: 100000000
Configuration: 2
Number of CPUs: 1
LLC sets: 2048
LLC ways: 16
Off-chip DRAM Channels: 1 Width: 64-bit Data Rate: 1600 MT/s

CPU 0 runs /datasets/cs240c-wi22-a00-public/data/Assignment2-gz/milc_409B.trace.gz
CPU 0 L1D next line prefetcher
CPU 0 L2C IP-based stride prefetcher
Initialize SRRIP state
Heartbeat CPU 0 instructions: 1000002 cycles: 407040 heartbeat IPC: 2.45677 cumulative IPC: 2.45677 (Simulation time: 0 hr 1 min 18 sec) 
Heartbeat CPU 0 instructions: 2000002 cycles: 889868 heartbeat IPC: 2.07113 cumulative IPC: 2.24753 (Simulation time: 0 hr 2 min 18 sec) 
Heartbeat CPU 0 instructions: 3000003 cycles: 1672035 heartbeat IPC: 1.2785 cumulative IPC: 1.79422 (Simulation time: 0 hr 3 min 42 sec) 
Heartbeat CPU 0 instructions: 4000000 cycles: 2454292 heartbeat IPC: 1.27835 cumulative IPC: 1.6298 (Simulation time: 0 hr 5 min 26 sec) 
Heartbeat CPU 0 instructions: 5000000 cycles: 3135412 heartbeat IPC: 1.46817 cumulative IPC: 1.59469 (Simulation time: 0 hr 6 min 47 sec) 
Heartbeat CPU 0 instructions: 6000003 cycles: 3679804 heartbeat IPC: 1.83692 cumulative IPC: 1.63052 (Simulation time: 0 hr 7 min 51 sec) 
Heartbeat CPU 0 instructions: 7000002 cycles: 4224110 heartbeat IPC: 1.8372 cumulative IPC: 1.65715 (Simulation time: 0 hr 8 min 56 sec) 
Heartbeat CPU 0 instructions: 8000000 cycles: 4768518 heartbeat IPC: 1.83685 cumulative IPC: 1.67767 (Simulation time: 0 hr 9 min 57 sec) 
Heartbeat CPU 0 instructions: 9000003 cycles: 5312844 heartbeat IPC: 1.83714 cumulative IPC: 1.69401 (Simulation time: 0 hr 11 min 5 sec) 
Heartbeat CPU 0 instructions: 10000000 cycles: 5857232 heartbeat IPC: 1.83692 cumulative IPC: 1.70729 (Simulation time: 0 hr 12 min 20 sec) 
Heartbeat CPU 0 instructions: 11000002 cycles: 6401582 heartbeat IPC: 1.83706 cumulative IPC: 1.71833 (Simulation time: 0 hr 13 min 22 sec) 
Heartbeat CPU 0 instructions: 12000000 cycles: 6945917 heartbeat IPC: 1.8371 cumulative IPC: 1.72763 (Simulation time: 0 hr 14 min 27 sec) 
Heartbeat CPU 0 instructions: 13000000 cycles: 7490305 heartbeat IPC: 1.83693 cumulative IPC: 1.73558 (Simulation time: 0 hr 15 min 37 sec) 
Heartbeat CPU 0 instructions: 14000002 cycles: 8034670 heartbeat IPC: 1.83701 cumulative IPC: 1.74245 (Simulation time: 0 hr 16 min 43 sec) 
Heartbeat CPU 0 instructions: 15000001 cycles: 8578997 heartbeat IPC: 1.83713 cumulative IPC: 1.74846 (Simulation time: 0 hr 17 min 44 sec) 
Heartbeat CPU 0 instructions: 16000000 cycles: 9123371 heartbeat IPC: 1.83697 cumulative IPC: 1.75374 (Simulation time: 0 hr 18 min 48 sec) 
Heartbeat CPU 0 instructions: 17000002 cycles: 9667737 heartbeat IPC: 1.837 cumulative IPC: 1.75843 (Simulation time: 0 hr 19 min 50 sec) 
Heartbeat CPU 0 instructions: 18000000 cycles: 10212107 heartbeat IPC: 1.83698 cumulative IPC: 1.76261 (Simulation time: 0 hr 20 min 59 sec) 
Heartbeat CPU 0 instructions: 19000003 cycles: 10756427 heartbeat IPC: 1.83716 cumulative IPC: 1.76639 (Simulation time: 0 hr 22 min 9 sec) 
Heartbeat CPU 0 instructions: 20000000 cycles: 11300831 heartbeat IPC: 1.83687 cumulative IPC: 1.76978 (Simulation time: 0 hr 23 min 18 sec) 
Heartbeat CPU 0 instructions: 21000001 cycles: 11845161 heartbeat IPC: 1.83712 cumulative IPC: 1.77288 (Simulation time: 0 hr 24 min 28 sec) 
Heartbeat CPU 0 instructions: 22000003 cycles: 12389528 heartbeat IPC: 1.837 cumulative IPC: 1.77569 (Simulation time: 0 hr 25 min 37 sec) 
Heartbeat CPU 0 instructions: 23000002 cycles: 12933913 heartbeat IPC: 1.83693 cumulative IPC: 1.77827 (Simulation time: 0 hr 26 min 40 sec) 
Heartbeat CPU 0 instructions: 24000000 cycles: 13478220 heartbeat IPC: 1.83719 cumulative IPC: 1.78065 (Simulation time: 0 hr 27 min 55 sec) 
Heartbeat CPU 0 instructions: 25000000 cycles: 14022616 heartbeat IPC: 1.8369 cumulative IPC: 1.78283 (Simulation time: 0 hr 29 min 7 sec) 
Heartbeat CPU 0 instructions: 26000000 cycles: 14566990 heartbeat IPC: 1.83697 cumulative IPC: 1.78486 (Simulation time: 0 hr 30 min 13 sec) 
Heartbeat CPU 0 instructions: 27000002 cycles: 15111312 heartbeat IPC: 1.83715 cumulative IPC: 1.78674 (Simulation time: 0 hr 31 min 15 sec) 
Heartbeat CPU 0 instructions: 28000000 cycles: 15655447 heartbeat IPC: 1.83778 cumulative IPC: 1.78851 (Simulation time: 0 hr 32 min 23 sec) 
Heartbeat CPU 0 instructions: 29000000 cycles: 16196637 heartbeat IPC: 1.84778 cumulative IPC: 1.7905 (Simulation time: 0 hr 33 min 37 sec) 
Heartbeat CPU 0 instructions: 30000000 cycles: 16737802 heartbeat IPC: 1.84787 cumulative IPC: 1.79235 (Simulation time: 0 hr 34 min 47 sec) 
Heartbeat CPU 0 instructions: 31000003 cycles: 17278973 heartbeat IPC: 1.84785 cumulative IPC: 1.79409 (Simulation time: 0 hr 35 min 54 sec) 
Heartbeat CPU 0 instructions: 32000000 cycles: 17820133 heartbeat IPC: 1.84788 cumulative IPC: 1.79572 (Simulation time: 0 hr 37 min 1 sec) 
Heartbeat CPU 0 instructions: 33000000 cycles: 18361311 heartbeat IPC: 1.84782 cumulative IPC: 1.79726 (Simulation time: 0 hr 38 min 4 sec) 
Heartbeat CPU 0 instructions: 34000000 cycles: 18902453 heartbeat IPC: 1.84794 cumulative IPC: 1.79871 (Simulation time: 0 hr 39 min 9 sec) 
Heartbeat CPU 0 instructions: 35000000 cycles: 19443596 heartbeat IPC: 1.84794 cumulative IPC: 1.80008 (Simulation time: 0 hr 40 min 11 sec) 
Heartbeat CPU 0 instructions: 36000000 cycles: 19984730 heartbeat IPC: 1.84797 cumulative IPC: 1.80138 (Simulation time: 0 hr 41 min 14 sec) 
Heartbeat CPU 0 instructions: 37000000 cycles: 20525942 heartbeat IPC: 1.8477 cumulative IPC: 1.8026 (Simulation time: 0 hr 42 min 25 sec) 
Heartbeat CPU 0 instructions: 38000001 cycles: 21067089 heartbeat IPC: 1.84793 cumulative IPC: 1.80376 (Simulation time: 0 hr 43 min 33 sec) 
Heartbeat CPU 0 instructions: 39000001 cycles: 21608245 heartbeat IPC: 1.8479 cumulative IPC: 1.80487 (Simulation time: 0 hr 44 min 38 sec) 
Heartbeat CPU 0 instructions: 40000000 cycles: 22149433 heartbeat IPC: 1.84778 cumulative IPC: 1.80592 (Simulation time: 0 hr 45 min 54 sec) 
Heartbeat CPU 0 instructions: 41000002 cycles: 22690598 heartbeat IPC: 1.84787 cumulative IPC: 1.80692 (Simulation time: 0 hr 47 min 1 sec) 
Heartbeat CPU 0 instructions: 42000001 cycles: 23231759 heartbeat IPC: 1.84788 cumulative IPC: 1.80787 (Simulation time: 0 hr 48 min 10 sec) 
Heartbeat CPU 0 instructions: 43000000 cycles: 23772902 heartbeat IPC: 1.84794 cumulative IPC: 1.80878 (Simulation time: 0 hr 49 min 16 sec) 
Heartbeat CPU 0 instructions: 44000000 cycles: 24314028 heartbeat IPC: 1.848 cumulative IPC: 1.80965 (Simulation time: 0 hr 50 min 24 sec) 
Heartbeat CPU 0 instructions: 45000001 cycles: 24855217 heartbeat IPC: 1.84779 cumulative IPC: 1.81049 (Simulation time: 0 hr 51 min 40 sec) 
Heartbeat CPU 0 instructions: 46000000 cycles: 25396380 heartbeat IPC: 1.84787 cumulative IPC: 1.81128 (Simulation time: 0 hr 52 min 41 sec) 
Heartbeat CPU 0 instructions: 47000002 cycles: 25937547 heartbeat IPC: 1.84786 cumulative IPC: 1.81204 (Simulation time: 0 hr 53 min 52 sec) 
Heartbeat CPU 0 instructions: 48000000 cycles: 26478711 heartbeat IPC: 1.84786 cumulative IPC: 1.81278 (Simulation time: 0 hr 55 min 3 sec) 
Heartbeat CPU 0 instructions: 49000002 cycles: 27019890 heartbeat IPC: 1.84782 cumulative IPC: 1.81348 (Simulation time: 0 hr 56 min 16 sec) 
Heartbeat CPU 0 instructions: 50000001 cycles: 27561033 heartbeat IPC: 1.84794 cumulative IPC: 1.81416 (Simulation time: 0 hr 57 min 27 sec) 

Warmup complete CPU 0 instructions: 50000001 cycles: 27561033 (Simulation time: 0 hr 57 min 27 sec) 

Heartbeat CPU 0 instructions: 51000002 cycles: 29211394 heartbeat IPC: 0.605929 cumulative IPC: 0.605929 (Simulation time: 0 hr 58 min 43 sec) 
Heartbeat CPU 0 instructions: 52000000 cycles: 31031019 heartbeat IPC: 0.549563 cumulative IPC: 0.576371 (Simulation time: 1 hr 0 min 15 sec) 
Heartbeat CPU 0 instructions: 53000001 cycles: 33178500 heartbeat IPC: 0.465662 cumulative IPC: 0.534049 (Simulation time: 1 hr 1 min 57 sec) 
Heartbeat CPU 0 instructions: 54000001 cycles: 35389164 heartbeat IPC: 0.452353 cumulative IPC: 0.510978 (Simulation time: 1 hr 3 min 21 sec) 
Heartbeat CPU 0 instructions: 55000002 cycles: 37626048 heartbeat IPC: 0.447051 cumulative IPC: 0.49677 (Simulation time: 1 hr 4 min 47 sec) 
Heartbeat CPU 0 instructions: 56000000 cycles: 39868985 heartbeat IPC: 0.445843 cumulative IPC: 0.48749 (Simulation time: 1 hr 6 min 9 sec) 
Heartbeat CPU 0 instructions: 57000000 cycles: 42114430 heartbeat IPC: 0.445346 cumulative IPC: 0.480987 (Simulation time: 1 hr 7 min 28 sec) 
Heartbeat CPU 0 instructions: 58000002 cycles: 44321636 heartbeat IPC: 0.453062 cumulative IPC: 0.47731 (Simulation time: 1 hr 8 min 47 sec) 
Heartbeat CPU 0 instructions: 59000001 cycles: 46105861 heartbeat IPC: 0.560467 cumulative IPC: 0.485311 (Simulation time: 1 hr 10 min 15 sec) 
Heartbeat CPU 0 instructions: 60000000 cycles: 47765784 heartbeat IPC: 0.602437 cumulative IPC: 0.494933 (Simulation time: 1 hr 11 min 28 sec) 
Heartbeat CPU 0 instructions: 61000000 cycles: 49423821 heartbeat IPC: 0.603123 cumulative IPC: 0.503138 (Simulation time: 1 hr 12 min 36 sec) 
Heartbeat CPU 0 instructions: 62000000 cycles: 51080622 heartbeat IPC: 0.603573 cumulative IPC: 0.510213 (Simulation time: 1 hr 13 min 43 sec) 
Heartbeat CPU 0 instructions: 63000003 cycles: 52742335 heartbeat IPC: 0.60179 cumulative IPC: 0.516256 (Simulation time: 1 hr 14 min 53 sec) 
Heartbeat CPU 0 instructions: 64000000 cycles: 54407128 heartbeat IPC: 0.600673 cumulative IPC: 0.521491 (Simulation time: 1 hr 16 min 5 sec) 
Heartbeat CPU 0 instructions: 65000002 cycles: 56076892 heartbeat IPC: 0.598888 cumulative IPC: 0.526023 (Simulation time: 1 hr 17 min 15 sec) 
Heartbeat CPU 0 instructions: 66000002 cycles: 57740258 heartbeat IPC: 0.601191 cumulative IPC: 0.530166 (Simulation time: 1 hr 18 min 25 sec) 
Heartbeat CPU 0 instructions: 67000001 cycles: 59406630 heartbeat IPC: 0.600106 cumulative IPC: 0.533826 (Simulation time: 1 hr 19 min 34 sec) 
Heartbeat CPU 0 instructions: 68000000 cycles: 61074610 heartbeat IPC: 0.599527 cumulative IPC: 0.537096 (Simulation time: 1 hr 20 min 43 sec) 
Heartbeat CPU 0 instructions: 69000000 cycles: 62746078 heartbeat IPC: 0.598276 cumulative IPC: 0.540002 (Simulation time: 1 hr 21 min 57 sec) 
Heartbeat CPU 0 instructions: 70000000 cycles: 64412736 heartbeat IPC: 0.600003 cumulative IPC: 0.542716 (Simulation time: 1 hr 23 min 9 sec) 
Heartbeat CPU 0 instructions: 71000002 cycles: 66081206 heartbeat IPC: 0.599353 cumulative IPC: 0.545169 (Simulation time: 1 hr 24 min 16 sec) 
Heartbeat CPU 0 instructions: 72000000 cycles: 67749720 heartbeat IPC: 0.599334 cumulative IPC: 0.547418 (Simulation time: 1 hr 25 min 24 sec) 
Heartbeat CPU 0 instructions: 73000003 cycles: 69414418 heartbeat IPC: 0.600711 cumulative IPC: 0.549537 (Simulation time: 1 hr 26 min 30 sec) 
Heartbeat CPU 0 instructions: 74000002 cycles: 71088656 heartbeat IPC: 0.597286 cumulative IPC: 0.551374 (Simulation time: 1 hr 27 min 42 sec) 
Heartbeat CPU 0 instructions: 75000003 cycles: 72752794 heartbeat IPC: 0.600912 cumulative IPC: 0.553198 (Simulation time: 1 hr 28 min 53 sec) 
Heartbeat CPU 0 instructions: 76000000 cycles: 74423505 heartbeat IPC: 0.598546 cumulative IPC: 0.554815 (Simulation time: 1 hr 30 min 5 sec) 
Heartbeat CPU 0 instructions: 77000003 cycles: 76092844 heartbeat IPC: 0.599041 cumulative IPC: 0.556336 (Simulation time: 1 hr 31 min 15 sec) 
Heartbeat CPU 0 instructions: 78000000 cycles: 77758720 heartbeat IPC: 0.600283 cumulative IPC: 0.557795 (Simulation time: 1 hr 32 min 29 sec) 
Heartbeat CPU 0 instructions: 79000000 cycles: 79425543 heartbeat IPC: 0.599944 cumulative IPC: 0.559149 (Simulation time: 1 hr 33 min 35 sec) 
Heartbeat CPU 0 instructions: 80000000 cycles: 81090101 heartbeat IPC: 0.60076 cumulative IPC: 0.560443 (Simulation time: 1 hr 34 min 44 sec) 
Heartbeat CPU 0 instructions: 81000000 cycles: 82754924 heartbeat IPC: 0.600664 cumulative IPC: 0.561656 (Simulation time: 1 hr 35 min 57 sec) 
Heartbeat CPU 0 instructions: 82000002 cycles: 84414843 heartbeat IPC: 0.60244 cumulative IPC: 0.562847 (Simulation time: 1 hr 37 min 16 sec) 
Heartbeat CPU 0 instructions: 83000003 cycles: 86073364 heartbeat IPC: 0.602947 cumulative IPC: 0.563984 (Simulation time: 1 hr 38 min 30 sec) 
Heartbeat CPU 0 instructions: 84000000 cycles: 87731988 heartbeat IPC: 0.602908 cumulative IPC: 0.565057 (Simulation time: 1 hr 39 min 46 sec) 
Heartbeat CPU 0 instructions: 85000001 cycles: 89394262 heartbeat IPC: 0.601586 cumulative IPC: 0.566039 (Simulation time: 1 hr 40 min 56 sec) 
Heartbeat CPU 0 instructions: 86000002 cycles: 91055798 heartbeat IPC: 0.601853 cumulative IPC: 0.566976 (Simulation time: 1 hr 42 min 13 sec) 
Heartbeat CPU 0 instructions: 87000003 cycles: 92717610 heartbeat IPC: 0.601753 cumulative IPC: 0.567863 (Simulation time: 1 hr 43 min 30 sec) 
Heartbeat CPU 0 instructions: 88000000 cycles: 94382894 heartbeat IPC: 0.600496 cumulative IPC: 0.568676 (Simulation time: 1 hr 44 min 44 sec) 
Heartbeat CPU 0 instructions: 89000001 cycles: 96048500 heartbeat IPC: 0.600383 cumulative IPC: 0.569447 (Simulation time: 1 hr 46 min 13 sec) 
Heartbeat CPU 0 instructions: 90000002 cycles: 97710665 heartbeat IPC: 0.601626 cumulative IPC: 0.57021 (Simulation time: 1 hr 47 min 29 sec) 
Heartbeat CPU 0 instructions: 91000000 cycles: 99369230 heartbeat IPC: 0.60293 cumulative IPC: 0.570965 (Simulation time: 1 hr 48 min 44 sec) 
Heartbeat CPU 0 instructions: 92000000 cycles: 101028043 heartbeat IPC: 0.602841 cumulative IPC: 0.571685 (Simulation time: 1 hr 50 min 13 sec) 
Heartbeat CPU 0 instructions: 93000003 cycles: 102691510 heartbeat IPC: 0.601156 cumulative IPC: 0.572338 (Simulation time: 1 hr 51 min 28 sec) 
Heartbeat CPU 0 instructions: 94000002 cycles: 104355391 heartbeat IPC: 0.601004 cumulative IPC: 0.572959 (Simulation time: 1 hr 52 min 38 sec) 
Heartbeat CPU 0 instructions: 95000003 cycles: 106013539 heartbeat IPC: 0.603083 cumulative IPC: 0.573595 (Simulation time: 1 hr 53 min 48 sec) 
Heartbeat CPU 0 instructions: 96000000 cycles: 107675455 heartbeat IPC: 0.601713 cumulative IPC: 0.574179 (Simulation time: 1 hr 55 min 6 sec) 
Heartbeat CPU 0 instructions: 97000001 cycles: 109338161 heartbeat IPC: 0.60143 cumulative IPC: 0.574733 (Simulation time: 1 hr 56 min 20 sec) 
Heartbeat CPU 0 instructions: 98000002 cycles: 110998229 heartbeat IPC: 0.602386 cumulative IPC: 0.575283 (Simulation time: 1 hr 57 min 36 sec) 
Heartbeat CPU 0 instructions: 99000003 cycles: 112659754 heartbeat IPC: 0.601857 cumulative IPC: 0.575802 (Simulation time: 1 hr 58 min 46 sec) 
Heartbeat CPU 0 instructions: 100000000 cycles: 114321363 heartbeat IPC: 0.601825 cumulative IPC: 0.5763 (Simulation time: 2 hr 0 min 1 sec) 
Heartbeat CPU 0 instructions: 101000001 cycles: 115978586 heartbeat IPC: 0.60342 cumulative IPC: 0.576809 (Simulation time: 2 hr 1 min 13 sec) 
Heartbeat CPU 0 instructions: 102000002 cycles: 117641450 heartbeat IPC: 0.601373 cumulative IPC: 0.577262 (Simulation time: 2 hr 2 min 39 sec) 
Heartbeat CPU 0 instructions: 103000000 cycles: 119303845 heartbeat IPC: 0.601541 cumulative IPC: 0.577702 (Simulation time: 2 hr 3 min 50 sec) 
Heartbeat CPU 0 instructions: 104000000 cycles: 120963276 heartbeat IPC: 0.602616 cumulative IPC: 0.578145 (Simulation time: 2 hr 5 min 5 sec) 
Heartbeat CPU 0 instructions: 105000003 cycles: 122817959 heartbeat IPC: 0.539177 cumulative IPC: 0.577386 (Simulation time: 2 hr 6 min 21 sec) 
Heartbeat CPU 0 instructions: 106000003 cycles: 126659482 heartbeat IPC: 0.260313 cumulative IPC: 0.565095 (Simulation time: 2 hr 8 min 11 sec) 
Heartbeat CPU 0 instructions: 107000000 cycles: 128400811 heartbeat IPC: 0.574272 cumulative IPC: 0.565253 (Simulation time: 2 hr 9 min 9 sec) 
Heartbeat CPU 0 instructions: 108000000 cycles: 130128998 heartbeat IPC: 0.578641 cumulative IPC: 0.565479 (Simulation time: 2 hr 10 min 8 sec) 
Heartbeat CPU 0 instructions: 109000001 cycles: 131854744 heartbeat IPC: 0.57946 cumulative IPC: 0.56571 (Simulation time: 2 hr 11 min 16 sec) 
Heartbeat CPU 0 instructions: 110000001 cycles: 133615520 heartbeat IPC: 0.567931 cumulative IPC: 0.565747 (Simulation time: 2 hr 12 min 34 sec) 
Heartbeat CPU 0 instructions: 111000000 cycles: 135386526 heartbeat IPC: 0.56465 cumulative IPC: 0.565729 (Simulation time: 2 hr 13 min 33 sec) 
Heartbeat CPU 0 instructions: 112000000 cycles: 137160883 heartbeat IPC: 0.563584 cumulative IPC: 0.565694 (Simulation time: 2 hr 14 min 28 sec) 
Heartbeat CPU 0 instructions: 113000003 cycles: 138935819 heartbeat IPC: 0.563402 cumulative IPC: 0.565658 (Simulation time: 2 hr 15 min 21 sec) 
Heartbeat CPU 0 instructions: 114000003 cycles: 140708078 heartbeat IPC: 0.564252 cumulative IPC: 0.565636 (Simulation time: 2 hr 16 min 24 sec) 
Heartbeat CPU 0 instructions: 115000001 cycles: 142476175 heartbeat IPC: 0.565579 cumulative IPC: 0.565635 (Simulation time: 2 hr 17 min 16 sec) 
Heartbeat CPU 0 instructions: 116000000 cycles: 144250892 heartbeat IPC: 0.56347 cumulative IPC: 0.565602 (Simulation time: 2 hr 18 min 9 sec) 
Heartbeat CPU 0 instructions: 117000001 cycles: 146026133 heartbeat IPC: 0.563304 cumulative IPC: 0.565567 (Simulation time: 2 hr 19 min 16 sec) 
Heartbeat CPU 0 instructions: 118000003 cycles: 147803832 heartbeat IPC: 0.562526 cumulative IPC: 0.565522 (Simulation time: 2 hr 20 min 12 sec) 
Heartbeat CPU 0 instructions: 119000001 cycles: 149576689 heartbeat IPC: 0.56406 cumulative IPC: 0.565501 (Simulation time: 2 hr 21 min 22 sec) 
Heartbeat CPU 0 instructions: 120000000 cycles: 151347000 heartbeat IPC: 0.564872 cumulative IPC: 0.565492 (Simulation time: 2 hr 22 min 22 sec) 
Heartbeat CPU 0 instructions: 121000003 cycles: 153113729 heartbeat IPC: 0.566019 cumulative IPC: 0.5655 (Simulation time: 2 hr 23 min 13 sec) 
Heartbeat CPU 0 instructions: 122000001 cycles: 154887389 heartbeat IPC: 0.563805 cumulative IPC: 0.565476 (Simulation time: 2 hr 24 min 4 sec) 
Heartbeat CPU 0 instructions: 123000003 cycles: 156663536 heartbeat IPC: 0.563018 cumulative IPC: 0.565442 (Simulation time: 2 hr 24 min 55 sec) 
Heartbeat CPU 0 instructions: 124000000 cycles: 158433714 heartbeat IPC: 0.564913 cumulative IPC: 0.565435 (Simulation time: 2 hr 25 min 46 sec) 
Heartbeat CPU 0 instructions: 125000003 cycles: 160207070 heartbeat IPC: 0.563904 cumulative IPC: 0.565415 (Simulation time: 2 hr 26 min 40 sec) 
Heartbeat CPU 0 instructions: 126000000 cycles: 161980246 heartbeat IPC: 0.563958 cumulative IPC: 0.565395 (Simulation time: 2 hr 27 min 30 sec) 
Heartbeat CPU 0 instructions: 127000001 cycles: 163757128 heartbeat IPC: 0.562784 cumulative IPC: 0.565361 (Simulation time: 2 hr 28 min 18 sec) 
Heartbeat CPU 0 instructions: 128000000 cycles: 165526570 heartbeat IPC: 0.565149 cumulative IPC: 0.565359 (Simulation time: 2 hr 29 min 7 sec) 
Heartbeat CPU 0 instructions: 129000001 cycles: 167301509 heartbeat IPC: 0.5634 cumulative IPC: 0.565334 (Simulation time: 2 hr 29 min 52 sec) 
Heartbeat CPU 0 instructions: 130000000 cycles: 169075730 heartbeat IPC: 0.563627 cumulative IPC: 0.565312 (Simulation time: 2 hr 30 min 36 sec) 
Heartbeat CPU 0 instructions: 131000001 cycles: 170849891 heartbeat IPC: 0.563647 cumulative IPC: 0.565292 (Simulation time: 2 hr 31 min 24 sec) 
Heartbeat CPU 0 instructions: 132000000 cycles: 172625048 heartbeat IPC: 0.56333 cumulative IPC: 0.565268 (Simulation time: 2 hr 32 min 8 sec) 
Heartbeat CPU 0 instructions: 133000003 cycles: 174402196 heartbeat IPC: 0.562701 cumulative IPC: 0.565237 (Simulation time: 2 hr 32 min 50 sec) 
Heartbeat CPU 0 instructions: 134000001 cycles: 176176216 heartbeat IPC: 0.56369 cumulative IPC: 0.565218 (Simulation time: 2 hr 33 min 32 sec) 
Heartbeat CPU 0 instructions: 135000003 cycles: 177955612 heartbeat IPC: 0.56199 cumulative IPC: 0.56518 (Simulation time: 2 hr 34 min 13 sec) 
Heartbeat CPU 0 instructions: 136000000 cycles: 179728055 heartbeat IPC: 0.564191 cumulative IPC: 0.565168 (Simulation time: 2 hr 34 min 56 sec) 
Heartbeat CPU 0 instructions: 137000001 cycles: 180929174 heartbeat IPC: 0.832558 cumulative IPC: 0.567263 (Simulation time: 2 hr 35 min 47 sec) 
Heartbeat CPU 0 instructions: 138000000 cycles: 182545747 heartbeat IPC: 0.618592 cumulative IPC: 0.567798 (Simulation time: 2 hr 36 min 44 sec) 
Heartbeat CPU 0 instructions: 139000002 cycles: 185659754 heartbeat IPC: 0.32113 cumulative IPC: 0.562939 (Simulation time: 2 hr 37 min 53 sec) 
Heartbeat CPU 0 instructions: 140000000 cycles: 188579499 heartbeat IPC: 0.342495 cumulative IPC: 0.558942 (Simulation time: 2 hr 39 min 0 sec) 
Heartbeat CPU 0 instructions: 141000003 cycles: 192167325 heartbeat IPC: 0.278721 cumulative IPC: 0.552834 (Simulation time: 2 hr 40 min 16 sec) 
Heartbeat CPU 0 instructions: 142000003 cycles: 194825627 heartbeat IPC: 0.37618 cumulative IPC: 0.550027 (Simulation time: 2 hr 41 min 4 sec) 
Heartbeat CPU 0 instructions: 143000001 cycles: 196601231 heartbeat IPC: 0.563188 cumulative IPC: 0.550165 (Simulation time: 2 hr 41 min 43 sec) 
Heartbeat CPU 0 instructions: 144000000 cycles: 198373815 heartbeat IPC: 0.564148 cumulative IPC: 0.55031 (Simulation time: 2 hr 42 min 21 sec) 
Heartbeat CPU 0 instructions: 145000001 cycles: 200140675 heartbeat IPC: 0.565976 cumulative IPC: 0.55047 (Simulation time: 2 hr 43 min 3 sec) 
Heartbeat CPU 0 instructions: 146000003 cycles: 201903879 heartbeat IPC: 0.56715 cumulative IPC: 0.550639 (Simulation time: 2 hr 43 min 39 sec) 
Heartbeat CPU 0 instructions: 147000003 cycles: 203674858 heartbeat IPC: 0.564659 cumulative IPC: 0.55078 (Simulation time: 2 hr 44 min 16 sec) 
Heartbeat CPU 0 instructions: 148000000 cycles: 205446616 heartbeat IPC: 0.564409 cumulative IPC: 0.550916 (Simulation time: 2 hr 44 min 52 sec) 
Heartbeat CPU 0 instructions: 149000003 cycles: 207241369 heartbeat IPC: 0.557181 cumulative IPC: 0.550978 (Simulation time: 2 hr 45 min 29 sec) 
Heartbeat CPU 0 instructions: 150000003 cycles: 209054917 heartbeat IPC: 0.551405 cumulative IPC: 0.550983 (Simulation time: 2 hr 46 min 5 sec) 
Finished CPU 0 instructions: 100000002 cycles: 181493884 cummulative IPC: 0.550983 (Simulation time: 2 hr 46 min 5 sec) 

ChampSim completed all CPUs

Region of Interest Statistics

CPU 0 cummulative IPC: 0.550983 instructions: 100000002 cycles: 181493884
LLC TOTAL     ACCESS:    3965530  HIT:     209167  MISS:    3756363
LLC LOAD      ACCESS:    1060966  HIT:       8540  MISS:    1052426
LLC RFO       ACCESS:     534380  HIT:      44327  MISS:     490053
LLC PREFETCH  ACCESS:    1387443  HIT:      32193  MISS:    1355250
LLC WRITEBACK ACCESS:     982741  HIT:     124107  MISS:     858634
Insertion Distribution: 
	LOAD 0 0 427160 949129 
	RFO 22333 0 49490 559241 
	PREF 0 561 219797 1971891 
	WRITEBACK 0 0 0 1272636 
Total Prefetch Downgrades: 5796
