
*** ChampSim Multicore Out-of-Order Simulator ***

Warmup Instructions: 50000000
Simulation Instructions: 100000000
Configuration: 2
Number of CPUs: 1
LLC sets: 2048
LLC ways: 16
Off-chip DRAM Channels: 1 Width: 64-bit Data Rate: 1600 MT/s

CPU 0 runs /datasets/cs240c-wi22-a00-public/data/Assignment2-gz/GemsFDTD_716B.trace.gz
CPU 0 L1D next line prefetcher
CPU 0 L2C IP-based stride prefetcher
Initialize SRRIP state
Heartbeat CPU 0 instructions: 1000000 cycles: 415045 heartbeat IPC: 2.40938 cumulative IPC: 2.40938 (Simulation time: 0 hr 1 min 16 sec) 
Heartbeat CPU 0 instructions: 2000003 cycles: 829979 heartbeat IPC: 2.41003 cumulative IPC: 2.4097 (Simulation time: 0 hr 2 min 14 sec) 
Heartbeat CPU 0 instructions: 3000000 cycles: 1280233 heartbeat IPC: 2.22096 cumulative IPC: 2.34332 (Simulation time: 0 hr 3 min 22 sec) 
Heartbeat CPU 0 instructions: 4000000 cycles: 1737265 heartbeat IPC: 2.18803 cumulative IPC: 2.30247 (Simulation time: 0 hr 4 min 18 sec) 
Heartbeat CPU 0 instructions: 5000000 cycles: 2152246 heartbeat IPC: 2.40975 cumulative IPC: 2.32315 (Simulation time: 0 hr 5 min 23 sec) 
Heartbeat CPU 0 instructions: 6000000 cycles: 2567262 heartbeat IPC: 2.40955 cumulative IPC: 2.33712 (Simulation time: 0 hr 6 min 26 sec) 
Heartbeat CPU 0 instructions: 7000000 cycles: 2982265 heartbeat IPC: 2.40962 cumulative IPC: 2.34721 (Simulation time: 0 hr 7 min 32 sec) 
Heartbeat CPU 0 instructions: 8000000 cycles: 3395192 heartbeat IPC: 2.42174 cumulative IPC: 2.35627 (Simulation time: 0 hr 8 min 36 sec) 
Heartbeat CPU 0 instructions: 9000003 cycles: 3840362 heartbeat IPC: 2.24634 cumulative IPC: 2.34353 (Simulation time: 0 hr 9 min 54 sec) 
Heartbeat CPU 0 instructions: 10000002 cycles: 4355040 heartbeat IPC: 1.94296 cumulative IPC: 2.29619 (Simulation time: 0 hr 11 min 23 sec) 
Heartbeat CPU 0 instructions: 11000000 cycles: 4870336 heartbeat IPC: 1.94063 cumulative IPC: 2.25857 (Simulation time: 0 hr 12 min 49 sec) 
Heartbeat CPU 0 instructions: 12000000 cycles: 5385223 heartbeat IPC: 1.94217 cumulative IPC: 2.22832 (Simulation time: 0 hr 14 min 11 sec) 
Heartbeat CPU 0 instructions: 13000002 cycles: 5900314 heartbeat IPC: 1.94141 cumulative IPC: 2.20327 (Simulation time: 0 hr 15 min 35 sec) 
Heartbeat CPU 0 instructions: 14000000 cycles: 6416373 heartbeat IPC: 1.93776 cumulative IPC: 2.18192 (Simulation time: 0 hr 17 min 3 sec) 
Heartbeat CPU 0 instructions: 15000001 cycles: 6936789 heartbeat IPC: 1.92154 cumulative IPC: 2.16238 (Simulation time: 0 hr 18 min 34 sec) 
Heartbeat CPU 0 instructions: 16000000 cycles: 7457277 heartbeat IPC: 1.92127 cumulative IPC: 2.14556 (Simulation time: 0 hr 20 min 3 sec) 
Heartbeat CPU 0 instructions: 17000001 cycles: 7978118 heartbeat IPC: 1.91997 cumulative IPC: 2.13083 (Simulation time: 0 hr 21 min 34 sec) 
Heartbeat CPU 0 instructions: 18000000 cycles: 8499152 heartbeat IPC: 1.91926 cumulative IPC: 2.11786 (Simulation time: 0 hr 22 min 57 sec) 
Heartbeat CPU 0 instructions: 19000003 cycles: 9020427 heartbeat IPC: 1.91838 cumulative IPC: 2.10633 (Simulation time: 0 hr 24 min 16 sec) 
Heartbeat CPU 0 instructions: 20000000 cycles: 9558994 heartbeat IPC: 1.85677 cumulative IPC: 2.09227 (Simulation time: 0 hr 25 min 38 sec) 
Heartbeat CPU 0 instructions: 21000000 cycles: 10101102 heartbeat IPC: 1.84465 cumulative IPC: 2.07898 (Simulation time: 0 hr 27 min 11 sec) 
Heartbeat CPU 0 instructions: 22000001 cycles: 10642038 heartbeat IPC: 1.84865 cumulative IPC: 2.06727 (Simulation time: 0 hr 28 min 38 sec) 
Heartbeat CPU 0 instructions: 23000003 cycles: 11183520 heartbeat IPC: 1.84679 cumulative IPC: 2.0566 (Simulation time: 0 hr 29 min 57 sec) 
Heartbeat CPU 0 instructions: 24000000 cycles: 11725780 heartbeat IPC: 1.84413 cumulative IPC: 2.04677 (Simulation time: 0 hr 31 min 22 sec) 
Heartbeat CPU 0 instructions: 25000000 cycles: 12253661 heartbeat IPC: 1.89437 cumulative IPC: 2.04021 (Simulation time: 0 hr 32 min 50 sec) 
Heartbeat CPU 0 instructions: 26000000 cycles: 12772464 heartbeat IPC: 1.92751 cumulative IPC: 2.03563 (Simulation time: 0 hr 34 min 16 sec) 
Heartbeat CPU 0 instructions: 27000002 cycles: 13291239 heartbeat IPC: 1.92762 cumulative IPC: 2.03141 (Simulation time: 0 hr 35 min 44 sec) 
Heartbeat CPU 0 instructions: 28000000 cycles: 13809791 heartbeat IPC: 1.92844 cumulative IPC: 2.02755 (Simulation time: 0 hr 37 min 21 sec) 
Heartbeat CPU 0 instructions: 29000003 cycles: 14328006 heartbeat IPC: 1.92971 cumulative IPC: 2.02401 (Simulation time: 0 hr 38 min 51 sec) 
Heartbeat CPU 0 instructions: 30000001 cycles: 14861749 heartbeat IPC: 1.87356 cumulative IPC: 2.0186 (Simulation time: 0 hr 40 min 17 sec) 
Heartbeat CPU 0 instructions: 31000001 cycles: 15423165 heartbeat IPC: 1.78121 cumulative IPC: 2.00996 (Simulation time: 0 hr 41 min 49 sec) 
Heartbeat CPU 0 instructions: 32000000 cycles: 15984518 heartbeat IPC: 1.78141 cumulative IPC: 2.00194 (Simulation time: 0 hr 43 min 21 sec) 
Heartbeat CPU 0 instructions: 33000002 cycles: 16546787 heartbeat IPC: 1.77851 cumulative IPC: 1.99434 (Simulation time: 0 hr 44 min 51 sec) 
Heartbeat CPU 0 instructions: 34000001 cycles: 17107647 heartbeat IPC: 1.78297 cumulative IPC: 1.98742 (Simulation time: 0 hr 46 min 15 sec) 
Heartbeat CPU 0 instructions: 35000001 cycles: 17669038 heartbeat IPC: 1.78129 cumulative IPC: 1.98087 (Simulation time: 0 hr 47 min 45 sec) 
Heartbeat CPU 0 instructions: 36000000 cycles: 18231756 heartbeat IPC: 1.77709 cumulative IPC: 1.97458 (Simulation time: 0 hr 49 min 22 sec) 
Heartbeat CPU 0 instructions: 37000002 cycles: 18805733 heartbeat IPC: 1.74223 cumulative IPC: 1.96749 (Simulation time: 0 hr 50 min 45 sec) 
Heartbeat CPU 0 instructions: 38000002 cycles: 19379635 heartbeat IPC: 1.74246 cumulative IPC: 1.96082 (Simulation time: 0 hr 52 min 13 sec) 
Heartbeat CPU 0 instructions: 39000000 cycles: 19953391 heartbeat IPC: 1.7429 cumulative IPC: 1.95456 (Simulation time: 0 hr 53 min 41 sec) 
Heartbeat CPU 0 instructions: 40000000 cycles: 20527298 heartbeat IPC: 1.74244 cumulative IPC: 1.94862 (Simulation time: 0 hr 55 min 11 sec) 
Heartbeat CPU 0 instructions: 41000002 cycles: 21100795 heartbeat IPC: 1.74369 cumulative IPC: 1.94305 (Simulation time: 0 hr 56 min 35 sec) 
Heartbeat CPU 0 instructions: 42000000 cycles: 21674543 heartbeat IPC: 1.74292 cumulative IPC: 1.93776 (Simulation time: 0 hr 58 min 8 sec) 
Heartbeat CPU 0 instructions: 43000002 cycles: 22221633 heartbeat IPC: 1.82786 cumulative IPC: 1.93505 (Simulation time: 0 hr 59 min 40 sec) 
Heartbeat CPU 0 instructions: 44000000 cycles: 22755490 heartbeat IPC: 1.87316 cumulative IPC: 1.9336 (Simulation time: 1 hr 1 min 23 sec) 
Heartbeat CPU 0 instructions: 45000001 cycles: 23289077 heartbeat IPC: 1.87411 cumulative IPC: 1.93224 (Simulation time: 1 hr 2 min 47 sec) 
Heartbeat CPU 0 instructions: 46000001 cycles: 23822787 heartbeat IPC: 1.87368 cumulative IPC: 1.93092 (Simulation time: 1 hr 4 min 25 sec) 
Heartbeat CPU 0 instructions: 47000001 cycles: 24356335 heartbeat IPC: 1.87425 cumulative IPC: 1.92968 (Simulation time: 1 hr 5 min 50 sec) 
Heartbeat CPU 0 instructions: 48000000 cycles: 24895392 heartbeat IPC: 1.85509 cumulative IPC: 1.92807 (Simulation time: 1 hr 7 min 13 sec) 
Heartbeat CPU 0 instructions: 49000003 cycles: 25442703 heartbeat IPC: 1.82712 cumulative IPC: 1.9259 (Simulation time: 1 hr 8 min 36 sec) 
Heartbeat CPU 0 instructions: 50000003 cycles: 25990217 heartbeat IPC: 1.82644 cumulative IPC: 1.9238 (Simulation time: 1 hr 9 min 55 sec) 

Warmup complete CPU 0 instructions: 50000003 cycles: 25990217 (Simulation time: 1 hr 9 min 55 sec) 

Heartbeat CPU 0 instructions: 51000003 cycles: 29702975 heartbeat IPC: 0.269342 cumulative IPC: 0.269342 (Simulation time: 1 hr 11 min 55 sec) 
Heartbeat CPU 0 instructions: 52000000 cycles: 33411375 heartbeat IPC: 0.269657 cumulative IPC: 0.269499 (Simulation time: 1 hr 13 min 56 sec) 
Heartbeat CPU 0 instructions: 53000000 cycles: 37182813 heartbeat IPC: 0.265151 cumulative IPC: 0.268034 (Simulation time: 1 hr 16 min 7 sec) 
Heartbeat CPU 0 instructions: 54000001 cycles: 39062801 heartbeat IPC: 0.531919 cumulative IPC: 0.305984 (Simulation time: 1 hr 17 min 48 sec) 
Heartbeat CPU 0 instructions: 55000002 cycles: 40944611 heartbeat IPC: 0.531404 cumulative IPC: 0.33435 (Simulation time: 1 hr 19 min 23 sec) 
Heartbeat CPU 0 instructions: 56000000 cycles: 42876748 heartbeat IPC: 0.517561 cumulative IPC: 0.355313 (Simulation time: 1 hr 21 min 1 sec) 
Heartbeat CPU 0 instructions: 57000002 cycles: 44793113 heartbeat IPC: 0.521822 cumulative IPC: 0.372283 (Simulation time: 1 hr 22 min 41 sec) 
Heartbeat CPU 0 instructions: 58000001 cycles: 46637364 heartbeat IPC: 0.542225 cumulative IPC: 0.387463 (Simulation time: 1 hr 24 min 20 sec) 
Heartbeat CPU 0 instructions: 59000002 cycles: 48473934 heartbeat IPC: 0.544494 cumulative IPC: 0.40029 (Simulation time: 1 hr 25 min 58 sec) 
Heartbeat CPU 0 instructions: 60000000 cycles: 50088530 heartbeat IPC: 0.619349 cumulative IPC: 0.414967 (Simulation time: 1 hr 27 min 39 sec) 
Heartbeat CPU 0 instructions: 61000002 cycles: 51712974 heartbeat IPC: 0.615596 cumulative IPC: 0.427637 (Simulation time: 1 hr 29 min 21 sec) 
Heartbeat CPU 0 instructions: 62000000 cycles: 53340414 heartbeat IPC: 0.614461 cumulative IPC: 0.438754 (Simulation time: 1 hr 30 min 57 sec) 
Heartbeat CPU 0 instructions: 63000000 cycles: 54982614 heartbeat IPC: 0.608939 cumulative IPC: 0.448393 (Simulation time: 1 hr 32 min 33 sec) 
Heartbeat CPU 0 instructions: 64000000 cycles: 56612787 heartbeat IPC: 0.613432 cumulative IPC: 0.457179 (Simulation time: 1 hr 34 min 7 sec) 
Heartbeat CPU 0 instructions: 65000001 cycles: 58029384 heartbeat IPC: 0.705918 cumulative IPC: 0.468177 (Simulation time: 1 hr 35 min 53 sec) 
Heartbeat CPU 0 instructions: 66000003 cycles: 59442800 heartbeat IPC: 0.707507 cumulative IPC: 0.478289 (Simulation time: 1 hr 37 min 29 sec) 
Heartbeat CPU 0 instructions: 67000003 cycles: 60853159 heartbeat IPC: 0.709039 cumulative IPC: 0.487624 (Simulation time: 1 hr 39 min 18 sec) 
Heartbeat CPU 0 instructions: 68000000 cycles: 62259709 heartbeat IPC: 0.710957 cumulative IPC: 0.496285 (Simulation time: 1 hr 40 min 51 sec) 
Heartbeat CPU 0 instructions: 69000002 cycles: 63668486 heartbeat IPC: 0.709837 cumulative IPC: 0.504269 (Simulation time: 1 hr 42 min 25 sec) 
Heartbeat CPU 0 instructions: 70000000 cycles: 65233781 heartbeat IPC: 0.638856 cumulative IPC: 0.509638 (Simulation time: 1 hr 43 min 57 sec) 
Heartbeat CPU 0 instructions: 71000000 cycles: 66655038 heartbeat IPC: 0.703602 cumulative IPC: 0.516417 (Simulation time: 1 hr 45 min 35 sec) 
Heartbeat CPU 0 instructions: 72000000 cycles: 68075142 heartbeat IPC: 0.704174 cumulative IPC: 0.522752 (Simulation time: 1 hr 47 min 10 sec) 
Heartbeat CPU 0 instructions: 73000002 cycles: 69501828 heartbeat IPC: 0.700926 cumulative IPC: 0.528594 (Simulation time: 1 hr 48 min 44 sec) 
Heartbeat CPU 0 instructions: 74000000 cycles: 70934171 heartbeat IPC: 0.698155 cumulative IPC: 0.533998 (Simulation time: 1 hr 50 min 22 sec) 
Heartbeat CPU 0 instructions: 75000000 cycles: 72364813 heartbeat IPC: 0.698987 cumulative IPC: 0.539088 (Simulation time: 1 hr 52 min 6 sec) 
Heartbeat CPU 0 instructions: 76000000 cycles: 73788210 heartbeat IPC: 0.702545 cumulative IPC: 0.543956 (Simulation time: 1 hr 53 min 55 sec) 
Heartbeat CPU 0 instructions: 77000001 cycles: 77155113 heartbeat IPC: 0.297009 cumulative IPC: 0.527705 (Simulation time: 1 hr 55 min 51 sec) 
Heartbeat CPU 0 instructions: 78000000 cycles: 80657841 heartbeat IPC: 0.285491 cumulative IPC: 0.512186 (Simulation time: 1 hr 57 min 50 sec) 
Heartbeat CPU 0 instructions: 79000002 cycles: 84153542 heartbeat IPC: 0.286066 cumulative IPC: 0.498596 (Simulation time: 1 hr 59 min 49 sec) 
Heartbeat CPU 0 instructions: 80000000 cycles: 87655806 heartbeat IPC: 0.285529 cumulative IPC: 0.486495 (Simulation time: 2 hr 1 min 49 sec) 
Heartbeat CPU 0 instructions: 81000000 cycles: 91154028 heartbeat IPC: 0.285859 cumulative IPC: 0.475724 (Simulation time: 2 hr 3 min 54 sec) 
Heartbeat CPU 0 instructions: 82000002 cycles: 94886764 heartbeat IPC: 0.267901 cumulative IPC: 0.464464 (Simulation time: 2 hr 5 min 56 sec) 
Heartbeat CPU 0 instructions: 83000002 cycles: 98621263 heartbeat IPC: 0.267774 cumulative IPC: 0.454351 (Simulation time: 2 hr 7 min 58 sec) 
Heartbeat CPU 0 instructions: 84000000 cycles: 102366820 heartbeat IPC: 0.266982 cumulative IPC: 0.445162 (Simulation time: 2 hr 9 min 54 sec) 
Heartbeat CPU 0 instructions: 85000000 cycles: 106112200 heartbeat IPC: 0.266996 cumulative IPC: 0.436834 (Simulation time: 2 hr 12 min 0 sec) 
Heartbeat CPU 0 instructions: 86000000 cycles: 109867863 heartbeat IPC: 0.266265 cumulative IPC: 0.429197 (Simulation time: 2 hr 14 min 7 sec) 
Heartbeat CPU 0 instructions: 87000000 cycles: 113250185 heartbeat IPC: 0.295655 cumulative IPC: 0.42402 (Simulation time: 2 hr 16 min 1 sec) 
Heartbeat CPU 0 instructions: 88000000 cycles: 114956408 heartbeat IPC: 0.58609 cumulative IPC: 0.427129 (Simulation time: 2 hr 17 min 31 sec) 
Heartbeat CPU 0 instructions: 89000001 cycles: 116635184 heartbeat IPC: 0.595673 cumulative IPC: 0.43025 (Simulation time: 2 hr 19 min 3 sec) 
Heartbeat CPU 0 instructions: 90000001 cycles: 118322960 heartbeat IPC: 0.592496 cumulative IPC: 0.433216 (Simulation time: 2 hr 20 min 32 sec) 
Heartbeat CPU 0 instructions: 91000001 cycles: 120010998 heartbeat IPC: 0.592404 cumulative IPC: 0.436074 (Simulation time: 2 hr 22 min 8 sec) 
Heartbeat CPU 0 instructions: 92000000 cycles: 121701371 heartbeat IPC: 0.591585 cumulative IPC: 0.43882 (Simulation time: 2 hr 23 min 42 sec) 
Heartbeat CPU 0 instructions: 93000002 cycles: 123375662 heartbeat IPC: 0.597269 cumulative IPC: 0.441544 (Simulation time: 2 hr 25 min 11 sec) 
Heartbeat CPU 0 instructions: 94000001 cycles: 124868046 heartbeat IPC: 0.670068 cumulative IPC: 0.444994 (Simulation time: 2 hr 26 min 37 sec) 
Heartbeat CPU 0 instructions: 95000000 cycles: 126360733 heartbeat IPC: 0.669932 cumulative IPC: 0.448339 (Simulation time: 2 hr 28 min 4 sec) 
Heartbeat CPU 0 instructions: 96000000 cycles: 127857786 heartbeat IPC: 0.667979 cumulative IPC: 0.451567 (Simulation time: 2 hr 29 min 26 sec) 
Heartbeat CPU 0 instructions: 97000001 cycles: 129349728 heartbeat IPC: 0.670268 cumulative IPC: 0.454724 (Simulation time: 2 hr 30 min 37 sec) 
Heartbeat CPU 0 instructions: 98000000 cycles: 130934730 heartbeat IPC: 0.630913 cumulative IPC: 0.457385 (Simulation time: 2 hr 31 min 48 sec) 
Heartbeat CPU 0 instructions: 99000001 cycles: 132365396 heartbeat IPC: 0.698976 cumulative IPC: 0.460634 (Simulation time: 2 hr 32 min 53 sec) 
Heartbeat CPU 0 instructions: 100000000 cycles: 133801675 heartbeat IPC: 0.696243 cumulative IPC: 0.463773 (Simulation time: 2 hr 33 min 56 sec) 
Heartbeat CPU 0 instructions: 101000002 cycles: 135228660 heartbeat IPC: 0.70078 cumulative IPC: 0.466869 (Simulation time: 2 hr 34 min 58 sec) 
Heartbeat CPU 0 instructions: 102000003 cycles: 136655309 heartbeat IPC: 0.700944 cumulative IPC: 0.469886 (Simulation time: 2 hr 36 min 1 sec) 
Heartbeat CPU 0 instructions: 103000001 cycles: 138081239 heartbeat IPC: 0.701295 cumulative IPC: 0.47283 (Simulation time: 2 hr 36 min 58 sec) 
Heartbeat CPU 0 instructions: 104000000 cycles: 139660210 heartbeat IPC: 0.633323 cumulative IPC: 0.475059 (Simulation time: 2 hr 37 min 55 sec) 
Heartbeat CPU 0 instructions: 105000003 cycles: 141107129 heartbeat IPC: 0.691126 cumulative IPC: 0.477775 (Simulation time: 2 hr 38 min 51 sec) 
Heartbeat CPU 0 instructions: 106000001 cycles: 142554690 heartbeat IPC: 0.690816 cumulative IPC: 0.480421 (Simulation time: 2 hr 39 min 47 sec) 
Heartbeat CPU 0 instructions: 107000001 cycles: 144010765 heartbeat IPC: 0.686778 cumulative IPC: 0.482967 (Simulation time: 2 hr 40 min 49 sec) 
Heartbeat CPU 0 instructions: 108000000 cycles: 145455207 heartbeat IPC: 0.692308 cumulative IPC: 0.485498 (Simulation time: 2 hr 41 min 46 sec) 
Heartbeat CPU 0 instructions: 109000000 cycles: 146892697 heartbeat IPC: 0.695657 cumulative IPC: 0.487997 (Simulation time: 2 hr 42 min 41 sec) 
Heartbeat CPU 0 instructions: 110000002 cycles: 148639073 heartbeat IPC: 0.572616 cumulative IPC: 0.489201 (Simulation time: 2 hr 43 min 38 sec) 
Heartbeat CPU 0 instructions: 111000002 cycles: 152087255 heartbeat IPC: 0.290008 cumulative IPC: 0.483754 (Simulation time: 2 hr 44 min 45 sec) 
Heartbeat CPU 0 instructions: 112000000 cycles: 155543428 heartbeat IPC: 0.289337 cumulative IPC: 0.478568 (Simulation time: 2 hr 45 min 51 sec) 
Heartbeat CPU 0 instructions: 113000001 cycles: 158991908 heartbeat IPC: 0.289983 cumulative IPC: 0.473678 (Simulation time: 2 hr 46 min 54 sec) 
Heartbeat CPU 0 instructions: 114000000 cycles: 162439655 heartbeat IPC: 0.290044 cumulative IPC: 0.469038 (Simulation time: 2 hr 47 min 54 sec) 
Heartbeat CPU 0 instructions: 115000002 cycles: 165881896 heartbeat IPC: 0.290509 cumulative IPC: 0.464645 (Simulation time: 2 hr 48 min 51 sec) 
Heartbeat CPU 0 instructions: 116000000 cycles: 169658920 heartbeat IPC: 0.264758 cumulative IPC: 0.45939 (Simulation time: 2 hr 49 min 49 sec) 
Heartbeat CPU 0 instructions: 117000000 cycles: 173382616 heartbeat IPC: 0.26855 cumulative IPC: 0.454569 (Simulation time: 2 hr 50 min 44 sec) 
Heartbeat CPU 0 instructions: 118000000 cycles: 177114511 heartbeat IPC: 0.26796 cumulative IPC: 0.449961 (Simulation time: 2 hr 51 min 39 sec) 
Heartbeat CPU 0 instructions: 119000003 cycles: 180845401 heartbeat IPC: 0.268033 cumulative IPC: 0.445578 (Simulation time: 2 hr 52 min 32 sec) 
Heartbeat CPU 0 instructions: 120000000 cycles: 184572652 heartbeat IPC: 0.268293 cumulative IPC: 0.441411 (Simulation time: 2 hr 53 min 24 sec) 
Heartbeat CPU 0 instructions: 121000001 cycles: 187662750 heartbeat IPC: 0.323615 cumulative IPC: 0.439159 (Simulation time: 2 hr 54 min 10 sec) 
Heartbeat CPU 0 instructions: 122000001 cycles: 189698143 heartbeat IPC: 0.491306 cumulative IPC: 0.439808 (Simulation time: 2 hr 54 min 49 sec) 
Heartbeat CPU 0 instructions: 123000000 cycles: 191712921 heartbeat IPC: 0.496332 cumulative IPC: 0.440495 (Simulation time: 2 hr 55 min 27 sec) 
Heartbeat CPU 0 instructions: 124000000 cycles: 193736630 heartbeat IPC: 0.494142 cumulative IPC: 0.441142 (Simulation time: 2 hr 56 min 5 sec) 
Heartbeat CPU 0 instructions: 125000001 cycles: 195759107 heartbeat IPC: 0.494444 cumulative IPC: 0.441777 (Simulation time: 2 hr 56 min 39 sec) 
Heartbeat CPU 0 instructions: 126000001 cycles: 197963613 heartbeat IPC: 0.453616 cumulative IPC: 0.441929 (Simulation time: 2 hr 57 min 13 sec) 
Heartbeat CPU 0 instructions: 127000000 cycles: 199972089 heartbeat IPC: 0.497889 cumulative IPC: 0.442575 (Simulation time: 2 hr 57 min 47 sec) 
Heartbeat CPU 0 instructions: 128000000 cycles: 201995559 heartbeat IPC: 0.494201 cumulative IPC: 0.443168 (Simulation time: 2 hr 58 min 20 sec) 
Heartbeat CPU 0 instructions: 129000000 cycles: 203954432 heartbeat IPC: 0.510498 cumulative IPC: 0.443909 (Simulation time: 2 hr 58 min 54 sec) 
Heartbeat CPU 0 instructions: 130000003 cycles: 205956738 heartbeat IPC: 0.499426 cumulative IPC: 0.444527 (Simulation time: 2 hr 59 min 21 sec) 
Heartbeat CPU 0 instructions: 131000001 cycles: 207985610 heartbeat IPC: 0.492884 cumulative IPC: 0.445066 (Simulation time: 2 hr 59 min 48 sec) 
Heartbeat CPU 0 instructions: 132000000 cycles: 209560939 heartbeat IPC: 0.634787 cumulative IPC: 0.446694 (Simulation time: 3 hr 0 min 11 sec) 
Heartbeat CPU 0 instructions: 133000000 cycles: 210972308 heartbeat IPC: 0.708532 cumulative IPC: 0.448692 (Simulation time: 3 hr 0 min 34 sec) 
Heartbeat CPU 0 instructions: 134000003 cycles: 212391643 heartbeat IPC: 0.704557 cumulative IPC: 0.45064 (Simulation time: 3 hr 0 min 56 sec) 
Heartbeat CPU 0 instructions: 135000003 cycles: 213813259 heartbeat IPC: 0.703425 cumulative IPC: 0.452554 (Simulation time: 3 hr 1 min 15 sec) 
Heartbeat CPU 0 instructions: 136000000 cycles: 215233952 heartbeat IPC: 0.70388 cumulative IPC: 0.45444 (Simulation time: 3 hr 1 min 32 sec) 
Heartbeat CPU 0 instructions: 137000001 cycles: 216649414 heartbeat IPC: 0.706484 cumulative IPC: 0.456312 (Simulation time: 3 hr 1 min 48 sec) 
Heartbeat CPU 0 instructions: 138000001 cycles: 218208132 heartbeat IPC: 0.641553 cumulative IPC: 0.457814 (Simulation time: 3 hr 2 min 4 sec) 
Heartbeat CPU 0 instructions: 139000001 cycles: 219633407 heartbeat IPC: 0.701619 cumulative IPC: 0.459608 (Simulation time: 3 hr 2 min 16 sec) 
Heartbeat CPU 0 instructions: 140000000 cycles: 221061045 heartbeat IPC: 0.700457 cumulative IPC: 0.461371 (Simulation time: 3 hr 2 min 29 sec) 
Heartbeat CPU 0 instructions: 141000000 cycles: 222497082 heartbeat IPC: 0.696361 cumulative IPC: 0.463088 (Simulation time: 3 hr 2 min 40 sec) 
Heartbeat CPU 0 instructions: 142000002 cycles: 223920422 heartbeat IPC: 0.702574 cumulative IPC: 0.46481 (Simulation time: 3 hr 2 min 52 sec) 
Heartbeat CPU 0 instructions: 143000000 cycles: 225344258 heartbeat IPC: 0.702327 cumulative IPC: 0.466507 (Simulation time: 3 hr 3 min 3 sec) 
Heartbeat CPU 0 instructions: 144000000 cycles: 226790402 heartbeat IPC: 0.691494 cumulative IPC: 0.468127 (Simulation time: 3 hr 3 min 13 sec) 
Heartbeat CPU 0 instructions: 145000000 cycles: 228370451 heartbeat IPC: 0.632892 cumulative IPC: 0.469413 (Simulation time: 3 hr 3 min 21 sec) 
Heartbeat CPU 0 instructions: 146000001 cycles: 229936197 heartbeat IPC: 0.638674 cumulative IPC: 0.470713 (Simulation time: 3 hr 3 min 28 sec) 
Heartbeat CPU 0 instructions: 147000003 cycles: 231514408 heartbeat IPC: 0.63363 cumulative IPC: 0.471964 (Simulation time: 3 hr 3 min 36 sec) 
Heartbeat CPU 0 instructions: 148000000 cycles: 233103700 heartbeat IPC: 0.629209 cumulative IPC: 0.473171 (Simulation time: 3 hr 3 min 43 sec) 
Heartbeat CPU 0 instructions: 149000002 cycles: 234669527 heartbeat IPC: 0.638641 cumulative IPC: 0.474412 (Simulation time: 3 hr 3 min 50 sec) 
Heartbeat CPU 0 instructions: 150000003 cycles: 236266963 heartbeat IPC: 0.626004 cumulative IPC: 0.475564 (Simulation time: 3 hr 3 min 56 sec) 
Finished CPU 0 instructions: 100000000 cycles: 210276746 cummulative IPC: 0.475564 (Simulation time: 3 hr 3 min 56 sec) 

ChampSim completed all CPUs

Region of Interest Statistics

CPU 0 cummulative IPC: 0.475564 instructions: 100000000 cycles: 210276746
LLC TOTAL     ACCESS:   12336504  HIT:   10070621  MISS:    2265883
LLC LOAD      ACCESS:    4932617  HIT:    4194180  MISS:     738437
LLC RFO       ACCESS:         16  HIT:          0  MISS:         16
LLC PREFETCH  ACCESS:    6494556  HIT:    5050118  MISS:    1444438
LLC WRITEBACK ACCESS:     909315  HIT:     826323  MISS:      82992
Insertion Distribution: 
	LOAD 176112 0 34463 1054272 
	RFO 4 0 14515 0 
	PREF 0 808808 109817 1261903 
	WRITEBACK 0 0 0 85753 
Total Prefetch Downgrades: 740047
