
*** ChampSim Multicore Out-of-Order Simulator ***

Warmup Instructions: 50000000
Simulation Instructions: 100000000
Configuration: 2
Number of CPUs: 1
LLC sets: 2048
LLC ways: 16
Off-chip DRAM Channels: 1 Width: 64-bit Data Rate: 1600 MT/s

CPU 0 runs /datasets/cs240c-wi22-a00-public/data/Assignment2-gz/bzip2_183B.trace.gz
CPU 0 L1D next line prefetcher
CPU 0 L2C IP-based stride prefetcher
Initialize SRRIP state
Heartbeat CPU 0 instructions: 1000000 cycles: 447972 heartbeat IPC: 2.23228 cumulative IPC: 2.23228 (Simulation time: 0 hr 1 min 24 sec) 
Heartbeat CPU 0 instructions: 2000001 cycles: 951246 heartbeat IPC: 1.98699 cumulative IPC: 2.10251 (Simulation time: 0 hr 2 min 54 sec) 
Heartbeat CPU 0 instructions: 3000001 cycles: 1457933 heartbeat IPC: 1.97361 cumulative IPC: 2.05771 (Simulation time: 0 hr 4 min 19 sec) 
Heartbeat CPU 0 instructions: 4000000 cycles: 1928626 heartbeat IPC: 2.12452 cumulative IPC: 2.07402 (Simulation time: 0 hr 5 min 21 sec) 
Heartbeat CPU 0 instructions: 5000000 cycles: 2425933 heartbeat IPC: 2.01083 cumulative IPC: 2.06106 (Simulation time: 0 hr 6 min 35 sec) 
Heartbeat CPU 0 instructions: 6000001 cycles: 2887533 heartbeat IPC: 2.16638 cumulative IPC: 2.0779 (Simulation time: 0 hr 7 min 43 sec) 
Heartbeat CPU 0 instructions: 7000002 cycles: 3343396 heartbeat IPC: 2.19364 cumulative IPC: 2.09368 (Simulation time: 0 hr 8 min 53 sec) 
Heartbeat CPU 0 instructions: 8000000 cycles: 3812995 heartbeat IPC: 2.12947 cumulative IPC: 2.09809 (Simulation time: 0 hr 9 min 56 sec) 
Heartbeat CPU 0 instructions: 9000003 cycles: 4278250 heartbeat IPC: 2.14937 cumulative IPC: 2.10366 (Simulation time: 0 hr 10 min 59 sec) 
Heartbeat CPU 0 instructions: 10000000 cycles: 4746595 heartbeat IPC: 2.13517 cumulative IPC: 2.10677 (Simulation time: 0 hr 12 min 8 sec) 
Heartbeat CPU 0 instructions: 11000000 cycles: 5209366 heartbeat IPC: 2.1609 cumulative IPC: 2.11158 (Simulation time: 0 hr 13 min 18 sec) 
Heartbeat CPU 0 instructions: 12000000 cycles: 5684982 heartbeat IPC: 2.10254 cumulative IPC: 2.11082 (Simulation time: 0 hr 14 min 33 sec) 
Heartbeat CPU 0 instructions: 13000003 cycles: 6152141 heartbeat IPC: 2.14061 cumulative IPC: 2.11309 (Simulation time: 0 hr 15 min 40 sec) 
Heartbeat CPU 0 instructions: 14000003 cycles: 6651512 heartbeat IPC: 2.00252 cumulative IPC: 2.10478 (Simulation time: 0 hr 16 min 57 sec) 
Heartbeat CPU 0 instructions: 15000002 cycles: 7120681 heartbeat IPC: 2.13143 cumulative IPC: 2.10654 (Simulation time: 0 hr 18 min 0 sec) 
Heartbeat CPU 0 instructions: 16000000 cycles: 7634755 heartbeat IPC: 1.94524 cumulative IPC: 2.09568 (Simulation time: 0 hr 19 min 7 sec) 
Heartbeat CPU 0 instructions: 17000000 cycles: 8128762 heartbeat IPC: 2.02426 cumulative IPC: 2.09134 (Simulation time: 0 hr 20 min 13 sec) 
Heartbeat CPU 0 instructions: 18000001 cycles: 8692971 heartbeat IPC: 1.77239 cumulative IPC: 2.07064 (Simulation time: 0 hr 21 min 42 sec) 
Heartbeat CPU 0 instructions: 19000000 cycles: 9204539 heartbeat IPC: 1.95477 cumulative IPC: 2.0642 (Simulation time: 0 hr 22 min 58 sec) 
Heartbeat CPU 0 instructions: 20000000 cycles: 9694536 heartbeat IPC: 2.04083 cumulative IPC: 2.06302 (Simulation time: 0 hr 24 min 0 sec) 
Heartbeat CPU 0 instructions: 21000003 cycles: 10143330 heartbeat IPC: 2.2282 cumulative IPC: 2.07033 (Simulation time: 0 hr 25 min 11 sec) 
Heartbeat CPU 0 instructions: 22000003 cycles: 10608293 heartbeat IPC: 2.15071 cumulative IPC: 2.07385 (Simulation time: 0 hr 26 min 24 sec) 
Heartbeat CPU 0 instructions: 23000002 cycles: 11089478 heartbeat IPC: 2.0782 cumulative IPC: 2.07404 (Simulation time: 0 hr 27 min 39 sec) 
Heartbeat CPU 0 instructions: 24000000 cycles: 11585867 heartbeat IPC: 2.01454 cumulative IPC: 2.07149 (Simulation time: 0 hr 28 min 49 sec) 
Heartbeat CPU 0 instructions: 25000001 cycles: 12038512 heartbeat IPC: 2.20924 cumulative IPC: 2.07667 (Simulation time: 0 hr 29 min 55 sec) 
Heartbeat CPU 0 instructions: 26000003 cycles: 12530968 heartbeat IPC: 2.03064 cumulative IPC: 2.07486 (Simulation time: 0 hr 31 min 7 sec) 
Heartbeat CPU 0 instructions: 27000000 cycles: 13048074 heartbeat IPC: 1.93383 cumulative IPC: 2.06927 (Simulation time: 0 hr 32 min 20 sec) 
Heartbeat CPU 0 instructions: 28000000 cycles: 13507636 heartbeat IPC: 2.17598 cumulative IPC: 2.0729 (Simulation time: 0 hr 33 min 22 sec) 
Heartbeat CPU 0 instructions: 29000000 cycles: 13996483 heartbeat IPC: 2.04563 cumulative IPC: 2.07195 (Simulation time: 0 hr 34 min 24 sec) 
Heartbeat CPU 0 instructions: 30000000 cycles: 14449814 heartbeat IPC: 2.20589 cumulative IPC: 2.07615 (Simulation time: 0 hr 35 min 25 sec) 
Heartbeat CPU 0 instructions: 31000002 cycles: 14908873 heartbeat IPC: 2.17837 cumulative IPC: 2.0793 (Simulation time: 0 hr 36 min 26 sec) 
Heartbeat CPU 0 instructions: 32000000 cycles: 15367599 heartbeat IPC: 2.17995 cumulative IPC: 2.0823 (Simulation time: 0 hr 37 min 29 sec) 
Heartbeat CPU 0 instructions: 33000001 cycles: 15838462 heartbeat IPC: 2.12376 cumulative IPC: 2.08354 (Simulation time: 0 hr 38 min 51 sec) 
Heartbeat CPU 0 instructions: 34000001 cycles: 16348369 heartbeat IPC: 1.96114 cumulative IPC: 2.07972 (Simulation time: 0 hr 39 min 57 sec) 
Heartbeat CPU 0 instructions: 35000002 cycles: 16857226 heartbeat IPC: 1.96519 cumulative IPC: 2.07626 (Simulation time: 0 hr 41 min 0 sec) 
Heartbeat CPU 0 instructions: 36000000 cycles: 17329858 heartbeat IPC: 2.11581 cumulative IPC: 2.07734 (Simulation time: 0 hr 42 min 5 sec) 
Heartbeat CPU 0 instructions: 37000002 cycles: 17806215 heartbeat IPC: 2.09927 cumulative IPC: 2.07793 (Simulation time: 0 hr 43 min 13 sec) 
Heartbeat CPU 0 instructions: 38000001 cycles: 18249237 heartbeat IPC: 2.25722 cumulative IPC: 2.08228 (Simulation time: 0 hr 44 min 18 sec) 
Heartbeat CPU 0 instructions: 39000001 cycles: 18714012 heartbeat IPC: 2.15158 cumulative IPC: 2.084 (Simulation time: 0 hr 45 min 23 sec) 
Heartbeat CPU 0 instructions: 40000000 cycles: 19223987 heartbeat IPC: 1.96088 cumulative IPC: 2.08073 (Simulation time: 0 hr 46 min 29 sec) 
Heartbeat CPU 0 instructions: 41000000 cycles: 19683278 heartbeat IPC: 2.17727 cumulative IPC: 2.08299 (Simulation time: 0 hr 47 min 37 sec) 
Heartbeat CPU 0 instructions: 42000000 cycles: 20163375 heartbeat IPC: 2.08291 cumulative IPC: 2.08298 (Simulation time: 0 hr 48 min 38 sec) 
Heartbeat CPU 0 instructions: 43000001 cycles: 20622836 heartbeat IPC: 2.17647 cumulative IPC: 2.08507 (Simulation time: 0 hr 49 min 38 sec) 
Heartbeat CPU 0 instructions: 44000000 cycles: 21113883 heartbeat IPC: 2.03646 cumulative IPC: 2.08394 (Simulation time: 0 hr 50 min 40 sec) 
Heartbeat CPU 0 instructions: 45000000 cycles: 21572702 heartbeat IPC: 2.17951 cumulative IPC: 2.08597 (Simulation time: 0 hr 51 min 43 sec) 
Heartbeat CPU 0 instructions: 46000000 cycles: 22064543 heartbeat IPC: 2.03318 cumulative IPC: 2.08479 (Simulation time: 0 hr 52 min 53 sec) 
Heartbeat CPU 0 instructions: 47000002 cycles: 22566511 heartbeat IPC: 1.99216 cumulative IPC: 2.08273 (Simulation time: 0 hr 54 min 4 sec) 
Heartbeat CPU 0 instructions: 48000000 cycles: 22999112 heartbeat IPC: 2.31159 cumulative IPC: 2.08704 (Simulation time: 0 hr 55 min 16 sec) 
Heartbeat CPU 0 instructions: 49000003 cycles: 23457434 heartbeat IPC: 2.18188 cumulative IPC: 2.08889 (Simulation time: 0 hr 56 min 22 sec) 
Heartbeat CPU 0 instructions: 50000001 cycles: 23889002 heartbeat IPC: 2.31713 cumulative IPC: 2.09301 (Simulation time: 0 hr 57 min 23 sec) 

Warmup complete CPU 0 instructions: 50000001 cycles: 23889002 (Simulation time: 0 hr 57 min 23 sec) 

Heartbeat CPU 0 instructions: 51000000 cycles: 24918822 heartbeat IPC: 0.971043 cumulative IPC: 0.971043 (Simulation time: 0 hr 58 min 26 sec) 
Heartbeat CPU 0 instructions: 52000000 cycles: 25937270 heartbeat IPC: 0.981886 cumulative IPC: 0.976434 (Simulation time: 0 hr 59 min 30 sec) 
Heartbeat CPU 0 instructions: 53000001 cycles: 26909223 heartbeat IPC: 1.02886 cumulative IPC: 0.993305 (Simulation time: 1 hr 0 min 37 sec) 
Heartbeat CPU 0 instructions: 54000001 cycles: 27919557 heartbeat IPC: 0.989772 cumulative IPC: 0.992419 (Simulation time: 1 hr 1 min 57 sec) 
Heartbeat CPU 0 instructions: 55000001 cycles: 29151298 heartbeat IPC: 0.811859 cumulative IPC: 0.950156 (Simulation time: 1 hr 3 min 1 sec) 
Heartbeat CPU 0 instructions: 56000000 cycles: 30337436 heartbeat IPC: 0.843071 cumulative IPC: 0.930458 (Simulation time: 1 hr 4 min 0 sec) 
Heartbeat CPU 0 instructions: 57000003 cycles: 31710737 heartbeat IPC: 0.728175 cumulative IPC: 0.894942 (Simulation time: 1 hr 4 min 55 sec) 
Heartbeat CPU 0 instructions: 58000001 cycles: 33284364 heartbeat IPC: 0.635473 cumulative IPC: 0.851484 (Simulation time: 1 hr 5 min 48 sec) 
Heartbeat CPU 0 instructions: 59000003 cycles: 34592503 heartbeat IPC: 0.764446 cumulative IPC: 0.840847 (Simulation time: 1 hr 6 min 42 sec) 
Heartbeat CPU 0 instructions: 60000000 cycles: 36170980 heartbeat IPC: 0.63352 cumulative IPC: 0.814201 (Simulation time: 1 hr 7 min 40 sec) 
Heartbeat CPU 0 instructions: 61000003 cycles: 37890606 heartbeat IPC: 0.581524 cumulative IPC: 0.785624 (Simulation time: 1 hr 8 min 35 sec) 
Heartbeat CPU 0 instructions: 62000002 cycles: 39433666 heartbeat IPC: 0.648062 cumulative IPC: 0.771969 (Simulation time: 1 hr 9 min 33 sec) 
Heartbeat CPU 0 instructions: 63000003 cycles: 40820248 heartbeat IPC: 0.721199 cumulative IPC: 0.767811 (Simulation time: 1 hr 10 min 30 sec) 
Heartbeat CPU 0 instructions: 64000000 cycles: 42389933 heartbeat IPC: 0.637069 cumulative IPC: 0.756719 (Simulation time: 1 hr 11 min 32 sec) 
Heartbeat CPU 0 instructions: 65000003 cycles: 43647433 heartbeat IPC: 0.795231 cumulative IPC: 0.75917 (Simulation time: 1 hr 12 min 25 sec) 
Heartbeat CPU 0 instructions: 66000000 cycles: 44977320 heartbeat IPC: 0.751941 cumulative IPC: 0.758714 (Simulation time: 1 hr 13 min 22 sec) 
Heartbeat CPU 0 instructions: 67000000 cycles: 45916059 heartbeat IPC: 1.06526 cumulative IPC: 0.771778 (Simulation time: 1 hr 14 min 19 sec) 
Heartbeat CPU 0 instructions: 68000000 cycles: 47316485 heartbeat IPC: 0.714068 cumulative IPC: 0.768328 (Simulation time: 1 hr 15 min 13 sec) 
Heartbeat CPU 0 instructions: 69000000 cycles: 48886931 heartbeat IPC: 0.636762 cumulative IPC: 0.760063 (Simulation time: 1 hr 16 min 8 sec) 
Heartbeat CPU 0 instructions: 70000002 cycles: 50349332 heartbeat IPC: 0.683808 cumulative IPC: 0.755849 (Simulation time: 1 hr 17 min 9 sec) 
Heartbeat CPU 0 instructions: 71000000 cycles: 51914865 heartbeat IPC: 0.638759 cumulative IPC: 0.749308 (Simulation time: 1 hr 18 min 4 sec) 
Heartbeat CPU 0 instructions: 72000000 cycles: 53282052 heartbeat IPC: 0.731429 cumulative IPC: 0.748476 (Simulation time: 1 hr 18 min 56 sec) 
Heartbeat CPU 0 instructions: 73000001 cycles: 54567915 heartbeat IPC: 0.777689 cumulative IPC: 0.749701 (Simulation time: 1 hr 19 min 56 sec) 
Heartbeat CPU 0 instructions: 74000000 cycles: 55717292 heartbeat IPC: 0.870036 cumulative IPC: 0.754046 (Simulation time: 1 hr 20 min 54 sec) 
Heartbeat CPU 0 instructions: 75000001 cycles: 57133734 heartbeat IPC: 0.705995 cumulative IPC: 0.751999 (Simulation time: 1 hr 21 min 53 sec) 
Heartbeat CPU 0 instructions: 76000000 cycles: 58273862 heartbeat IPC: 0.877094 cumulative IPC: 0.756147 (Simulation time: 1 hr 23 min 1 sec) 
Heartbeat CPU 0 instructions: 77000003 cycles: 59454388 heartbeat IPC: 0.847083 cumulative IPC: 0.759165 (Simulation time: 1 hr 24 min 0 sec) 
Heartbeat CPU 0 instructions: 78000000 cycles: 60788605 heartbeat IPC: 0.749501 cumulative IPC: 0.758816 (Simulation time: 1 hr 24 min 52 sec) 
Heartbeat CPU 0 instructions: 79000000 cycles: 62130703 heartbeat IPC: 0.745102 cumulative IPC: 0.758334 (Simulation time: 1 hr 25 min 50 sec) 
Heartbeat CPU 0 instructions: 80000000 cycles: 63519018 heartbeat IPC: 0.720298 cumulative IPC: 0.757002 (Simulation time: 1 hr 26 min 45 sec) 
Heartbeat CPU 0 instructions: 81000000 cycles: 65208860 heartbeat IPC: 0.591771 cumulative IPC: 0.750245 (Simulation time: 1 hr 27 min 43 sec) 
Heartbeat CPU 0 instructions: 82000002 cycles: 66755345 heartbeat IPC: 0.646629 cumulative IPC: 0.746506 (Simulation time: 1 hr 28 min 45 sec) 
Heartbeat CPU 0 instructions: 83000000 cycles: 67912110 heartbeat IPC: 0.864478 cumulative IPC: 0.749606 (Simulation time: 1 hr 29 min 43 sec) 
Heartbeat CPU 0 instructions: 84000000 cycles: 68869694 heartbeat IPC: 1.04429 cumulative IPC: 0.75588 (Simulation time: 1 hr 30 min 35 sec) 
Heartbeat CPU 0 instructions: 85000002 cycles: 69917381 heartbeat IPC: 0.954485 cumulative IPC: 0.7604 (Simulation time: 1 hr 31 min 26 sec) 
Heartbeat CPU 0 instructions: 86000002 cycles: 70895057 heartbeat IPC: 1.02283 cumulative IPC: 0.765859 (Simulation time: 1 hr 32 min 24 sec) 
Heartbeat CPU 0 instructions: 87000001 cycles: 71897029 heartbeat IPC: 0.998031 cumulative IPC: 0.770704 (Simulation time: 1 hr 33 min 24 sec) 
Heartbeat CPU 0 instructions: 88000000 cycles: 73191637 heartbeat IPC: 0.772434 cumulative IPC: 0.77075 (Simulation time: 1 hr 34 min 16 sec) 
Heartbeat CPU 0 instructions: 89000000 cycles: 74694254 heartbeat IPC: 0.665506 cumulative IPC: 0.767637 (Simulation time: 1 hr 35 min 24 sec) 
Heartbeat CPU 0 instructions: 90000002 cycles: 76186005 heartbeat IPC: 0.670354 cumulative IPC: 0.764862 (Simulation time: 1 hr 36 min 26 sec) 
Heartbeat CPU 0 instructions: 91000000 cycles: 77884690 heartbeat IPC: 0.58869 cumulative IPC: 0.75932 (Simulation time: 1 hr 37 min 20 sec) 
Heartbeat CPU 0 instructions: 92000000 cycles: 79378920 heartbeat IPC: 0.669241 cumulative IPC: 0.756894 (Simulation time: 1 hr 38 min 15 sec) 
Heartbeat CPU 0 instructions: 93000001 cycles: 80631485 heartbeat IPC: 0.798363 cumulative IPC: 0.75781 (Simulation time: 1 hr 39 min 18 sec) 
Heartbeat CPU 0 instructions: 94000000 cycles: 82372911 heartbeat IPC: 0.574241 cumulative IPC: 0.752344 (Simulation time: 1 hr 40 min 15 sec) 
Heartbeat CPU 0 instructions: 95000002 cycles: 83978834 heartbeat IPC: 0.622696 cumulative IPC: 0.748879 (Simulation time: 1 hr 41 min 13 sec) 
Heartbeat CPU 0 instructions: 96000000 cycles: 85582957 heartbeat IPC: 0.623392 cumulative IPC: 0.745616 (Simulation time: 1 hr 42 min 26 sec) 
Heartbeat CPU 0 instructions: 97000000 cycles: 86980654 heartbeat IPC: 0.715463 cumulative IPC: 0.744948 (Simulation time: 1 hr 43 min 26 sec) 
Heartbeat CPU 0 instructions: 98000000 cycles: 88261470 heartbeat IPC: 0.780752 cumulative IPC: 0.74566 (Simulation time: 1 hr 44 min 19 sec) 
Heartbeat CPU 0 instructions: 99000003 cycles: 89391379 heartbeat IPC: 0.88503 cumulative IPC: 0.748064 (Simulation time: 1 hr 45 min 19 sec) 
Heartbeat CPU 0 instructions: 100000000 cycles: 90864787 heartbeat IPC: 0.678697 cumulative IPC: 0.746538 (Simulation time: 1 hr 46 min 17 sec) 
Heartbeat CPU 0 instructions: 101000000 cycles: 92373830 heartbeat IPC: 0.662672 cumulative IPC: 0.74469 (Simulation time: 1 hr 47 min 14 sec) 
Heartbeat CPU 0 instructions: 102000001 cycles: 94068410 heartbeat IPC: 0.590117 cumulative IPC: 0.740958 (Simulation time: 1 hr 48 min 6 sec) 
Heartbeat CPU 0 instructions: 103000002 cycles: 95380571 heartbeat IPC: 0.762102 cumulative IPC: 0.741346 (Simulation time: 1 hr 49 min 11 sec) 
Heartbeat CPU 0 instructions: 104000000 cycles: 97088614 heartbeat IPC: 0.585464 cumulative IPC: 0.737709 (Simulation time: 1 hr 50 min 12 sec) 
Heartbeat CPU 0 instructions: 105000002 cycles: 98068107 heartbeat IPC: 1.02094 cumulative IPC: 0.741449 (Simulation time: 1 hr 51 min 8 sec) 
Heartbeat CPU 0 instructions: 106000000 cycles: 99605689 heartbeat IPC: 0.650371 cumulative IPC: 0.739599 (Simulation time: 1 hr 52 min 11 sec) 
Heartbeat CPU 0 instructions: 107000002 cycles: 101167553 heartbeat IPC: 0.640262 cumulative IPC: 0.737592 (Simulation time: 1 hr 53 min 5 sec) 
Heartbeat CPU 0 instructions: 108000000 cycles: 102495200 heartbeat IPC: 0.753211 cumulative IPC: 0.737855 (Simulation time: 1 hr 54 min 18 sec) 
Heartbeat CPU 0 instructions: 109000002 cycles: 104196089 heartbeat IPC: 0.587929 cumulative IPC: 0.73468 (Simulation time: 1 hr 55 min 28 sec) 
Heartbeat CPU 0 instructions: 110000000 cycles: 105429532 heartbeat IPC: 0.810737 cumulative IPC: 0.73583 (Simulation time: 1 hr 56 min 25 sec) 
Heartbeat CPU 0 instructions: 111000001 cycles: 106888580 heartbeat IPC: 0.685379 cumulative IPC: 0.734944 (Simulation time: 1 hr 57 min 20 sec) 
Heartbeat CPU 0 instructions: 112000000 cycles: 107995783 heartbeat IPC: 0.903176 cumulative IPC: 0.737158 (Simulation time: 1 hr 58 min 28 sec) 
Heartbeat CPU 0 instructions: 113000001 cycles: 109000791 heartbeat IPC: 0.995018 cumulative IPC: 0.740203 (Simulation time: 1 hr 59 min 24 sec) 
Heartbeat CPU 0 instructions: 114000001 cycles: 109897139 heartbeat IPC: 1.11564 cumulative IPC: 0.744116 (Simulation time: 2 hr 0 min 22 sec) 
Heartbeat CPU 0 instructions: 115000002 cycles: 110823812 heartbeat IPC: 1.07913 cumulative IPC: 0.747687 (Simulation time: 2 hr 1 min 20 sec) 
Heartbeat CPU 0 instructions: 116000000 cycles: 111925237 heartbeat IPC: 0.907913 cumulative IPC: 0.749691 (Simulation time: 2 hr 2 min 33 sec) 
Heartbeat CPU 0 instructions: 117000003 cycles: 113518772 heartbeat IPC: 0.627538 cumulative IPC: 0.747519 (Simulation time: 2 hr 3 min 27 sec) 
Heartbeat CPU 0 instructions: 118000003 cycles: 114856512 heartbeat IPC: 0.747529 cumulative IPC: 0.74752 (Simulation time: 2 hr 4 min 37 sec) 
Heartbeat CPU 0 instructions: 119000000 cycles: 115846677 heartbeat IPC: 1.00993 cumulative IPC: 0.750345 (Simulation time: 2 hr 5 min 49 sec) 
Heartbeat CPU 0 instructions: 120000000 cycles: 116910006 heartbeat IPC: 0.940443 cumulative IPC: 0.752518 (Simulation time: 2 hr 6 min 42 sec) 
Heartbeat CPU 0 instructions: 121000001 cycles: 118457740 heartbeat IPC: 0.646106 cumulative IPC: 0.750777 (Simulation time: 2 hr 7 min 45 sec) 
Heartbeat CPU 0 instructions: 122000002 cycles: 119699908 heartbeat IPC: 0.805045 cumulative IPC: 0.75148 (Simulation time: 2 hr 8 min 57 sec) 
Heartbeat CPU 0 instructions: 123000000 cycles: 121336587 heartbeat IPC: 0.610992 cumulative IPC: 0.749121 (Simulation time: 2 hr 9 min 50 sec) 
Heartbeat CPU 0 instructions: 124000000 cycles: 122758565 heartbeat IPC: 0.703246 cumulative IPC: 0.748461 (Simulation time: 2 hr 10 min 50 sec) 
Heartbeat CPU 0 instructions: 125000003 cycles: 124105424 heartbeat IPC: 0.74247 cumulative IPC: 0.74838 (Simulation time: 2 hr 11 min 45 sec) 
Heartbeat CPU 0 instructions: 126000000 cycles: 125120966 heartbeat IPC: 0.984693 cumulative IPC: 0.750751 (Simulation time: 2 hr 12 min 55 sec) 
Heartbeat CPU 0 instructions: 127000001 cycles: 126733069 heartbeat IPC: 0.620308 cumulative IPC: 0.748706 (Simulation time: 2 hr 13 min 46 sec) 
Heartbeat CPU 0 instructions: 128000000 cycles: 128362380 heartbeat IPC: 0.613756 cumulative IPC: 0.746602 (Simulation time: 2 hr 14 min 39 sec) 
Heartbeat CPU 0 instructions: 129000000 cycles: 130040229 heartbeat IPC: 0.596001 cumulative IPC: 0.744221 (Simulation time: 2 hr 15 min 27 sec) 
Heartbeat CPU 0 instructions: 130000002 cycles: 131272130 heartbeat IPC: 0.811755 cumulative IPC: 0.744996 (Simulation time: 2 hr 16 min 43 sec) 
Heartbeat CPU 0 instructions: 131000000 cycles: 132259936 heartbeat IPC: 1.01234 cumulative IPC: 0.747433 (Simulation time: 2 hr 17 min 45 sec) 
Heartbeat CPU 0 instructions: 132000000 cycles: 133487113 heartbeat IPC: 0.814878 cumulative IPC: 0.748188 (Simulation time: 2 hr 18 min 50 sec) 
Heartbeat CPU 0 instructions: 133000001 cycles: 134437912 heartbeat IPC: 1.05175 cumulative IPC: 0.750799 (Simulation time: 2 hr 19 min 45 sec) 
Heartbeat CPU 0 instructions: 134000000 cycles: 135351538 heartbeat IPC: 1.09454 cumulative IPC: 0.753616 (Simulation time: 2 hr 20 min 44 sec) 
Heartbeat CPU 0 instructions: 135000002 cycles: 136255200 heartbeat IPC: 1.10661 cumulative IPC: 0.756455 (Simulation time: 2 hr 21 min 58 sec) 
Heartbeat CPU 0 instructions: 136000000 cycles: 137160401 heartbeat IPC: 1.10472 cumulative IPC: 0.759238 (Simulation time: 2 hr 22 min 46 sec) 
Heartbeat CPU 0 instructions: 137000000 cycles: 138040265 heartbeat IPC: 1.13654 cumulative IPC: 0.762147 (Simulation time: 2 hr 23 min 49 sec) 
Heartbeat CPU 0 instructions: 138000000 cycles: 138796010 heartbeat IPC: 1.3232 cumulative IPC: 0.765837 (Simulation time: 2 hr 24 min 42 sec) 
Heartbeat CPU 0 instructions: 139000002 cycles: 139562186 heartbeat IPC: 1.30519 cumulative IPC: 0.769409 (Simulation time: 2 hr 25 min 30 sec) 
Heartbeat CPU 0 instructions: 140000000 cycles: 140317273 heartbeat IPC: 1.32435 cumulative IPC: 0.773008 (Simulation time: 2 hr 26 min 11 sec) 
Heartbeat CPU 0 instructions: 141000003 cycles: 141111462 heartbeat IPC: 1.25915 cumulative IPC: 0.776302 (Simulation time: 2 hr 27 min 0 sec) 
Heartbeat CPU 0 instructions: 142000003 cycles: 141903847 heartbeat IPC: 1.26201 cumulative IPC: 0.779563 (Simulation time: 2 hr 27 min 48 sec) 
Heartbeat CPU 0 instructions: 143000002 cycles: 142692529 heartbeat IPC: 1.26794 cumulative IPC: 0.782805 (Simulation time: 2 hr 28 min 39 sec) 
Heartbeat CPU 0 instructions: 144000000 cycles: 143458942 heartbeat IPC: 1.30478 cumulative IPC: 0.786151 (Simulation time: 2 hr 29 min 19 sec) 
Heartbeat CPU 0 instructions: 145000002 cycles: 144183078 heartbeat IPC: 1.38096 cumulative IPC: 0.789731 (Simulation time: 2 hr 30 min 9 sec) 
Heartbeat CPU 0 instructions: 146000002 cycles: 144913048 heartbeat IPC: 1.36992 cumulative IPC: 0.793231 (Simulation time: 2 hr 31 min 13 sec) 
Heartbeat CPU 0 instructions: 147000003 cycles: 145639824 heartbeat IPC: 1.37594 cumulative IPC: 0.796709 (Simulation time: 2 hr 32 min 17 sec) 
Heartbeat CPU 0 instructions: 148000000 cycles: 146376766 heartbeat IPC: 1.35695 cumulative IPC: 0.80008 (Simulation time: 2 hr 33 min 20 sec) 
Heartbeat CPU 0 instructions: 149000003 cycles: 147137778 heartbeat IPC: 1.31404 cumulative IPC: 0.803253 (Simulation time: 2 hr 34 min 13 sec) 
Heartbeat CPU 0 instructions: 150000000 cycles: 147971736 heartbeat IPC: 1.1991 cumulative IPC: 0.805914 (Simulation time: 2 hr 34 min 59 sec) 
Finished CPU 0 instructions: 100000003 cycles: 124082736 cummulative IPC: 0.805914 (Simulation time: 2 hr 34 min 59 sec) 

ChampSim completed all CPUs

Region of Interest Statistics

CPU 0 cummulative IPC: 0.805914 instructions: 100000003 cycles: 124082736
LLC TOTAL     ACCESS:    1934055  HIT:    1742915  MISS:     191140
LLC LOAD      ACCESS:     554459  HIT:     535160  MISS:      19299
LLC RFO       ACCESS:     322487  HIT:     265623  MISS:      56864
LLC PREFETCH  ACCESS:     708788  HIT:     599300  MISS:     109488
LLC WRITEBACK ACCESS:     348321  HIT:     342832  MISS:       5489
Insertion Distribution: 
	LOAD 29865 0 7541 865 
	RFO 52719 0 21903 15229 
	PREF 0 23504 35729 83394 
	WRITEBACK 0 0 0 9469 
Total Prefetch Downgrades: 25999
