
*** ChampSim Multicore Out-of-Order Simulator ***

Warmup Instructions: 10000000
Simulation Instructions: 100000000
Configuration: 2
Number of CPUs: 1
LLC sets: 2048
LLC ways: 16
Off-chip DRAM Channels: 1 Width: 64-bit Data Rate: 1600 MT/s

CPU 0 runs /datasets/cs240c-wi22-a00-public/data/Assignment2-gz/cactusADM_1495B.trace.gz
CPU 0 L1D next line prefetcher
CPU 0 L2C IP-based stride prefetcher
Heartbeat CPU 0 instructions: 1000003 cycles: 593383 heartbeat IPC: 1.68526 cumulative IPC: 1.68526 (Simulation time: 0 hr 0 min 52 sec) 
Heartbeat CPU 0 instructions: 2000000 cycles: 1186345 heartbeat IPC: 1.68644 cumulative IPC: 1.68585 (Simulation time: 0 hr 1 min 37 sec) 
Heartbeat CPU 0 instructions: 3000003 cycles: 1779703 heartbeat IPC: 1.68533 cumulative IPC: 1.68568 (Simulation time: 0 hr 2 min 23 sec) 
Heartbeat CPU 0 instructions: 4000000 cycles: 2372522 heartbeat IPC: 1.68685 cumulative IPC: 1.68597 (Simulation time: 0 hr 3 min 10 sec) 
Heartbeat CPU 0 instructions: 5000000 cycles: 2965579 heartbeat IPC: 1.68618 cumulative IPC: 1.68601 (Simulation time: 0 hr 3 min 57 sec) 
Heartbeat CPU 0 instructions: 6000001 cycles: 3558796 heartbeat IPC: 1.68573 cumulative IPC: 1.68596 (Simulation time: 0 hr 4 min 45 sec) 
Heartbeat CPU 0 instructions: 7000000 cycles: 4151738 heartbeat IPC: 1.6865 cumulative IPC: 1.68604 (Simulation time: 0 hr 5 min 31 sec) 
Heartbeat CPU 0 instructions: 8000000 cycles: 4906776 heartbeat IPC: 1.32444 cumulative IPC: 1.6304 (Simulation time: 0 hr 6 min 29 sec) 
Heartbeat CPU 0 instructions: 9000002 cycles: 5499974 heartbeat IPC: 1.68578 cumulative IPC: 1.63637 (Simulation time: 0 hr 7 min 19 sec) 
Heartbeat CPU 0 instructions: 10000002 cycles: 6092897 heartbeat IPC: 1.68656 cumulative IPC: 1.64126 (Simulation time: 0 hr 8 min 5 sec) 

Warmup complete CPU 0 instructions: 10000002 cycles: 6092897 (Simulation time: 0 hr 8 min 5 sec) 

Heartbeat CPU 0 instructions: 11000000 cycles: 7785958 heartbeat IPC: 0.590645 cumulative IPC: 0.590645 (Simulation time: 0 hr 8 min 51 sec) 
Heartbeat CPU 0 instructions: 12000000 cycles: 9529636 heartbeat IPC: 0.5735 cumulative IPC: 0.581946 (Simulation time: 0 hr 9 min 39 sec) 
Heartbeat CPU 0 instructions: 13000002 cycles: 11274983 heartbeat IPC: 0.572953 cumulative IPC: 0.578917 (Simulation time: 0 hr 10 min 24 sec) 
Heartbeat CPU 0 instructions: 14000001 cycles: 13010287 heartbeat IPC: 0.576267 cumulative IPC: 0.578253 (Simulation time: 0 hr 11 min 10 sec) 
Heartbeat CPU 0 instructions: 15000001 cycles: 14667591 heartbeat IPC: 0.60339 cumulative IPC: 0.583111 (Simulation time: 0 hr 12 min 2 sec) 
Heartbeat CPU 0 instructions: 16000000 cycles: 16388815 heartbeat IPC: 0.580981 cumulative IPC: 0.582755 (Simulation time: 0 hr 12 min 48 sec) 
Heartbeat CPU 0 instructions: 17000003 cycles: 18132824 heartbeat IPC: 0.573393 cumulative IPC: 0.581399 (Simulation time: 0 hr 13 min 31 sec) 
Heartbeat CPU 0 instructions: 18000000 cycles: 19878516 heartbeat IPC: 0.572837 cumulative IPC: 0.580315 (Simulation time: 0 hr 14 min 22 sec) 
Heartbeat CPU 0 instructions: 19000002 cycles: 21589348 heartbeat IPC: 0.584512 cumulative IPC: 0.580778 (Simulation time: 0 hr 15 min 8 sec) 
Heartbeat CPU 0 instructions: 20000000 cycles: 23255454 heartbeat IPC: 0.600201 cumulative IPC: 0.582664 (Simulation time: 0 hr 15 min 56 sec) 
Heartbeat CPU 0 instructions: 21000001 cycles: 29681116 heartbeat IPC: 0.155626 cumulative IPC: 0.466334 (Simulation time: 0 hr 16 min 51 sec) 
Heartbeat CPU 0 instructions: 22000000 cycles: 31781851 heartbeat IPC: 0.476023 cumulative IPC: 0.467127 (Simulation time: 0 hr 17 min 45 sec) 
Heartbeat CPU 0 instructions: 23000001 cycles: 33514115 heartbeat IPC: 0.57728 cumulative IPC: 0.474085 (Simulation time: 0 hr 18 min 33 sec) 
Heartbeat CPU 0 instructions: 24000000 cycles: 35171809 heartbeat IPC: 0.603247 cumulative IPC: 0.481448 (Simulation time: 0 hr 19 min 14 sec) 
Heartbeat CPU 0 instructions: 25000002 cycles: 36899470 heartbeat IPC: 0.578818 cumulative IPC: 0.486909 (Simulation time: 0 hr 20 min 1 sec) 
Heartbeat CPU 0 instructions: 26000000 cycles: 38654698 heartbeat IPC: 0.569725 cumulative IPC: 0.491373 (Simulation time: 0 hr 20 min 47 sec) 
Heartbeat CPU 0 instructions: 27000002 cycles: 40395387 heartbeat IPC: 0.574486 cumulative IPC: 0.495591 (Simulation time: 0 hr 21 min 31 sec) 
Heartbeat CPU 0 instructions: 28000000 cycles: 42105192 heartbeat IPC: 0.584861 cumulative IPC: 0.499829 (Simulation time: 0 hr 22 min 19 sec) 
Heartbeat CPU 0 instructions: 29000003 cycles: 43764854 heartbeat IPC: 0.602534 cumulative IPC: 0.504354 (Simulation time: 0 hr 23 min 6 sec) 
Heartbeat CPU 0 instructions: 30000000 cycles: 45533469 heartbeat IPC: 0.565412 cumulative IPC: 0.507092 (Simulation time: 0 hr 23 min 51 sec) 
Heartbeat CPU 0 instructions: 31000003 cycles: 47276367 heartbeat IPC: 0.573759 cumulative IPC: 0.509913 (Simulation time: 0 hr 24 min 39 sec) 
Heartbeat CPU 0 instructions: 32000000 cycles: 49016788 heartbeat IPC: 0.574572 cumulative IPC: 0.512535 (Simulation time: 0 hr 25 min 29 sec) 
Heartbeat CPU 0 instructions: 33000001 cycles: 50697390 heartbeat IPC: 0.595025 cumulative IPC: 0.515643 (Simulation time: 0 hr 26 min 13 sec) 
Heartbeat CPU 0 instructions: 34000002 cycles: 56193429 heartbeat IPC: 0.181949 cumulative IPC: 0.479037 (Simulation time: 0 hr 27 min 10 sec) 
Heartbeat CPU 0 instructions: 35000002 cycles: 59211033 heartbeat IPC: 0.331389 cumulative IPC: 0.470649 (Simulation time: 0 hr 27 min 54 sec) 
Heartbeat CPU 0 instructions: 36000000 cycles: 60950472 heartbeat IPC: 0.574897 cumulative IPC: 0.473955 (Simulation time: 0 hr 28 min 41 sec) 
Heartbeat CPU 0 instructions: 37000001 cycles: 62667930 heartbeat IPC: 0.582256 cumulative IPC: 0.477242 (Simulation time: 0 hr 29 min 31 sec) 
Heartbeat CPU 0 instructions: 38000003 cycles: 64324638 heartbeat IPC: 0.603608 cumulative IPC: 0.480837 (Simulation time: 0 hr 30 min 19 sec) 
Heartbeat CPU 0 instructions: 39000003 cycles: 66058061 heartbeat IPC: 0.576893 cumulative IPC: 0.483614 (Simulation time: 0 hr 31 min 9 sec) 
Heartbeat CPU 0 instructions: 40000000 cycles: 67799472 heartbeat IPC: 0.574245 cumulative IPC: 0.486172 (Simulation time: 0 hr 31 min 50 sec) 
Heartbeat CPU 0 instructions: 41000002 cycles: 69538736 heartbeat IPC: 0.574957 cumulative IPC: 0.488606 (Simulation time: 0 hr 32 min 35 sec) 
Heartbeat CPU 0 instructions: 42000000 cycles: 71219927 heartbeat IPC: 0.594815 cumulative IPC: 0.491347 (Simulation time: 0 hr 33 min 23 sec) 
Heartbeat CPU 0 instructions: 43000000 cycles: 72903403 heartbeat IPC: 0.594009 cumulative IPC: 0.493934 (Simulation time: 0 hr 34 min 13 sec) 
Heartbeat CPU 0 instructions: 44000000 cycles: 74643350 heartbeat IPC: 0.57473 cumulative IPC: 0.495985 (Simulation time: 0 hr 35 min 3 sec) 
Heartbeat CPU 0 instructions: 45000003 cycles: 76383244 heartbeat IPC: 0.574749 cumulative IPC: 0.497935 (Simulation time: 0 hr 35 min 53 sec) 
Heartbeat CPU 0 instructions: 46000002 cycles: 78115023 heartbeat IPC: 0.57744 cumulative IPC: 0.499846 (Simulation time: 0 hr 36 min 42 sec) 
Heartbeat CPU 0 instructions: 47000001 cycles: 82564195 heartbeat IPC: 0.224761 cumulative IPC: 0.483842 (Simulation time: 0 hr 37 min 40 sec) 
Heartbeat CPU 0 instructions: 48000000 cycles: 86582984 heartbeat IPC: 0.248831 cumulative IPC: 0.472108 (Simulation time: 0 hr 38 min 39 sec) 
Heartbeat CPU 0 instructions: 49000000 cycles: 88320631 heartbeat IPC: 0.575491 cumulative IPC: 0.474293 (Simulation time: 0 hr 39 min 27 sec) 
Heartbeat CPU 0 instructions: 50000000 cycles: 90059436 heartbeat IPC: 0.575108 cumulative IPC: 0.47638 (Simulation time: 0 hr 40 min 18 sec) 
Heartbeat CPU 0 instructions: 51000000 cycles: 91746648 heartbeat IPC: 0.592694 cumulative IPC: 0.478671 (Simulation time: 0 hr 41 min 8 sec) 
Heartbeat CPU 0 instructions: 52000000 cycles: 93425719 heartbeat IPC: 0.595567 cumulative IPC: 0.480919 (Simulation time: 0 hr 41 min 54 sec) 
Heartbeat CPU 0 instructions: 53000003 cycles: 95163394 heartbeat IPC: 0.575483 cumulative IPC: 0.482764 (Simulation time: 0 hr 42 min 39 sec) 
Heartbeat CPU 0 instructions: 54000001 cycles: 96901377 heartbeat IPC: 0.575378 cumulative IPC: 0.484536 (Simulation time: 0 hr 43 min 28 sec) 
Heartbeat CPU 0 instructions: 55000000 cycles: 98636150 heartbeat IPC: 0.576444 cumulative IPC: 0.486259 (Simulation time: 0 hr 44 min 17 sec) 
Heartbeat CPU 0 instructions: 56000000 cycles: 100293728 heartbeat IPC: 0.60329 cumulative IPC: 0.488318 (Simulation time: 0 hr 45 min 6 sec) 
Heartbeat CPU 0 instructions: 57000000 cycles: 102004025 heartbeat IPC: 0.584694 cumulative IPC: 0.490037 (Simulation time: 0 hr 45 min 54 sec) 
Heartbeat CPU 0 instructions: 58000002 cycles: 103742306 heartbeat IPC: 0.575282 cumulative IPC: 0.491554 (Simulation time: 0 hr 46 min 44 sec) 
Heartbeat CPU 0 instructions: 59000001 cycles: 105482563 heartbeat IPC: 0.574627 cumulative IPC: 0.493009 (Simulation time: 0 hr 47 min 39 sec) 
Heartbeat CPU 0 instructions: 60000000 cycles: 108886111 heartbeat IPC: 0.293811 cumulative IPC: 0.486413 (Simulation time: 0 hr 48 min 33 sec) 
Heartbeat CPU 0 instructions: 61000001 cycles: 113916462 heartbeat IPC: 0.198793 cumulative IPC: 0.472995 (Simulation time: 0 hr 49 min 28 sec) 
Heartbeat CPU 0 instructions: 62000000 cycles: 115651872 heartbeat IPC: 0.576232 cumulative IPC: 0.47463 (Simulation time: 0 hr 50 min 16 sec) 
Heartbeat CPU 0 instructions: 63000000 cycles: 117391647 heartbeat IPC: 0.574787 cumulative IPC: 0.476196 (Simulation time: 0 hr 51 min 6 sec) 
Heartbeat CPU 0 instructions: 64000000 cycles: 119125112 heartbeat IPC: 0.576879 cumulative IPC: 0.47774 (Simulation time: 0 hr 51 min 57 sec) 
Heartbeat CPU 0 instructions: 65000002 cycles: 120785314 heartbeat IPC: 0.602338 cumulative IPC: 0.479543 (Simulation time: 0 hr 52 min 46 sec) 
Heartbeat CPU 0 instructions: 66000003 cycles: 122491173 heartbeat IPC: 0.586215 cumulative IPC: 0.481107 (Simulation time: 0 hr 53 min 31 sec) 
Heartbeat CPU 0 instructions: 67000001 cycles: 124230283 heartbeat IPC: 0.575006 cumulative IPC: 0.482489 (Simulation time: 0 hr 54 min 18 sec) 
Heartbeat CPU 0 instructions: 68000000 cycles: 125970338 heartbeat IPC: 0.574694 cumulative IPC: 0.483827 (Simulation time: 0 hr 55 min 2 sec) 
Heartbeat CPU 0 instructions: 69000003 cycles: 127687264 heartbeat IPC: 0.582438 cumulative IPC: 0.48522 (Simulation time: 0 hr 55 min 43 sec) 
Heartbeat CPU 0 instructions: 70000000 cycles: 129341438 heartbeat IPC: 0.60453 cumulative IPC: 0.486821 (Simulation time: 0 hr 56 min 26 sec) 
Heartbeat CPU 0 instructions: 71000002 cycles: 131070980 heartbeat IPC: 0.578189 cumulative IPC: 0.488086 (Simulation time: 0 hr 57 min 7 sec) 
Heartbeat CPU 0 instructions: 72000000 cycles: 132811360 heartbeat IPC: 0.574586 cumulative IPC: 0.489274 (Simulation time: 0 hr 57 min 50 sec) 
Heartbeat CPU 0 instructions: 73000001 cycles: 135293665 heartbeat IPC: 0.402852 cumulative IPC: 0.487613 (Simulation time: 0 hr 58 min 36 sec) 
Heartbeat CPU 0 instructions: 74000002 cycles: 141285046 heartbeat IPC: 0.166907 cumulative IPC: 0.4734 (Simulation time: 0 hr 59 min 27 sec) 
Heartbeat CPU 0 instructions: 75000002 cycles: 142983970 heartbeat IPC: 0.588608 cumulative IPC: 0.47483 (Simulation time: 1 hr 0 min 11 sec) 
Heartbeat CPU 0 instructions: 76000000 cycles: 144723455 heartbeat IPC: 0.574882 cumulative IPC: 0.476085 (Simulation time: 1 hr 0 min 51 sec) 
Heartbeat CPU 0 instructions: 77000001 cycles: 146462207 heartbeat IPC: 0.575126 cumulative IPC: 0.477312 (Simulation time: 1 hr 1 min 37 sec) 
Heartbeat CPU 0 instructions: 78000000 cycles: 148184288 heartbeat IPC: 0.580692 cumulative IPC: 0.478565 (Simulation time: 1 hr 2 min 23 sec) 
Heartbeat CPU 0 instructions: 79000003 cycles: 149832635 heartbeat IPC: 0.60667 cumulative IPC: 0.480034 (Simulation time: 1 hr 3 min 9 sec) 
Heartbeat CPU 0 instructions: 80000000 cycles: 151564094 heartbeat IPC: 0.577546 cumulative IPC: 0.481195 (Simulation time: 1 hr 3 min 50 sec) 
Heartbeat CPU 0 instructions: 81000002 cycles: 153304609 heartbeat IPC: 0.574544 cumulative IPC: 0.482299 (Simulation time: 1 hr 4 min 26 sec) 
Heartbeat CPU 0 instructions: 82000000 cycles: 155044015 heartbeat IPC: 0.574908 cumulative IPC: 0.48338 (Simulation time: 1 hr 5 min 6 sec) 
Heartbeat CPU 0 instructions: 83000000 cycles: 156731103 heartbeat IPC: 0.592737 cumulative IPC: 0.484605 (Simulation time: 1 hr 5 min 44 sec) 
Heartbeat CPU 0 instructions: 84000000 cycles: 158406921 heartbeat IPC: 0.596723 cumulative IPC: 0.485838 (Simulation time: 1 hr 6 min 21 sec) 
Heartbeat CPU 0 instructions: 85000003 cycles: 160170037 heartbeat IPC: 0.567179 cumulative IPC: 0.486769 (Simulation time: 1 hr 6 min 54 sec) 
Heartbeat CPU 0 instructions: 86000000 cycles: 161911102 heartbeat IPC: 0.574359 cumulative IPC: 0.487748 (Simulation time: 1 hr 7 min 29 sec) 
Heartbeat CPU 0 instructions: 87000001 cycles: 168710939 heartbeat IPC: 0.147062 cumulative IPC: 0.473502 (Simulation time: 1 hr 8 min 15 sec) 
Heartbeat CPU 0 instructions: 88000000 cycles: 170358149 heartbeat IPC: 0.607087 cumulative IPC: 0.474842 (Simulation time: 1 hr 8 min 48 sec) 
Heartbeat CPU 0 instructions: 89000002 cycles: 172085790 heartbeat IPC: 0.578825 cumulative IPC: 0.475924 (Simulation time: 1 hr 9 min 24 sec) 
Heartbeat CPU 0 instructions: 90000001 cycles: 173851597 heartbeat IPC: 0.566313 cumulative IPC: 0.476875 (Simulation time: 1 hr 9 min 55 sec) 
Heartbeat CPU 0 instructions: 91000002 cycles: 175589725 heartbeat IPC: 0.575332 cumulative IPC: 0.477885 (Simulation time: 1 hr 10 min 21 sec) 
Heartbeat CPU 0 instructions: 92000000 cycles: 177284280 heartbeat IPC: 0.590124 cumulative IPC: 0.478996 (Simulation time: 1 hr 10 min 49 sec) 
Heartbeat CPU 0 instructions: 93000002 cycles: 178954401 heartbeat IPC: 0.59876 cumulative IPC: 0.480153 (Simulation time: 1 hr 11 min 16 sec) 
Heartbeat CPU 0 instructions: 94000002 cycles: 180689065 heartbeat IPC: 0.576481 cumulative IPC: 0.48111 (Simulation time: 1 hr 11 min 42 sec) 
Heartbeat CPU 0 instructions: 95000003 cycles: 182429537 heartbeat IPC: 0.574557 cumulative IPC: 0.482033 (Simulation time: 1 hr 12 min 8 sec) 
Heartbeat CPU 0 instructions: 96000000 cycles: 184163564 heartbeat IPC: 0.576691 cumulative IPC: 0.482954 (Simulation time: 1 hr 12 min 31 sec) 
Heartbeat CPU 0 instructions: 97000003 cycles: 185824992 heartbeat IPC: 0.601894 cumulative IPC: 0.484054 (Simulation time: 1 hr 12 min 55 sec) 
Heartbeat CPU 0 instructions: 98000003 cycles: 187526368 heartbeat IPC: 0.58776 cumulative IPC: 0.485026 (Simulation time: 1 hr 13 min 18 sec) 
Heartbeat CPU 0 instructions: 99000000 cycles: 189264516 heartbeat IPC: 0.575323 cumulative IPC: 0.485883 (Simulation time: 1 hr 13 min 40 sec) 
Heartbeat CPU 0 instructions: 100000000 cycles: 196049980 heartbeat IPC: 0.147374 cumulative IPC: 0.473791 (Simulation time: 1 hr 14 min 9 sec) 
Heartbeat CPU 0 instructions: 101000000 cycles: 197748056 heartbeat IPC: 0.588902 cumulative IPC: 0.474811 (Simulation time: 1 hr 14 min 30 sec) 
Heartbeat CPU 0 instructions: 102000003 cycles: 199416595 heartbeat IPC: 0.599329 cumulative IPC: 0.475886 (Simulation time: 1 hr 14 min 50 sec) 
Heartbeat CPU 0 instructions: 103000000 cycles: 201150053 heartbeat IPC: 0.57688 cumulative IPC: 0.476783 (Simulation time: 1 hr 15 min 9 sec) 
Heartbeat CPU 0 instructions: 104000000 cycles: 202889409 heartbeat IPC: 0.574925 cumulative IPC: 0.477651 (Simulation time: 1 hr 15 min 27 sec) 
Heartbeat CPU 0 instructions: 105000001 cycles: 204625189 heartbeat IPC: 0.57611 cumulative IPC: 0.478512 (Simulation time: 1 hr 15 min 42 sec) 
Heartbeat CPU 0 instructions: 106000000 cycles: 206294020 heartbeat IPC: 0.599221 cumulative IPC: 0.479518 (Simulation time: 1 hr 15 min 57 sec) 
Heartbeat CPU 0 instructions: 107000001 cycles: 207990336 heartbeat IPC: 0.589513 cumulative IPC: 0.480442 (Simulation time: 1 hr 16 min 11 sec) 
Heartbeat CPU 0 instructions: 108000000 cycles: 209729511 heartbeat IPC: 0.574985 cumulative IPC: 0.481249 (Simulation time: 1 hr 16 min 24 sec) 
Heartbeat CPU 0 instructions: 109000002 cycles: 211468893 heartbeat IPC: 0.574918 cumulative IPC: 0.482043 (Simulation time: 1 hr 16 min 35 sec) 
Heartbeat CPU 0 instructions: 110000001 cycles: 213193810 heartbeat IPC: 0.579737 cumulative IPC: 0.482856 (Simulation time: 1 hr 16 min 46 sec) 
Finished CPU 0 instructions: 100000003 cycles: 207100914 cummulative IPC: 0.482856 (Simulation time: 1 hr 16 min 46 sec) 

ChampSim completed all CPUs

Region of Interest Statistics

CPU 0 cummulative IPC: 0.482856 instructions: 100000003 cycles: 207100914
LLC TOTAL     ACCESS:    1111657  HIT:     316562  MISS:     795095
LLC LOAD      ACCESS:      27181  HIT:       2435  MISS:      24746
LLC RFO       ACCESS:     245174  HIT:      18714  MISS:     226460
LLC PREFETCH  ACCESS:     593793  HIT:     168146  MISS:     425647
LLC WRITEBACK ACCESS:     245509  HIT:     127267  MISS:     118242
