
*** ChampSim Multicore Out-of-Order Simulator ***

Warmup Instructions: 10000000
Simulation Instructions: 100000000
Configuration: 2
Number of CPUs: 1
LLC sets: 2048
LLC ways: 16
Off-chip DRAM Channels: 1 Width: 64-bit Data Rate: 1600 MT/s

CPU 0 runs /datasets/cs240c-wi22-a00-public/data/Assignment2-gz/GemsFDTD_716B.trace.gz
CPU 0 L1D next line prefetcher
CPU 0 L2C IP-based stride prefetcher
Heartbeat CPU 0 instructions: 1000000 cycles: 415045 heartbeat IPC: 2.40938 cumulative IPC: 2.40938 (Simulation time: 0 hr 0 min 33 sec) 
Heartbeat CPU 0 instructions: 2000003 cycles: 829979 heartbeat IPC: 2.41003 cumulative IPC: 2.4097 (Simulation time: 0 hr 1 min 6 sec) 
Heartbeat CPU 0 instructions: 3000000 cycles: 1280278 heartbeat IPC: 2.22074 cumulative IPC: 2.34324 (Simulation time: 0 hr 1 min 39 sec) 
Heartbeat CPU 0 instructions: 4000000 cycles: 1737307 heartbeat IPC: 2.18805 cumulative IPC: 2.30241 (Simulation time: 0 hr 2 min 15 sec) 
Heartbeat CPU 0 instructions: 5000000 cycles: 2152288 heartbeat IPC: 2.40975 cumulative IPC: 2.32311 (Simulation time: 0 hr 2 min 52 sec) 
Heartbeat CPU 0 instructions: 6000000 cycles: 2567304 heartbeat IPC: 2.40955 cumulative IPC: 2.33708 (Simulation time: 0 hr 3 min 31 sec) 
Heartbeat CPU 0 instructions: 7000000 cycles: 2982307 heartbeat IPC: 2.40962 cumulative IPC: 2.34718 (Simulation time: 0 hr 4 min 10 sec) 
Heartbeat CPU 0 instructions: 8000000 cycles: 3395233 heartbeat IPC: 2.42174 cumulative IPC: 2.35624 (Simulation time: 0 hr 4 min 47 sec) 
Heartbeat CPU 0 instructions: 9000001 cycles: 3840610 heartbeat IPC: 2.24529 cumulative IPC: 2.34338 (Simulation time: 0 hr 5 min 30 sec) 
Heartbeat CPU 0 instructions: 10000002 cycles: 4355841 heartbeat IPC: 1.94088 cumulative IPC: 2.29577 (Simulation time: 0 hr 6 min 22 sec) 

Warmup complete CPU 0 instructions: 10000002 cycles: 4355841 (Simulation time: 0 hr 6 min 22 sec) 

Heartbeat CPU 0 instructions: 11000000 cycles: 8197324 heartbeat IPC: 0.260316 cumulative IPC: 0.260316 (Simulation time: 0 hr 7 min 44 sec) 
Heartbeat CPU 0 instructions: 12000000 cycles: 12033857 heartbeat IPC: 0.260652 cumulative IPC: 0.260484 (Simulation time: 0 hr 9 min 4 sec) 
Heartbeat CPU 0 instructions: 13000000 cycles: 15890139 heartbeat IPC: 0.259317 cumulative IPC: 0.260094 (Simulation time: 0 hr 10 min 25 sec) 
Heartbeat CPU 0 instructions: 14000000 cycles: 19808372 heartbeat IPC: 0.255217 cumulative IPC: 0.258857 (Simulation time: 0 hr 11 min 36 sec) 
Heartbeat CPU 0 instructions: 15000000 cycles: 23855058 heartbeat IPC: 0.247116 cumulative IPC: 0.25642 (Simulation time: 0 hr 12 min 55 sec) 
Heartbeat CPU 0 instructions: 16000000 cycles: 27918583 heartbeat IPC: 0.246092 cumulative IPC: 0.254639 (Simulation time: 0 hr 14 min 14 sec) 
Heartbeat CPU 0 instructions: 17000002 cycles: 31989179 heartbeat IPC: 0.245665 cumulative IPC: 0.253317 (Simulation time: 0 hr 15 min 26 sec) 
Heartbeat CPU 0 instructions: 18000003 cycles: 36059354 heartbeat IPC: 0.24569 cumulative IPC: 0.252338 (Simulation time: 0 hr 16 min 39 sec) 
Heartbeat CPU 0 instructions: 19000000 cycles: 40169566 heartbeat IPC: 0.243296 cumulative IPC: 0.2513 (Simulation time: 0 hr 17 min 57 sec) 
Heartbeat CPU 0 instructions: 20000000 cycles: 43596446 heartbeat IPC: 0.291811 cumulative IPC: 0.254838 (Simulation time: 0 hr 19 min 9 sec) 
Heartbeat CPU 0 instructions: 21000000 cycles: 46750777 heartbeat IPC: 0.317024 cumulative IPC: 0.259465 (Simulation time: 0 hr 20 min 18 sec) 
Heartbeat CPU 0 instructions: 22000000 cycles: 49871638 heartbeat IPC: 0.320424 cumulative IPC: 0.263645 (Simulation time: 0 hr 21 min 32 sec) 
Heartbeat CPU 0 instructions: 23000002 cycles: 53099167 heartbeat IPC: 0.309835 cumulative IPC: 0.266703 (Simulation time: 0 hr 22 min 46 sec) 
Heartbeat CPU 0 instructions: 24000000 cycles: 56425725 heartbeat IPC: 0.30061 cumulative IPC: 0.268869 (Simulation time: 0 hr 23 min 49 sec) 
Heartbeat CPU 0 instructions: 25000002 cycles: 59558500 heartbeat IPC: 0.319206 cumulative IPC: 0.271726 (Simulation time: 0 hr 24 min 54 sec) 
Heartbeat CPU 0 instructions: 26000002 cycles: 62452439 heartbeat IPC: 0.34555 cumulative IPC: 0.275403 (Simulation time: 0 hr 25 min 57 sec) 
Heartbeat CPU 0 instructions: 27000002 cycles: 65321623 heartbeat IPC: 0.348531 cumulative IPC: 0.278845 (Simulation time: 0 hr 27 min 5 sec) 
Heartbeat CPU 0 instructions: 28000000 cycles: 68123011 heartbeat IPC: 0.356965 cumulative IPC: 0.282277 (Simulation time: 0 hr 28 min 13 sec) 
Heartbeat CPU 0 instructions: 29000003 cycles: 71007869 heartbeat IPC: 0.346639 cumulative IPC: 0.285063 (Simulation time: 0 hr 29 min 16 sec) 
Heartbeat CPU 0 instructions: 30000001 cycles: 73665496 heartbeat IPC: 0.376275 cumulative IPC: 0.28856 (Simulation time: 0 hr 30 min 23 sec) 
Heartbeat CPU 0 instructions: 31000001 cycles: 75682375 heartbeat IPC: 0.495816 cumulative IPC: 0.294421 (Simulation time: 0 hr 31 min 27 sec) 
Heartbeat CPU 0 instructions: 32000000 cycles: 77676093 heartbeat IPC: 0.501575 cumulative IPC: 0.300054 (Simulation time: 0 hr 32 min 26 sec) 
Heartbeat CPU 0 instructions: 33000000 cycles: 79683834 heartbeat IPC: 0.498072 cumulative IPC: 0.305331 (Simulation time: 0 hr 33 min 25 sec) 
Heartbeat CPU 0 instructions: 34000001 cycles: 81692820 heartbeat IPC: 0.497764 cumulative IPC: 0.31033 (Simulation time: 0 hr 34 min 30 sec) 
Heartbeat CPU 0 instructions: 35000001 cycles: 83692119 heartbeat IPC: 0.500175 cumulative IPC: 0.315114 (Simulation time: 0 hr 35 min 34 sec) 
Heartbeat CPU 0 instructions: 36000000 cycles: 85782187 heartbeat IPC: 0.478453 cumulative IPC: 0.319307 (Simulation time: 0 hr 36 min 35 sec) 
Heartbeat CPU 0 instructions: 37000002 cycles: 87839680 heartbeat IPC: 0.486029 cumulative IPC: 0.323416 (Simulation time: 0 hr 37 min 34 sec) 
Heartbeat CPU 0 instructions: 38000002 cycles: 89830952 heartbeat IPC: 0.502192 cumulative IPC: 0.327581 (Simulation time: 0 hr 38 min 34 sec) 
Heartbeat CPU 0 instructions: 39000000 cycles: 91865185 heartbeat IPC: 0.491585 cumulative IPC: 0.331393 (Simulation time: 0 hr 39 min 37 sec) 
Heartbeat CPU 0 instructions: 40000000 cycles: 93883916 heartbeat IPC: 0.495361 cumulative IPC: 0.33509 (Simulation time: 0 hr 40 min 38 sec) 
Heartbeat CPU 0 instructions: 41000003 cycles: 95902634 heartbeat IPC: 0.495365 cumulative IPC: 0.338625 (Simulation time: 0 hr 41 min 41 sec) 
Heartbeat CPU 0 instructions: 42000001 cycles: 97903917 heartbeat IPC: 0.499678 cumulative IPC: 0.34207 (Simulation time: 0 hr 42 min 44 sec) 
Heartbeat CPU 0 instructions: 43000002 cycles: 101364062 heartbeat IPC: 0.289006 cumulative IPC: 0.340177 (Simulation time: 0 hr 44 min 1 sec) 
Heartbeat CPU 0 instructions: 44000000 cycles: 105218519 heartbeat IPC: 0.259439 cumulative IPC: 0.337092 (Simulation time: 0 hr 45 min 21 sec) 
Heartbeat CPU 0 instructions: 45000001 cycles: 109050158 heartbeat IPC: 0.260985 cumulative IPC: 0.334307 (Simulation time: 0 hr 46 min 41 sec) 
Heartbeat CPU 0 instructions: 46000002 cycles: 112933988 heartbeat IPC: 0.257478 cumulative IPC: 0.331558 (Simulation time: 0 hr 48 min 2 sec) 
Heartbeat CPU 0 instructions: 47000000 cycles: 116864096 heartbeat IPC: 0.254445 cumulative IPC: 0.328865 (Simulation time: 0 hr 49 min 21 sec) 
Heartbeat CPU 0 instructions: 48000000 cycles: 120909857 heartbeat IPC: 0.247172 cumulative IPC: 0.326029 (Simulation time: 0 hr 50 min 46 sec) 
Heartbeat CPU 0 instructions: 49000000 cycles: 125026582 heartbeat IPC: 0.242912 cumulative IPC: 0.323193 (Simulation time: 0 hr 52 min 9 sec) 
Heartbeat CPU 0 instructions: 50000000 cycles: 129076012 heartbeat IPC: 0.246948 cumulative IPC: 0.320718 (Simulation time: 0 hr 53 min 25 sec) 
Heartbeat CPU 0 instructions: 51000002 cycles: 133130290 heartbeat IPC: 0.246654 cumulative IPC: 0.318386 (Simulation time: 0 hr 54 min 43 sec) 
Heartbeat CPU 0 instructions: 52000000 cycles: 137260662 heartbeat IPC: 0.242108 cumulative IPC: 0.316016 (Simulation time: 0 hr 55 min 59 sec) 
Heartbeat CPU 0 instructions: 53000000 cycles: 141658298 heartbeat IPC: 0.227395 cumulative IPC: 0.313177 (Simulation time: 0 hr 57 min 16 sec) 
Heartbeat CPU 0 instructions: 54000001 cycles: 144503975 heartbeat IPC: 0.351411 cumulative IPC: 0.313954 (Simulation time: 0 hr 58 min 29 sec) 
Heartbeat CPU 0 instructions: 55000002 cycles: 147235183 heartbeat IPC: 0.366139 cumulative IPC: 0.314951 (Simulation time: 0 hr 59 min 32 sec) 
Heartbeat CPU 0 instructions: 56000000 cycles: 150027349 heartbeat IPC: 0.358144 cumulative IPC: 0.315779 (Simulation time: 1 hr 0 min 40 sec) 
Heartbeat CPU 0 instructions: 57000002 cycles: 152922593 heartbeat IPC: 0.345395 cumulative IPC: 0.316356 (Simulation time: 1 hr 1 min 51 sec) 
Heartbeat CPU 0 instructions: 58000000 cycles: 155897648 heartbeat IPC: 0.336128 cumulative IPC: 0.316744 (Simulation time: 1 hr 2 min 57 sec) 
Heartbeat CPU 0 instructions: 59000002 cycles: 158800394 heartbeat IPC: 0.344502 cumulative IPC: 0.317266 (Simulation time: 1 hr 3 min 57 sec) 
Heartbeat CPU 0 instructions: 60000000 cycles: 161316316 heartbeat IPC: 0.397468 cumulative IPC: 0.318552 (Simulation time: 1 hr 4 min 58 sec) 
Heartbeat CPU 0 instructions: 61000000 cycles: 163859454 heartbeat IPC: 0.393215 cumulative IPC: 0.319742 (Simulation time: 1 hr 5 min 55 sec) 
Heartbeat CPU 0 instructions: 62000002 cycles: 166502821 heartbeat IPC: 0.378306 cumulative IPC: 0.320697 (Simulation time: 1 hr 6 min 50 sec) 
Heartbeat CPU 0 instructions: 63000000 cycles: 169086453 heartbeat IPC: 0.387051 cumulative IPC: 0.321737 (Simulation time: 1 hr 7 min 42 sec) 
Heartbeat CPU 0 instructions: 64000000 cycles: 171663718 heartbeat IPC: 0.388008 cumulative IPC: 0.322758 (Simulation time: 1 hr 8 min 31 sec) 
Heartbeat CPU 0 instructions: 65000001 cycles: 173667917 heartbeat IPC: 0.498953 cumulative IPC: 0.324844 (Simulation time: 1 hr 9 min 14 sec) 
Heartbeat CPU 0 instructions: 66000003 cycles: 175672288 heartbeat IPC: 0.498911 cumulative IPC: 0.32688 (Simulation time: 1 hr 9 min 48 sec) 
Heartbeat CPU 0 instructions: 67000003 cycles: 177682559 heartbeat IPC: 0.497445 cumulative IPC: 0.328859 (Simulation time: 1 hr 10 min 28 sec) 
Heartbeat CPU 0 instructions: 68000000 cycles: 179690715 heartbeat IPC: 0.497968 cumulative IPC: 0.330796 (Simulation time: 1 hr 11 min 3 sec) 
Heartbeat CPU 0 instructions: 69000002 cycles: 181744715 heartbeat IPC: 0.486856 cumulative IPC: 0.332603 (Simulation time: 1 hr 11 min 38 sec) 
Heartbeat CPU 0 instructions: 70000000 cycles: 184034138 heartbeat IPC: 0.43679 cumulative IPC: 0.33393 (Simulation time: 1 hr 12 min 11 sec) 
Heartbeat CPU 0 instructions: 71000000 cycles: 186139054 heartbeat IPC: 0.475078 cumulative IPC: 0.335565 (Simulation time: 1 hr 12 min 41 sec) 
Heartbeat CPU 0 instructions: 72000000 cycles: 188147269 heartbeat IPC: 0.497955 cumulative IPC: 0.337339 (Simulation time: 1 hr 13 min 13 sec) 
Heartbeat CPU 0 instructions: 73000002 cycles: 190157337 heartbeat IPC: 0.497497 cumulative IPC: 0.339072 (Simulation time: 1 hr 13 min 43 sec) 
Heartbeat CPU 0 instructions: 74000000 cycles: 192175347 heartbeat IPC: 0.495537 cumulative IPC: 0.340753 (Simulation time: 1 hr 14 min 13 sec) 
Heartbeat CPU 0 instructions: 75000000 cycles: 194227174 heartbeat IPC: 0.487371 cumulative IPC: 0.342337 (Simulation time: 1 hr 14 min 40 sec) 
Heartbeat CPU 0 instructions: 76000000 cycles: 196247363 heartbeat IPC: 0.495003 cumulative IPC: 0.343944 (Simulation time: 1 hr 15 min 5 sec) 
Heartbeat CPU 0 instructions: 77000001 cycles: 199999830 heartbeat IPC: 0.266492 cumulative IPC: 0.342459 (Simulation time: 1 hr 15 min 34 sec) 
Heartbeat CPU 0 instructions: 78000000 cycles: 203875351 heartbeat IPC: 0.25803 cumulative IPC: 0.340819 (Simulation time: 1 hr 15 min 59 sec) 
Heartbeat CPU 0 instructions: 79000001 cycles: 207745571 heartbeat IPC: 0.258384 cumulative IPC: 0.33925 (Simulation time: 1 hr 16 min 20 sec) 
Heartbeat CPU 0 instructions: 80000000 cycles: 211721916 heartbeat IPC: 0.251487 cumulative IPC: 0.337567 (Simulation time: 1 hr 16 min 39 sec) 
Heartbeat CPU 0 instructions: 81000000 cycles: 215660090 heartbeat IPC: 0.253925 cumulative IPC: 0.336008 (Simulation time: 1 hr 16 min 57 sec) 
Heartbeat CPU 0 instructions: 82000002 cycles: 219774940 heartbeat IPC: 0.243023 cumulative IPC: 0.334232 (Simulation time: 1 hr 17 min 14 sec) 
Heartbeat CPU 0 instructions: 83000002 cycles: 223832048 heartbeat IPC: 0.246481 cumulative IPC: 0.33261 (Simulation time: 1 hr 17 min 29 sec) 
Heartbeat CPU 0 instructions: 84000000 cycles: 227942657 heartbeat IPC: 0.243272 cumulative IPC: 0.330968 (Simulation time: 1 hr 17 min 42 sec) 
Heartbeat CPU 0 instructions: 85000000 cycles: 232028822 heartbeat IPC: 0.244728 cumulative IPC: 0.32942 (Simulation time: 1 hr 17 min 54 sec) 
Heartbeat CPU 0 instructions: 86000000 cycles: 236144396 heartbeat IPC: 0.242979 cumulative IPC: 0.327885 (Simulation time: 1 hr 18 min 6 sec) 
Heartbeat CPU 0 instructions: 87000000 cycles: 239901126 heartbeat IPC: 0.266189 cumulative IPC: 0.326901 (Simulation time: 1 hr 18 min 16 sec) 
Heartbeat CPU 0 instructions: 88000000 cycles: 242502749 heartbeat IPC: 0.384375 cumulative IPC: 0.327529 (Simulation time: 1 hr 18 min 24 sec) 
Heartbeat CPU 0 instructions: 89000001 cycles: 245089668 heartbeat IPC: 0.386561 cumulative IPC: 0.328163 (Simulation time: 1 hr 18 min 33 sec) 
Heartbeat CPU 0 instructions: 90000001 cycles: 247699762 heartbeat IPC: 0.383128 cumulative IPC: 0.328753 (Simulation time: 1 hr 18 min 40 sec) 
Heartbeat CPU 0 instructions: 91000003 cycles: 250606996 heartbeat IPC: 0.34397 cumulative IPC: 0.328932 (Simulation time: 1 hr 18 min 49 sec) 
Heartbeat CPU 0 instructions: 92000000 cycles: 253248746 heartbeat IPC: 0.378536 cumulative IPC: 0.329459 (Simulation time: 1 hr 18 min 58 sec) 
Heartbeat CPU 0 instructions: 93000002 cycles: 255845933 heartbeat IPC: 0.385033 cumulative IPC: 0.330033 (Simulation time: 1 hr 19 min 6 sec) 
Heartbeat CPU 0 instructions: 94000001 cycles: 258280061 heartbeat IPC: 0.410824 cumulative IPC: 0.330807 (Simulation time: 1 hr 19 min 14 sec) 
Heartbeat CPU 0 instructions: 95000001 cycles: 260707244 heartbeat IPC: 0.412 cumulative IPC: 0.331576 (Simulation time: 1 hr 19 min 23 sec) 
Heartbeat CPU 0 instructions: 96000000 cycles: 263211506 heartbeat IPC: 0.399319 cumulative IPC: 0.332231 (Simulation time: 1 hr 19 min 31 sec) 
Heartbeat CPU 0 instructions: 97000001 cycles: 265755568 heartbeat IPC: 0.393073 cumulative IPC: 0.332824 (Simulation time: 1 hr 19 min 39 sec) 
Heartbeat CPU 0 instructions: 98000000 cycles: 267938339 heartbeat IPC: 0.458133 cumulative IPC: 0.333861 (Simulation time: 1 hr 19 min 47 sec) 
Heartbeat CPU 0 instructions: 99000001 cycles: 269960704 heartbeat IPC: 0.494471 cumulative IPC: 0.335084 (Simulation time: 1 hr 19 min 54 sec) 
Heartbeat CPU 0 instructions: 100000000 cycles: 271991018 heartbeat IPC: 0.492534 cumulative IPC: 0.336279 (Simulation time: 1 hr 20 min 1 sec) 
Heartbeat CPU 0 instructions: 101000002 cycles: 273996294 heartbeat IPC: 0.498685 cumulative IPC: 0.337486 (Simulation time: 1 hr 20 min 9 sec) 
Heartbeat CPU 0 instructions: 102000002 cycles: 276041017 heartbeat IPC: 0.489064 cumulative IPC: 0.338627 (Simulation time: 1 hr 20 min 16 sec) 
Heartbeat CPU 0 instructions: 103000000 cycles: 278185013 heartbeat IPC: 0.466418 cumulative IPC: 0.339628 (Simulation time: 1 hr 20 min 24 sec) 
Heartbeat CPU 0 instructions: 104000000 cycles: 280333298 heartbeat IPC: 0.465488 cumulative IPC: 0.340608 (Simulation time: 1 hr 20 min 31 sec) 
Heartbeat CPU 0 instructions: 105000003 cycles: 282356917 heartbeat IPC: 0.494166 cumulative IPC: 0.341725 (Simulation time: 1 hr 20 min 39 sec) 
Heartbeat CPU 0 instructions: 106000003 cycles: 284387099 heartbeat IPC: 0.492567 cumulative IPC: 0.342819 (Simulation time: 1 hr 20 min 46 sec) 
Heartbeat CPU 0 instructions: 107000001 cycles: 286423122 heartbeat IPC: 0.491153 cumulative IPC: 0.34389 (Simulation time: 1 hr 20 min 53 sec) 
Heartbeat CPU 0 instructions: 108000000 cycles: 288441384 heartbeat IPC: 0.495475 cumulative IPC: 0.344967 (Simulation time: 1 hr 21 min 0 sec) 
Heartbeat CPU 0 instructions: 109000002 cycles: 290507188 heartbeat IPC: 0.484074 cumulative IPC: 0.345971 (Simulation time: 1 hr 21 min 7 sec) 
Heartbeat CPU 0 instructions: 110000002 cycles: 292806709 heartbeat IPC: 0.434873 cumulative IPC: 0.346679 (Simulation time: 1 hr 21 min 15 sec) 
Finished CPU 0 instructions: 100000000 cycles: 288450868 cummulative IPC: 0.346679 (Simulation time: 1 hr 21 min 15 sec) 

ChampSim completed all CPUs

Region of Interest Statistics

CPU 0 cummulative IPC: 0.346679 instructions: 100000000 cycles: 288450868
LLC TOTAL     ACCESS:   12925356  HIT:    5974982  MISS:    6950374
LLC LOAD      ACCESS:    5280594  HIT:    3839329  MISS:    1441265
LLC RFO       ACCESS:          0  HIT:          0  MISS:          0
LLC PREFETCH  ACCESS:    6737209  HIT:    1423723  MISS:    5313486
LLC WRITEBACK ACCESS:     907553  HIT:     711930  MISS:     195623
