
*** ChampSim Multicore Out-of-Order Simulator ***

Warmup Instructions: 10000000
Simulation Instructions: 100000000
Configuration: 2
Number of CPUs: 1
LLC sets: 2048
LLC ways: 16
Off-chip DRAM Channels: 1 Width: 64-bit Data Rate: 1600 MT/s

CPU 0 runs /datasets/cs240c-wi22-a00-public/data/Assignment2-gz/cactusADM_734B.trace.gz
CPU 0 L1D next line prefetcher
CPU 0 L2C IP-based stride prefetcher
Heartbeat CPU 0 instructions: 1000003 cycles: 592726 heartbeat IPC: 1.68713 cumulative IPC: 1.68713 (Simulation time: 0 hr 1 min 4 sec) 
Heartbeat CPU 0 instructions: 2000001 cycles: 1185927 heartbeat IPC: 1.68577 cumulative IPC: 1.68645 (Simulation time: 0 hr 2 min 12 sec) 
Heartbeat CPU 0 instructions: 3000003 cycles: 1778979 heartbeat IPC: 1.6862 cumulative IPC: 1.68636 (Simulation time: 0 hr 3 min 18 sec) 
Heartbeat CPU 0 instructions: 4000000 cycles: 2371929 heartbeat IPC: 1.68648 cumulative IPC: 1.68639 (Simulation time: 0 hr 4 min 26 sec) 
Heartbeat CPU 0 instructions: 5000000 cycles: 2965279 heartbeat IPC: 1.68535 cumulative IPC: 1.68618 (Simulation time: 0 hr 5 min 28 sec) 
Heartbeat CPU 0 instructions: 6000002 cycles: 3558551 heartbeat IPC: 1.68557 cumulative IPC: 1.68608 (Simulation time: 0 hr 6 min 40 sec) 
Heartbeat CPU 0 instructions: 7000000 cycles: 4151394 heartbeat IPC: 1.68678 cumulative IPC: 1.68618 (Simulation time: 0 hr 7 min 47 sec) 
Heartbeat CPU 0 instructions: 8000000 cycles: 4744343 heartbeat IPC: 1.68649 cumulative IPC: 1.68622 (Simulation time: 0 hr 9 min 0 sec) 
Heartbeat CPU 0 instructions: 9000001 cycles: 5337493 heartbeat IPC: 1.68592 cumulative IPC: 1.68619 (Simulation time: 0 hr 10 min 3 sec) 
Heartbeat CPU 0 instructions: 10000003 cycles: 5958967 heartbeat IPC: 1.60908 cumulative IPC: 1.67814 (Simulation time: 0 hr 11 min 19 sec) 

Warmup complete CPU 0 instructions: 10000003 cycles: 5958967 (Simulation time: 0 hr 11 min 19 sec) 

Heartbeat CPU 0 instructions: 11000002 cycles: 12560137 heartbeat IPC: 0.151488 cumulative IPC: 0.151488 (Simulation time: 0 hr 12 min 57 sec) 
Heartbeat CPU 0 instructions: 12000000 cycles: 14302410 heartbeat IPC: 0.573962 cumulative IPC: 0.239709 (Simulation time: 0 hr 14 min 14 sec) 
Heartbeat CPU 0 instructions: 13000002 cycles: 15990183 heartbeat IPC: 0.592498 cumulative IPC: 0.299066 (Simulation time: 0 hr 15 min 29 sec) 
Heartbeat CPU 0 instructions: 14000000 cycles: 17675720 heartbeat IPC: 0.593282 cumulative IPC: 0.341391 (Simulation time: 0 hr 16 min 36 sec) 
Heartbeat CPU 0 instructions: 15000003 cycles: 19415381 heartbeat IPC: 0.574826 cumulative IPC: 0.37157 (Simulation time: 0 hr 17 min 37 sec) 
Heartbeat CPU 0 instructions: 16000000 cycles: 21157943 heartbeat IPC: 0.573866 cumulative IPC: 0.394763 (Simulation time: 0 hr 18 min 26 sec) 
Heartbeat CPU 0 instructions: 17000002 cycles: 22892039 heartbeat IPC: 0.57667 cumulative IPC: 0.413392 (Simulation time: 0 hr 19 min 15 sec) 
Heartbeat CPU 0 instructions: 18000001 cycles: 24550301 heartbeat IPC: 0.60304 cumulative IPC: 0.430308 (Simulation time: 0 hr 20 min 3 sec) 
Heartbeat CPU 0 instructions: 19000000 cycles: 26267233 heartbeat IPC: 0.582434 cumulative IPC: 0.443169 (Simulation time: 0 hr 20 min 58 sec) 
Heartbeat CPU 0 instructions: 20000000 cycles: 28010285 heartbeat IPC: 0.573706 cumulative IPC: 0.453487 (Simulation time: 0 hr 21 min 53 sec) 
Heartbeat CPU 0 instructions: 21000002 cycles: 29753757 heartbeat IPC: 0.573569 cumulative IPC: 0.462286 (Simulation time: 0 hr 22 min 39 sec) 
Heartbeat CPU 0 instructions: 22000000 cycles: 31463175 heartbeat IPC: 0.584993 cumulative IPC: 0.47051 (Simulation time: 0 hr 23 min 29 sec) 
Heartbeat CPU 0 instructions: 23000001 cycles: 33127483 heartbeat IPC: 0.600851 cumulative IPC: 0.478495 (Simulation time: 0 hr 24 min 16 sec) 
Heartbeat CPU 0 instructions: 24000000 cycles: 40801116 heartbeat IPC: 0.130316 cumulative IPC: 0.401812 (Simulation time: 0 hr 25 min 23 sec) 
Heartbeat CPU 0 instructions: 25000000 cycles: 42540205 heartbeat IPC: 0.575014 cumulative IPC: 0.410046 (Simulation time: 0 hr 26 min 15 sec) 
Heartbeat CPU 0 instructions: 26000002 cycles: 44272761 heartbeat IPC: 0.577183 cumulative IPC: 0.417604 (Simulation time: 0 hr 27 min 1 sec) 
Heartbeat CPU 0 instructions: 27000002 cycles: 45934401 heartbeat IPC: 0.601815 cumulative IPC: 0.425261 (Simulation time: 0 hr 27 min 49 sec) 
Heartbeat CPU 0 instructions: 28000000 cycles: 47658157 heartbeat IPC: 0.580127 cumulative IPC: 0.431663 (Simulation time: 0 hr 28 min 38 sec) 
Heartbeat CPU 0 instructions: 29000001 cycles: 49415251 heartbeat IPC: 0.569122 cumulative IPC: 0.437221 (Simulation time: 0 hr 29 min 30 sec) 
Heartbeat CPU 0 instructions: 30000001 cycles: 51156156 heartbeat IPC: 0.574414 cumulative IPC: 0.442505 (Simulation time: 0 hr 30 min 16 sec) 
Heartbeat CPU 0 instructions: 31000003 cycles: 52868238 heartbeat IPC: 0.584085 cumulative IPC: 0.447673 (Simulation time: 0 hr 31 min 11 sec) 
Heartbeat CPU 0 instructions: 32000000 cycles: 54526358 heartbeat IPC: 0.603091 cumulative IPC: 0.452979 (Simulation time: 0 hr 31 min 57 sec) 
Heartbeat CPU 0 instructions: 33000000 cycles: 56261232 heartbeat IPC: 0.576411 cumulative IPC: 0.457236 (Simulation time: 0 hr 32 min 47 sec) 
Heartbeat CPU 0 instructions: 34000001 cycles: 58004915 heartbeat IPC: 0.573499 cumulative IPC: 0.461131 (Simulation time: 0 hr 33 min 37 sec) 
Heartbeat CPU 0 instructions: 35000000 cycles: 59742703 heartbeat IPC: 0.575444 cumulative IPC: 0.464824 (Simulation time: 0 hr 34 min 28 sec) 
Heartbeat CPU 0 instructions: 36000000 cycles: 61425716 heartbeat IPC: 0.594172 cumulative IPC: 0.468749 (Simulation time: 0 hr 35 min 18 sec) 
Heartbeat CPU 0 instructions: 37000003 cycles: 69037945 heartbeat IPC: 0.131368 cumulative IPC: 0.428035 (Simulation time: 0 hr 36 min 25 sec) 
Heartbeat CPU 0 instructions: 38000001 cycles: 70776143 heartbeat IPC: 0.575307 cumulative IPC: 0.431984 (Simulation time: 0 hr 37 min 38 sec) 
Heartbeat CPU 0 instructions: 39000001 cycles: 72514850 heartbeat IPC: 0.57514 cumulative IPC: 0.435724 (Simulation time: 0 hr 38 min 38 sec) 
Heartbeat CPU 0 instructions: 40000000 cycles: 74230668 heartbeat IPC: 0.582812 cumulative IPC: 0.439421 (Simulation time: 0 hr 39 min 38 sec) 
Heartbeat CPU 0 instructions: 41000001 cycles: 75883573 heartbeat IPC: 0.604996 cumulative IPC: 0.443335 (Simulation time: 0 hr 40 min 36 sec) 
Heartbeat CPU 0 instructions: 42000002 cycles: 77616806 heartbeat IPC: 0.576957 cumulative IPC: 0.446567 (Simulation time: 0 hr 41 min 29 sec) 
Heartbeat CPU 0 instructions: 43000000 cycles: 79356448 heartbeat IPC: 0.57483 cumulative IPC: 0.449607 (Simulation time: 0 hr 42 min 22 sec) 
Heartbeat CPU 0 instructions: 44000000 cycles: 81095635 heartbeat IPC: 0.574981 cumulative IPC: 0.452509 (Simulation time: 0 hr 43 min 22 sec) 
Heartbeat CPU 0 instructions: 45000000 cycles: 82779507 heartbeat IPC: 0.593869 cumulative IPC: 0.455607 (Simulation time: 0 hr 44 min 18 sec) 
Heartbeat CPU 0 instructions: 46000003 cycles: 84461447 heartbeat IPC: 0.594553 cumulative IPC: 0.458584 (Simulation time: 0 hr 45 min 10 sec) 
Heartbeat CPU 0 instructions: 47000001 cycles: 86197941 heartbeat IPC: 0.575872 cumulative IPC: 0.461123 (Simulation time: 0 hr 45 min 57 sec) 
Heartbeat CPU 0 instructions: 48000000 cycles: 87937970 heartbeat IPC: 0.574703 cumulative IPC: 0.463533 (Simulation time: 0 hr 46 min 44 sec) 
Heartbeat CPU 0 instructions: 49000000 cycles: 89672764 heartbeat IPC: 0.576437 cumulative IPC: 0.465873 (Simulation time: 0 hr 47 min 27 sec) 
Heartbeat CPU 0 instructions: 50000001 cycles: 97198935 heartbeat IPC: 0.13287 cumulative IPC: 0.438404 (Simulation time: 0 hr 48 min 31 sec) 
Heartbeat CPU 0 instructions: 51000000 cycles: 98927256 heartbeat IPC: 0.578596 cumulative IPC: 0.441011 (Simulation time: 0 hr 49 min 19 sec) 
Heartbeat CPU 0 instructions: 52000000 cycles: 100665034 heartbeat IPC: 0.575447 cumulative IPC: 0.443477 (Simulation time: 0 hr 50 min 11 sec) 
Heartbeat CPU 0 instructions: 53000003 cycles: 102403511 heartbeat IPC: 0.575218 cumulative IPC: 0.445852 (Simulation time: 0 hr 51 min 1 sec) 
Heartbeat CPU 0 instructions: 54000000 cycles: 104089691 heartbeat IPC: 0.593055 cumulative IPC: 0.448381 (Simulation time: 0 hr 51 min 51 sec) 
Heartbeat CPU 0 instructions: 55000001 cycles: 105764531 heartbeat IPC: 0.597073 cumulative IPC: 0.450877 (Simulation time: 0 hr 52 min 38 sec) 
Heartbeat CPU 0 instructions: 56000000 cycles: 107515093 heartbeat IPC: 0.571245 cumulative IPC: 0.452951 (Simulation time: 0 hr 53 min 27 sec) 
Heartbeat CPU 0 instructions: 57000000 cycles: 109263245 heartbeat IPC: 0.572033 cumulative IPC: 0.454967 (Simulation time: 0 hr 54 min 13 sec) 
Heartbeat CPU 0 instructions: 58000001 cycles: 110996576 heartbeat IPC: 0.576924 cumulative IPC: 0.456979 (Simulation time: 0 hr 55 min 0 sec) 
Heartbeat CPU 0 instructions: 59000000 cycles: 112654017 heartbeat IPC: 0.603339 cumulative IPC: 0.459253 (Simulation time: 0 hr 55 min 45 sec) 
Heartbeat CPU 0 instructions: 60000000 cycles: 114359772 heartbeat IPC: 0.586251 cumulative IPC: 0.461251 (Simulation time: 0 hr 56 min 30 sec) 
Heartbeat CPU 0 instructions: 61000002 cycles: 116098401 heartbeat IPC: 0.575167 cumulative IPC: 0.463049 (Simulation time: 0 hr 57 min 18 sec) 
Heartbeat CPU 0 instructions: 62000002 cycles: 117838168 heartbeat IPC: 0.57479 cumulative IPC: 0.464787 (Simulation time: 0 hr 58 min 4 sec) 
Heartbeat CPU 0 instructions: 63000002 cycles: 125277808 heartbeat IPC: 0.134415 cumulative IPC: 0.444188 (Simulation time: 0 hr 59 min 2 sec) 
Heartbeat CPU 0 instructions: 64000000 cycles: 127228354 heartbeat IPC: 0.512676 cumulative IPC: 0.44529 (Simulation time: 0 hr 59 min 55 sec) 
Heartbeat CPU 0 instructions: 65000003 cycles: 128963825 heartbeat IPC: 0.576214 cumulative IPC: 0.447137 (Simulation time: 1 hr 0 min 41 sec) 
Heartbeat CPU 0 instructions: 66000001 cycles: 130702926 heartbeat IPC: 0.575009 cumulative IPC: 0.44892 (Simulation time: 1 hr 1 min 27 sec) 
Heartbeat CPU 0 instructions: 67000000 cycles: 132437277 heartbeat IPC: 0.576584 cumulative IPC: 0.45067 (Simulation time: 1 hr 2 min 15 sec) 
Heartbeat CPU 0 instructions: 68000000 cycles: 134098348 heartbeat IPC: 0.602021 cumulative IPC: 0.452632 (Simulation time: 1 hr 3 min 4 sec) 
Heartbeat CPU 0 instructions: 69000000 cycles: 135797811 heartbeat IPC: 0.588421 cumulative IPC: 0.454409 (Simulation time: 1 hr 3 min 47 sec) 
Heartbeat CPU 0 instructions: 70000001 cycles: 137537787 heartbeat IPC: 0.574721 cumulative IPC: 0.456 (Simulation time: 1 hr 4 min 27 sec) 
Heartbeat CPU 0 instructions: 71000001 cycles: 139277639 heartbeat IPC: 0.574762 cumulative IPC: 0.45755 (Simulation time: 1 hr 5 min 7 sec) 
Heartbeat CPU 0 instructions: 72000000 cycles: 140996505 heartbeat IPC: 0.581778 cumulative IPC: 0.459132 (Simulation time: 1 hr 5 min 48 sec) 
Heartbeat CPU 0 instructions: 73000003 cycles: 142646213 heartbeat IPC: 0.60617 cumulative IPC: 0.460906 (Simulation time: 1 hr 6 min 24 sec) 
Heartbeat CPU 0 instructions: 74000002 cycles: 144378084 heartbeat IPC: 0.57741 cumulative IPC: 0.462364 (Simulation time: 1 hr 7 min 1 sec) 
Heartbeat CPU 0 instructions: 75000002 cycles: 146118276 heartbeat IPC: 0.574649 cumulative IPC: 0.463758 (Simulation time: 1 hr 7 min 42 sec) 
Heartbeat CPU 0 instructions: 76000000 cycles: 152338253 heartbeat IPC: 0.160772 cumulative IPC: 0.450883 (Simulation time: 1 hr 8 min 29 sec) 
Heartbeat CPU 0 instructions: 77000000 cycles: 155529801 heartbeat IPC: 0.313328 cumulative IPC: 0.447948 (Simulation time: 1 hr 9 min 7 sec) 
Heartbeat CPU 0 instructions: 78000002 cycles: 157224348 heartbeat IPC: 0.590129 cumulative IPC: 0.449541 (Simulation time: 1 hr 9 min 39 sec) 
Heartbeat CPU 0 instructions: 79000002 cycles: 158963699 heartbeat IPC: 0.574927 cumulative IPC: 0.450966 (Simulation time: 1 hr 10 min 9 sec) 
Heartbeat CPU 0 instructions: 80000000 cycles: 160700822 heartbeat IPC: 0.575663 cumulative IPC: 0.452366 (Simulation time: 1 hr 10 min 40 sec) 
Heartbeat CPU 0 instructions: 81000000 cycles: 162427212 heartbeat IPC: 0.579243 cumulative IPC: 0.453766 (Simulation time: 1 hr 11 min 9 sec) 
Heartbeat CPU 0 instructions: 82000003 cycles: 164070736 heartbeat IPC: 0.60845 cumulative IPC: 0.455374 (Simulation time: 1 hr 11 min 36 sec) 
Heartbeat CPU 0 instructions: 83000003 cycles: 165799139 heartbeat IPC: 0.578569 cumulative IPC: 0.456706 (Simulation time: 1 hr 12 min 1 sec) 
Heartbeat CPU 0 instructions: 84000000 cycles: 167537357 heartbeat IPC: 0.5753 cumulative IPC: 0.457982 (Simulation time: 1 hr 12 min 26 sec) 
Heartbeat CPU 0 instructions: 85000003 cycles: 169275576 heartbeat IPC: 0.575303 cumulative IPC: 0.459231 (Simulation time: 1 hr 12 min 50 sec) 
Heartbeat CPU 0 instructions: 86000000 cycles: 170968159 heartbeat IPC: 0.590811 cumulative IPC: 0.46058 (Simulation time: 1 hr 13 min 13 sec) 
Heartbeat CPU 0 instructions: 87000000 cycles: 172641121 heartbeat IPC: 0.597742 cumulative IPC: 0.461957 (Simulation time: 1 hr 13 min 38 sec) 
Heartbeat CPU 0 instructions: 88000000 cycles: 174407334 heartbeat IPC: 0.566183 cumulative IPC: 0.46305 (Simulation time: 1 hr 14 min 1 sec) 
Heartbeat CPU 0 instructions: 89000002 cycles: 179534073 heartbeat IPC: 0.195056 cumulative IPC: 0.455134 (Simulation time: 1 hr 14 min 27 sec) 
Heartbeat CPU 0 instructions: 90000002 cycles: 183802597 heartbeat IPC: 0.234273 cumulative IPC: 0.449833 (Simulation time: 1 hr 14 min 49 sec) 
Heartbeat CPU 0 instructions: 91000003 cycles: 185449987 heartbeat IPC: 0.607021 cumulative IPC: 0.451276 (Simulation time: 1 hr 15 min 10 sec) 
Heartbeat CPU 0 instructions: 92000000 cycles: 187177299 heartbeat IPC: 0.578932 cumulative IPC: 0.452493 (Simulation time: 1 hr 15 min 28 sec) 
Heartbeat CPU 0 instructions: 93000000 cycles: 188915343 heartbeat IPC: 0.575359 cumulative IPC: 0.45366 (Simulation time: 1 hr 15 min 44 sec) 
Heartbeat CPU 0 instructions: 94000003 cycles: 190654827 heartbeat IPC: 0.574885 cumulative IPC: 0.454802 (Simulation time: 1 hr 16 min 0 sec) 
Heartbeat CPU 0 instructions: 95000000 cycles: 192353171 heartbeat IPC: 0.588807 cumulative IPC: 0.456023 (Simulation time: 1 hr 16 min 14 sec) 
Heartbeat CPU 0 instructions: 96000000 cycles: 194021623 heartbeat IPC: 0.599358 cumulative IPC: 0.457294 (Simulation time: 1 hr 16 min 27 sec) 
Heartbeat CPU 0 instructions: 97000001 cycles: 195757299 heartbeat IPC: 0.576145 cumulative IPC: 0.458381 (Simulation time: 1 hr 16 min 39 sec) 
Heartbeat CPU 0 instructions: 98000000 cycles: 197496663 heartbeat IPC: 0.574922 cumulative IPC: 0.45944 (Simulation time: 1 hr 16 min 50 sec) 
Heartbeat CPU 0 instructions: 99000001 cycles: 199234693 heartbeat IPC: 0.575365 cumulative IPC: 0.460482 (Simulation time: 1 hr 17 min 1 sec) 
Heartbeat CPU 0 instructions: 100000000 cycles: 200903123 heartbeat IPC: 0.599365 cumulative IPC: 0.461671 (Simulation time: 1 hr 17 min 11 sec) 
Heartbeat CPU 0 instructions: 101000000 cycles: 202605359 heartbeat IPC: 0.587463 cumulative IPC: 0.46276 (Simulation time: 1 hr 17 min 22 sec) 
Heartbeat CPU 0 instructions: 102000000 cycles: 206630021 heartbeat IPC: 0.248468 cumulative IPC: 0.458462 (Simulation time: 1 hr 17 min 31 sec) 
Heartbeat CPU 0 instructions: 103000000 cycles: 211988484 heartbeat IPC: 0.186621 cumulative IPC: 0.451392 (Simulation time: 1 hr 17 min 40 sec) 
Heartbeat CPU 0 instructions: 104000000 cycles: 213690084 heartbeat IPC: 0.587682 cumulative IPC: 0.452508 (Simulation time: 1 hr 17 min 48 sec) 
Heartbeat CPU 0 instructions: 105000000 cycles: 215353190 heartbeat IPC: 0.601285 cumulative IPC: 0.45369 (Simulation time: 1 hr 17 min 56 sec) 
Heartbeat CPU 0 instructions: 106000002 cycles: 217085289 heartbeat IPC: 0.577335 cumulative IPC: 0.454704 (Simulation time: 1 hr 18 min 4 sec) 
Heartbeat CPU 0 instructions: 107000001 cycles: 218824927 heartbeat IPC: 0.574832 cumulative IPC: 0.455686 (Simulation time: 1 hr 18 min 12 sec) 
Heartbeat CPU 0 instructions: 108000000 cycles: 220558767 heartbeat IPC: 0.576754 cumulative IPC: 0.456664 (Simulation time: 1 hr 18 min 18 sec) 
Heartbeat CPU 0 instructions: 109000001 cycles: 222230564 heartbeat IPC: 0.598159 cumulative IPC: 0.457758 (Simulation time: 1 hr 18 min 25 sec) 
Heartbeat CPU 0 instructions: 110000003 cycles: 223922600 heartbeat IPC: 0.591005 cumulative IPC: 0.458792 (Simulation time: 1 hr 18 min 31 sec) 
Finished CPU 0 instructions: 100000000 cycles: 217963633 cummulative IPC: 0.458792 (Simulation time: 1 hr 18 min 31 sec) 

ChampSim completed all CPUs

Region of Interest Statistics

CPU 0 cummulative IPC: 0.458792 instructions: 100000000 cycles: 217963633
LLC TOTAL     ACCESS:    1166750  HIT:     335682  MISS:     831068
LLC LOAD      ACCESS:      24969  HIT:       1958  MISS:      23011
LLC RFO       ACCESS:     264086  HIT:      16726  MISS:     247360
LLC PREFETCH  ACCESS:     611589  HIT:     160271  MISS:     451318
LLC WRITEBACK ACCESS:     266106  HIT:     156727  MISS:     109379
