
*** ChampSim Multicore Out-of-Order Simulator ***

Warmup Instructions: 10000000
Simulation Instructions: 100000000
Configuration: 2
Number of CPUs: 1
LLC sets: 2048
LLC ways: 16
Off-chip DRAM Channels: 1 Width: 64-bit Data Rate: 1600 MT/s

CPU 0 runs /datasets/cs240c-wi22-a00-public/data/Assignment2-gz/bzip2_281B.trace.gz
CPU 0 L1D next line prefetcher
CPU 0 L2C IP-based stride prefetcher
Heartbeat CPU 0 instructions: 1000000 cycles: 445883 heartbeat IPC: 2.24274 cumulative IPC: 2.24274 (Simulation time: 0 hr 0 min 36 sec) 
Heartbeat CPU 0 instructions: 2000003 cycles: 900143 heartbeat IPC: 2.20139 cumulative IPC: 2.22187 (Simulation time: 0 hr 1 min 13 sec) 
Heartbeat CPU 0 instructions: 3000002 cycles: 1314804 heartbeat IPC: 2.41161 cumulative IPC: 2.28171 (Simulation time: 0 hr 1 min 49 sec) 
Heartbeat CPU 0 instructions: 4000000 cycles: 1753272 heartbeat IPC: 2.28066 cumulative IPC: 2.28145 (Simulation time: 0 hr 2 min 23 sec) 
Heartbeat CPU 0 instructions: 5000002 cycles: 2175272 heartbeat IPC: 2.36967 cumulative IPC: 2.29856 (Simulation time: 0 hr 2 min 59 sec) 
Heartbeat CPU 0 instructions: 6000000 cycles: 2665944 heartbeat IPC: 2.03802 cumulative IPC: 2.25061 (Simulation time: 0 hr 3 min 38 sec) 
Heartbeat CPU 0 instructions: 7000001 cycles: 3193237 heartbeat IPC: 1.89648 cumulative IPC: 2.19213 (Simulation time: 0 hr 4 min 18 sec) 
Heartbeat CPU 0 instructions: 8000000 cycles: 3725870 heartbeat IPC: 1.87746 cumulative IPC: 2.14715 (Simulation time: 0 hr 4 min 55 sec) 
Heartbeat CPU 0 instructions: 9000000 cycles: 4232415 heartbeat IPC: 1.97416 cumulative IPC: 2.12645 (Simulation time: 0 hr 5 min 31 sec) 
Heartbeat CPU 0 instructions: 10000002 cycles: 4685376 heartbeat IPC: 2.2077 cumulative IPC: 2.1343 (Simulation time: 0 hr 6 min 5 sec) 

Warmup complete CPU 0 instructions: 10000002 cycles: 4685376 (Simulation time: 0 hr 6 min 5 sec) 

Heartbeat CPU 0 instructions: 11000001 cycles: 6204681 heartbeat IPC: 0.658195 cumulative IPC: 0.658195 (Simulation time: 0 hr 6 min 34 sec) 
Heartbeat CPU 0 instructions: 12000000 cycles: 7500363 heartbeat IPC: 0.771794 cumulative IPC: 0.710482 (Simulation time: 0 hr 7 min 12 sec) 
Heartbeat CPU 0 instructions: 13000001 cycles: 8855582 heartbeat IPC: 0.737889 cumulative IPC: 0.719389 (Simulation time: 0 hr 7 min 49 sec) 
Heartbeat CPU 0 instructions: 14000000 cycles: 10327746 heartbeat IPC: 0.679271 cumulative IPC: 0.708922 (Simulation time: 0 hr 8 min 22 sec) 
Heartbeat CPU 0 instructions: 15000000 cycles: 11834282 heartbeat IPC: 0.663774 cumulative IPC: 0.699407 (Simulation time: 0 hr 8 min 57 sec) 
Heartbeat CPU 0 instructions: 16000000 cycles: 13384024 heartbeat IPC: 0.645269 cumulative IPC: 0.689762 (Simulation time: 0 hr 9 min 38 sec) 
Heartbeat CPU 0 instructions: 17000000 cycles: 14897956 heartbeat IPC: 0.660532 cumulative IPC: 0.685429 (Simulation time: 0 hr 10 min 14 sec) 
Heartbeat CPU 0 instructions: 18000002 cycles: 16577866 heartbeat IPC: 0.595271 cumulative IPC: 0.672693 (Simulation time: 0 hr 10 min 42 sec) 
Heartbeat CPU 0 instructions: 19000003 cycles: 18043140 heartbeat IPC: 0.682467 cumulative IPC: 0.673766 (Simulation time: 0 hr 11 min 14 sec) 
Heartbeat CPU 0 instructions: 20000000 cycles: 19716249 heartbeat IPC: 0.597688 cumulative IPC: 0.665297 (Simulation time: 0 hr 11 min 49 sec) 
Heartbeat CPU 0 instructions: 21000001 cycles: 21305958 heartbeat IPC: 0.629047 cumulative IPC: 0.66183 (Simulation time: 0 hr 12 min 27 sec) 
Heartbeat CPU 0 instructions: 22000000 cycles: 23192776 heartbeat IPC: 0.529992 cumulative IPC: 0.648389 (Simulation time: 0 hr 13 min 9 sec) 
Heartbeat CPU 0 instructions: 23000001 cycles: 24817956 heartbeat IPC: 0.615317 cumulative IPC: 0.645719 (Simulation time: 0 hr 13 min 44 sec) 
Heartbeat CPU 0 instructions: 24000000 cycles: 26622595 heartbeat IPC: 0.554127 cumulative IPC: 0.638185 (Simulation time: 0 hr 14 min 24 sec) 
Heartbeat CPU 0 instructions: 25000002 cycles: 28316106 heartbeat IPC: 0.59049 cumulative IPC: 0.634767 (Simulation time: 0 hr 15 min 12 sec) 
Heartbeat CPU 0 instructions: 26000003 cycles: 29600023 heartbeat IPC: 0.778867 cumulative IPC: 0.642193 (Simulation time: 0 hr 15 min 55 sec) 
Heartbeat CPU 0 instructions: 27000002 cycles: 31011820 heartbeat IPC: 0.708316 cumulative IPC: 0.645739 (Simulation time: 0 hr 16 min 35 sec) 
Heartbeat CPU 0 instructions: 28000000 cycles: 31981850 heartbeat IPC: 1.03089 cumulative IPC: 0.659426 (Simulation time: 0 hr 17 min 11 sec) 
Heartbeat CPU 0 instructions: 29000001 cycles: 32884123 heartbeat IPC: 1.10831 cumulative IPC: 0.673789 (Simulation time: 0 hr 17 min 44 sec) 
Heartbeat CPU 0 instructions: 30000000 cycles: 33801764 heartbeat IPC: 1.08975 cumulative IPC: 0.686898 (Simulation time: 0 hr 18 min 19 sec) 
Heartbeat CPU 0 instructions: 31000003 cycles: 34820796 heartbeat IPC: 0.981326 cumulative IPC: 0.696854 (Simulation time: 0 hr 18 min 51 sec) 
Heartbeat CPU 0 instructions: 32000000 cycles: 35745263 heartbeat IPC: 1.0817 cumulative IPC: 0.708309 (Simulation time: 0 hr 19 min 25 sec) 
Heartbeat CPU 0 instructions: 33000002 cycles: 36740618 heartbeat IPC: 1.00467 cumulative IPC: 0.717511 (Simulation time: 0 hr 20 min 2 sec) 
Heartbeat CPU 0 instructions: 34000000 cycles: 37690073 heartbeat IPC: 1.05323 cumulative IPC: 0.727169 (Simulation time: 0 hr 20 min 37 sec) 
Heartbeat CPU 0 instructions: 35000000 cycles: 38549444 heartbeat IPC: 1.16364 cumulative IPC: 0.738246 (Simulation time: 0 hr 21 min 8 sec) 
Heartbeat CPU 0 instructions: 36000000 cycles: 39392292 heartbeat IPC: 1.18645 cumulative IPC: 0.74913 (Simulation time: 0 hr 21 min 40 sec) 
Heartbeat CPU 0 instructions: 37000000 cycles: 40245005 heartbeat IPC: 1.17273 cumulative IPC: 0.759288 (Simulation time: 0 hr 22 min 8 sec) 
Heartbeat CPU 0 instructions: 38000002 cycles: 41040034 heartbeat IPC: 1.25782 cumulative IPC: 0.77019 (Simulation time: 0 hr 22 min 36 sec) 
Heartbeat CPU 0 instructions: 39000001 cycles: 41947516 heartbeat IPC: 1.10195 cumulative IPC: 0.77827 (Simulation time: 0 hr 23 min 5 sec) 
Heartbeat CPU 0 instructions: 40000000 cycles: 42881461 heartbeat IPC: 1.07073 cumulative IPC: 0.785421 (Simulation time: 0 hr 23 min 38 sec) 
Heartbeat CPU 0 instructions: 41000002 cycles: 43851398 heartbeat IPC: 1.031 cumulative IPC: 0.791502 (Simulation time: 0 hr 24 min 7 sec) 
Heartbeat CPU 0 instructions: 42000001 cycles: 44815030 heartbeat IPC: 1.03774 cumulative IPC: 0.797415 (Simulation time: 0 hr 24 min 36 sec) 
Heartbeat CPU 0 instructions: 43000001 cycles: 45767786 heartbeat IPC: 1.04959 cumulative IPC: 0.803263 (Simulation time: 0 hr 25 min 4 sec) 
Heartbeat CPU 0 instructions: 44000000 cycles: 46750734 heartbeat IPC: 1.01735 cumulative IPC: 0.808266 (Simulation time: 0 hr 25 min 36 sec) 
Heartbeat CPU 0 instructions: 45000001 cycles: 47678019 heartbeat IPC: 1.07842 cumulative IPC: 0.814093 (Simulation time: 0 hr 26 min 3 sec) 
Heartbeat CPU 0 instructions: 46000000 cycles: 48588187 heartbeat IPC: 1.0987 cumulative IPC: 0.819993 (Simulation time: 0 hr 26 min 37 sec) 
Heartbeat CPU 0 instructions: 47000000 cycles: 49470980 heartbeat IPC: 1.13277 cumulative IPC: 0.826158 (Simulation time: 0 hr 27 min 8 sec) 
Heartbeat CPU 0 instructions: 48000000 cycles: 50380653 heartbeat IPC: 1.0993 cumulative IPC: 0.831596 (Simulation time: 0 hr 27 min 38 sec) 
Heartbeat CPU 0 instructions: 49000001 cycles: 51322620 heartbeat IPC: 1.06161 cumulative IPC: 0.836241 (Simulation time: 0 hr 28 min 11 sec) 
Heartbeat CPU 0 instructions: 50000003 cycles: 52304800 heartbeat IPC: 1.01815 cumulative IPC: 0.839993 (Simulation time: 0 hr 28 min 40 sec) 
Heartbeat CPU 0 instructions: 51000002 cycles: 53262347 heartbeat IPC: 1.04433 cumulative IPC: 0.844021 (Simulation time: 0 hr 29 min 10 sec) 
Heartbeat CPU 0 instructions: 52000000 cycles: 54228113 heartbeat IPC: 1.03545 cumulative IPC: 0.847753 (Simulation time: 0 hr 29 min 45 sec) 
Heartbeat CPU 0 instructions: 53000001 cycles: 55207430 heartbeat IPC: 1.02112 cumulative IPC: 0.851113 (Simulation time: 0 hr 30 min 18 sec) 
Heartbeat CPU 0 instructions: 54000003 cycles: 56192677 heartbeat IPC: 1.01498 cumulative IPC: 0.854248 (Simulation time: 0 hr 30 min 52 sec) 
Heartbeat CPU 0 instructions: 55000000 cycles: 57156972 heartbeat IPC: 1.03702 cumulative IPC: 0.857607 (Simulation time: 0 hr 31 min 22 sec) 
Heartbeat CPU 0 instructions: 56000000 cycles: 58134581 heartbeat IPC: 1.0229 cumulative IPC: 0.86063 (Simulation time: 0 hr 31 min 56 sec) 
Heartbeat CPU 0 instructions: 57000002 cycles: 59105277 heartbeat IPC: 1.03019 cumulative IPC: 0.863655 (Simulation time: 0 hr 32 min 27 sec) 
Heartbeat CPU 0 instructions: 58000003 cycles: 60080107 heartbeat IPC: 1.02582 cumulative IPC: 0.866508 (Simulation time: 0 hr 32 min 56 sec) 
Heartbeat CPU 0 instructions: 59000003 cycles: 61111931 heartbeat IPC: 0.969158 cumulative IPC: 0.868385 (Simulation time: 0 hr 33 min 33 sec) 
Heartbeat CPU 0 instructions: 60000000 cycles: 62320955 heartbeat IPC: 0.827111 cumulative IPC: 0.86752 (Simulation time: 0 hr 34 min 15 sec) 
Heartbeat CPU 0 instructions: 61000000 cycles: 63528580 heartbeat IPC: 0.828072 cumulative IPC: 0.86671 (Simulation time: 0 hr 34 min 58 sec) 
Heartbeat CPU 0 instructions: 62000003 cycles: 64753305 heartbeat IPC: 0.816512 cumulative IPC: 0.865687 (Simulation time: 0 hr 35 min 39 sec) 
Heartbeat CPU 0 instructions: 63000001 cycles: 65984587 heartbeat IPC: 0.81216 cumulative IPC: 0.864611 (Simulation time: 0 hr 36 min 21 sec) 
Heartbeat CPU 0 instructions: 64000000 cycles: 67306633 heartbeat IPC: 0.756403 cumulative IPC: 0.862327 (Simulation time: 0 hr 37 min 2 sec) 
Heartbeat CPU 0 instructions: 65000001 cycles: 68511479 heartbeat IPC: 0.829982 cumulative IPC: 0.861716 (Simulation time: 0 hr 37 min 45 sec) 
Heartbeat CPU 0 instructions: 66000003 cycles: 69714112 heartbeat IPC: 0.831511 cumulative IPC: 0.861158 (Simulation time: 0 hr 38 min 27 sec) 
Heartbeat CPU 0 instructions: 67000000 cycles: 70925764 heartbeat IPC: 0.825317 cumulative IPC: 0.860502 (Simulation time: 0 hr 39 min 7 sec) 
Heartbeat CPU 0 instructions: 68000000 cycles: 72239726 heartbeat IPC: 0.761057 cumulative IPC: 0.858568 (Simulation time: 0 hr 39 min 40 sec) 
Heartbeat CPU 0 instructions: 69000000 cycles: 73436660 heartbeat IPC: 0.835468 cumulative IPC: 0.858166 (Simulation time: 0 hr 40 min 16 sec) 
Heartbeat CPU 0 instructions: 70000002 cycles: 74639305 heartbeat IPC: 0.831502 cumulative IPC: 0.857707 (Simulation time: 0 hr 40 min 56 sec) 
Heartbeat CPU 0 instructions: 71000003 cycles: 75846315 heartbeat IPC: 0.828494 cumulative IPC: 0.857212 (Simulation time: 0 hr 41 min 35 sec) 
Heartbeat CPU 0 instructions: 72000000 cycles: 77054726 heartbeat IPC: 0.827531 cumulative IPC: 0.856716 (Simulation time: 0 hr 42 min 12 sec) 
Heartbeat CPU 0 instructions: 73000002 cycles: 78358177 heartbeat IPC: 0.767196 cumulative IPC: 0.855132 (Simulation time: 0 hr 42 min 51 sec) 
Heartbeat CPU 0 instructions: 74000000 cycles: 79557782 heartbeat IPC: 0.833606 cumulative IPC: 0.854788 (Simulation time: 0 hr 43 min 34 sec) 
Heartbeat CPU 0 instructions: 75000001 cycles: 80759171 heartbeat IPC: 0.832371 cumulative IPC: 0.854433 (Simulation time: 0 hr 44 min 16 sec) 
Heartbeat CPU 0 instructions: 76000000 cycles: 81968494 heartbeat IPC: 0.826908 cumulative IPC: 0.854003 (Simulation time: 0 hr 44 min 53 sec) 
Heartbeat CPU 0 instructions: 77000001 cycles: 83225597 heartbeat IPC: 0.795481 cumulative IPC: 0.853066 (Simulation time: 0 hr 45 min 31 sec) 
Heartbeat CPU 0 instructions: 78000003 cycles: 84396359 heartbeat IPC: 0.854146 cumulative IPC: 0.853082 (Simulation time: 0 hr 45 min 57 sec) 
Heartbeat CPU 0 instructions: 79000000 cycles: 85315237 heartbeat IPC: 1.08828 cumulative IPC: 0.855762 (Simulation time: 0 hr 46 min 26 sec) 
Heartbeat CPU 0 instructions: 80000000 cycles: 86218687 heartbeat IPC: 1.10687 cumulative IPC: 0.858545 (Simulation time: 0 hr 47 min 1 sec) 
Heartbeat CPU 0 instructions: 81000000 cycles: 87064428 heartbeat IPC: 1.1824 cumulative IPC: 0.86187 (Simulation time: 0 hr 47 min 30 sec) 
Heartbeat CPU 0 instructions: 82000001 cycles: 87956264 heartbeat IPC: 1.12128 cumulative IPC: 0.864648 (Simulation time: 0 hr 48 min 0 sec) 
Heartbeat CPU 0 instructions: 83000000 cycles: 88880518 heartbeat IPC: 1.08195 cumulative IPC: 0.867033 (Simulation time: 0 hr 48 min 27 sec) 
Heartbeat CPU 0 instructions: 84000000 cycles: 89797717 heartbeat IPC: 1.09028 cumulative IPC: 0.869439 (Simulation time: 0 hr 48 min 58 sec) 
Heartbeat CPU 0 instructions: 85000002 cycles: 90733570 heartbeat IPC: 1.06855 cumulative IPC: 0.871605 (Simulation time: 0 hr 49 min 36 sec) 
Heartbeat CPU 0 instructions: 86000002 cycles: 91662962 heartbeat IPC: 1.07597 cumulative IPC: 0.873788 (Simulation time: 0 hr 50 min 17 sec) 
Heartbeat CPU 0 instructions: 87000002 cycles: 92592783 heartbeat IPC: 1.07548 cumulative IPC: 0.875922 (Simulation time: 0 hr 50 min 58 sec) 
Heartbeat CPU 0 instructions: 88000000 cycles: 93641022 heartbeat IPC: 0.953979 cumulative IPC: 0.876841 (Simulation time: 0 hr 51 min 38 sec) 
Heartbeat CPU 0 instructions: 89000002 cycles: 94731426 heartbeat IPC: 0.917093 cumulative IPC: 0.877329 (Simulation time: 0 hr 52 min 19 sec) 
Heartbeat CPU 0 instructions: 90000001 cycles: 95818830 heartbeat IPC: 0.919621 cumulative IPC: 0.877833 (Simulation time: 0 hr 53 min 1 sec) 
Heartbeat CPU 0 instructions: 91000001 cycles: 96913272 heartbeat IPC: 0.913708 cumulative IPC: 0.878259 (Simulation time: 0 hr 53 min 43 sec) 
Heartbeat CPU 0 instructions: 92000000 cycles: 97997423 heartbeat IPC: 0.92238 cumulative IPC: 0.878772 (Simulation time: 0 hr 54 min 22 sec) 
Heartbeat CPU 0 instructions: 93000001 cycles: 99079679 heartbeat IPC: 0.923997 cumulative IPC: 0.87929 (Simulation time: 0 hr 54 min 58 sec) 
Heartbeat CPU 0 instructions: 94000001 cycles: 100159813 heartbeat IPC: 0.925811 cumulative IPC: 0.879817 (Simulation time: 0 hr 55 min 36 sec) 
Heartbeat CPU 0 instructions: 95000000 cycles: 101243727 heartbeat IPC: 0.922581 cumulative IPC: 0.880297 (Simulation time: 0 hr 56 min 13 sec) 
Heartbeat CPU 0 instructions: 96000000 cycles: 102323651 heartbeat IPC: 0.925991 cumulative IPC: 0.880802 (Simulation time: 0 hr 56 min 51 sec) 
Heartbeat CPU 0 instructions: 97000002 cycles: 103406055 heartbeat IPC: 0.923871 cumulative IPC: 0.881274 (Simulation time: 0 hr 57 min 24 sec) 
Heartbeat CPU 0 instructions: 98000002 cycles: 104488282 heartbeat IPC: 0.924021 cumulative IPC: 0.881738 (Simulation time: 0 hr 58 min 4 sec) 
Heartbeat CPU 0 instructions: 99000000 cycles: 105569433 heartbeat IPC: 0.924938 cumulative IPC: 0.882201 (Simulation time: 0 hr 58 min 44 sec) 
Heartbeat CPU 0 instructions: 100000000 cycles: 106654578 heartbeat IPC: 0.921536 cumulative IPC: 0.882619 (Simulation time: 0 hr 59 min 27 sec) 
Heartbeat CPU 0 instructions: 101000000 cycles: 107741558 heartbeat IPC: 0.91998 cumulative IPC: 0.883013 (Simulation time: 1 hr 0 min 7 sec) 
Heartbeat CPU 0 instructions: 102000000 cycles: 108831039 heartbeat IPC: 0.917868 cumulative IPC: 0.883378 (Simulation time: 1 hr 0 min 46 sec) 
Heartbeat CPU 0 instructions: 103000002 cycles: 109919646 heartbeat IPC: 0.918607 cumulative IPC: 0.883743 (Simulation time: 1 hr 1 min 26 sec) 
Heartbeat CPU 0 instructions: 104000000 cycles: 111008055 heartbeat IPC: 0.91877 cumulative IPC: 0.884101 (Simulation time: 1 hr 2 min 10 sec) 
Heartbeat CPU 0 instructions: 105000003 cycles: 112101979 heartbeat IPC: 0.914143 cumulative IPC: 0.884407 (Simulation time: 1 hr 2 min 49 sec) 
Heartbeat CPU 0 instructions: 106000002 cycles: 113198166 heartbeat IPC: 0.912252 cumulative IPC: 0.884688 (Simulation time: 1 hr 3 min 27 sec) 
Heartbeat CPU 0 instructions: 107000001 cycles: 114281782 heartbeat IPC: 0.922835 cumulative IPC: 0.885065 (Simulation time: 1 hr 4 min 3 sec) 
Heartbeat CPU 0 instructions: 108000000 cycles: 115375716 heartbeat IPC: 0.914131 cumulative IPC: 0.885353 (Simulation time: 1 hr 4 min 39 sec) 
Heartbeat CPU 0 instructions: 109000001 cycles: 116470565 heartbeat IPC: 0.913369 cumulative IPC: 0.885627 (Simulation time: 1 hr 5 min 13 sec) 
Heartbeat CPU 0 instructions: 110000002 cycles: 117569541 heartbeat IPC: 0.909939 cumulative IPC: 0.885864 (Simulation time: 1 hr 5 min 47 sec) 
Finished CPU 0 instructions: 100000000 cycles: 112884165 cummulative IPC: 0.885864 (Simulation time: 1 hr 5 min 47 sec) 

ChampSim completed all CPUs

Region of Interest Statistics

CPU 0 cummulative IPC: 0.885864 instructions: 100000000 cycles: 112884165
LLC TOTAL     ACCESS:    2346831  HIT:    2033866  MISS:     312965
LLC LOAD      ACCESS:     882478  HIT:     845030  MISS:      37448
LLC RFO       ACCESS:     180753  HIT:     113104  MISS:      67649
LLC PREFETCH  ACCESS:    1098734  HIT:     909810  MISS:     188924
LLC WRITEBACK ACCESS:     184866  HIT:     165922  MISS:      18944
