
*** ChampSim Multicore Out-of-Order Simulator ***

Warmup Instructions: 10000000
Simulation Instructions: 100000000
Configuration: 2
Number of CPUs: 1
LLC sets: 2048
LLC ways: 16
Off-chip DRAM Channels: 1 Width: 64-bit Data Rate: 1600 MT/s

CPU 0 runs /datasets/cs240c-wi22-a00-public/data/Assignment2-gz/zeusmp_100B.trace.gz
CPU 0 L1D next line prefetcher
CPU 0 L2C IP-based stride prefetcher
Heartbeat CPU 0 instructions: 1000002 cycles: 462677 heartbeat IPC: 2.16134 cumulative IPC: 2.16134 (Simulation time: 0 hr 0 min 36 sec) 
Heartbeat CPU 0 instructions: 2000001 cycles: 925467 heartbeat IPC: 2.16081 cumulative IPC: 2.16107 (Simulation time: 0 hr 1 min 9 sec) 
Heartbeat CPU 0 instructions: 3000003 cycles: 1388498 heartbeat IPC: 2.15969 cumulative IPC: 2.16061 (Simulation time: 0 hr 1 min 46 sec) 
Heartbeat CPU 0 instructions: 4000000 cycles: 1851228 heartbeat IPC: 2.16108 cumulative IPC: 2.16073 (Simulation time: 0 hr 2 min 20 sec) 
Heartbeat CPU 0 instructions: 5000003 cycles: 2314155 heartbeat IPC: 2.16017 cumulative IPC: 2.16062 (Simulation time: 0 hr 2 min 55 sec) 
Heartbeat CPU 0 instructions: 6000001 cycles: 2776976 heartbeat IPC: 2.16066 cumulative IPC: 2.16062 (Simulation time: 0 hr 3 min 30 sec) 
Heartbeat CPU 0 instructions: 7000001 cycles: 3239712 heartbeat IPC: 2.16106 cumulative IPC: 2.16069 (Simulation time: 0 hr 4 min 5 sec) 
Heartbeat CPU 0 instructions: 8000000 cycles: 3702616 heartbeat IPC: 2.16027 cumulative IPC: 2.16063 (Simulation time: 0 hr 4 min 41 sec) 
Heartbeat CPU 0 instructions: 9000003 cycles: 4165394 heartbeat IPC: 2.16087 cumulative IPC: 2.16066 (Simulation time: 0 hr 5 min 16 sec) 
Heartbeat CPU 0 instructions: 10000001 cycles: 4628718 heartbeat IPC: 2.15831 cumulative IPC: 2.16043 (Simulation time: 0 hr 5 min 52 sec) 

Warmup complete CPU 0 instructions: 10000001 cycles: 4628718 (Simulation time: 0 hr 5 min 52 sec) 

Heartbeat CPU 0 instructions: 11000000 cycles: 5316236 heartbeat IPC: 1.45451 cumulative IPC: 1.45451 (Simulation time: 0 hr 6 min 31 sec) 
Heartbeat CPU 0 instructions: 12000000 cycles: 6012465 heartbeat IPC: 1.43631 cumulative IPC: 1.44535 (Simulation time: 0 hr 7 min 7 sec) 
Heartbeat CPU 0 instructions: 13000001 cycles: 6722468 heartbeat IPC: 1.40845 cumulative IPC: 1.43284 (Simulation time: 0 hr 7 min 44 sec) 
Heartbeat CPU 0 instructions: 14000003 cycles: 7426248 heartbeat IPC: 1.4209 cumulative IPC: 1.42983 (Simulation time: 0 hr 8 min 20 sec) 
Heartbeat CPU 0 instructions: 15000002 cycles: 8129589 heartbeat IPC: 1.42178 cumulative IPC: 1.42822 (Simulation time: 0 hr 8 min 56 sec) 
Heartbeat CPU 0 instructions: 16000000 cycles: 8832852 heartbeat IPC: 1.42194 cumulative IPC: 1.42717 (Simulation time: 0 hr 9 min 32 sec) 
Heartbeat CPU 0 instructions: 17000003 cycles: 9613574 heartbeat IPC: 1.28087 cumulative IPC: 1.40425 (Simulation time: 0 hr 10 min 11 sec) 
Heartbeat CPU 0 instructions: 18000000 cycles: 10310032 heartbeat IPC: 1.43583 cumulative IPC: 1.40812 (Simulation time: 0 hr 10 min 48 sec) 
Heartbeat CPU 0 instructions: 19000002 cycles: 11010314 heartbeat IPC: 1.428 cumulative IPC: 1.41031 (Simulation time: 0 hr 11 min 22 sec) 
Heartbeat CPU 0 instructions: 20000000 cycles: 11700865 heartbeat IPC: 1.44812 cumulative IPC: 1.414 (Simulation time: 0 hr 11 min 57 sec) 
Heartbeat CPU 0 instructions: 21000001 cycles: 12404885 heartbeat IPC: 1.42042 cumulative IPC: 1.41458 (Simulation time: 0 hr 12 min 34 sec) 
Heartbeat CPU 0 instructions: 22000001 cycles: 13096608 heartbeat IPC: 1.44567 cumulative IPC: 1.41712 (Simulation time: 0 hr 13 min 16 sec) 
Heartbeat CPU 0 instructions: 23000002 cycles: 13811574 heartbeat IPC: 1.39867 cumulative IPC: 1.41568 (Simulation time: 0 hr 13 min 57 sec) 
Heartbeat CPU 0 instructions: 24000000 cycles: 14509095 heartbeat IPC: 1.43365 cumulative IPC: 1.41695 (Simulation time: 0 hr 14 min 49 sec) 
Heartbeat CPU 0 instructions: 25000001 cycles: 15217908 heartbeat IPC: 1.41081 cumulative IPC: 1.41654 (Simulation time: 0 hr 15 min 44 sec) 
Heartbeat CPU 0 instructions: 26000001 cycles: 15916083 heartbeat IPC: 1.43231 cumulative IPC: 1.41751 (Simulation time: 0 hr 16 min 40 sec) 
Heartbeat CPU 0 instructions: 27000000 cycles: 16632110 heartbeat IPC: 1.39659 cumulative IPC: 1.41627 (Simulation time: 0 hr 17 min 25 sec) 
Heartbeat CPU 0 instructions: 28000000 cycles: 17333317 heartbeat IPC: 1.42611 cumulative IPC: 1.41681 (Simulation time: 0 hr 18 min 9 sec) 
Heartbeat CPU 0 instructions: 29000000 cycles: 18030036 heartbeat IPC: 1.4353 cumulative IPC: 1.41777 (Simulation time: 0 hr 18 min 49 sec) 
Heartbeat CPU 0 instructions: 30000003 cycles: 18742247 heartbeat IPC: 1.40408 cumulative IPC: 1.41708 (Simulation time: 0 hr 19 min 25 sec) 
Heartbeat CPU 0 instructions: 31000000 cycles: 19440133 heartbeat IPC: 1.43289 cumulative IPC: 1.41783 (Simulation time: 0 hr 20 min 4 sec) 
Heartbeat CPU 0 instructions: 32000000 cycles: 20155583 heartbeat IPC: 1.39772 cumulative IPC: 1.4169 (Simulation time: 0 hr 20 min 40 sec) 
Heartbeat CPU 0 instructions: 33000002 cycles: 20854323 heartbeat IPC: 1.43115 cumulative IPC: 1.41751 (Simulation time: 0 hr 21 min 13 sec) 
Heartbeat CPU 0 instructions: 34000002 cycles: 21567338 heartbeat IPC: 1.4025 cumulative IPC: 1.41688 (Simulation time: 0 hr 21 min 50 sec) 
Heartbeat CPU 0 instructions: 35000003 cycles: 22270048 heartbeat IPC: 1.42306 cumulative IPC: 1.41713 (Simulation time: 0 hr 22 min 25 sec) 
Heartbeat CPU 0 instructions: 36000000 cycles: 22984761 heartbeat IPC: 1.39916 cumulative IPC: 1.41643 (Simulation time: 0 hr 22 min 55 sec) 
Heartbeat CPU 0 instructions: 37000001 cycles: 23689177 heartbeat IPC: 1.41962 cumulative IPC: 1.41655 (Simulation time: 0 hr 23 min 31 sec) 
Heartbeat CPU 0 instructions: 38000003 cycles: 24405663 heartbeat IPC: 1.3957 cumulative IPC: 1.41579 (Simulation time: 0 hr 24 min 8 sec) 
Heartbeat CPU 0 instructions: 39000001 cycles: 25107852 heartbeat IPC: 1.42412 cumulative IPC: 1.41608 (Simulation time: 0 hr 24 min 43 sec) 
Heartbeat CPU 0 instructions: 40000000 cycles: 25825783 heartbeat IPC: 1.39289 cumulative IPC: 1.41529 (Simulation time: 0 hr 25 min 17 sec) 
Heartbeat CPU 0 instructions: 41000002 cycles: 26528428 heartbeat IPC: 1.4232 cumulative IPC: 1.41554 (Simulation time: 0 hr 25 min 51 sec) 
Heartbeat CPU 0 instructions: 42000001 cycles: 27229291 heartbeat IPC: 1.42681 cumulative IPC: 1.41589 (Simulation time: 0 hr 26 min 27 sec) 
Heartbeat CPU 0 instructions: 43000003 cycles: 27947512 heartbeat IPC: 1.39233 cumulative IPC: 1.41517 (Simulation time: 0 hr 27 min 1 sec) 
Heartbeat CPU 0 instructions: 44000000 cycles: 28650343 heartbeat IPC: 1.42281 cumulative IPC: 1.41539 (Simulation time: 0 hr 27 min 36 sec) 
Heartbeat CPU 0 instructions: 45000001 cycles: 29367010 heartbeat IPC: 1.39535 cumulative IPC: 1.41481 (Simulation time: 0 hr 28 min 12 sec) 
Heartbeat CPU 0 instructions: 46000002 cycles: 30070091 heartbeat IPC: 1.42231 cumulative IPC: 1.41502 (Simulation time: 0 hr 28 min 48 sec) 
Heartbeat CPU 0 instructions: 47000003 cycles: 30786265 heartbeat IPC: 1.39631 cumulative IPC: 1.41451 (Simulation time: 0 hr 29 min 23 sec) 
Heartbeat CPU 0 instructions: 48000000 cycles: 31486076 heartbeat IPC: 1.42895 cumulative IPC: 1.41488 (Simulation time: 0 hr 29 min 58 sec) 
Heartbeat CPU 0 instructions: 49000001 cycles: 32202224 heartbeat IPC: 1.39636 cumulative IPC: 1.4144 (Simulation time: 0 hr 30 min 36 sec) 
Heartbeat CPU 0 instructions: 50000001 cycles: 32907137 heartbeat IPC: 1.41861 cumulative IPC: 1.41451 (Simulation time: 0 hr 31 min 14 sec) 
Heartbeat CPU 0 instructions: 51000002 cycles: 33622594 heartbeat IPC: 1.39771 cumulative IPC: 1.41409 (Simulation time: 0 hr 31 min 48 sec) 
Heartbeat CPU 0 instructions: 52000000 cycles: 34323208 heartbeat IPC: 1.42732 cumulative IPC: 1.4144 (Simulation time: 0 hr 32 min 21 sec) 
Heartbeat CPU 0 instructions: 53000001 cycles: 35038658 heartbeat IPC: 1.39772 cumulative IPC: 1.41401 (Simulation time: 0 hr 32 min 58 sec) 
Heartbeat CPU 0 instructions: 54000001 cycles: 35741738 heartbeat IPC: 1.42231 cumulative IPC: 1.4142 (Simulation time: 0 hr 33 min 36 sec) 
Heartbeat CPU 0 instructions: 55000003 cycles: 36449907 heartbeat IPC: 1.4121 cumulative IPC: 1.41415 (Simulation time: 0 hr 34 min 11 sec) 
Heartbeat CPU 0 instructions: 56000000 cycles: 37162026 heartbeat IPC: 1.40426 cumulative IPC: 1.41394 (Simulation time: 0 hr 34 min 46 sec) 
Heartbeat CPU 0 instructions: 57000003 cycles: 37863517 heartbeat IPC: 1.42554 cumulative IPC: 1.41418 (Simulation time: 0 hr 35 min 20 sec) 
Heartbeat CPU 0 instructions: 58000003 cycles: 38575572 heartbeat IPC: 1.40439 cumulative IPC: 1.41398 (Simulation time: 0 hr 35 min 55 sec) 
Heartbeat CPU 0 instructions: 59000000 cycles: 39271504 heartbeat IPC: 1.43692 cumulative IPC: 1.41444 (Simulation time: 0 hr 36 min 32 sec) 
Heartbeat CPU 0 instructions: 60000000 cycles: 39988609 heartbeat IPC: 1.3945 cumulative IPC: 1.41403 (Simulation time: 0 hr 37 min 15 sec) 
Heartbeat CPU 0 instructions: 61000000 cycles: 40690160 heartbeat IPC: 1.42541 cumulative IPC: 1.41425 (Simulation time: 0 hr 37 min 54 sec) 
Heartbeat CPU 0 instructions: 62000001 cycles: 41403664 heartbeat IPC: 1.40154 cumulative IPC: 1.41401 (Simulation time: 0 hr 38 min 33 sec) 
Heartbeat CPU 0 instructions: 63000001 cycles: 42103081 heartbeat IPC: 1.42976 cumulative IPC: 1.4143 (Simulation time: 0 hr 39 min 11 sec) 
Heartbeat CPU 0 instructions: 64000000 cycles: 42816926 heartbeat IPC: 1.40086 cumulative IPC: 1.41405 (Simulation time: 0 hr 39 min 50 sec) 
Heartbeat CPU 0 instructions: 65000003 cycles: 43515189 heartbeat IPC: 1.43213 cumulative IPC: 1.41437 (Simulation time: 0 hr 40 min 27 sec) 
Heartbeat CPU 0 instructions: 66000003 cycles: 44224909 heartbeat IPC: 1.40901 cumulative IPC: 1.41428 (Simulation time: 0 hr 41 min 6 sec) 
Heartbeat CPU 0 instructions: 67000000 cycles: 44922490 heartbeat IPC: 1.43352 cumulative IPC: 1.41461 (Simulation time: 0 hr 41 min 45 sec) 
Heartbeat CPU 0 instructions: 68000000 cycles: 45629159 heartbeat IPC: 1.41509 cumulative IPC: 1.41462 (Simulation time: 0 hr 42 min 24 sec) 
Heartbeat CPU 0 instructions: 69000000 cycles: 46331504 heartbeat IPC: 1.4238 cumulative IPC: 1.41477 (Simulation time: 0 hr 43 min 0 sec) 
Heartbeat CPU 0 instructions: 70000003 cycles: 47027675 heartbeat IPC: 1.43643 cumulative IPC: 1.41513 (Simulation time: 0 hr 43 min 38 sec) 
Heartbeat CPU 0 instructions: 71000003 cycles: 47737125 heartbeat IPC: 1.40954 cumulative IPC: 1.41504 (Simulation time: 0 hr 44 min 15 sec) 
Heartbeat CPU 0 instructions: 72000000 cycles: 48437027 heartbeat IPC: 1.42877 cumulative IPC: 1.41526 (Simulation time: 0 hr 44 min 52 sec) 
Heartbeat CPU 0 instructions: 73000003 cycles: 49149906 heartbeat IPC: 1.40277 cumulative IPC: 1.41506 (Simulation time: 0 hr 45 min 31 sec) 
Heartbeat CPU 0 instructions: 74000003 cycles: 49849018 heartbeat IPC: 1.43039 cumulative IPC: 1.41529 (Simulation time: 0 hr 46 min 12 sec) 
Heartbeat CPU 0 instructions: 75000003 cycles: 50557395 heartbeat IPC: 1.41168 cumulative IPC: 1.41524 (Simulation time: 0 hr 46 min 50 sec) 
Heartbeat CPU 0 instructions: 76000000 cycles: 51261633 heartbeat IPC: 1.41997 cumulative IPC: 1.41531 (Simulation time: 0 hr 47 min 27 sec) 
Heartbeat CPU 0 instructions: 77000000 cycles: 51985215 heartbeat IPC: 1.38201 cumulative IPC: 1.4148 (Simulation time: 0 hr 48 min 6 sec) 
Heartbeat CPU 0 instructions: 78000002 cycles: 52687822 heartbeat IPC: 1.42327 cumulative IPC: 1.41492 (Simulation time: 0 hr 48 min 42 sec) 
Heartbeat CPU 0 instructions: 79000000 cycles: 53397630 heartbeat IPC: 1.40883 cumulative IPC: 1.41484 (Simulation time: 0 hr 49 min 22 sec) 
Heartbeat CPU 0 instructions: 80000000 cycles: 54093915 heartbeat IPC: 1.43619 cumulative IPC: 1.41514 (Simulation time: 0 hr 49 min 59 sec) 
Heartbeat CPU 0 instructions: 81000003 cycles: 54811561 heartbeat IPC: 1.39345 cumulative IPC: 1.41483 (Simulation time: 0 hr 50 min 39 sec) 
Heartbeat CPU 0 instructions: 82000000 cycles: 55511731 heartbeat IPC: 1.42822 cumulative IPC: 1.41501 (Simulation time: 0 hr 51 min 18 sec) 
Heartbeat CPU 0 instructions: 83000002 cycles: 56205362 heartbeat IPC: 1.44169 cumulative IPC: 1.41537 (Simulation time: 0 hr 51 min 55 sec) 
Heartbeat CPU 0 instructions: 84000000 cycles: 56912311 heartbeat IPC: 1.41453 cumulative IPC: 1.41536 (Simulation time: 0 hr 52 min 31 sec) 
Heartbeat CPU 0 instructions: 85000001 cycles: 57607085 heartbeat IPC: 1.43932 cumulative IPC: 1.41567 (Simulation time: 0 hr 53 min 21 sec) 
Heartbeat CPU 0 instructions: 86000001 cycles: 58320978 heartbeat IPC: 1.40077 cumulative IPC: 1.41547 (Simulation time: 0 hr 54 min 10 sec) 
Heartbeat CPU 0 instructions: 87000001 cycles: 59024352 heartbeat IPC: 1.42172 cumulative IPC: 1.41555 (Simulation time: 0 hr 55 min 0 sec) 
Heartbeat CPU 0 instructions: 88000000 cycles: 59733145 heartbeat IPC: 1.41085 cumulative IPC: 1.41549 (Simulation time: 0 hr 55 min 53 sec) 
Heartbeat CPU 0 instructions: 89000003 cycles: 60430354 heartbeat IPC: 1.43429 cumulative IPC: 1.41573 (Simulation time: 0 hr 56 min 38 sec) 
Heartbeat CPU 0 instructions: 90000001 cycles: 61141105 heartbeat IPC: 1.40696 cumulative IPC: 1.41562 (Simulation time: 0 hr 57 min 15 sec) 
Heartbeat CPU 0 instructions: 91000003 cycles: 61845478 heartbeat IPC: 1.41971 cumulative IPC: 1.41567 (Simulation time: 0 hr 57 min 54 sec) 
Heartbeat CPU 0 instructions: 92000000 cycles: 62558907 heartbeat IPC: 1.40168 cumulative IPC: 1.4155 (Simulation time: 0 hr 58 min 31 sec) 
Heartbeat CPU 0 instructions: 93000001 cycles: 63260197 heartbeat IPC: 1.42595 cumulative IPC: 1.41562 (Simulation time: 0 hr 59 min 8 sec) 
Heartbeat CPU 0 instructions: 94000003 cycles: 63972304 heartbeat IPC: 1.40429 cumulative IPC: 1.41549 (Simulation time: 0 hr 59 min 47 sec) 
Heartbeat CPU 0 instructions: 95000003 cycles: 64677932 heartbeat IPC: 1.41718 cumulative IPC: 1.41551 (Simulation time: 1 hr 0 min 20 sec) 
Heartbeat CPU 0 instructions: 96000000 cycles: 65386817 heartbeat IPC: 1.41066 cumulative IPC: 1.41545 (Simulation time: 1 hr 0 min 54 sec) 
Heartbeat CPU 0 instructions: 97000000 cycles: 66096265 heartbeat IPC: 1.40955 cumulative IPC: 1.41538 (Simulation time: 1 hr 1 min 26 sec) 
Heartbeat CPU 0 instructions: 98000001 cycles: 66791445 heartbeat IPC: 1.43848 cumulative IPC: 1.41564 (Simulation time: 1 hr 1 min 55 sec) 
Heartbeat CPU 0 instructions: 99000001 cycles: 67515313 heartbeat IPC: 1.38147 cumulative IPC: 1.41525 (Simulation time: 1 hr 2 min 31 sec) 
Heartbeat CPU 0 instructions: 100000000 cycles: 68231817 heartbeat IPC: 1.39566 cumulative IPC: 1.41503 (Simulation time: 1 hr 3 min 6 sec) 
Heartbeat CPU 0 instructions: 101000002 cycles: 68963553 heartbeat IPC: 1.36662 cumulative IPC: 1.41447 (Simulation time: 1 hr 3 min 35 sec) 
Heartbeat CPU 0 instructions: 102000003 cycles: 69687379 heartbeat IPC: 1.38155 cumulative IPC: 1.41411 (Simulation time: 1 hr 4 min 4 sec) 
Heartbeat CPU 0 instructions: 103000001 cycles: 70433137 heartbeat IPC: 1.34091 cumulative IPC: 1.41328 (Simulation time: 1 hr 4 min 34 sec) 
Heartbeat CPU 0 instructions: 104000000 cycles: 71153497 heartbeat IPC: 1.38819 cumulative IPC: 1.41301 (Simulation time: 1 hr 5 min 4 sec) 
Heartbeat CPU 0 instructions: 105000003 cycles: 71880220 heartbeat IPC: 1.37604 cumulative IPC: 1.41261 (Simulation time: 1 hr 5 min 33 sec) 
Heartbeat CPU 0 instructions: 106000002 cycles: 72602468 heartbeat IPC: 1.38456 cumulative IPC: 1.41231 (Simulation time: 1 hr 6 min 1 sec) 
Heartbeat CPU 0 instructions: 107000000 cycles: 73323917 heartbeat IPC: 1.3861 cumulative IPC: 1.41203 (Simulation time: 1 hr 6 min 30 sec) 
Heartbeat CPU 0 instructions: 108000000 cycles: 74029672 heartbeat IPC: 1.41692 cumulative IPC: 1.41208 (Simulation time: 1 hr 7 min 0 sec) 
Heartbeat CPU 0 instructions: 109000002 cycles: 74727181 heartbeat IPC: 1.43368 cumulative IPC: 1.4123 (Simulation time: 1 hr 7 min 27 sec) 
Heartbeat CPU 0 instructions: 110000000 cycles: 75438542 heartbeat IPC: 1.40575 cumulative IPC: 1.41223 (Simulation time: 1 hr 7 min 56 sec) 
Finished CPU 0 instructions: 100000003 cycles: 70809825 cummulative IPC: 1.41223 (Simulation time: 1 hr 7 min 56 sec) 

ChampSim completed all CPUs

Region of Interest Statistics

CPU 0 cummulative IPC: 1.41223 instructions: 100000003 cycles: 70809825
LLC TOTAL     ACCESS:     833115  HIT:     126832  MISS:     706283
LLC LOAD      ACCESS:      26383  HIT:      10106  MISS:      16277
LLC RFO       ACCESS:     201602  HIT:       8267  MISS:     193335
LLC PREFETCH  ACCESS:     401964  HIT:       3053  MISS:     398911
LLC WRITEBACK ACCESS:     203166  HIT:     105406  MISS:      97760
