
*** ChampSim Multicore Out-of-Order Simulator ***

Warmup Instructions: 10000000
Simulation Instructions: 100000000
Configuration: 2
Number of CPUs: 1
LLC sets: 2048
LLC ways: 16
Off-chip DRAM Channels: 1 Width: 64-bit Data Rate: 1600 MT/s

CPU 0 runs /datasets/cs240c-wi22-a00-public/data/Assignment2-gz/milc_409B.trace.gz
CPU 0 L1D next line prefetcher
CPU 0 L2C IP-based stride prefetcher
Heartbeat CPU 0 instructions: 1000002 cycles: 407040 heartbeat IPC: 2.45677 cumulative IPC: 2.45677 (Simulation time: 0 hr 0 min 37 sec) 
Heartbeat CPU 0 instructions: 2000002 cycles: 889867 heartbeat IPC: 2.07114 cumulative IPC: 2.24753 (Simulation time: 0 hr 1 min 19 sec) 
Heartbeat CPU 0 instructions: 3000003 cycles: 1672034 heartbeat IPC: 1.2785 cumulative IPC: 1.79422 (Simulation time: 0 hr 2 min 12 sec) 
Heartbeat CPU 0 instructions: 4000000 cycles: 2454291 heartbeat IPC: 1.27835 cumulative IPC: 1.6298 (Simulation time: 0 hr 3 min 2 sec) 
Heartbeat CPU 0 instructions: 5000000 cycles: 3135412 heartbeat IPC: 1.46817 cumulative IPC: 1.59469 (Simulation time: 0 hr 3 min 53 sec) 
Heartbeat CPU 0 instructions: 6000003 cycles: 3679804 heartbeat IPC: 1.83692 cumulative IPC: 1.63052 (Simulation time: 0 hr 4 min 35 sec) 
Heartbeat CPU 0 instructions: 7000002 cycles: 4224110 heartbeat IPC: 1.8372 cumulative IPC: 1.65715 (Simulation time: 0 hr 5 min 15 sec) 
Heartbeat CPU 0 instructions: 8000000 cycles: 4768518 heartbeat IPC: 1.83685 cumulative IPC: 1.67767 (Simulation time: 0 hr 5 min 55 sec) 
Heartbeat CPU 0 instructions: 9000003 cycles: 5312844 heartbeat IPC: 1.83714 cumulative IPC: 1.69401 (Simulation time: 0 hr 6 min 37 sec) 
Heartbeat CPU 0 instructions: 10000000 cycles: 5857232 heartbeat IPC: 1.83692 cumulative IPC: 1.70729 (Simulation time: 0 hr 7 min 20 sec) 

Warmup complete CPU 0 instructions: 10000002 cycles: 5857233 (Simulation time: 0 hr 7 min 20 sec) 

Heartbeat CPU 0 instructions: 11000002 cycles: 7522681 heartbeat IPC: 0.60044 cumulative IPC: 0.600439 (Simulation time: 0 hr 8 min 12 sec) 
Heartbeat CPU 0 instructions: 12000000 cycles: 9183444 heartbeat IPC: 0.602132 cumulative IPC: 0.601284 (Simulation time: 0 hr 8 min 57 sec) 
Heartbeat CPU 0 instructions: 13000003 cycles: 10840322 heartbeat IPC: 0.603547 cumulative IPC: 0.602036 (Simulation time: 0 hr 9 min 42 sec) 
Heartbeat CPU 0 instructions: 14000002 cycles: 12495783 heartbeat IPC: 0.604061 cumulative IPC: 0.602541 (Simulation time: 0 hr 10 min 30 sec) 
Heartbeat CPU 0 instructions: 15000001 cycles: 14152090 heartbeat IPC: 0.603752 cumulative IPC: 0.602783 (Simulation time: 0 hr 11 min 19 sec) 
Heartbeat CPU 0 instructions: 16000000 cycles: 15812699 heartbeat IPC: 0.602188 cumulative IPC: 0.602684 (Simulation time: 0 hr 12 min 9 sec) 
Heartbeat CPU 0 instructions: 17000002 cycles: 17466749 heartbeat IPC: 0.604578 cumulative IPC: 0.602954 (Simulation time: 0 hr 12 min 59 sec) 
Heartbeat CPU 0 instructions: 18000000 cycles: 19122217 heartbeat IPC: 0.604058 cumulative IPC: 0.603091 (Simulation time: 0 hr 13 min 48 sec) 
Heartbeat CPU 0 instructions: 19000003 cycles: 20782028 heartbeat IPC: 0.60248 cumulative IPC: 0.603023 (Simulation time: 0 hr 14 min 33 sec) 
Heartbeat CPU 0 instructions: 20000000 cycles: 22438091 heartbeat IPC: 0.60384 cumulative IPC: 0.603105 (Simulation time: 0 hr 15 min 15 sec) 
Heartbeat CPU 0 instructions: 21000001 cycles: 24088261 heartbeat IPC: 0.605999 cumulative IPC: 0.603367 (Simulation time: 0 hr 16 min 5 sec) 
Heartbeat CPU 0 instructions: 22000002 cycles: 25744704 heartbeat IPC: 0.603704 cumulative IPC: 0.603395 (Simulation time: 0 hr 16 min 45 sec) 
Heartbeat CPU 0 instructions: 23000002 cycles: 27405015 heartbeat IPC: 0.602297 cumulative IPC: 0.60331 (Simulation time: 0 hr 17 min 31 sec) 
Heartbeat CPU 0 instructions: 24000000 cycles: 29057299 heartbeat IPC: 0.605222 cumulative IPC: 0.603446 (Simulation time: 0 hr 18 min 15 sec) 
Heartbeat CPU 0 instructions: 25000002 cycles: 30717571 heartbeat IPC: 0.602312 cumulative IPC: 0.603371 (Simulation time: 0 hr 19 min 3 sec) 
Heartbeat CPU 0 instructions: 26000000 cycles: 32371927 heartbeat IPC: 0.604464 cumulative IPC: 0.603439 (Simulation time: 0 hr 19 min 49 sec) 
Heartbeat CPU 0 instructions: 27000002 cycles: 34026736 heartbeat IPC: 0.604301 cumulative IPC: 0.60349 (Simulation time: 0 hr 20 min 33 sec) 
Heartbeat CPU 0 instructions: 28000000 cycles: 35681260 heartbeat IPC: 0.604402 cumulative IPC: 0.60354 (Simulation time: 0 hr 21 min 19 sec) 
Heartbeat CPU 0 instructions: 29000002 cycles: 37332036 heartbeat IPC: 0.605777 cumulative IPC: 0.603657 (Simulation time: 0 hr 22 min 0 sec) 
Heartbeat CPU 0 instructions: 30000000 cycles: 38981619 heartbeat IPC: 0.606213 cumulative IPC: 0.603785 (Simulation time: 0 hr 22 min 41 sec) 
Heartbeat CPU 0 instructions: 31000000 cycles: 40636926 heartbeat IPC: 0.604118 cumulative IPC: 0.603801 (Simulation time: 0 hr 23 min 25 sec) 
Heartbeat CPU 0 instructions: 32000000 cycles: 42295767 heartbeat IPC: 0.602831 cumulative IPC: 0.603756 (Simulation time: 0 hr 24 min 17 sec) 
Heartbeat CPU 0 instructions: 33000000 cycles: 43952462 heartbeat IPC: 0.603611 cumulative IPC: 0.60375 (Simulation time: 0 hr 25 min 1 sec) 
Heartbeat CPU 0 instructions: 34000000 cycles: 45607261 heartbeat IPC: 0.604303 cumulative IPC: 0.603773 (Simulation time: 0 hr 25 min 42 sec) 
Heartbeat CPU 0 instructions: 35000002 cycles: 47260442 heartbeat IPC: 0.604896 cumulative IPC: 0.603818 (Simulation time: 0 hr 26 min 29 sec) 
Heartbeat CPU 0 instructions: 36000000 cycles: 48912775 heartbeat IPC: 0.605204 cumulative IPC: 0.603871 (Simulation time: 0 hr 27 min 15 sec) 
Heartbeat CPU 0 instructions: 37000000 cycles: 50565886 heartbeat IPC: 0.60492 cumulative IPC: 0.60391 (Simulation time: 0 hr 27 min 56 sec) 
Heartbeat CPU 0 instructions: 38000002 cycles: 52216977 heartbeat IPC: 0.605661 cumulative IPC: 0.603972 (Simulation time: 0 hr 28 min 39 sec) 
Heartbeat CPU 0 instructions: 39000001 cycles: 53872583 heartbeat IPC: 0.604008 cumulative IPC: 0.603974 (Simulation time: 0 hr 29 min 25 sec) 
Heartbeat CPU 0 instructions: 40000000 cycles: 55527044 heartbeat IPC: 0.604426 cumulative IPC: 0.603989 (Simulation time: 0 hr 30 min 7 sec) 
Heartbeat CPU 0 instructions: 41000002 cycles: 57179208 heartbeat IPC: 0.605268 cumulative IPC: 0.60403 (Simulation time: 0 hr 30 min 55 sec) 
Heartbeat CPU 0 instructions: 42000001 cycles: 58834846 heartbeat IPC: 0.603996 cumulative IPC: 0.604029 (Simulation time: 0 hr 31 min 38 sec) 
Heartbeat CPU 0 instructions: 43000000 cycles: 60485942 heartbeat IPC: 0.605658 cumulative IPC: 0.604078 (Simulation time: 0 hr 32 min 23 sec) 
Heartbeat CPU 0 instructions: 44000000 cycles: 62145827 heartbeat IPC: 0.602451 cumulative IPC: 0.60403 (Simulation time: 0 hr 33 min 11 sec) 
Heartbeat CPU 0 instructions: 45000000 cycles: 63798067 heartbeat IPC: 0.605239 cumulative IPC: 0.604064 (Simulation time: 0 hr 33 min 58 sec) 
Heartbeat CPU 0 instructions: 46000000 cycles: 65451467 heartbeat IPC: 0.604814 cumulative IPC: 0.604085 (Simulation time: 0 hr 34 min 46 sec) 
Heartbeat CPU 0 instructions: 47000002 cycles: 67105672 heartbeat IPC: 0.604521 cumulative IPC: 0.604097 (Simulation time: 0 hr 35 min 30 sec) 
Heartbeat CPU 0 instructions: 48000000 cycles: 68761746 heartbeat IPC: 0.603837 cumulative IPC: 0.60409 (Simulation time: 0 hr 36 min 11 sec) 
Heartbeat CPU 0 instructions: 49000000 cycles: 70417165 heartbeat IPC: 0.604077 cumulative IPC: 0.60409 (Simulation time: 0 hr 36 min 58 sec) 
Heartbeat CPU 0 instructions: 50000001 cycles: 72072273 heartbeat IPC: 0.604191 cumulative IPC: 0.604092 (Simulation time: 0 hr 37 min 47 sec) 
Heartbeat CPU 0 instructions: 51000002 cycles: 73728821 heartbeat IPC: 0.603666 cumulative IPC: 0.604082 (Simulation time: 0 hr 38 min 34 sec) 
Heartbeat CPU 0 instructions: 52000000 cycles: 75641076 heartbeat IPC: 0.522942 cumulative IPC: 0.601858 (Simulation time: 0 hr 39 min 22 sec) 
Heartbeat CPU 0 instructions: 53000001 cycles: 77810228 heartbeat IPC: 0.46101 cumulative IPC: 0.597612 (Simulation time: 0 hr 40 min 14 sec) 
Heartbeat CPU 0 instructions: 54000001 cycles: 79959238 heartbeat IPC: 0.465331 cumulative IPC: 0.593776 (Simulation time: 0 hr 41 min 8 sec) 
Heartbeat CPU 0 instructions: 55000002 cycles: 82132000 heartbeat IPC: 0.460244 cumulative IPC: 0.589972 (Simulation time: 0 hr 42 min 2 sec) 
Heartbeat CPU 0 instructions: 56000000 cycles: 84292644 heartbeat IPC: 0.462824 cumulative IPC: 0.58647 (Simulation time: 0 hr 42 min 49 sec) 
Heartbeat CPU 0 instructions: 57000002 cycles: 86427156 heartbeat IPC: 0.468492 cumulative IPC: 0.583344 (Simulation time: 0 hr 43 min 42 sec) 
Heartbeat CPU 0 instructions: 58000001 cycles: 88464684 heartbeat IPC: 0.49079 cumulative IPC: 0.581061 (Simulation time: 0 hr 44 min 33 sec) 
Heartbeat CPU 0 instructions: 59000001 cycles: 90232907 heartbeat IPC: 0.56554 cumulative IPC: 0.580736 (Simulation time: 0 hr 45 min 22 sec) 
Heartbeat CPU 0 instructions: 60000000 cycles: 91899364 heartbeat IPC: 0.600075 cumulative IPC: 0.581111 (Simulation time: 0 hr 46 min 11 sec) 
Heartbeat CPU 0 instructions: 61000000 cycles: 93555658 heartbeat IPC: 0.603758 cumulative IPC: 0.581538 (Simulation time: 0 hr 47 min 0 sec) 
Heartbeat CPU 0 instructions: 62000000 cycles: 95222204 heartbeat IPC: 0.600043 cumulative IPC: 0.581883 (Simulation time: 0 hr 47 min 45 sec) 
Heartbeat CPU 0 instructions: 63000003 cycles: 96887386 heartbeat IPC: 0.600537 cumulative IPC: 0.582225 (Simulation time: 0 hr 48 min 32 sec) 
Heartbeat CPU 0 instructions: 64000000 cycles: 98553927 heartbeat IPC: 0.600043 cumulative IPC: 0.582545 (Simulation time: 0 hr 49 min 19 sec) 
Heartbeat CPU 0 instructions: 65000002 cycles: 100224717 heartbeat IPC: 0.59852 cumulative IPC: 0.582828 (Simulation time: 0 hr 50 min 3 sec) 
Heartbeat CPU 0 instructions: 66000002 cycles: 101887660 heartbeat IPC: 0.601344 cumulative IPC: 0.583148 (Simulation time: 0 hr 50 min 49 sec) 
Heartbeat CPU 0 instructions: 67000001 cycles: 103549413 heartbeat IPC: 0.601774 cumulative IPC: 0.583465 (Simulation time: 0 hr 51 min 34 sec) 
Heartbeat CPU 0 instructions: 68000000 cycles: 105216411 heartbeat IPC: 0.59988 cumulative IPC: 0.583741 (Simulation time: 0 hr 52 min 21 sec) 
Heartbeat CPU 0 instructions: 69000000 cycles: 106880996 heartbeat IPC: 0.60075 cumulative IPC: 0.584021 (Simulation time: 0 hr 53 min 8 sec) 
Heartbeat CPU 0 instructions: 70000000 cycles: 108550023 heartbeat IPC: 0.599151 cumulative IPC: 0.584267 (Simulation time: 0 hr 53 min 53 sec) 
Heartbeat CPU 0 instructions: 71000002 cycles: 110213234 heartbeat IPC: 0.601248 cumulative IPC: 0.584538 (Simulation time: 0 hr 54 min 37 sec) 
Heartbeat CPU 0 instructions: 72000000 cycles: 111879589 heartbeat IPC: 0.600111 cumulative IPC: 0.584782 (Simulation time: 0 hr 55 min 20 sec) 
Heartbeat CPU 0 instructions: 73000003 cycles: 113543487 heartbeat IPC: 0.601 cumulative IPC: 0.585033 (Simulation time: 0 hr 56 min 4 sec) 
Heartbeat CPU 0 instructions: 74000002 cycles: 115212677 heartbeat IPC: 0.599092 cumulative IPC: 0.585248 (Simulation time: 0 hr 56 min 47 sec) 
Heartbeat CPU 0 instructions: 75000003 cycles: 116876795 heartbeat IPC: 0.60092 cumulative IPC: 0.585482 (Simulation time: 0 hr 57 min 30 sec) 
Heartbeat CPU 0 instructions: 76000000 cycles: 118544841 heartbeat IPC: 0.599502 cumulative IPC: 0.58569 (Simulation time: 0 hr 58 min 14 sec) 
Heartbeat CPU 0 instructions: 77000003 cycles: 120214733 heartbeat IPC: 0.598843 cumulative IPC: 0.585882 (Simulation time: 0 hr 58 min 58 sec) 
Heartbeat CPU 0 instructions: 78000000 cycles: 121879550 heartbeat IPC: 0.600665 cumulative IPC: 0.586094 (Simulation time: 0 hr 59 min 40 sec) 
Heartbeat CPU 0 instructions: 79000000 cycles: 123546159 heartbeat IPC: 0.600021 cumulative IPC: 0.586291 (Simulation time: 1 hr 0 min 25 sec) 
Heartbeat CPU 0 instructions: 80000000 cycles: 125209266 heartbeat IPC: 0.601284 cumulative IPC: 0.5865 (Simulation time: 1 hr 1 min 4 sec) 
Heartbeat CPU 0 instructions: 81000000 cycles: 126877020 heartbeat IPC: 0.599609 cumulative IPC: 0.586681 (Simulation time: 1 hr 1 min 46 sec) 
Heartbeat CPU 0 instructions: 82000002 cycles: 128537988 heartbeat IPC: 0.60206 cumulative IPC: 0.586889 (Simulation time: 1 hr 2 min 28 sec) 
Heartbeat CPU 0 instructions: 83000003 cycles: 130196744 heartbeat IPC: 0.602862 cumulative IPC: 0.587102 (Simulation time: 1 hr 3 min 5 sec) 
Heartbeat CPU 0 instructions: 84000000 cycles: 131857605 heartbeat IPC: 0.602096 cumulative IPC: 0.5873 (Simulation time: 1 hr 3 min 45 sec) 
Heartbeat CPU 0 instructions: 85000001 cycles: 133516667 heartbeat IPC: 0.602751 cumulative IPC: 0.587501 (Simulation time: 1 hr 4 min 20 sec) 
Heartbeat CPU 0 instructions: 86000002 cycles: 135179677 heartbeat IPC: 0.60132 cumulative IPC: 0.587678 (Simulation time: 1 hr 4 min 59 sec) 
Heartbeat CPU 0 instructions: 87000003 cycles: 136843959 heartbeat IPC: 0.60086 cumulative IPC: 0.587846 (Simulation time: 1 hr 5 min 34 sec) 
Heartbeat CPU 0 instructions: 88000000 cycles: 138508191 heartbeat IPC: 0.600876 cumulative IPC: 0.588009 (Simulation time: 1 hr 6 min 12 sec) 
Heartbeat CPU 0 instructions: 89000001 cycles: 140170791 heartbeat IPC: 0.601468 cumulative IPC: 0.588176 (Simulation time: 1 hr 6 min 48 sec) 
Heartbeat CPU 0 instructions: 90000002 cycles: 141832864 heartbeat IPC: 0.601659 cumulative IPC: 0.588341 (Simulation time: 1 hr 7 min 24 sec) 
Heartbeat CPU 0 instructions: 91000000 cycles: 143490742 heartbeat IPC: 0.60318 cumulative IPC: 0.588519 (Simulation time: 1 hr 8 min 0 sec) 
Heartbeat CPU 0 instructions: 92000000 cycles: 145151353 heartbeat IPC: 0.602188 cumulative IPC: 0.588682 (Simulation time: 1 hr 8 min 35 sec) 
Heartbeat CPU 0 instructions: 93000003 cycles: 146812499 heartbeat IPC: 0.601996 cumulative IPC: 0.588839 (Simulation time: 1 hr 9 min 5 sec) 
Heartbeat CPU 0 instructions: 94000002 cycles: 148472837 heartbeat IPC: 0.602286 cumulative IPC: 0.588996 (Simulation time: 1 hr 9 min 30 sec) 
Heartbeat CPU 0 instructions: 95000003 cycles: 150132276 heartbeat IPC: 0.602614 cumulative IPC: 0.589153 (Simulation time: 1 hr 9 min 55 sec) 
Heartbeat CPU 0 instructions: 96000000 cycles: 151789857 heartbeat IPC: 0.603287 cumulative IPC: 0.589313 (Simulation time: 1 hr 10 min 23 sec) 
Heartbeat CPU 0 instructions: 97000001 cycles: 153454044 heartbeat IPC: 0.600895 cumulative IPC: 0.589444 (Simulation time: 1 hr 10 min 50 sec) 
Heartbeat CPU 0 instructions: 98000002 cycles: 155115459 heartbeat IPC: 0.601897 cumulative IPC: 0.589582 (Simulation time: 1 hr 11 min 14 sec) 
Heartbeat CPU 0 instructions: 99000003 cycles: 156777242 heartbeat IPC: 0.601764 cumulative IPC: 0.589716 (Simulation time: 1 hr 11 min 40 sec) 
Heartbeat CPU 0 instructions: 100000000 cycles: 158436024 heartbeat IPC: 0.60285 cumulative IPC: 0.589859 (Simulation time: 1 hr 12 min 2 sec) 
Heartbeat CPU 0 instructions: 101000001 cycles: 160092021 heartbeat IPC: 0.603866 cumulative IPC: 0.59001 (Simulation time: 1 hr 12 min 26 sec) 
Heartbeat CPU 0 instructions: 102000002 cycles: 161752982 heartbeat IPC: 0.602062 cumulative IPC: 0.590138 (Simulation time: 1 hr 12 min 46 sec) 
Heartbeat CPU 0 instructions: 103000000 cycles: 163413243 heartbeat IPC: 0.602314 cumulative IPC: 0.590266 (Simulation time: 1 hr 13 min 7 sec) 
Heartbeat CPU 0 instructions: 104000000 cycles: 165070468 heartbeat IPC: 0.603418 cumulative IPC: 0.590403 (Simulation time: 1 hr 13 min 28 sec) 
Heartbeat CPU 0 instructions: 105000003 cycles: 167078525 heartbeat IPC: 0.497995 cumulative IPC: 0.589252 (Simulation time: 1 hr 13 min 51 sec) 
Heartbeat CPU 0 instructions: 106000003 cycles: 171252194 heartbeat IPC: 0.239597 cumulative IPC: 0.580429 (Simulation time: 1 hr 14 min 24 sec) 
Heartbeat CPU 0 instructions: 107000000 cycles: 173033913 heartbeat IPC: 0.561254 cumulative IPC: 0.580224 (Simulation time: 1 hr 14 min 41 sec) 
Heartbeat CPU 0 instructions: 108000000 cycles: 174811259 heartbeat IPC: 0.562637 cumulative IPC: 0.580039 (Simulation time: 1 hr 14 min 56 sec) 
Heartbeat CPU 0 instructions: 109000001 cycles: 176591653 heartbeat IPC: 0.561674 cumulative IPC: 0.579848 (Simulation time: 1 hr 15 min 11 sec) 
Heartbeat CPU 0 instructions: 110000001 cycles: 178373993 heartbeat IPC: 0.56106 cumulative IPC: 0.579654 (Simulation time: 1 hr 15 min 25 sec) 
Finished CPU 0 instructions: 100000003 cycles: 172516761 cummulative IPC: 0.579654 (Simulation time: 1 hr 15 min 25 sec) 

ChampSim completed all CPUs

Region of Interest Statistics

CPU 0 cummulative IPC: 0.579654 instructions: 100000003 cycles: 172516761
LLC TOTAL     ACCESS:    3300884  HIT:     177238  MISS:    3123646
LLC LOAD      ACCESS:     973230  HIT:       1893  MISS:     971337
LLC RFO       ACCESS:     136847  HIT:          6  MISS:     136841
LLC PREFETCH  ACCESS:    1332718  HIT:      24005  MISS:    1308713
LLC WRITEBACK ACCESS:     858089  HIT:     151334  MISS:     706755
