
*** ChampSim Multicore Out-of-Order Simulator ***

Warmup Instructions: 10000000
Simulation Instructions: 100000000
Configuration: 2
Number of CPUs: 1
LLC sets: 2048
LLC ways: 16
Off-chip DRAM Channels: 1 Width: 64-bit Data Rate: 1600 MT/s

CPU 0 runs /datasets/cs240c-wi22-a00-public/data/Assignment2-gz/mcf_46B.trace.gz
CPU 0 L1D next line prefetcher
CPU 0 L2C IP-based stride prefetcher
Heartbeat CPU 0 instructions: 1000002 cycles: 492205 heartbeat IPC: 2.03168 cumulative IPC: 2.03168 (Simulation time: 0 hr 0 min 46 sec) 
Heartbeat CPU 0 instructions: 2000002 cycles: 987410 heartbeat IPC: 2.01937 cumulative IPC: 2.0255 (Simulation time: 0 hr 1 min 31 sec) 
Heartbeat CPU 0 instructions: 3000003 cycles: 1516170 heartbeat IPC: 1.89122 cumulative IPC: 1.97867 (Simulation time: 0 hr 2 min 21 sec) 
Heartbeat CPU 0 instructions: 4000000 cycles: 2040692 heartbeat IPC: 1.90649 cumulative IPC: 1.96012 (Simulation time: 0 hr 3 min 11 sec) 
Heartbeat CPU 0 instructions: 5000000 cycles: 2534497 heartbeat IPC: 2.02509 cumulative IPC: 1.97278 (Simulation time: 0 hr 3 min 57 sec) 
Heartbeat CPU 0 instructions: 6000002 cycles: 3037517 heartbeat IPC: 1.988 cumulative IPC: 1.9753 (Simulation time: 0 hr 4 min 41 sec) 
Heartbeat CPU 0 instructions: 7000001 cycles: 3579549 heartbeat IPC: 1.84491 cumulative IPC: 1.95555 (Simulation time: 0 hr 5 min 32 sec) 
Heartbeat CPU 0 instructions: 8000000 cycles: 4069687 heartbeat IPC: 2.04024 cumulative IPC: 1.96575 (Simulation time: 0 hr 6 min 19 sec) 
Heartbeat CPU 0 instructions: 9000001 cycles: 4552920 heartbeat IPC: 2.0694 cumulative IPC: 1.97675 (Simulation time: 0 hr 7 min 3 sec) 
Heartbeat CPU 0 instructions: 10000001 cycles: 5088352 heartbeat IPC: 1.86765 cumulative IPC: 1.96527 (Simulation time: 0 hr 7 min 53 sec) 

Warmup complete CPU 0 instructions: 10000001 cycles: 5088352 (Simulation time: 0 hr 7 min 53 sec) 

Heartbeat CPU 0 instructions: 11000002 cycles: 16822735 heartbeat IPC: 0.0852197 cumulative IPC: 0.0852197 (Simulation time: 0 hr 9 min 18 sec) 
Heartbeat CPU 0 instructions: 12000000 cycles: 21610969 heartbeat IPC: 0.208845 cumulative IPC: 0.121046 (Simulation time: 0 hr 10 min 19 sec) 
Heartbeat CPU 0 instructions: 13000000 cycles: 29359467 heartbeat IPC: 0.129057 cumulative IPC: 0.123604 (Simulation time: 0 hr 11 min 33 sec) 
Heartbeat CPU 0 instructions: 14000003 cycles: 43167072 heartbeat IPC: 0.0724241 cumulative IPC: 0.105046 (Simulation time: 0 hr 13 min 0 sec) 
Heartbeat CPU 0 instructions: 15000000 cycles: 47874247 heartbeat IPC: 0.212441 cumulative IPC: 0.116861 (Simulation time: 0 hr 14 min 6 sec) 
Heartbeat CPU 0 instructions: 16000000 cycles: 52260229 heartbeat IPC: 0.227999 cumulative IPC: 0.127194 (Simulation time: 0 hr 15 min 5 sec) 
Heartbeat CPU 0 instructions: 17000002 cycles: 66978309 heartbeat IPC: 0.0679438 cumulative IPC: 0.113104 (Simulation time: 0 hr 16 min 43 sec) 
Heartbeat CPU 0 instructions: 18000001 cycles: 72512466 heartbeat IPC: 0.180696 cumulative IPC: 0.118652 (Simulation time: 0 hr 17 min 49 sec) 
Heartbeat CPU 0 instructions: 19000002 cycles: 77476824 heartbeat IPC: 0.201436 cumulative IPC: 0.124329 (Simulation time: 0 hr 18 min 50 sec) 
Heartbeat CPU 0 instructions: 20000000 cycles: 90891011 heartbeat IPC: 0.0745478 cumulative IPC: 0.116546 (Simulation time: 0 hr 20 min 26 sec) 
Heartbeat CPU 0 instructions: 21000002 cycles: 106391430 heartbeat IPC: 0.0645145 cumulative IPC: 0.108585 (Simulation time: 0 hr 22 min 0 sec) 
Heartbeat CPU 0 instructions: 22000002 cycles: 111177012 heartbeat IPC: 0.208961 cumulative IPC: 0.113113 (Simulation time: 0 hr 22 min 57 sec) 
Heartbeat CPU 0 instructions: 23000001 cycles: 115657297 heartbeat IPC: 0.2232 cumulative IPC: 0.117574 (Simulation time: 0 hr 24 min 1 sec) 
Heartbeat CPU 0 instructions: 24000000 cycles: 128365221 heartbeat IPC: 0.078691 cumulative IPC: 0.113565 (Simulation time: 0 hr 25 min 29 sec) 
Heartbeat CPU 0 instructions: 25000002 cycles: 136214019 heartbeat IPC: 0.127408 cumulative IPC: 0.114394 (Simulation time: 0 hr 26 min 41 sec) 
Heartbeat CPU 0 instructions: 26000001 cycles: 140660674 heartbeat IPC: 0.224888 cumulative IPC: 0.118018 (Simulation time: 0 hr 27 min 40 sec) 
Heartbeat CPU 0 instructions: 27000000 cycles: 150238480 heartbeat IPC: 0.104408 cumulative IPC: 0.11712 (Simulation time: 0 hr 28 min 59 sec) 
Heartbeat CPU 0 instructions: 28000000 cycles: 161306693 heartbeat IPC: 0.0903488 cumulative IPC: 0.115223 (Simulation time: 0 hr 30 min 18 sec) 
Heartbeat CPU 0 instructions: 29000001 cycles: 166155646 heartbeat IPC: 0.20623 cumulative IPC: 0.117963 (Simulation time: 0 hr 31 min 20 sec) 
Heartbeat CPU 0 instructions: 30000000 cycles: 173546006 heartbeat IPC: 0.135311 cumulative IPC: 0.118724 (Simulation time: 0 hr 32 min 22 sec) 
Heartbeat CPU 0 instructions: 31000002 cycles: 186893076 heartbeat IPC: 0.074923 cumulative IPC: 0.115509 (Simulation time: 0 hr 33 min 50 sec) 
Heartbeat CPU 0 instructions: 32000000 cycles: 191696147 heartbeat IPC: 0.2082 cumulative IPC: 0.117894 (Simulation time: 0 hr 34 min 54 sec) 
Heartbeat CPU 0 instructions: 33000000 cycles: 198056792 heartbeat IPC: 0.157217 cumulative IPC: 0.11919 (Simulation time: 0 hr 35 min 59 sec) 
Heartbeat CPU 0 instructions: 34000000 cycles: 212495589 heartbeat IPC: 0.0692578 cumulative IPC: 0.115714 (Simulation time: 0 hr 37 min 37 sec) 
Heartbeat CPU 0 instructions: 35000000 cycles: 218941069 heartbeat IPC: 0.155147 cumulative IPC: 0.116903 (Simulation time: 0 hr 38 min 45 sec) 
Heartbeat CPU 0 instructions: 36000000 cycles: 225514527 heartbeat IPC: 0.152127 cumulative IPC: 0.117953 (Simulation time: 0 hr 39 min 51 sec) 
Heartbeat CPU 0 instructions: 37000002 cycles: 235528012 heartbeat IPC: 0.0998655 cumulative IPC: 0.117167 (Simulation time: 0 hr 41 min 7 sec) 
Heartbeat CPU 0 instructions: 38000000 cycles: 246208060 heartbeat IPC: 0.0936323 cumulative IPC: 0.116125 (Simulation time: 0 hr 42 min 28 sec) 
Heartbeat CPU 0 instructions: 39000000 cycles: 250862037 heartbeat IPC: 0.21487 cumulative IPC: 0.117995 (Simulation time: 0 hr 43 min 27 sec) 
Heartbeat CPU 0 instructions: 40000000 cycles: 257122067 heartbeat IPC: 0.159744 cumulative IPC: 0.119032 (Simulation time: 0 hr 44 min 29 sec) 
Heartbeat CPU 0 instructions: 41000000 cycles: 271383688 heartbeat IPC: 0.0701183 cumulative IPC: 0.116412 (Simulation time: 0 hr 45 min 59 sec) 
Heartbeat CPU 0 instructions: 42000001 cycles: 276631793 heartbeat IPC: 0.190545 cumulative IPC: 0.117845 (Simulation time: 0 hr 46 min 59 sec) 
Heartbeat CPU 0 instructions: 43000000 cycles: 281286246 heartbeat IPC: 0.214848 cumulative IPC: 0.11948 (Simulation time: 0 hr 48 min 2 sec) 
Heartbeat CPU 0 instructions: 44000000 cycles: 294325034 heartbeat IPC: 0.0766942 cumulative IPC: 0.117551 (Simulation time: 0 hr 49 min 28 sec) 
Heartbeat CPU 0 instructions: 45000001 cycles: 301907392 heartbeat IPC: 0.131885 cumulative IPC: 0.117917 (Simulation time: 0 hr 50 min 44 sec) 
Heartbeat CPU 0 instructions: 46000001 cycles: 306708904 heartbeat IPC: 0.208268 cumulative IPC: 0.119355 (Simulation time: 0 hr 51 min 48 sec) 
Heartbeat CPU 0 instructions: 47000002 cycles: 316170433 heartbeat IPC: 0.105691 cumulative IPC: 0.11894 (Simulation time: 0 hr 53 min 9 sec) 
Heartbeat CPU 0 instructions: 48000000 cycles: 327458387 heartbeat IPC: 0.0885898 cumulative IPC: 0.117877 (Simulation time: 0 hr 54 min 37 sec) 
Heartbeat CPU 0 instructions: 49000000 cycles: 332539417 heartbeat IPC: 0.19681 cumulative IPC: 0.119102 (Simulation time: 0 hr 55 min 30 sec) 
Heartbeat CPU 0 instructions: 50000001 cycles: 339180076 heartbeat IPC: 0.150588 cumulative IPC: 0.119728 (Simulation time: 0 hr 56 min 31 sec) 
Heartbeat CPU 0 instructions: 51000001 cycles: 353344187 heartbeat IPC: 0.070601 cumulative IPC: 0.11773 (Simulation time: 0 hr 57 min 53 sec) 
Heartbeat CPU 0 instructions: 52000000 cycles: 358434820 heartbeat IPC: 0.196439 cumulative IPC: 0.118864 (Simulation time: 0 hr 58 min 55 sec) 
Heartbeat CPU 0 instructions: 53000000 cycles: 363155445 heartbeat IPC: 0.211836 cumulative IPC: 0.120089 (Simulation time: 0 hr 59 min 56 sec) 
Heartbeat CPU 0 instructions: 54000002 cycles: 378345836 heartbeat IPC: 0.0658312 cumulative IPC: 0.117881 (Simulation time: 1 hr 1 min 32 sec) 
Heartbeat CPU 0 instructions: 55000002 cycles: 383873286 heartbeat IPC: 0.180915 cumulative IPC: 0.118801 (Simulation time: 1 hr 2 min 33 sec) 
Heartbeat CPU 0 instructions: 56000000 cycles: 388696617 heartbeat IPC: 0.207325 cumulative IPC: 0.119914 (Simulation time: 1 hr 3 min 24 sec) 
Heartbeat CPU 0 instructions: 57000000 cycles: 401918185 heartbeat IPC: 0.075634 cumulative IPC: 0.118439 (Simulation time: 1 hr 4 min 42 sec) 
Heartbeat CPU 0 instructions: 58000000 cycles: 409658629 heartbeat IPC: 0.129192 cumulative IPC: 0.118644 (Simulation time: 1 hr 5 min 44 sec) 
Heartbeat CPU 0 instructions: 59000002 cycles: 414404326 heartbeat IPC: 0.210718 cumulative IPC: 0.119712 (Simulation time: 1 hr 6 min 29 sec) 
Heartbeat CPU 0 instructions: 60000000 cycles: 425886995 heartbeat IPC: 0.0870876 cumulative IPC: 0.118822 (Simulation time: 1 hr 7 min 30 sec) 
Heartbeat CPU 0 instructions: 61000002 cycles: 435439442 heartbeat IPC: 0.104685 cumulative IPC: 0.118508 (Simulation time: 1 hr 8 min 27 sec) 
Heartbeat CPU 0 instructions: 62000001 cycles: 440229078 heartbeat IPC: 0.208784 cumulative IPC: 0.119502 (Simulation time: 1 hr 9 min 11 sec) 
Heartbeat CPU 0 instructions: 63000001 cycles: 450197766 heartbeat IPC: 0.100314 cumulative IPC: 0.119072 (Simulation time: 1 hr 10 min 0 sec) 
Heartbeat CPU 0 instructions: 64000000 cycles: 461426986 heartbeat IPC: 0.0890533 cumulative IPC: 0.118333 (Simulation time: 1 hr 10 min 49 sec) 
Heartbeat CPU 0 instructions: 65000000 cycles: 466980647 heartbeat IPC: 0.180061 cumulative IPC: 0.119075 (Simulation time: 1 hr 11 min 23 sec) 
Heartbeat CPU 0 instructions: 66000000 cycles: 473483234 heartbeat IPC: 0.153785 cumulative IPC: 0.119557 (Simulation time: 1 hr 11 min 55 sec) 
Heartbeat CPU 0 instructions: 67000002 cycles: 488921987 heartbeat IPC: 0.0647722 cumulative IPC: 0.117809 (Simulation time: 1 hr 12 min 43 sec) 
Heartbeat CPU 0 instructions: 68000000 cycles: 493882757 heartbeat IPC: 0.201581 cumulative IPC: 0.118659 (Simulation time: 1 hr 13 min 13 sec) 
Heartbeat CPU 0 instructions: 69000000 cycles: 498478388 heartbeat IPC: 0.217598 cumulative IPC: 0.119581 (Simulation time: 1 hr 13 min 40 sec) 
Heartbeat CPU 0 instructions: 70000001 cycles: 512366529 heartbeat IPC: 0.0720039 cumulative IPC: 0.118278 (Simulation time: 1 hr 14 min 22 sec) 
Heartbeat CPU 0 instructions: 71000002 cycles: 520915373 heartbeat IPC: 0.116975 cumulative IPC: 0.118257 (Simulation time: 1 hr 14 min 50 sec) 
Heartbeat CPU 0 instructions: 72000000 cycles: 526100478 heartbeat IPC: 0.19286 cumulative IPC: 0.118999 (Simulation time: 1 hr 15 min 14 sec) 
Heartbeat CPU 0 instructions: 73000002 cycles: 535188374 heartbeat IPC: 0.110037 cumulative IPC: 0.118846 (Simulation time: 1 hr 15 min 41 sec) 
Heartbeat CPU 0 instructions: 74000001 cycles: 546940489 heartbeat IPC: 0.085091 cumulative IPC: 0.118113 (Simulation time: 1 hr 16 min 7 sec) 
Heartbeat CPU 0 instructions: 75000001 cycles: 551974417 heartbeat IPC: 0.198652 cumulative IPC: 0.118855 (Simulation time: 1 hr 16 min 23 sec) 
Heartbeat CPU 0 instructions: 76000000 cycles: 558366048 heartbeat IPC: 0.156454 cumulative IPC: 0.119289 (Simulation time: 1 hr 16 min 39 sec) 
Heartbeat CPU 0 instructions: 77000001 cycles: 573747345 heartbeat IPC: 0.0650141 cumulative IPC: 0.117821 (Simulation time: 1 hr 17 min 1 sec) 
Heartbeat CPU 0 instructions: 78000002 cycles: 578903249 heartbeat IPC: 0.193953 cumulative IPC: 0.118505 (Simulation time: 1 hr 17 min 14 sec) 
Heartbeat CPU 0 instructions: 79000001 cycles: 583695144 heartbeat IPC: 0.208686 cumulative IPC: 0.119252 (Simulation time: 1 hr 17 min 26 sec) 
Heartbeat CPU 0 instructions: 80000000 cycles: 596572106 heartbeat IPC: 0.077658 cumulative IPC: 0.118346 (Simulation time: 1 hr 17 min 41 sec) 
Heartbeat CPU 0 instructions: 81000000 cycles: 604149403 heartbeat IPC: 0.131973 cumulative IPC: 0.118519 (Simulation time: 1 hr 17 min 52 sec) 
Heartbeat CPU 0 instructions: 82000000 cycles: 609373123 heartbeat IPC: 0.191434 cumulative IPC: 0.119149 (Simulation time: 1 hr 18 min 2 sec) 
Heartbeat CPU 0 instructions: 83000001 cycles: 618986368 heartbeat IPC: 0.104023 cumulative IPC: 0.118912 (Simulation time: 1 hr 18 min 12 sec) 
Heartbeat CPU 0 instructions: 84000000 cycles: 630260606 heartbeat IPC: 0.0886977 cumulative IPC: 0.118367 (Simulation time: 1 hr 18 min 22 sec) 
Heartbeat CPU 0 instructions: 85000001 cycles: 635103643 heartbeat IPC: 0.206482 cumulative IPC: 0.119045 (Simulation time: 1 hr 18 min 29 sec) 
Heartbeat CPU 0 instructions: 86000000 cycles: 643197605 heartbeat IPC: 0.123549 cumulative IPC: 0.119102 (Simulation time: 1 hr 18 min 37 sec) 
Heartbeat CPU 0 instructions: 87000000 cycles: 657461317 heartbeat IPC: 0.070108 cumulative IPC: 0.118031 (Simulation time: 1 hr 18 min 48 sec) 
Heartbeat CPU 0 instructions: 88000000 cycles: 664076927 heartbeat IPC: 0.151158 cumulative IPC: 0.118363 (Simulation time: 1 hr 18 min 56 sec) 
Heartbeat CPU 0 instructions: 89000000 cycles: 668900348 heartbeat IPC: 0.207322 cumulative IPC: 0.11901 (Simulation time: 1 hr 19 min 3 sec) 
Heartbeat CPU 0 instructions: 90000003 cycles: 680665657 heartbeat IPC: 0.0849959 cumulative IPC: 0.118417 (Simulation time: 1 hr 19 min 13 sec) 
Heartbeat CPU 0 instructions: 91000000 cycles: 689707344 heartbeat IPC: 0.110598 cumulative IPC: 0.118314 (Simulation time: 1 hr 19 min 22 sec) 
Heartbeat CPU 0 instructions: 92000000 cycles: 694423381 heartbeat IPC: 0.212042 cumulative IPC: 0.118955 (Simulation time: 1 hr 19 min 30 sec) 
Heartbeat CPU 0 instructions: 93000002 cycles: 703445424 heartbeat IPC: 0.11084 cumulative IPC: 0.11885 (Simulation time: 1 hr 19 min 38 sec) 
Heartbeat CPU 0 instructions: 94000002 cycles: 714836555 heartbeat IPC: 0.0877876 cumulative IPC: 0.118352 (Simulation time: 1 hr 19 min 48 sec) 
Heartbeat CPU 0 instructions: 95000001 cycles: 720972919 heartbeat IPC: 0.162963 cumulative IPC: 0.118734 (Simulation time: 1 hr 19 min 55 sec) 
Heartbeat CPU 0 instructions: 96000000 cycles: 726899574 heartbeat IPC: 0.168729 cumulative IPC: 0.119145 (Simulation time: 1 hr 20 min 2 sec) 
Heartbeat CPU 0 instructions: 97000000 cycles: 741515032 heartbeat IPC: 0.0684207 cumulative IPC: 0.118138 (Simulation time: 1 hr 20 min 13 sec) 
Heartbeat CPU 0 instructions: 98000002 cycles: 746489341 heartbeat IPC: 0.201033 cumulative IPC: 0.118694 (Simulation time: 1 hr 20 min 21 sec) 
Heartbeat CPU 0 instructions: 99000002 cycles: 751603449 heartbeat IPC: 0.195538 cumulative IPC: 0.119221 (Simulation time: 1 hr 20 min 28 sec) 
Heartbeat CPU 0 instructions: 100000000 cycles: 765277193 heartbeat IPC: 0.0731327 cumulative IPC: 0.118392 (Simulation time: 1 hr 20 min 38 sec) 
Heartbeat CPU 0 instructions: 101000000 cycles: 772305510 heartbeat IPC: 0.142282 cumulative IPC: 0.11861 (Simulation time: 1 hr 20 min 46 sec) 
Heartbeat CPU 0 instructions: 102000003 cycles: 777061342 heartbeat IPC: 0.210269 cumulative IPC: 0.119175 (Simulation time: 1 hr 20 min 52 sec) 
Heartbeat CPU 0 instructions: 103000003 cycles: 788923668 heartbeat IPC: 0.0843005 cumulative IPC: 0.118647 (Simulation time: 1 hr 21 min 3 sec) 
Heartbeat CPU 0 instructions: 104000000 cycles: 800709300 heartbeat IPC: 0.0848488 cumulative IPC: 0.118147 (Simulation time: 1 hr 21 min 12 sec) 
Heartbeat CPU 0 instructions: 105000000 cycles: 806136137 heartbeat IPC: 0.184269 cumulative IPC: 0.118595 (Simulation time: 1 hr 21 min 19 sec) 
Heartbeat CPU 0 instructions: 106000000 cycles: 810956824 heartbeat IPC: 0.207439 cumulative IPC: 0.119126 (Simulation time: 1 hr 21 min 26 sec) 
Heartbeat CPU 0 instructions: 107000002 cycles: 825798112 heartbeat IPC: 0.0673797 cumulative IPC: 0.11819 (Simulation time: 1 hr 21 min 37 sec) 
Heartbeat CPU 0 instructions: 108000000 cycles: 831560494 heartbeat IPC: 0.173539 cumulative IPC: 0.118576 (Simulation time: 1 hr 21 min 44 sec) 
Heartbeat CPU 0 instructions: 109000001 cycles: 836474470 heartbeat IPC: 0.203501 cumulative IPC: 0.119078 (Simulation time: 1 hr 21 min 51 sec) 
Heartbeat CPU 0 instructions: 110000002 cycles: 846272205 heartbeat IPC: 0.102065 cumulative IPC: 0.11888 (Simulation time: 1 hr 21 min 59 sec) 
Finished CPU 0 instructions: 100000001 cycles: 841183853 cummulative IPC: 0.11888 (Simulation time: 1 hr 21 min 59 sec) 

ChampSim completed all CPUs

Region of Interest Statistics

CPU 0 cummulative IPC: 0.11888 instructions: 100000001 cycles: 841183853
LLC TOTAL     ACCESS:   18783958  HIT:    7397002  MISS:   11386956
LLC LOAD      ACCESS:    8477771  HIT:    3966557  MISS:    4511214
LLC RFO       ACCESS:     206415  HIT:     127688  MISS:      78727
LLC PREFETCH  ACCESS:    7991679  HIT:    1964451  MISS:    6027228
LLC WRITEBACK ACCESS:    2108093  HIT:    1338306  MISS:     769787
