
*** ChampSim Multicore Out-of-Order Simulator ***

Warmup Instructions: 10000000
Simulation Instructions: 100000000
Configuration: 2
Number of CPUs: 1
LLC sets: 2048
LLC ways: 16
Off-chip DRAM Channels: 1 Width: 64-bit Data Rate: 1600 MT/s

CPU 0 runs /datasets/cs240c-wi22-a00-public/data/Assignment2-gz/calculix_3812B.trace.gz
CPU 0 L1D next line prefetcher
CPU 0 L2C IP-based stride prefetcher
Heartbeat CPU 0 instructions: 1000001 cycles: 478691 heartbeat IPC: 2.08903 cumulative IPC: 2.08903 (Simulation time: 0 hr 0 min 37 sec) 
Heartbeat CPU 0 instructions: 2000002 cycles: 956489 heartbeat IPC: 2.09294 cumulative IPC: 2.09098 (Simulation time: 0 hr 1 min 7 sec) 
Heartbeat CPU 0 instructions: 3000002 cycles: 1435004 heartbeat IPC: 2.0898 cumulative IPC: 2.09059 (Simulation time: 0 hr 1 min 39 sec) 
Heartbeat CPU 0 instructions: 4000000 cycles: 1907487 heartbeat IPC: 2.11647 cumulative IPC: 2.097 (Simulation time: 0 hr 2 min 6 sec) 
Heartbeat CPU 0 instructions: 5000000 cycles: 2356245 heartbeat IPC: 2.22837 cumulative IPC: 2.12202 (Simulation time: 0 hr 2 min 32 sec) 
Heartbeat CPU 0 instructions: 6000003 cycles: 2761627 heartbeat IPC: 2.46682 cumulative IPC: 2.17263 (Simulation time: 0 hr 2 min 53 sec) 
Heartbeat CPU 0 instructions: 7000002 cycles: 3154731 heartbeat IPC: 2.54385 cumulative IPC: 2.21889 (Simulation time: 0 hr 3 min 14 sec) 
Heartbeat CPU 0 instructions: 8000000 cycles: 3547877 heartbeat IPC: 2.54358 cumulative IPC: 2.25487 (Simulation time: 0 hr 3 min 34 sec) 
Heartbeat CPU 0 instructions: 9000000 cycles: 3940861 heartbeat IPC: 2.54463 cumulative IPC: 2.28376 (Simulation time: 0 hr 3 min 55 sec) 
Heartbeat CPU 0 instructions: 10000003 cycles: 4333953 heartbeat IPC: 2.54394 cumulative IPC: 2.30736 (Simulation time: 0 hr 4 min 15 sec) 

Warmup complete CPU 0 instructions: 10000003 cycles: 4333953 (Simulation time: 0 hr 4 min 15 sec) 

Heartbeat CPU 0 instructions: 11000001 cycles: 4784585 heartbeat IPC: 2.2191 cumulative IPC: 2.2191 (Simulation time: 0 hr 4 min 39 sec) 
Heartbeat CPU 0 instructions: 12000000 cycles: 5230312 heartbeat IPC: 2.24352 cumulative IPC: 2.23125 (Simulation time: 0 hr 5 min 2 sec) 
Heartbeat CPU 0 instructions: 13000002 cycles: 5675032 heartbeat IPC: 2.24861 cumulative IPC: 2.237 (Simulation time: 0 hr 5 min 25 sec) 
Heartbeat CPU 0 instructions: 14000000 cycles: 6473781 heartbeat IPC: 1.25196 cumulative IPC: 1.86931 (Simulation time: 0 hr 5 min 55 sec) 
Heartbeat CPU 0 instructions: 15000003 cycles: 7022134 heartbeat IPC: 1.82365 cumulative IPC: 1.85999 (Simulation time: 0 hr 6 min 17 sec) 
Heartbeat CPU 0 instructions: 16000000 cycles: 7562832 heartbeat IPC: 1.84946 cumulative IPC: 1.85823 (Simulation time: 0 hr 6 min 40 sec) 
Heartbeat CPU 0 instructions: 17000001 cycles: 8088825 heartbeat IPC: 1.90117 cumulative IPC: 1.86424 (Simulation time: 0 hr 7 min 3 sec) 
Heartbeat CPU 0 instructions: 18000001 cycles: 8597776 heartbeat IPC: 1.96483 cumulative IPC: 1.87625 (Simulation time: 0 hr 7 min 27 sec) 
Heartbeat CPU 0 instructions: 19000001 cycles: 9107493 heartbeat IPC: 1.96187 cumulative IPC: 1.88539 (Simulation time: 0 hr 7 min 49 sec) 
Heartbeat CPU 0 instructions: 20000000 cycles: 9688336 heartbeat IPC: 1.72163 cumulative IPC: 1.86763 (Simulation time: 0 hr 8 min 12 sec) 
Heartbeat CPU 0 instructions: 21000003 cycles: 10211123 heartbeat IPC: 1.91283 cumulative IPC: 1.87165 (Simulation time: 0 hr 8 min 34 sec) 
Heartbeat CPU 0 instructions: 22000000 cycles: 10739930 heartbeat IPC: 1.89104 cumulative IPC: 1.87325 (Simulation time: 0 hr 8 min 56 sec) 
Heartbeat CPU 0 instructions: 23000001 cycles: 11262662 heartbeat IPC: 1.91303 cumulative IPC: 1.87625 (Simulation time: 0 hr 9 min 19 sec) 
Heartbeat CPU 0 instructions: 24000000 cycles: 11795032 heartbeat IPC: 1.87839 cumulative IPC: 1.8764 (Simulation time: 0 hr 9 min 44 sec) 
Heartbeat CPU 0 instructions: 25000003 cycles: 12351403 heartbeat IPC: 1.79737 cumulative IPC: 1.87092 (Simulation time: 0 hr 10 min 7 sec) 
Heartbeat CPU 0 instructions: 26000003 cycles: 12899331 heartbeat IPC: 1.82506 cumulative IPC: 1.86799 (Simulation time: 0 hr 10 min 29 sec) 
Heartbeat CPU 0 instructions: 27000000 cycles: 13433431 heartbeat IPC: 1.8723 cumulative IPC: 1.86824 (Simulation time: 0 hr 10 min 55 sec) 
Heartbeat CPU 0 instructions: 28000000 cycles: 14073645 heartbeat IPC: 1.56198 cumulative IPC: 1.84811 (Simulation time: 0 hr 11 min 28 sec) 
Heartbeat CPU 0 instructions: 29000002 cycles: 14551692 heartbeat IPC: 2.09185 cumulative IPC: 1.85951 (Simulation time: 0 hr 11 min 53 sec) 
Heartbeat CPU 0 instructions: 30000001 cycles: 15102020 heartbeat IPC: 1.8171 cumulative IPC: 1.85734 (Simulation time: 0 hr 12 min 23 sec) 
Heartbeat CPU 0 instructions: 31000001 cycles: 15648872 heartbeat IPC: 1.82865 cumulative IPC: 1.85596 (Simulation time: 0 hr 12 min 47 sec) 
Heartbeat CPU 0 instructions: 32000000 cycles: 16378066 heartbeat IPC: 1.37138 cumulative IPC: 1.82662 (Simulation time: 0 hr 13 min 20 sec) 
Heartbeat CPU 0 instructions: 33000003 cycles: 17083111 heartbeat IPC: 1.41835 cumulative IPC: 1.80404 (Simulation time: 0 hr 13 min 50 sec) 
Heartbeat CPU 0 instructions: 34000000 cycles: 17783387 heartbeat IPC: 1.428 cumulative IPC: 1.78446 (Simulation time: 0 hr 14 min 21 sec) 
Heartbeat CPU 0 instructions: 35000000 cycles: 18456590 heartbeat IPC: 1.48544 cumulative IPC: 1.77021 (Simulation time: 0 hr 14 min 49 sec) 
Heartbeat CPU 0 instructions: 36000000 cycles: 19097921 heartbeat IPC: 1.55926 cumulative IPC: 1.76104 (Simulation time: 0 hr 15 min 18 sec) 
Heartbeat CPU 0 instructions: 37000002 cycles: 19723738 heartbeat IPC: 1.59791 cumulative IPC: 1.75441 (Simulation time: 0 hr 15 min 46 sec) 
Heartbeat CPU 0 instructions: 38000003 cycles: 20358745 heartbeat IPC: 1.57479 cumulative IPC: 1.74729 (Simulation time: 0 hr 16 min 19 sec) 
Heartbeat CPU 0 instructions: 39000003 cycles: 21121743 heartbeat IPC: 1.31062 cumulative IPC: 1.72745 (Simulation time: 0 hr 16 min 47 sec) 
Heartbeat CPU 0 instructions: 40000000 cycles: 21962060 heartbeat IPC: 1.19002 cumulative IPC: 1.70183 (Simulation time: 0 hr 17 min 14 sec) 
Heartbeat CPU 0 instructions: 41000000 cycles: 22894537 heartbeat IPC: 1.07241 cumulative IPC: 1.67021 (Simulation time: 0 hr 17 min 40 sec) 
Heartbeat CPU 0 instructions: 42000001 cycles: 23496332 heartbeat IPC: 1.6617 cumulative IPC: 1.66994 (Simulation time: 0 hr 18 min 8 sec) 
Heartbeat CPU 0 instructions: 43000000 cycles: 24117341 heartbeat IPC: 1.61028 cumulative IPC: 1.66807 (Simulation time: 0 hr 18 min 33 sec) 
Heartbeat CPU 0 instructions: 44000000 cycles: 24794098 heartbeat IPC: 1.47764 cumulative IPC: 1.66177 (Simulation time: 0 hr 19 min 1 sec) 
Heartbeat CPU 0 instructions: 45000002 cycles: 25468507 heartbeat IPC: 1.48278 cumulative IPC: 1.65606 (Simulation time: 0 hr 19 min 30 sec) 
Heartbeat CPU 0 instructions: 46000002 cycles: 26191015 heartbeat IPC: 1.38407 cumulative IPC: 1.64706 (Simulation time: 0 hr 20 min 2 sec) 
Heartbeat CPU 0 instructions: 47000002 cycles: 27027493 heartbeat IPC: 1.19549 cumulative IPC: 1.63042 (Simulation time: 0 hr 20 min 30 sec) 
Heartbeat CPU 0 instructions: 48000000 cycles: 27473311 heartbeat IPC: 2.24306 cumulative IPC: 1.64222 (Simulation time: 0 hr 20 min 55 sec) 
Heartbeat CPU 0 instructions: 49000000 cycles: 27920408 heartbeat IPC: 2.23665 cumulative IPC: 1.65349 (Simulation time: 0 hr 21 min 21 sec) 
Heartbeat CPU 0 instructions: 50000000 cycles: 28395145 heartbeat IPC: 2.10643 cumulative IPC: 1.66243 (Simulation time: 0 hr 21 min 46 sec) 
Heartbeat CPU 0 instructions: 51000000 cycles: 28978463 heartbeat IPC: 1.71433 cumulative IPC: 1.66366 (Simulation time: 0 hr 22 min 12 sec) 
Heartbeat CPU 0 instructions: 52000000 cycles: 29518579 heartbeat IPC: 1.85145 cumulative IPC: 1.66768 (Simulation time: 0 hr 22 min 41 sec) 
Heartbeat CPU 0 instructions: 53000000 cycles: 29974541 heartbeat IPC: 2.19317 cumulative IPC: 1.67703 (Simulation time: 0 hr 23 min 9 sec) 
Heartbeat CPU 0 instructions: 54000003 cycles: 30429192 heartbeat IPC: 2.1995 cumulative IPC: 1.68613 (Simulation time: 0 hr 23 min 40 sec) 
Heartbeat CPU 0 instructions: 55000001 cycles: 30883657 heartbeat IPC: 2.20039 cumulative IPC: 1.69493 (Simulation time: 0 hr 24 min 6 sec) 
Heartbeat CPU 0 instructions: 56000000 cycles: 31338002 heartbeat IPC: 2.20097 cumulative IPC: 1.70345 (Simulation time: 0 hr 24 min 30 sec) 
Heartbeat CPU 0 instructions: 57000003 cycles: 31795446 heartbeat IPC: 2.18607 cumulative IPC: 1.71149 (Simulation time: 0 hr 24 min 54 sec) 
Heartbeat CPU 0 instructions: 58000002 cycles: 32264028 heartbeat IPC: 2.1341 cumulative IPC: 1.71858 (Simulation time: 0 hr 25 min 20 sec) 
Heartbeat CPU 0 instructions: 59000001 cycles: 32825526 heartbeat IPC: 1.78095 cumulative IPC: 1.71981 (Simulation time: 0 hr 25 min 44 sec) 
Heartbeat CPU 0 instructions: 60000000 cycles: 33354055 heartbeat IPC: 1.89204 cumulative IPC: 1.72294 (Simulation time: 0 hr 26 min 14 sec) 
Heartbeat CPU 0 instructions: 61000003 cycles: 33892689 heartbeat IPC: 1.85655 cumulative IPC: 1.72538 (Simulation time: 0 hr 26 min 40 sec) 
Heartbeat CPU 0 instructions: 62000002 cycles: 34427064 heartbeat IPC: 1.87134 cumulative IPC: 1.72797 (Simulation time: 0 hr 27 min 9 sec) 
Heartbeat CPU 0 instructions: 63000003 cycles: 34966473 heartbeat IPC: 1.85388 cumulative IPC: 1.73019 (Simulation time: 0 hr 27 min 35 sec) 
Heartbeat CPU 0 instructions: 64000000 cycles: 35503215 heartbeat IPC: 1.86309 cumulative IPC: 1.73248 (Simulation time: 0 hr 27 min 59 sec) 
Heartbeat CPU 0 instructions: 65000000 cycles: 36183528 heartbeat IPC: 1.46991 cumulative IPC: 1.72687 (Simulation time: 0 hr 28 min 29 sec) 
Heartbeat CPU 0 instructions: 66000002 cycles: 36748588 heartbeat IPC: 1.76973 cumulative IPC: 1.72761 (Simulation time: 0 hr 29 min 3 sec) 
Heartbeat CPU 0 instructions: 67000002 cycles: 37259975 heartbeat IPC: 1.95547 cumulative IPC: 1.73115 (Simulation time: 0 hr 29 min 27 sec) 
Heartbeat CPU 0 instructions: 68000000 cycles: 37760955 heartbeat IPC: 1.99608 cumulative IPC: 1.73512 (Simulation time: 0 hr 29 min 52 sec) 
Heartbeat CPU 0 instructions: 69000003 cycles: 38310269 heartbeat IPC: 1.82046 cumulative IPC: 1.7365 (Simulation time: 0 hr 30 min 20 sec) 
Heartbeat CPU 0 instructions: 70000003 cycles: 38825686 heartbeat IPC: 1.94018 cumulative IPC: 1.73955 (Simulation time: 0 hr 30 min 49 sec) 
Heartbeat CPU 0 instructions: 71000000 cycles: 39348037 heartbeat IPC: 1.91442 cumulative IPC: 1.74216 (Simulation time: 0 hr 31 min 21 sec) 
Heartbeat CPU 0 instructions: 72000000 cycles: 39865895 heartbeat IPC: 1.93103 cumulative IPC: 1.74491 (Simulation time: 0 hr 31 min 45 sec) 
Heartbeat CPU 0 instructions: 73000001 cycles: 40416872 heartbeat IPC: 1.81496 cumulative IPC: 1.74598 (Simulation time: 0 hr 32 min 12 sec) 
Heartbeat CPU 0 instructions: 74000002 cycles: 41032225 heartbeat IPC: 1.62509 cumulative IPC: 1.74395 (Simulation time: 0 hr 32 min 38 sec) 
Heartbeat CPU 0 instructions: 75000000 cycles: 41568240 heartbeat IPC: 1.86562 cumulative IPC: 1.7457 (Simulation time: 0 hr 33 min 7 sec) 
Heartbeat CPU 0 instructions: 76000000 cycles: 42292106 heartbeat IPC: 1.38147 cumulative IPC: 1.73876 (Simulation time: 0 hr 33 min 38 sec) 
Heartbeat CPU 0 instructions: 77000000 cycles: 43013069 heartbeat IPC: 1.38703 cumulative IPC: 1.7322 (Simulation time: 0 hr 34 min 11 sec) 
Heartbeat CPU 0 instructions: 78000003 cycles: 43731650 heartbeat IPC: 1.39164 cumulative IPC: 1.72599 (Simulation time: 0 hr 34 min 41 sec) 
Heartbeat CPU 0 instructions: 79000000 cycles: 44442551 heartbeat IPC: 1.40666 cumulative IPC: 1.72033 (Simulation time: 0 hr 35 min 13 sec) 
Heartbeat CPU 0 instructions: 80000000 cycles: 45127633 heartbeat IPC: 1.45968 cumulative IPC: 1.71595 (Simulation time: 0 hr 35 min 45 sec) 
Heartbeat CPU 0 instructions: 81000001 cycles: 45791965 heartbeat IPC: 1.50527 cumulative IPC: 1.71258 (Simulation time: 0 hr 36 min 16 sec) 
Heartbeat CPU 0 instructions: 82000002 cycles: 46434923 heartbeat IPC: 1.55531 cumulative IPC: 1.71017 (Simulation time: 0 hr 36 min 47 sec) 
Heartbeat CPU 0 instructions: 83000002 cycles: 47294804 heartbeat IPC: 1.16295 cumulative IPC: 1.69922 (Simulation time: 0 hr 37 min 21 sec) 
Heartbeat CPU 0 instructions: 84000000 cycles: 47891529 heartbeat IPC: 1.67581 cumulative IPC: 1.6989 (Simulation time: 0 hr 37 min 47 sec) 
Heartbeat CPU 0 instructions: 85000000 cycles: 48360077 heartbeat IPC: 2.13425 cumulative IPC: 1.70353 (Simulation time: 0 hr 38 min 13 sec) 
Heartbeat CPU 0 instructions: 86000001 cycles: 48822399 heartbeat IPC: 2.163 cumulative IPC: 1.70831 (Simulation time: 0 hr 38 min 42 sec) 
Heartbeat CPU 0 instructions: 87000002 cycles: 49286992 heartbeat IPC: 2.15242 cumulative IPC: 1.7129 (Simulation time: 0 hr 39 min 5 sec) 
Heartbeat CPU 0 instructions: 88000000 cycles: 49747439 heartbeat IPC: 2.1718 cumulative IPC: 1.71755 (Simulation time: 0 hr 39 min 34 sec) 
Heartbeat CPU 0 instructions: 89000003 cycles: 50207124 heartbeat IPC: 2.17541 cumulative IPC: 1.72214 (Simulation time: 0 hr 39 min 59 sec) 
Heartbeat CPU 0 instructions: 90000003 cycles: 50667266 heartbeat IPC: 2.17324 cumulative IPC: 1.72662 (Simulation time: 0 hr 40 min 26 sec) 
Heartbeat CPU 0 instructions: 91000003 cycles: 51137889 heartbeat IPC: 2.12484 cumulative IPC: 1.73062 (Simulation time: 0 hr 40 min 51 sec) 
Heartbeat CPU 0 instructions: 92000000 cycles: 51599266 heartbeat IPC: 2.16742 cumulative IPC: 1.73489 (Simulation time: 0 hr 41 min 17 sec) 
Heartbeat CPU 0 instructions: 93000000 cycles: 52045594 heartbeat IPC: 2.2405 cumulative IPC: 1.73962 (Simulation time: 0 hr 41 min 42 sec) 
Heartbeat CPU 0 instructions: 94000003 cycles: 52491312 heartbeat IPC: 2.24358 cumulative IPC: 1.74428 (Simulation time: 0 hr 42 min 5 sec) 
Heartbeat CPU 0 instructions: 95000001 cycles: 53094710 heartbeat IPC: 1.65728 cumulative IPC: 1.74321 (Simulation time: 0 hr 42 min 31 sec) 
Heartbeat CPU 0 instructions: 96000000 cycles: 53643044 heartbeat IPC: 1.8237 cumulative IPC: 1.7441 (Simulation time: 0 hr 42 min 58 sec) 
Heartbeat CPU 0 instructions: 97000000 cycles: 54137210 heartbeat IPC: 2.02361 cumulative IPC: 1.74687 (Simulation time: 0 hr 43 min 26 sec) 
Heartbeat CPU 0 instructions: 98000003 cycles: 54631162 heartbeat IPC: 2.02449 cumulative IPC: 1.7496 (Simulation time: 0 hr 43 min 54 sec) 
Heartbeat CPU 0 instructions: 99000000 cycles: 55122353 heartbeat IPC: 2.03586 cumulative IPC: 1.75237 (Simulation time: 0 hr 44 min 22 sec) 
Heartbeat CPU 0 instructions: 100000000 cycles: 55616608 heartbeat IPC: 2.02325 cumulative IPC: 1.75498 (Simulation time: 0 hr 44 min 53 sec) 
Heartbeat CPU 0 instructions: 101000003 cycles: 56106988 heartbeat IPC: 2.03924 cumulative IPC: 1.75767 (Simulation time: 0 hr 45 min 18 sec) 
Heartbeat CPU 0 instructions: 102000000 cycles: 56658220 heartbeat IPC: 1.81411 cumulative IPC: 1.75827 (Simulation time: 0 hr 45 min 44 sec) 
Heartbeat CPU 0 instructions: 103000000 cycles: 57214960 heartbeat IPC: 1.79617 cumulative IPC: 1.75867 (Simulation time: 0 hr 46 min 11 sec) 
Heartbeat CPU 0 instructions: 104000000 cycles: 57769939 heartbeat IPC: 1.80187 cumulative IPC: 1.75911 (Simulation time: 0 hr 46 min 42 sec) 
Heartbeat CPU 0 instructions: 105000000 cycles: 58331283 heartbeat IPC: 1.78144 cumulative IPC: 1.75935 (Simulation time: 0 hr 47 min 7 sec) 
Heartbeat CPU 0 instructions: 106000003 cycles: 58889321 heartbeat IPC: 1.792 cumulative IPC: 1.75968 (Simulation time: 0 hr 47 min 31 sec) 
Heartbeat CPU 0 instructions: 107000000 cycles: 59449545 heartbeat IPC: 1.78499 cumulative IPC: 1.75994 (Simulation time: 0 hr 47 min 57 sec) 
Heartbeat CPU 0 instructions: 108000000 cycles: 60056859 heartbeat IPC: 1.64659 cumulative IPC: 1.7587 (Simulation time: 0 hr 48 min 25 sec) 
Heartbeat CPU 0 instructions: 109000002 cycles: 60703510 heartbeat IPC: 1.54643 cumulative IPC: 1.75627 (Simulation time: 0 hr 48 min 52 sec) 
Heartbeat CPU 0 instructions: 110000003 cycles: 61192732 heartbeat IPC: 2.04406 cumulative IPC: 1.75874 (Simulation time: 0 hr 49 min 18 sec) 
Finished CPU 0 instructions: 100000000 cycles: 56858779 cummulative IPC: 1.75874 (Simulation time: 0 hr 49 min 18 sec) 

ChampSim completed all CPUs

Region of Interest Statistics

CPU 0 cummulative IPC: 1.75874 instructions: 100000000 cycles: 56858779
LLC TOTAL     ACCESS:    1161478  HIT:     893013  MISS:     268465
LLC LOAD      ACCESS:     133805  HIT:     128581  MISS:       5224
LLC RFO       ACCESS:      47549  HIT:      14822  MISS:      32727
LLC PREFETCH  ACCESS:     680305  HIT:     461968  MISS:     218337
LLC WRITEBACK ACCESS:     299819  HIT:     287642  MISS:      12177
