
*** ChampSim Multicore Out-of-Order Simulator ***

Warmup Instructions: 10000000
Simulation Instructions: 100000000
Configuration: 2
Number of CPUs: 1
LLC sets: 2048
LLC ways: 16
Off-chip DRAM Channels: 1 Width: 64-bit Data Rate: 1600 MT/s

CPU 0 runs /datasets/cs240c-wi22-a00-public/data/Assignment2-gz/zeusmp_300B.trace.gz
CPU 0 L1D next line prefetcher
CPU 0 L2C IP-based stride prefetcher
Heartbeat CPU 0 instructions: 1000003 cycles: 509544 heartbeat IPC: 1.96254 cumulative IPC: 1.96254 (Simulation time: 0 hr 0 min 33 sec) 
Heartbeat CPU 0 instructions: 2000003 cycles: 1061728 heartbeat IPC: 1.81099 cumulative IPC: 1.88372 (Simulation time: 0 hr 1 min 10 sec) 
Heartbeat CPU 0 instructions: 3000002 cycles: 1605631 heartbeat IPC: 1.83856 cumulative IPC: 1.86843 (Simulation time: 0 hr 1 min 45 sec) 
Heartbeat CPU 0 instructions: 4000000 cycles: 2092419 heartbeat IPC: 2.05428 cumulative IPC: 1.91166 (Simulation time: 0 hr 2 min 19 sec) 
Heartbeat CPU 0 instructions: 5000001 cycles: 2575106 heartbeat IPC: 2.07174 cumulative IPC: 1.94167 (Simulation time: 0 hr 2 min 52 sec) 
Heartbeat CPU 0 instructions: 6000000 cycles: 3061805 heartbeat IPC: 2.05466 cumulative IPC: 1.95963 (Simulation time: 0 hr 3 min 26 sec) 
Heartbeat CPU 0 instructions: 7000001 cycles: 3589966 heartbeat IPC: 1.89336 cumulative IPC: 1.94988 (Simulation time: 0 hr 3 min 59 sec) 
Heartbeat CPU 0 instructions: 8000000 cycles: 4143982 heartbeat IPC: 1.805 cumulative IPC: 1.93051 (Simulation time: 0 hr 4 min 28 sec) 
Heartbeat CPU 0 instructions: 9000000 cycles: 4671887 heartbeat IPC: 1.89428 cumulative IPC: 1.92642 (Simulation time: 0 hr 4 min 57 sec) 
Heartbeat CPU 0 instructions: 10000002 cycles: 5158215 heartbeat IPC: 2.05623 cumulative IPC: 1.93866 (Simulation time: 0 hr 5 min 29 sec) 

Warmup complete CPU 0 instructions: 10000002 cycles: 5158215 (Simulation time: 0 hr 5 min 29 sec) 

Heartbeat CPU 0 instructions: 11000003 cycles: 5864046 heartbeat IPC: 1.41677 cumulative IPC: 1.41677 (Simulation time: 0 hr 6 min 2 sec) 
Heartbeat CPU 0 instructions: 12000000 cycles: 6565150 heartbeat IPC: 1.42632 cumulative IPC: 1.42153 (Simulation time: 0 hr 6 min 39 sec) 
Heartbeat CPU 0 instructions: 13000000 cycles: 7369011 heartbeat IPC: 1.244 cumulative IPC: 1.35698 (Simulation time: 0 hr 7 min 16 sec) 
Heartbeat CPU 0 instructions: 14000000 cycles: 8180938 heartbeat IPC: 1.23164 cumulative IPC: 1.32331 (Simulation time: 0 hr 7 min 53 sec) 
Heartbeat CPU 0 instructions: 15000002 cycles: 8919111 heartbeat IPC: 1.3547 cumulative IPC: 1.32947 (Simulation time: 0 hr 8 min 26 sec) 
Heartbeat CPU 0 instructions: 16000000 cycles: 9620019 heartbeat IPC: 1.42672 cumulative IPC: 1.34475 (Simulation time: 0 hr 8 min 58 sec) 
Heartbeat CPU 0 instructions: 17000003 cycles: 10324991 heartbeat IPC: 1.4185 cumulative IPC: 1.35481 (Simulation time: 0 hr 9 min 35 sec) 
Heartbeat CPU 0 instructions: 18000000 cycles: 11042081 heartbeat IPC: 1.39452 cumulative IPC: 1.35965 (Simulation time: 0 hr 10 min 10 sec) 
Heartbeat CPU 0 instructions: 19000003 cycles: 11857158 heartbeat IPC: 1.22688 cumulative IPC: 1.3435 (Simulation time: 0 hr 10 min 42 sec) 
Heartbeat CPU 0 instructions: 20000000 cycles: 12667980 heartbeat IPC: 1.23331 cumulative IPC: 1.3316 (Simulation time: 0 hr 11 min 22 sec) 
Heartbeat CPU 0 instructions: 21000001 cycles: 13378610 heartbeat IPC: 1.4072 cumulative IPC: 1.33814 (Simulation time: 0 hr 12 min 0 sec) 
Heartbeat CPU 0 instructions: 22000000 cycles: 14082168 heartbeat IPC: 1.42135 cumulative IPC: 1.3447 (Simulation time: 0 hr 12 min 38 sec) 
Heartbeat CPU 0 instructions: 23000001 cycles: 14784791 heartbeat IPC: 1.42324 cumulative IPC: 1.35043 (Simulation time: 0 hr 13 min 9 sec) 
Heartbeat CPU 0 instructions: 24000000 cycles: 15532666 heartbeat IPC: 1.33712 cumulative IPC: 1.34947 (Simulation time: 0 hr 13 min 44 sec) 
Heartbeat CPU 0 instructions: 25000000 cycles: 16343666 heartbeat IPC: 1.23305 cumulative IPC: 1.34103 (Simulation time: 0 hr 14 min 18 sec) 
Heartbeat CPU 0 instructions: 26000000 cycles: 17145567 heartbeat IPC: 1.24704 cumulative IPC: 1.33474 (Simulation time: 0 hr 14 min 52 sec) 
Heartbeat CPU 0 instructions: 27000002 cycles: 17848021 heartbeat IPC: 1.42358 cumulative IPC: 1.33966 (Simulation time: 0 hr 15 min 30 sec) 
Heartbeat CPU 0 instructions: 28000000 cycles: 18553861 heartbeat IPC: 1.41675 cumulative IPC: 1.34372 (Simulation time: 0 hr 16 min 1 sec) 
Heartbeat CPU 0 instructions: 29000003 cycles: 19258014 heartbeat IPC: 1.42015 cumulative IPC: 1.34754 (Simulation time: 0 hr 16 min 33 sec) 
Heartbeat CPU 0 instructions: 30000002 cycles: 20030705 heartbeat IPC: 1.29418 cumulative IPC: 1.34476 (Simulation time: 0 hr 17 min 8 sec) 
Heartbeat CPU 0 instructions: 31000001 cycles: 20846128 heartbeat IPC: 1.22636 cumulative IPC: 1.33861 (Simulation time: 0 hr 17 min 39 sec) 
Heartbeat CPU 0 instructions: 32000000 cycles: 21621168 heartbeat IPC: 1.29025 cumulative IPC: 1.33633 (Simulation time: 0 hr 18 min 17 sec) 
Heartbeat CPU 0 instructions: 33000000 cycles: 22322192 heartbeat IPC: 1.42648 cumulative IPC: 1.34002 (Simulation time: 0 hr 18 min 56 sec) 
Heartbeat CPU 0 instructions: 34000000 cycles: 23032040 heartbeat IPC: 1.40875 cumulative IPC: 1.34275 (Simulation time: 0 hr 19 min 28 sec) 
Heartbeat CPU 0 instructions: 35000000 cycles: 23734094 heartbeat IPC: 1.42439 cumulative IPC: 1.34583 (Simulation time: 0 hr 20 min 3 sec) 
Heartbeat CPU 0 instructions: 36000000 cycles: 24532743 heartbeat IPC: 1.25211 cumulative IPC: 1.34197 (Simulation time: 0 hr 20 min 38 sec) 
Heartbeat CPU 0 instructions: 37000003 cycles: 25347777 heartbeat IPC: 1.22695 cumulative IPC: 1.33732 (Simulation time: 0 hr 21 min 14 sec) 
Heartbeat CPU 0 instructions: 38000001 cycles: 26101934 heartbeat IPC: 1.32598 cumulative IPC: 1.33692 (Simulation time: 0 hr 21 min 54 sec) 
Heartbeat CPU 0 instructions: 39000002 cycles: 26803672 heartbeat IPC: 1.42503 cumulative IPC: 1.33977 (Simulation time: 0 hr 22 min 33 sec) 
Heartbeat CPU 0 instructions: 40000000 cycles: 27512907 heartbeat IPC: 1.40997 cumulative IPC: 1.342 (Simulation time: 0 hr 23 min 6 sec) 
Heartbeat CPU 0 instructions: 41000001 cycles: 28213962 heartbeat IPC: 1.42642 cumulative IPC: 1.34457 (Simulation time: 0 hr 23 min 42 sec) 
Heartbeat CPU 0 instructions: 42000001 cycles: 29040357 heartbeat IPC: 1.21008 cumulative IPC: 1.33991 (Simulation time: 0 hr 24 min 16 sec) 
Heartbeat CPU 0 instructions: 43000000 cycles: 29850182 heartbeat IPC: 1.23483 cumulative IPC: 1.33647 (Simulation time: 0 hr 24 min 53 sec) 
Heartbeat CPU 0 instructions: 44000000 cycles: 30575332 heartbeat IPC: 1.37902 cumulative IPC: 1.33768 (Simulation time: 0 hr 25 min 27 sec) 
Heartbeat CPU 0 instructions: 45000002 cycles: 31281752 heartbeat IPC: 1.41559 cumulative IPC: 1.33979 (Simulation time: 0 hr 25 min 57 sec) 
Heartbeat CPU 0 instructions: 46000002 cycles: 31987490 heartbeat IPC: 1.41696 cumulative IPC: 1.34182 (Simulation time: 0 hr 26 min 33 sec) 
Heartbeat CPU 0 instructions: 47000001 cycles: 32727266 heartbeat IPC: 1.35176 cumulative IPC: 1.34208 (Simulation time: 0 hr 27 min 11 sec) 
Heartbeat CPU 0 instructions: 48000000 cycles: 33537777 heartbeat IPC: 1.23379 cumulative IPC: 1.33899 (Simulation time: 0 hr 27 min 46 sec) 
Heartbeat CPU 0 instructions: 49000003 cycles: 34344907 heartbeat IPC: 1.23896 cumulative IPC: 1.33623 (Simulation time: 0 hr 28 min 21 sec) 
Heartbeat CPU 0 instructions: 50000001 cycles: 35047634 heartbeat IPC: 1.42302 cumulative IPC: 1.33827 (Simulation time: 0 hr 28 min 55 sec) 
Heartbeat CPU 0 instructions: 51000002 cycles: 35750170 heartbeat IPC: 1.42342 cumulative IPC: 1.34022 (Simulation time: 0 hr 29 min 26 sec) 
Heartbeat CPU 0 instructions: 52000000 cycles: 36456107 heartbeat IPC: 1.41655 cumulative IPC: 1.34194 (Simulation time: 0 hr 30 min 1 sec) 
Heartbeat CPU 0 instructions: 53000000 cycles: 37219717 heartbeat IPC: 1.30957 cumulative IPC: 1.34117 (Simulation time: 0 hr 30 min 35 sec) 
Heartbeat CPU 0 instructions: 54000002 cycles: 38029523 heartbeat IPC: 1.23487 cumulative IPC: 1.33855 (Simulation time: 0 hr 31 min 8 sec) 
Heartbeat CPU 0 instructions: 55000001 cycles: 38810859 heartbeat IPC: 1.27986 cumulative IPC: 1.33719 (Simulation time: 0 hr 31 min 40 sec) 
Heartbeat CPU 0 instructions: 56000000 cycles: 39514745 heartbeat IPC: 1.42068 cumulative IPC: 1.3389 (Simulation time: 0 hr 32 min 14 sec) 
Heartbeat CPU 0 instructions: 57000000 cycles: 40219972 heartbeat IPC: 1.41798 cumulative IPC: 1.34049 (Simulation time: 0 hr 32 min 45 sec) 
Heartbeat CPU 0 instructions: 58000000 cycles: 40926063 heartbeat IPC: 1.41625 cumulative IPC: 1.34199 (Simulation time: 0 hr 33 min 16 sec) 
Heartbeat CPU 0 instructions: 59000003 cycles: 41712042 heartbeat IPC: 1.2723 cumulative IPC: 1.34049 (Simulation time: 0 hr 33 min 55 sec) 
Heartbeat CPU 0 instructions: 60000000 cycles: 42523315 heartbeat IPC: 1.23263 cumulative IPC: 1.33815 (Simulation time: 0 hr 34 min 33 sec) 
Heartbeat CPU 0 instructions: 61000000 cycles: 43281697 heartbeat IPC: 1.3186 cumulative IPC: 1.33776 (Simulation time: 0 hr 35 min 9 sec) 
Heartbeat CPU 0 instructions: 62000002 cycles: 43985425 heartbeat IPC: 1.42101 cumulative IPC: 1.33927 (Simulation time: 0 hr 35 min 47 sec) 
Heartbeat CPU 0 instructions: 63000003 cycles: 44688793 heartbeat IPC: 1.42173 cumulative IPC: 1.34073 (Simulation time: 0 hr 36 min 26 sec) 
Heartbeat CPU 0 instructions: 64000000 cycles: 45391961 heartbeat IPC: 1.42213 cumulative IPC: 1.34216 (Simulation time: 0 hr 37 min 3 sec) 
Heartbeat CPU 0 instructions: 65000003 cycles: 46207806 heartbeat IPC: 1.22573 cumulative IPC: 1.33984 (Simulation time: 0 hr 37 min 41 sec) 
Heartbeat CPU 0 instructions: 66000003 cycles: 47019415 heartbeat IPC: 1.23212 cumulative IPC: 1.33775 (Simulation time: 0 hr 38 min 20 sec) 
Heartbeat CPU 0 instructions: 67000002 cycles: 47751904 heartbeat IPC: 1.36521 cumulative IPC: 1.33823 (Simulation time: 0 hr 38 min 58 sec) 
Heartbeat CPU 0 instructions: 68000000 cycles: 48456226 heartbeat IPC: 1.4198 cumulative IPC: 1.33955 (Simulation time: 0 hr 39 min 35 sec) 
Heartbeat CPU 0 instructions: 69000000 cycles: 49164274 heartbeat IPC: 1.41233 cumulative IPC: 1.34072 (Simulation time: 0 hr 40 min 10 sec) 
Heartbeat CPU 0 instructions: 70000001 cycles: 49898448 heartbeat IPC: 1.36208 cumulative IPC: 1.34107 (Simulation time: 0 hr 40 min 46 sec) 
Heartbeat CPU 0 instructions: 71000001 cycles: 50706436 heartbeat IPC: 1.23764 cumulative IPC: 1.33924 (Simulation time: 0 hr 41 min 19 sec) 
Heartbeat CPU 0 instructions: 72000000 cycles: 51516456 heartbeat IPC: 1.23454 cumulative IPC: 1.33741 (Simulation time: 0 hr 41 min 54 sec) 
Heartbeat CPU 0 instructions: 73000003 cycles: 52227962 heartbeat IPC: 1.40547 cumulative IPC: 1.33844 (Simulation time: 0 hr 42 min 30 sec) 
Heartbeat CPU 0 instructions: 74000001 cycles: 52933694 heartbeat IPC: 1.41697 cumulative IPC: 1.3396 (Simulation time: 0 hr 43 min 8 sec) 
Heartbeat CPU 0 instructions: 75000003 cycles: 53642310 heartbeat IPC: 1.4112 cumulative IPC: 1.34065 (Simulation time: 0 hr 43 min 45 sec) 
Heartbeat CPU 0 instructions: 76000000 cycles: 54401198 heartbeat IPC: 1.31771 cumulative IPC: 1.34029 (Simulation time: 0 hr 44 min 23 sec) 
Heartbeat CPU 0 instructions: 77000001 cycles: 55211884 heartbeat IPC: 1.23352 cumulative IPC: 1.33856 (Simulation time: 0 hr 45 min 4 sec) 
Heartbeat CPU 0 instructions: 78000003 cycles: 56000761 heartbeat IPC: 1.26763 cumulative IPC: 1.33746 (Simulation time: 0 hr 45 min 44 sec) 
Heartbeat CPU 0 instructions: 79000001 cycles: 56704213 heartbeat IPC: 1.42156 cumulative IPC: 1.33861 (Simulation time: 0 hr 46 min 24 sec) 
Heartbeat CPU 0 instructions: 80000000 cycles: 57411159 heartbeat IPC: 1.41453 cumulative IPC: 1.33964 (Simulation time: 0 hr 47 min 5 sec) 
Heartbeat CPU 0 instructions: 81000000 cycles: 58115923 heartbeat IPC: 1.41891 cumulative IPC: 1.34069 (Simulation time: 0 hr 47 min 43 sec) 
Heartbeat CPU 0 instructions: 82000002 cycles: 58898241 heartbeat IPC: 1.27826 cumulative IPC: 1.33978 (Simulation time: 0 hr 48 min 19 sec) 
Heartbeat CPU 0 instructions: 83000001 cycles: 59708254 heartbeat IPC: 1.23455 cumulative IPC: 1.33822 (Simulation time: 0 hr 48 min 56 sec) 
Heartbeat CPU 0 instructions: 84000000 cycles: 60472110 heartbeat IPC: 1.30915 cumulative IPC: 1.33782 (Simulation time: 0 hr 49 min 34 sec) 
Heartbeat CPU 0 instructions: 85000001 cycles: 61176719 heartbeat IPC: 1.41923 cumulative IPC: 1.33884 (Simulation time: 0 hr 50 min 11 sec) 
Heartbeat CPU 0 instructions: 86000002 cycles: 61882271 heartbeat IPC: 1.41733 cumulative IPC: 1.33982 (Simulation time: 0 hr 50 min 49 sec) 
Heartbeat CPU 0 instructions: 87000000 cycles: 62588030 heartbeat IPC: 1.41691 cumulative IPC: 1.34077 (Simulation time: 0 hr 51 min 30 sec) 
Heartbeat CPU 0 instructions: 88000000 cycles: 63391982 heartbeat IPC: 1.24386 cumulative IPC: 1.33943 (Simulation time: 0 hr 52 min 9 sec) 
Heartbeat CPU 0 instructions: 89000000 cycles: 64203744 heartbeat IPC: 1.23189 cumulative IPC: 1.33795 (Simulation time: 0 hr 52 min 46 sec) 
Heartbeat CPU 0 instructions: 90000002 cycles: 64944691 heartbeat IPC: 1.34963 cumulative IPC: 1.3381 (Simulation time: 0 hr 53 min 20 sec) 
Heartbeat CPU 0 instructions: 91000002 cycles: 65649424 heartbeat IPC: 1.41898 cumulative IPC: 1.33904 (Simulation time: 0 hr 53 min 53 sec) 
Heartbeat CPU 0 instructions: 92000000 cycles: 66357365 heartbeat IPC: 1.41254 cumulative IPC: 1.33989 (Simulation time: 0 hr 54 min 26 sec) 
Heartbeat CPU 0 instructions: 93000001 cycles: 67059404 heartbeat IPC: 1.42442 cumulative IPC: 1.34085 (Simulation time: 0 hr 54 min 56 sec) 
Heartbeat CPU 0 instructions: 94000000 cycles: 67886910 heartbeat IPC: 1.20845 cumulative IPC: 1.3391 (Simulation time: 0 hr 55 min 28 sec) 
Heartbeat CPU 0 instructions: 95000003 cycles: 68698483 heartbeat IPC: 1.23218 cumulative IPC: 1.33773 (Simulation time: 0 hr 55 min 59 sec) 
Heartbeat CPU 0 instructions: 96000000 cycles: 69416717 heartbeat IPC: 1.3923 cumulative IPC: 1.33834 (Simulation time: 0 hr 56 min 27 sec) 
Heartbeat CPU 0 instructions: 97000001 cycles: 70123302 heartbeat IPC: 1.41526 cumulative IPC: 1.33918 (Simulation time: 0 hr 56 min 59 sec) 
Heartbeat CPU 0 instructions: 98000000 cycles: 70828667 heartbeat IPC: 1.4177 cumulative IPC: 1.34002 (Simulation time: 0 hr 57 min 29 sec) 
Heartbeat CPU 0 instructions: 99000001 cycles: 71571657 heartbeat IPC: 1.34591 cumulative IPC: 1.34009 (Simulation time: 0 hr 58 min 2 sec) 
Heartbeat CPU 0 instructions: 100000000 cycles: 72382440 heartbeat IPC: 1.23337 cumulative IPC: 1.3388 (Simulation time: 0 hr 58 min 31 sec) 
Heartbeat CPU 0 instructions: 101000001 cycles: 73186037 heartbeat IPC: 1.24441 cumulative IPC: 1.33769 (Simulation time: 0 hr 59 min 2 sec) 
Heartbeat CPU 0 instructions: 102000003 cycles: 73888229 heartbeat IPC: 1.42411 cumulative IPC: 1.33857 (Simulation time: 0 hr 59 min 35 sec) 
Heartbeat CPU 0 instructions: 103000003 cycles: 74593879 heartbeat IPC: 1.41713 cumulative IPC: 1.33937 (Simulation time: 1 hr 0 min 7 sec) 
Heartbeat CPU 0 instructions: 104000000 cycles: 75298242 heartbeat IPC: 1.41972 cumulative IPC: 1.34018 (Simulation time: 1 hr 0 min 35 sec) 
Heartbeat CPU 0 instructions: 105000001 cycles: 76071916 heartbeat IPC: 1.29254 cumulative IPC: 1.33966 (Simulation time: 1 hr 1 min 6 sec) 
Heartbeat CPU 0 instructions: 106000002 cycles: 76878877 heartbeat IPC: 1.23922 cumulative IPC: 1.33853 (Simulation time: 1 hr 1 min 38 sec) 
Heartbeat CPU 0 instructions: 107000003 cycles: 77655286 heartbeat IPC: 1.28798 cumulative IPC: 1.33799 (Simulation time: 1 hr 2 min 8 sec) 
Heartbeat CPU 0 instructions: 108000000 cycles: 78360594 heartbeat IPC: 1.41782 cumulative IPC: 1.33875 (Simulation time: 1 hr 2 min 38 sec) 
Heartbeat CPU 0 instructions: 109000001 cycles: 79067729 heartbeat IPC: 1.41416 cumulative IPC: 1.33948 (Simulation time: 1 hr 3 min 11 sec) 
Heartbeat CPU 0 instructions: 110000000 cycles: 79770655 heartbeat IPC: 1.42262 cumulative IPC: 1.34026 (Simulation time: 1 hr 3 min 39 sec) 
Finished CPU 0 instructions: 100000002 cycles: 74612441 cummulative IPC: 1.34026 (Simulation time: 1 hr 3 min 39 sec) 

ChampSim completed all CPUs

Region of Interest Statistics

CPU 0 cummulative IPC: 1.34026 instructions: 100000002 cycles: 74612441
LLC TOTAL     ACCESS:     631670  HIT:     286764  MISS:     344906
LLC LOAD      ACCESS:      35106  HIT:       7613  MISS:      27493
LLC RFO       ACCESS:     152074  HIT:      75547  MISS:      76527
LLC PREFETCH  ACCESS:     288688  HIT:      72254  MISS:     216434
LLC WRITEBACK ACCESS:     155802  HIT:     131350  MISS:      24452
