
*** ChampSim Multicore Out-of-Order Simulator ***

Warmup Instructions: 10000000
Simulation Instructions: 100000000
Configuration: 2
Number of CPUs: 1
LLC sets: 2048
LLC ways: 16
Off-chip DRAM Channels: 1 Width: 64-bit Data Rate: 1600 MT/s

CPU 0 runs /datasets/cs240c-wi22-a00-public/data/Assignment2-gz/lbm_1004B.trace.gz
CPU 0 L1D next line prefetcher
CPU 0 L2C IP-based stride prefetcher
Heartbeat CPU 0 instructions: 1000002 cycles: 391414 heartbeat IPC: 2.55484 cumulative IPC: 2.55484 (Simulation time: 0 hr 0 min 38 sec) 
Heartbeat CPU 0 instructions: 2000001 cycles: 782838 heartbeat IPC: 2.55477 cumulative IPC: 2.55481 (Simulation time: 0 hr 1 min 13 sec) 
Heartbeat CPU 0 instructions: 3000001 cycles: 1174187 heartbeat IPC: 2.55526 cumulative IPC: 2.55496 (Simulation time: 0 hr 1 min 44 sec) 
Heartbeat CPU 0 instructions: 4000000 cycles: 1570381 heartbeat IPC: 2.52401 cumulative IPC: 2.54715 (Simulation time: 0 hr 2 min 18 sec) 
Heartbeat CPU 0 instructions: 5000002 cycles: 1961799 heartbeat IPC: 2.55482 cumulative IPC: 2.54868 (Simulation time: 0 hr 2 min 54 sec) 
Heartbeat CPU 0 instructions: 6000002 cycles: 2353167 heartbeat IPC: 2.55514 cumulative IPC: 2.54976 (Simulation time: 0 hr 3 min 29 sec) 
Heartbeat CPU 0 instructions: 7000003 cycles: 2749275 heartbeat IPC: 2.52457 cumulative IPC: 2.54613 (Simulation time: 0 hr 4 min 5 sec) 
Heartbeat CPU 0 instructions: 8000000 cycles: 3140638 heartbeat IPC: 2.55516 cumulative IPC: 2.54725 (Simulation time: 0 hr 4 min 36 sec) 
Heartbeat CPU 0 instructions: 9000003 cycles: 3532085 heartbeat IPC: 2.55463 cumulative IPC: 2.54807 (Simulation time: 0 hr 5 min 6 sec) 
Heartbeat CPU 0 instructions: 10000000 cycles: 3923458 heartbeat IPC: 2.5551 cumulative IPC: 2.54877 (Simulation time: 0 hr 5 min 43 sec) 

Warmup complete CPU 0 instructions: 10000004 cycles: 3923459 (Simulation time: 0 hr 5 min 43 sec) 

Heartbeat CPU 0 instructions: 11000002 cycles: 5443757 heartbeat IPC: 0.657767 cumulative IPC: 0.657764 (Simulation time: 0 hr 6 min 28 sec) 
Heartbeat CPU 0 instructions: 12000000 cycles: 6780373 heartbeat IPC: 0.748157 cumulative IPC: 0.700055 (Simulation time: 0 hr 7 min 10 sec) 
Heartbeat CPU 0 instructions: 13000002 cycles: 8118497 heartbeat IPC: 0.747316 cumulative IPC: 0.71513 (Simulation time: 0 hr 7 min 47 sec) 
Heartbeat CPU 0 instructions: 14000003 cycles: 9526952 heartbeat IPC: 0.709999 cumulative IPC: 0.71384 (Simulation time: 0 hr 8 min 31 sec) 
Heartbeat CPU 0 instructions: 15000003 cycles: 10853584 heartbeat IPC: 0.753789 cumulative IPC: 0.721488 (Simulation time: 0 hr 9 min 13 sec) 
Heartbeat CPU 0 instructions: 16000000 cycles: 12150879 heartbeat IPC: 0.770832 cumulative IPC: 0.729268 (Simulation time: 0 hr 9 min 56 sec) 
Heartbeat CPU 0 instructions: 17000000 cycles: 13574616 heartbeat IPC: 0.702377 cumulative IPC: 0.725301 (Simulation time: 0 hr 10 min 34 sec) 
Heartbeat CPU 0 instructions: 18000002 cycles: 14921782 heartbeat IPC: 0.742301 cumulative IPC: 0.727383 (Simulation time: 0 hr 11 min 20 sec) 
Heartbeat CPU 0 instructions: 19000002 cycles: 16280890 heartbeat IPC: 0.735777 cumulative IPC: 0.728307 (Simulation time: 0 hr 12 min 0 sec) 
Heartbeat CPU 0 instructions: 20000000 cycles: 17613311 heartbeat IPC: 0.750512 cumulative IPC: 0.730468 (Simulation time: 0 hr 12 min 43 sec) 
Heartbeat CPU 0 instructions: 21000003 cycles: 18994811 heartbeat IPC: 0.723853 cumulative IPC: 0.729861 (Simulation time: 0 hr 13 min 22 sec) 
Heartbeat CPU 0 instructions: 22000002 cycles: 20358237 heartbeat IPC: 0.733446 cumulative IPC: 0.730159 (Simulation time: 0 hr 13 min 58 sec) 
Heartbeat CPU 0 instructions: 23000001 cycles: 21670815 heartbeat IPC: 0.761859 cumulative IPC: 0.732503 (Simulation time: 0 hr 14 min 37 sec) 
Heartbeat CPU 0 instructions: 24000000 cycles: 23077408 heartbeat IPC: 0.710937 cumulative IPC: 0.73092 (Simulation time: 0 hr 15 min 20 sec) 
Heartbeat CPU 0 instructions: 25000003 cycles: 24431431 heartbeat IPC: 0.738542 cumulative IPC: 0.731423 (Simulation time: 0 hr 16 min 2 sec) 
Heartbeat CPU 0 instructions: 26000003 cycles: 25766878 heartbeat IPC: 0.748813 cumulative IPC: 0.732486 (Simulation time: 0 hr 16 min 39 sec) 
Heartbeat CPU 0 instructions: 27000001 cycles: 27123992 heartbeat IPC: 0.736856 cumulative IPC: 0.732742 (Simulation time: 0 hr 17 min 19 sec) 
Heartbeat CPU 0 instructions: 28000000 cycles: 28530404 heartbeat IPC: 0.711029 cumulative IPC: 0.731501 (Simulation time: 0 hr 17 min 57 sec) 
Heartbeat CPU 0 instructions: 29000002 cycles: 29887165 heartbeat IPC: 0.737051 cumulative IPC: 0.731791 (Simulation time: 0 hr 18 min 40 sec) 
Heartbeat CPU 0 instructions: 30000003 cycles: 31259020 heartbeat IPC: 0.728941 cumulative IPC: 0.731648 (Simulation time: 0 hr 19 min 18 sec) 
Heartbeat CPU 0 instructions: 31000001 cycles: 32651773 heartbeat IPC: 0.718001 cumulative IPC: 0.730986 (Simulation time: 0 hr 19 min 53 sec) 
Heartbeat CPU 0 instructions: 32000000 cycles: 33992902 heartbeat IPC: 0.74564 cumulative IPC: 0.73164 (Simulation time: 0 hr 20 min 33 sec) 
Heartbeat CPU 0 instructions: 33000000 cycles: 35371723 heartbeat IPC: 0.725257 cumulative IPC: 0.73136 (Simulation time: 0 hr 21 min 15 sec) 
Heartbeat CPU 0 instructions: 34000002 cycles: 36762005 heartbeat IPC: 0.71928 cumulative IPC: 0.730848 (Simulation time: 0 hr 21 min 58 sec) 
Heartbeat CPU 0 instructions: 35000001 cycles: 38130966 heartbeat IPC: 0.73048 cumulative IPC: 0.730834 (Simulation time: 0 hr 22 min 35 sec) 
Heartbeat CPU 0 instructions: 36000000 cycles: 39491262 heartbeat IPC: 0.735133 cumulative IPC: 0.730998 (Simulation time: 0 hr 23 min 13 sec) 
Heartbeat CPU 0 instructions: 37000002 cycles: 40833190 heartbeat IPC: 0.745198 cumulative IPC: 0.731514 (Simulation time: 0 hr 23 min 52 sec) 
Heartbeat CPU 0 instructions: 38000000 cycles: 42232554 heartbeat IPC: 0.714609 cumulative IPC: 0.730897 (Simulation time: 0 hr 24 min 32 sec) 
Heartbeat CPU 0 instructions: 39000003 cycles: 43613226 heartbeat IPC: 0.724287 cumulative IPC: 0.730667 (Simulation time: 0 hr 25 min 12 sec) 
Heartbeat CPU 0 instructions: 40000000 cycles: 44959330 heartbeat IPC: 0.742882 cumulative IPC: 0.731068 (Simulation time: 0 hr 25 min 51 sec) 
Heartbeat CPU 0 instructions: 41000002 cycles: 46339753 heartbeat IPC: 0.724417 cumulative IPC: 0.730851 (Simulation time: 0 hr 26 min 30 sec) 
Heartbeat CPU 0 instructions: 42000000 cycles: 47710830 heartbeat IPC: 0.729352 cumulative IPC: 0.730804 (Simulation time: 0 hr 27 min 12 sec) 
Heartbeat CPU 0 instructions: 43000002 cycles: 49078818 heartbeat IPC: 0.731002 cumulative IPC: 0.73081 (Simulation time: 0 hr 27 min 51 sec) 
Heartbeat CPU 0 instructions: 44000000 cycles: 50495531 heartbeat IPC: 0.705858 cumulative IPC: 0.730051 (Simulation time: 0 hr 28 min 30 sec) 
Heartbeat CPU 0 instructions: 45000000 cycles: 51849455 heartbeat IPC: 0.738594 cumulative IPC: 0.730292 (Simulation time: 0 hr 29 min 7 sec) 
Heartbeat CPU 0 instructions: 46000003 cycles: 53203002 heartbeat IPC: 0.738802 cumulative IPC: 0.730526 (Simulation time: 0 hr 29 min 46 sec) 
Heartbeat CPU 0 instructions: 47000002 cycles: 54551357 heartbeat IPC: 0.741644 cumulative IPC: 0.730822 (Simulation time: 0 hr 30 min 26 sec) 
Heartbeat CPU 0 instructions: 48000000 cycles: 55921918 heartbeat IPC: 0.729627 cumulative IPC: 0.730791 (Simulation time: 0 hr 31 min 6 sec) 
Heartbeat CPU 0 instructions: 49000000 cycles: 57282344 heartbeat IPC: 0.735064 cumulative IPC: 0.7309 (Simulation time: 0 hr 31 min 41 sec) 
Heartbeat CPU 0 instructions: 50000003 cycles: 58616347 heartbeat IPC: 0.749626 cumulative IPC: 0.731357 (Simulation time: 0 hr 32 min 20 sec) 
Heartbeat CPU 0 instructions: 51000001 cycles: 59980500 heartbeat IPC: 0.733054 cumulative IPC: 0.731398 (Simulation time: 0 hr 32 min 54 sec) 
Heartbeat CPU 0 instructions: 52000000 cycles: 61309849 heartbeat IPC: 0.752247 cumulative IPC: 0.731881 (Simulation time: 0 hr 33 min 32 sec) 
Heartbeat CPU 0 instructions: 53000002 cycles: 62658696 heartbeat IPC: 0.741375 cumulative IPC: 0.732099 (Simulation time: 0 hr 34 min 16 sec) 
Heartbeat CPU 0 instructions: 54000002 cycles: 64026413 heartbeat IPC: 0.731145 cumulative IPC: 0.732077 (Simulation time: 0 hr 34 min 57 sec) 
Heartbeat CPU 0 instructions: 55000001 cycles: 65417277 heartbeat IPC: 0.718977 cumulative IPC: 0.731781 (Simulation time: 0 hr 35 min 37 sec) 
Heartbeat CPU 0 instructions: 56000000 cycles: 66776846 heartbeat IPC: 0.735527 cumulative IPC: 0.731862 (Simulation time: 0 hr 36 min 18 sec) 
Heartbeat CPU 0 instructions: 57000003 cycles: 68139688 heartbeat IPC: 0.733763 cumulative IPC: 0.731902 (Simulation time: 0 hr 37 min 0 sec) 
Heartbeat CPU 0 instructions: 58000003 cycles: 69550790 heartbeat IPC: 0.708666 cumulative IPC: 0.731403 (Simulation time: 0 hr 37 min 39 sec) 
Heartbeat CPU 0 instructions: 59000002 cycles: 70904927 heartbeat IPC: 0.738477 cumulative IPC: 0.731546 (Simulation time: 0 hr 38 min 17 sec) 
Heartbeat CPU 0 instructions: 60000000 cycles: 72260881 heartbeat IPC: 0.737487 cumulative IPC: 0.731663 (Simulation time: 0 hr 38 min 57 sec) 
Heartbeat CPU 0 instructions: 61000003 cycles: 73679541 heartbeat IPC: 0.704893 cumulative IPC: 0.731119 (Simulation time: 0 hr 39 min 38 sec) 
Heartbeat CPU 0 instructions: 62000001 cycles: 75028745 heartbeat IPC: 0.741176 cumulative IPC: 0.73131 (Simulation time: 0 hr 40 min 19 sec) 
Heartbeat CPU 0 instructions: 63000001 cycles: 76376624 heartbeat IPC: 0.741906 cumulative IPC: 0.731507 (Simulation time: 0 hr 41 min 1 sec) 
Heartbeat CPU 0 instructions: 64000000 cycles: 77740379 heartbeat IPC: 0.733269 cumulative IPC: 0.73154 (Simulation time: 0 hr 41 min 40 sec) 
Heartbeat CPU 0 instructions: 65000000 cycles: 79141772 heartbeat IPC: 0.713576 cumulative IPC: 0.731205 (Simulation time: 0 hr 42 min 22 sec) 
Heartbeat CPU 0 instructions: 66000000 cycles: 80503057 heartbeat IPC: 0.7346 cumulative IPC: 0.731265 (Simulation time: 0 hr 42 min 59 sec) 
Heartbeat CPU 0 instructions: 67000000 cycles: 81861875 heartbeat IPC: 0.735934 cumulative IPC: 0.731347 (Simulation time: 0 hr 43 min 40 sec) 
Heartbeat CPU 0 instructions: 68000000 cycles: 83269731 heartbeat IPC: 0.7103 cumulative IPC: 0.730973 (Simulation time: 0 hr 44 min 22 sec) 
Heartbeat CPU 0 instructions: 69000000 cycles: 84630718 heartbeat IPC: 0.734761 cumulative IPC: 0.731037 (Simulation time: 0 hr 45 min 4 sec) 
Heartbeat CPU 0 instructions: 70000000 cycles: 86001272 heartbeat IPC: 0.729632 cumulative IPC: 0.731014 (Simulation time: 0 hr 45 min 43 sec) 
Heartbeat CPU 0 instructions: 71000002 cycles: 87357466 heartbeat IPC: 0.737359 cumulative IPC: 0.731117 (Simulation time: 0 hr 46 min 23 sec) 
Heartbeat CPU 0 instructions: 72000000 cycles: 89490016 heartbeat IPC: 0.468921 cumulative IPC: 0.724582 (Simulation time: 0 hr 47 min 23 sec) 
Heartbeat CPU 0 instructions: 73000002 cycles: 92496789 heartbeat IPC: 0.332583 cumulative IPC: 0.711275 (Simulation time: 0 hr 48 min 29 sec) 
Heartbeat CPU 0 instructions: 74000002 cycles: 98832564 heartbeat IPC: 0.157834 cumulative IPC: 0.674329 (Simulation time: 0 hr 50 min 15 sec) 
Heartbeat CPU 0 instructions: 75000003 cycles: 100885077 heartbeat IPC: 0.487208 cumulative IPC: 0.670368 (Simulation time: 0 hr 51 min 9 sec) 
Heartbeat CPU 0 instructions: 76000000 cycles: 102752530 heartbeat IPC: 0.535487 cumulative IPC: 0.66782 (Simulation time: 0 hr 51 min 57 sec) 
Heartbeat CPU 0 instructions: 77000000 cycles: 104174577 heartbeat IPC: 0.703212 cumulative IPC: 0.668322 (Simulation time: 0 hr 52 min 41 sec) 
Heartbeat CPU 0 instructions: 78000002 cycles: 105607639 heartbeat IPC: 0.697808 cumulative IPC: 0.668737 (Simulation time: 0 hr 53 min 23 sec) 
Heartbeat CPU 0 instructions: 79000000 cycles: 107056055 heartbeat IPC: 0.690408 cumulative IPC: 0.669042 (Simulation time: 0 hr 54 min 9 sec) 
Heartbeat CPU 0 instructions: 80000000 cycles: 108414587 heartbeat IPC: 0.736089 cumulative IPC: 0.669913 (Simulation time: 0 hr 54 min 43 sec) 
Heartbeat CPU 0 instructions: 81000001 cycles: 109733858 heartbeat IPC: 0.757995 cumulative IPC: 0.671012 (Simulation time: 0 hr 55 min 16 sec) 
Heartbeat CPU 0 instructions: 82000002 cycles: 111119204 heartbeat IPC: 0.721842 cumulative IPC: 0.671668 (Simulation time: 0 hr 55 min 51 sec) 
Heartbeat CPU 0 instructions: 83000003 cycles: 112558601 heartbeat IPC: 0.694736 cumulative IPC: 0.671974 (Simulation time: 0 hr 56 min 30 sec) 
Heartbeat CPU 0 instructions: 84000000 cycles: 113841207 heartbeat IPC: 0.77966 cumulative IPC: 0.673231 (Simulation time: 0 hr 57 min 6 sec) 
Heartbeat CPU 0 instructions: 85000000 cycles: 115171260 heartbeat IPC: 0.75185 cumulative IPC: 0.674171 (Simulation time: 0 hr 57 min 47 sec) 
Heartbeat CPU 0 instructions: 86000000 cycles: 116680464 heartbeat IPC: 0.662601 cumulative IPC: 0.674016 (Simulation time: 0 hr 58 min 21 sec) 
Heartbeat CPU 0 instructions: 87000002 cycles: 118002334 heartbeat IPC: 0.756506 cumulative IPC: 0.674972 (Simulation time: 0 hr 59 min 0 sec) 
Heartbeat CPU 0 instructions: 88000000 cycles: 119300430 heartbeat IPC: 0.770357 cumulative IPC: 0.676045 (Simulation time: 0 hr 59 min 42 sec) 
Heartbeat CPU 0 instructions: 89000003 cycles: 120652717 heartbeat IPC: 0.73949 cumulative IPC: 0.67678 (Simulation time: 1 hr 0 min 28 sec) 
Heartbeat CPU 0 instructions: 90000002 cycles: 122076999 heartbeat IPC: 0.702107 cumulative IPC: 0.677085 (Simulation time: 1 hr 1 min 14 sec) 
Heartbeat CPU 0 instructions: 91000001 cycles: 123385702 heartbeat IPC: 0.764115 cumulative IPC: 0.678038 (Simulation time: 1 hr 1 min 51 sec) 
Heartbeat CPU 0 instructions: 92000000 cycles: 124700958 heartbeat IPC: 0.760307 cumulative IPC: 0.678934 (Simulation time: 1 hr 2 min 32 sec) 
Heartbeat CPU 0 instructions: 93000003 cycles: 126136524 heartbeat IPC: 0.696591 cumulative IPC: 0.679142 (Simulation time: 1 hr 3 min 11 sec) 
Heartbeat CPU 0 instructions: 94000003 cycles: 127495506 heartbeat IPC: 0.735845 cumulative IPC: 0.679765 (Simulation time: 1 hr 3 min 47 sec) 
Heartbeat CPU 0 instructions: 95000000 cycles: 128821846 heartbeat IPC: 0.753952 cumulative IPC: 0.680553 (Simulation time: 1 hr 4 min 22 sec) 
Heartbeat CPU 0 instructions: 96000000 cycles: 130249229 heartbeat IPC: 0.700583 cumulative IPC: 0.68078 (Simulation time: 1 hr 4 min 56 sec) 
Heartbeat CPU 0 instructions: 97000002 cycles: 131629925 heartbeat IPC: 0.724274 cumulative IPC: 0.68125 (Simulation time: 1 hr 5 min 29 sec) 
Heartbeat CPU 0 instructions: 98000001 cycles: 132996035 heartbeat IPC: 0.732005 cumulative IPC: 0.681787 (Simulation time: 1 hr 6 min 0 sec) 
Heartbeat CPU 0 instructions: 99000000 cycles: 134339888 heartbeat IPC: 0.744128 cumulative IPC: 0.682429 (Simulation time: 1 hr 6 min 30 sec) 
Heartbeat CPU 0 instructions: 100000000 cycles: 135768488 heartbeat IPC: 0.699986 cumulative IPC: 0.68262 (Simulation time: 1 hr 6 min 59 sec) 
Heartbeat CPU 0 instructions: 101000000 cycles: 137128687 heartbeat IPC: 0.735187 cumulative IPC: 0.683156 (Simulation time: 1 hr 7 min 31 sec) 
Heartbeat CPU 0 instructions: 102000000 cycles: 138456175 heartbeat IPC: 0.753302 cumulative IPC: 0.683849 (Simulation time: 1 hr 8 min 4 sec) 
Heartbeat CPU 0 instructions: 103000001 cycles: 139883705 heartbeat IPC: 0.700511 cumulative IPC: 0.684023 (Simulation time: 1 hr 8 min 34 sec) 
Heartbeat CPU 0 instructions: 104000000 cycles: 141251318 heartbeat IPC: 0.7312 cumulative IPC: 0.684493 (Simulation time: 1 hr 9 min 1 sec) 
Heartbeat CPU 0 instructions: 105000001 cycles: 142587129 heartbeat IPC: 0.74861 cumulative IPC: 0.685111 (Simulation time: 1 hr 9 min 27 sec) 
Heartbeat CPU 0 instructions: 106000000 cycles: 143931855 heartbeat IPC: 0.743645 cumulative IPC: 0.685673 (Simulation time: 1 hr 9 min 52 sec) 
Heartbeat CPU 0 instructions: 107000000 cycles: 145380023 heartbeat IPC: 0.690528 cumulative IPC: 0.685723 (Simulation time: 1 hr 10 min 17 sec) 
Heartbeat CPU 0 instructions: 108000000 cycles: 146757853 heartbeat IPC: 0.725779 cumulative IPC: 0.686109 (Simulation time: 1 hr 10 min 41 sec) 
Heartbeat CPU 0 instructions: 109000003 cycles: 148082747 heartbeat IPC: 0.75478 cumulative IPC: 0.68674 (Simulation time: 1 hr 11 min 4 sec) 
Heartbeat CPU 0 instructions: 110000001 cycles: 149510157 heartbeat IPC: 0.700568 cumulative IPC: 0.686876 (Simulation time: 1 hr 11 min 29 sec) 
Finished CPU 0 instructions: 100000001 cycles: 145586699 cummulative IPC: 0.686876 (Simulation time: 1 hr 11 min 29 sec) 

ChampSim completed all CPUs

Region of Interest Statistics

CPU 0 cummulative IPC: 0.686876 instructions: 100000001 cycles: 145586699
LLC TOTAL     ACCESS:    5792142  HIT:    1608129  MISS:    4184013
LLC LOAD      ACCESS:     415659  HIT:          9  MISS:     415650
LLC RFO       ACCESS:    2473120  HIT:     524474  MISS:    1948646
LLC PREFETCH  ACCESS:     430224  HIT:          2  MISS:     430222
LLC WRITEBACK ACCESS:    2473139  HIT:    1083644  MISS:    1389495
