
*** ChampSim Multicore Out-of-Order Simulator ***

Warmup Instructions: 10000000
Simulation Instructions: 100000000
Configuration: 2
Number of CPUs: 1
LLC sets: 2048
LLC ways: 16
Off-chip DRAM Channels: 1 Width: 64-bit Data Rate: 1600 MT/s

CPU 0 runs /datasets/cs240c-wi22-a00-public/data/Assignment2-gz/mcf_250B.trace.gz
CPU 0 L1D next line prefetcher
CPU 0 L2C IP-based stride prefetcher
Heartbeat CPU 0 instructions: 1000000 cycles: 536644 heartbeat IPC: 1.86343 cumulative IPC: 1.86343 (Simulation time: 0 hr 0 min 54 sec) 
Heartbeat CPU 0 instructions: 2000003 cycles: 1051807 heartbeat IPC: 1.94114 cumulative IPC: 1.90149 (Simulation time: 0 hr 1 min 45 sec) 
Heartbeat CPU 0 instructions: 3000002 cycles: 1548047 heartbeat IPC: 2.01515 cumulative IPC: 1.93793 (Simulation time: 0 hr 2 min 35 sec) 
Heartbeat CPU 0 instructions: 4000000 cycles: 2058291 heartbeat IPC: 1.95984 cumulative IPC: 1.94336 (Simulation time: 0 hr 3 min 31 sec) 
Heartbeat CPU 0 instructions: 5000002 cycles: 2563412 heartbeat IPC: 1.97973 cumulative IPC: 1.95053 (Simulation time: 0 hr 4 min 24 sec) 
Heartbeat CPU 0 instructions: 6000002 cycles: 3067704 heartbeat IPC: 1.98298 cumulative IPC: 1.95586 (Simulation time: 0 hr 5 min 18 sec) 
Heartbeat CPU 0 instructions: 7000002 cycles: 3605397 heartbeat IPC: 1.8598 cumulative IPC: 1.94153 (Simulation time: 0 hr 6 min 12 sec) 
Heartbeat CPU 0 instructions: 8000000 cycles: 4119301 heartbeat IPC: 1.94588 cumulative IPC: 1.94208 (Simulation time: 0 hr 7 min 4 sec) 
Heartbeat CPU 0 instructions: 9000002 cycles: 4632486 heartbeat IPC: 1.94862 cumulative IPC: 1.9428 (Simulation time: 0 hr 7 min 54 sec) 
Heartbeat CPU 0 instructions: 10000000 cycles: 5142233 heartbeat IPC: 1.96175 cumulative IPC: 1.94468 (Simulation time: 0 hr 8 min 48 sec) 

Warmup complete CPU 0 instructions: 10000003 cycles: 5142234 (Simulation time: 0 hr 8 min 48 sec) 

Heartbeat CPU 0 instructions: 11000001 cycles: 14404913 heartbeat IPC: 0.10796 cumulative IPC: 0.10796 (Simulation time: 0 hr 10 min 3 sec) 
Heartbeat CPU 0 instructions: 12000000 cycles: 28169161 heartbeat IPC: 0.0726519 cumulative IPC: 0.0868547 (Simulation time: 0 hr 11 min 39 sec) 
Heartbeat CPU 0 instructions: 13000001 cycles: 41221800 heartbeat IPC: 0.0766129 cumulative IPC: 0.0831495 (Simulation time: 0 hr 12 min 58 sec) 
Heartbeat CPU 0 instructions: 14000003 cycles: 50697967 heartbeat IPC: 0.105528 cumulative IPC: 0.0878045 (Simulation time: 0 hr 14 min 7 sec) 
Heartbeat CPU 0 instructions: 15000002 cycles: 60181911 heartbeat IPC: 0.105441 cumulative IPC: 0.0908435 (Simulation time: 0 hr 15 min 21 sec) 
Heartbeat CPU 0 instructions: 16000000 cycles: 69003484 heartbeat IPC: 0.113358 cumulative IPC: 0.0939536 (Simulation time: 0 hr 16 min 27 sec) 
Heartbeat CPU 0 instructions: 17000000 cycles: 78193914 heartbeat IPC: 0.108809 cumulative IPC: 0.0958225 (Simulation time: 0 hr 17 min 43 sec) 
Heartbeat CPU 0 instructions: 18000002 cycles: 86709684 heartbeat IPC: 0.117429 cumulative IPC: 0.0980783 (Simulation time: 0 hr 19 min 1 sec) 
Heartbeat CPU 0 instructions: 19000000 cycles: 95597291 heartbeat IPC: 0.112516 cumulative IPC: 0.0994969 (Simulation time: 0 hr 20 min 21 sec) 
Heartbeat CPU 0 instructions: 20000000 cycles: 104472577 heartbeat IPC: 0.112672 cumulative IPC: 0.100674 (Simulation time: 0 hr 21 min 30 sec) 
Heartbeat CPU 0 instructions: 21000000 cycles: 113110976 heartbeat IPC: 0.115762 cumulative IPC: 0.101881 (Simulation time: 0 hr 22 min 48 sec) 
Heartbeat CPU 0 instructions: 22000000 cycles: 121500021 heartbeat IPC: 0.119203 cumulative IPC: 0.10313 (Simulation time: 0 hr 24 min 0 sec) 
Heartbeat CPU 0 instructions: 23000003 cycles: 130384046 heartbeat IPC: 0.112562 cumulative IPC: 0.103799 (Simulation time: 0 hr 25 min 6 sec) 
Heartbeat CPU 0 instructions: 24000000 cycles: 139013219 heartbeat IPC: 0.115886 cumulative IPC: 0.104578 (Simulation time: 0 hr 26 min 13 sec) 
Heartbeat CPU 0 instructions: 25000002 cycles: 148052338 heartbeat IPC: 0.11063 cumulative IPC: 0.104961 (Simulation time: 0 hr 27 min 26 sec) 
Heartbeat CPU 0 instructions: 26000000 cycles: 157185803 heartbeat IPC: 0.109487 cumulative IPC: 0.105233 (Simulation time: 0 hr 28 min 42 sec) 
Heartbeat CPU 0 instructions: 27000003 cycles: 166318321 heartbeat IPC: 0.109499 cumulative IPC: 0.105475 (Simulation time: 0 hr 29 min 58 sec) 
Heartbeat CPU 0 instructions: 28000000 cycles: 175677257 heartbeat IPC: 0.106849 cumulative IPC: 0.10555 (Simulation time: 0 hr 31 min 13 sec) 
Heartbeat CPU 0 instructions: 29000000 cycles: 185159166 heartbeat IPC: 0.105464 cumulative IPC: 0.105546 (Simulation time: 0 hr 32 min 21 sec) 
Heartbeat CPU 0 instructions: 30000001 cycles: 194286233 heartbeat IPC: 0.109564 cumulative IPC: 0.10574 (Simulation time: 0 hr 33 min 43 sec) 
Heartbeat CPU 0 instructions: 31000000 cycles: 203412571 heartbeat IPC: 0.109573 cumulative IPC: 0.105916 (Simulation time: 0 hr 35 min 7 sec) 
Heartbeat CPU 0 instructions: 32000000 cycles: 212302899 heartbeat IPC: 0.112482 cumulative IPC: 0.106198 (Simulation time: 0 hr 36 min 21 sec) 
Heartbeat CPU 0 instructions: 33000000 cycles: 221519389 heartbeat IPC: 0.108501 cumulative IPC: 0.106296 (Simulation time: 0 hr 37 min 37 sec) 
Heartbeat CPU 0 instructions: 34000000 cycles: 230735732 heartbeat IPC: 0.108503 cumulative IPC: 0.106386 (Simulation time: 0 hr 38 min 50 sec) 
Heartbeat CPU 0 instructions: 35000001 cycles: 241792308 heartbeat IPC: 0.090444 cumulative IPC: 0.105641 (Simulation time: 0 hr 40 min 9 sec) 
Heartbeat CPU 0 instructions: 36000000 cycles: 255709624 heartbeat IPC: 0.0718529 cumulative IPC: 0.103764 (Simulation time: 0 hr 41 min 52 sec) 
Heartbeat CPU 0 instructions: 37000002 cycles: 265372916 heartbeat IPC: 0.103485 cumulative IPC: 0.103754 (Simulation time: 0 hr 43 min 1 sec) 
Heartbeat CPU 0 instructions: 38000000 cycles: 274693305 heartbeat IPC: 0.107291 cumulative IPC: 0.103876 (Simulation time: 0 hr 44 min 17 sec) 
Heartbeat CPU 0 instructions: 39000000 cycles: 283893345 heartbeat IPC: 0.108695 cumulative IPC: 0.104035 (Simulation time: 0 hr 45 min 35 sec) 
Heartbeat CPU 0 instructions: 40000000 cycles: 292956486 heartbeat IPC: 0.110337 cumulative IPC: 0.104234 (Simulation time: 0 hr 46 min 50 sec) 
Heartbeat CPU 0 instructions: 41000000 cycles: 302201963 heartbeat IPC: 0.108161 cumulative IPC: 0.104356 (Simulation time: 0 hr 48 min 2 sec) 
Heartbeat CPU 0 instructions: 42000000 cycles: 311358548 heartbeat IPC: 0.109211 cumulative IPC: 0.104501 (Simulation time: 0 hr 49 min 13 sec) 
Heartbeat CPU 0 instructions: 43000000 cycles: 320306652 heartbeat IPC: 0.111756 cumulative IPC: 0.104707 (Simulation time: 0 hr 50 min 26 sec) 
Heartbeat CPU 0 instructions: 44000000 cycles: 329447426 heartbeat IPC: 0.1094 cumulative IPC: 0.10484 (Simulation time: 0 hr 51 min 35 sec) 
Heartbeat CPU 0 instructions: 45000001 cycles: 338498598 heartbeat IPC: 0.110483 cumulative IPC: 0.104993 (Simulation time: 0 hr 52 min 50 sec) 
Heartbeat CPU 0 instructions: 46000000 cycles: 347747739 heartbeat IPC: 0.108118 cumulative IPC: 0.105077 (Simulation time: 0 hr 54 min 4 sec) 
Heartbeat CPU 0 instructions: 47000002 cycles: 356895553 heartbeat IPC: 0.109316 cumulative IPC: 0.105187 (Simulation time: 0 hr 55 min 9 sec) 
Heartbeat CPU 0 instructions: 48000000 cycles: 365908341 heartbeat IPC: 0.110953 cumulative IPC: 0.105331 (Simulation time: 0 hr 56 min 19 sec) 
Heartbeat CPU 0 instructions: 49000000 cycles: 375287285 heartbeat IPC: 0.106622 cumulative IPC: 0.105364 (Simulation time: 0 hr 57 min 26 sec) 
Heartbeat CPU 0 instructions: 50000002 cycles: 384581501 heartbeat IPC: 0.107594 cumulative IPC: 0.105419 (Simulation time: 0 hr 58 min 41 sec) 
Heartbeat CPU 0 instructions: 51000002 cycles: 393717606 heartbeat IPC: 0.109456 cumulative IPC: 0.105514 (Simulation time: 0 hr 59 min 48 sec) 
Heartbeat CPU 0 instructions: 52000000 cycles: 402906205 heartbeat IPC: 0.10883 cumulative IPC: 0.10559 (Simulation time: 1 hr 0 min 52 sec) 
Heartbeat CPU 0 instructions: 53000000 cycles: 412046238 heartbeat IPC: 0.109409 cumulative IPC: 0.105676 (Simulation time: 1 hr 2 min 1 sec) 
Heartbeat CPU 0 instructions: 54000000 cycles: 421025713 heartbeat IPC: 0.111365 cumulative IPC: 0.105799 (Simulation time: 1 hr 3 min 2 sec) 
Heartbeat CPU 0 instructions: 55000000 cycles: 430060156 heartbeat IPC: 0.110688 cumulative IPC: 0.105903 (Simulation time: 1 hr 4 min 2 sec) 
Heartbeat CPU 0 instructions: 56000000 cycles: 439099138 heartbeat IPC: 0.110632 cumulative IPC: 0.106001 (Simulation time: 1 hr 5 min 1 sec) 
Heartbeat CPU 0 instructions: 57000000 cycles: 448321089 heartbeat IPC: 0.108437 cumulative IPC: 0.106052 (Simulation time: 1 hr 6 min 0 sec) 
Heartbeat CPU 0 instructions: 58000000 cycles: 457393386 heartbeat IPC: 0.110226 cumulative IPC: 0.106136 (Simulation time: 1 hr 6 min 57 sec) 
Heartbeat CPU 0 instructions: 59000001 cycles: 466539168 heartbeat IPC: 0.10934 cumulative IPC: 0.106199 (Simulation time: 1 hr 7 min 58 sec) 
Heartbeat CPU 0 instructions: 60000000 cycles: 475611743 heartbeat IPC: 0.110222 cumulative IPC: 0.106277 (Simulation time: 1 hr 8 min 48 sec) 
Heartbeat CPU 0 instructions: 61000002 cycles: 484642727 heartbeat IPC: 0.11073 cumulative IPC: 0.106361 (Simulation time: 1 hr 9 min 39 sec) 
Heartbeat CPU 0 instructions: 62000000 cycles: 492344480 heartbeat IPC: 0.12984 cumulative IPC: 0.106732 (Simulation time: 1 hr 10 min 22 sec) 
Heartbeat CPU 0 instructions: 63000001 cycles: 501027327 heartbeat IPC: 0.11517 cumulative IPC: 0.10688 (Simulation time: 1 hr 11 min 3 sec) 
Heartbeat CPU 0 instructions: 64000000 cycles: 509908243 heartbeat IPC: 0.112601 cumulative IPC: 0.10698 (Simulation time: 1 hr 11 min 49 sec) 
Heartbeat CPU 0 instructions: 65000000 cycles: 518438779 heartbeat IPC: 0.117226 cumulative IPC: 0.107151 (Simulation time: 1 hr 12 min 32 sec) 
Heartbeat CPU 0 instructions: 66000000 cycles: 527225075 heartbeat IPC: 0.113814 cumulative IPC: 0.107263 (Simulation time: 1 hr 13 min 6 sec) 
Heartbeat CPU 0 instructions: 67000001 cycles: 536216378 heartbeat IPC: 0.111219 cumulative IPC: 0.10733 (Simulation time: 1 hr 13 min 43 sec) 
Heartbeat CPU 0 instructions: 68000000 cycles: 545374816 heartbeat IPC: 0.109189 cumulative IPC: 0.107361 (Simulation time: 1 hr 14 min 19 sec) 
Heartbeat CPU 0 instructions: 69000000 cycles: 554266118 heartbeat IPC: 0.112469 cumulative IPC: 0.107444 (Simulation time: 1 hr 14 min 51 sec) 
Heartbeat CPU 0 instructions: 70000000 cycles: 562991696 heartbeat IPC: 0.114606 cumulative IPC: 0.107556 (Simulation time: 1 hr 15 min 21 sec) 
Heartbeat CPU 0 instructions: 71000000 cycles: 571708636 heartbeat IPC: 0.114719 cumulative IPC: 0.107666 (Simulation time: 1 hr 15 min 47 sec) 
Heartbeat CPU 0 instructions: 72000000 cycles: 580451853 heartbeat IPC: 0.114374 cumulative IPC: 0.107768 (Simulation time: 1 hr 16 min 10 sec) 
Heartbeat CPU 0 instructions: 73000000 cycles: 589284573 heartbeat IPC: 0.113215 cumulative IPC: 0.10785 (Simulation time: 1 hr 16 min 28 sec) 
Heartbeat CPU 0 instructions: 74000001 cycles: 598351269 heartbeat IPC: 0.110294 cumulative IPC: 0.107888 (Simulation time: 1 hr 16 min 45 sec) 
Heartbeat CPU 0 instructions: 75000002 cycles: 607065579 heartbeat IPC: 0.114754 cumulative IPC: 0.107987 (Simulation time: 1 hr 17 min 1 sec) 
Heartbeat CPU 0 instructions: 76000000 cycles: 615782959 heartbeat IPC: 0.114713 cumulative IPC: 0.108083 (Simulation time: 1 hr 17 min 16 sec) 
Heartbeat CPU 0 instructions: 77000003 cycles: 629914838 heartbeat IPC: 0.0707622 cumulative IPC: 0.107239 (Simulation time: 1 hr 17 min 32 sec) 
Heartbeat CPU 0 instructions: 78000000 cycles: 640672255 heartbeat IPC: 0.0929588 cumulative IPC: 0.106997 (Simulation time: 1 hr 17 min 45 sec) 
Heartbeat CPU 0 instructions: 79000000 cycles: 649675755 heartbeat IPC: 0.111068 cumulative IPC: 0.107054 (Simulation time: 1 hr 17 min 57 sec) 
Heartbeat CPU 0 instructions: 80000000 cycles: 658351454 heartbeat IPC: 0.115264 cumulative IPC: 0.107163 (Simulation time: 1 hr 18 min 8 sec) 
Heartbeat CPU 0 instructions: 81000001 cycles: 667021609 heartbeat IPC: 0.115338 cumulative IPC: 0.10727 (Simulation time: 1 hr 18 min 17 sec) 
Heartbeat CPU 0 instructions: 82000001 cycles: 675189475 heartbeat IPC: 0.122431 cumulative IPC: 0.107455 (Simulation time: 1 hr 18 min 26 sec) 
Heartbeat CPU 0 instructions: 83000002 cycles: 682846971 heartbeat IPC: 0.130591 cumulative IPC: 0.107717 (Simulation time: 1 hr 18 min 34 sec) 
Heartbeat CPU 0 instructions: 84000000 cycles: 690355789 heartbeat IPC: 0.133176 cumulative IPC: 0.107996 (Simulation time: 1 hr 18 min 42 sec) 
Heartbeat CPU 0 instructions: 85000000 cycles: 698220443 heartbeat IPC: 0.127151 cumulative IPC: 0.108213 (Simulation time: 1 hr 18 min 51 sec) 
Heartbeat CPU 0 instructions: 86000001 cycles: 706041551 heartbeat IPC: 0.127859 cumulative IPC: 0.108432 (Simulation time: 1 hr 19 min 0 sec) 
Heartbeat CPU 0 instructions: 87000001 cycles: 719409340 heartbeat IPC: 0.0748067 cumulative IPC: 0.107803 (Simulation time: 1 hr 19 min 10 sec) 
Heartbeat CPU 0 instructions: 88000000 cycles: 730316954 heartbeat IPC: 0.091679 cumulative IPC: 0.10756 (Simulation time: 1 hr 19 min 20 sec) 
Heartbeat CPU 0 instructions: 89000001 cycles: 738664157 heartbeat IPC: 0.119801 cumulative IPC: 0.1077 (Simulation time: 1 hr 19 min 29 sec) 
Heartbeat CPU 0 instructions: 90000001 cycles: 745513765 heartbeat IPC: 0.145994 cumulative IPC: 0.108054 (Simulation time: 1 hr 19 min 37 sec) 
Heartbeat CPU 0 instructions: 91000000 cycles: 755660832 heartbeat IPC: 0.0985505 cumulative IPC: 0.107925 (Simulation time: 1 hr 19 min 46 sec) 
Heartbeat CPU 0 instructions: 92000000 cycles: 764851095 heartbeat IPC: 0.108811 cumulative IPC: 0.107936 (Simulation time: 1 hr 19 min 55 sec) 
Heartbeat CPU 0 instructions: 93000000 cycles: 774415434 heartbeat IPC: 0.104555 cumulative IPC: 0.107894 (Simulation time: 1 hr 20 min 3 sec) 
Heartbeat CPU 0 instructions: 94000000 cycles: 783570965 heartbeat IPC: 0.109224 cumulative IPC: 0.10791 (Simulation time: 1 hr 20 min 11 sec) 
Heartbeat CPU 0 instructions: 95000000 cycles: 792655665 heartbeat IPC: 0.110075 cumulative IPC: 0.107935 (Simulation time: 1 hr 20 min 19 sec) 
Heartbeat CPU 0 instructions: 96000000 cycles: 801786741 heartbeat IPC: 0.109516 cumulative IPC: 0.107953 (Simulation time: 1 hr 20 min 28 sec) 
Heartbeat CPU 0 instructions: 97000000 cycles: 810913624 heartbeat IPC: 0.109566 cumulative IPC: 0.107971 (Simulation time: 1 hr 20 min 36 sec) 
Heartbeat CPU 0 instructions: 98000000 cycles: 820013263 heartbeat IPC: 0.109894 cumulative IPC: 0.107993 (Simulation time: 1 hr 20 min 44 sec) 
Heartbeat CPU 0 instructions: 99000000 cycles: 829037776 heartbeat IPC: 0.110809 cumulative IPC: 0.108023 (Simulation time: 1 hr 20 min 53 sec) 
Heartbeat CPU 0 instructions: 100000000 cycles: 838230531 heartbeat IPC: 0.108781 cumulative IPC: 0.108032 (Simulation time: 1 hr 21 min 3 sec) 
Heartbeat CPU 0 instructions: 101000002 cycles: 847292834 heartbeat IPC: 0.110347 cumulative IPC: 0.108057 (Simulation time: 1 hr 21 min 11 sec) 
Heartbeat CPU 0 instructions: 102000000 cycles: 856454028 heartbeat IPC: 0.109156 cumulative IPC: 0.108069 (Simulation time: 1 hr 21 min 21 sec) 
Heartbeat CPU 0 instructions: 103000000 cycles: 865717928 heartbeat IPC: 0.107946 cumulative IPC: 0.108067 (Simulation time: 1 hr 21 min 31 sec) 
Heartbeat CPU 0 instructions: 104000000 cycles: 874865170 heartbeat IPC: 0.109323 cumulative IPC: 0.10808 (Simulation time: 1 hr 21 min 40 sec) 
Heartbeat CPU 0 instructions: 105000000 cycles: 884205964 heartbeat IPC: 0.107057 cumulative IPC: 0.10807 (Simulation time: 1 hr 21 min 49 sec) 
Heartbeat CPU 0 instructions: 106000002 cycles: 893470907 heartbeat IPC: 0.107934 cumulative IPC: 0.108068 (Simulation time: 1 hr 21 min 57 sec) 
Heartbeat CPU 0 instructions: 107000003 cycles: 902636113 heartbeat IPC: 0.109108 cumulative IPC: 0.108079 (Simulation time: 1 hr 22 min 6 sec) 
Heartbeat CPU 0 instructions: 108000000 cycles: 911787973 heartbeat IPC: 0.109267 cumulative IPC: 0.108091 (Simulation time: 1 hr 22 min 14 sec) 
Heartbeat CPU 0 instructions: 109000000 cycles: 920767290 heartbeat IPC: 0.111367 cumulative IPC: 0.108123 (Simulation time: 1 hr 22 min 23 sec) 
Heartbeat CPU 0 instructions: 110000000 cycles: 929875909 heartbeat IPC: 0.109786 cumulative IPC: 0.108139 (Simulation time: 1 hr 22 min 32 sec) 
Finished CPU 0 instructions: 100000000 cycles: 924733677 cummulative IPC: 0.108139 (Simulation time: 1 hr 22 min 32 sec) 

ChampSim completed all CPUs

Region of Interest Statistics

CPU 0 cummulative IPC: 0.108139 instructions: 100000000 cycles: 924733677
LLC TOTAL     ACCESS:   26976991  HIT:   11375145  MISS:   15601846
LLC LOAD      ACCESS:   11728104  HIT:    8667531  MISS:    3060573
LLC RFO       ACCESS:      27340  HIT:      16304  MISS:      11036
LLC PREFETCH  ACCESS:   14887828  HIT:    2413077  MISS:   12474751
LLC WRITEBACK ACCESS:     333719  HIT:     278233  MISS:      55486
