
*** ChampSim Multicore Out-of-Order Simulator ***

Warmup Instructions: 10000000
Simulation Instructions: 100000000
Configuration: 2
Number of CPUs: 1
LLC sets: 2048
LLC ways: 16
Off-chip DRAM Channels: 1 Width: 64-bit Data Rate: 1600 MT/s

CPU 0 runs /datasets/cs240c-wi22-a00-public/data/Assignment2-gz/soplex_205B.trace.gz
CPU 0 L1D next line prefetcher
CPU 0 L2C IP-based stride prefetcher
Heartbeat CPU 0 instructions: 1000000 cycles: 395620 heartbeat IPC: 2.52768 cumulative IPC: 2.52768 (Simulation time: 0 hr 0 min 34 sec) 
Heartbeat CPU 0 instructions: 2000002 cycles: 927584 heartbeat IPC: 1.87983 cumulative IPC: 2.15614 (Simulation time: 0 hr 1 min 6 sec) 
Heartbeat CPU 0 instructions: 3000000 cycles: 1399660 heartbeat IPC: 2.1183 cumulative IPC: 2.14338 (Simulation time: 0 hr 1 min 53 sec) 
Heartbeat CPU 0 instructions: 4000000 cycles: 1760925 heartbeat IPC: 2.76805 cumulative IPC: 2.27153 (Simulation time: 0 hr 2 min 27 sec) 
Heartbeat CPU 0 instructions: 5000003 cycles: 2204364 heartbeat IPC: 2.25511 cumulative IPC: 2.26823 (Simulation time: 0 hr 3 min 0 sec) 
Heartbeat CPU 0 instructions: 6000003 cycles: 2624354 heartbeat IPC: 2.38101 cumulative IPC: 2.28628 (Simulation time: 0 hr 3 min 35 sec) 
Heartbeat CPU 0 instructions: 7000000 cycles: 3008789 heartbeat IPC: 2.60121 cumulative IPC: 2.32652 (Simulation time: 0 hr 4 min 5 sec) 
Heartbeat CPU 0 instructions: 8000000 cycles: 3402780 heartbeat IPC: 2.53813 cumulative IPC: 2.35102 (Simulation time: 0 hr 4 min 35 sec) 
Heartbeat CPU 0 instructions: 9000003 cycles: 3928040 heartbeat IPC: 1.90382 cumulative IPC: 2.29122 (Simulation time: 0 hr 5 min 7 sec) 
Heartbeat CPU 0 instructions: 10000000 cycles: 4413419 heartbeat IPC: 2.06024 cumulative IPC: 2.26582 (Simulation time: 0 hr 5 min 44 sec) 

Warmup complete CPU 0 instructions: 10000004 cycles: 4413421 (Simulation time: 0 hr 5 min 44 sec) 

Heartbeat CPU 0 instructions: 11000001 cycles: 7041135 heartbeat IPC: 0.380559 cumulative IPC: 0.380558 (Simulation time: 0 hr 6 min 22 sec) 
Heartbeat CPU 0 instructions: 12000000 cycles: 9299984 heartbeat IPC: 0.442703 cumulative IPC: 0.409285 (Simulation time: 0 hr 7 min 3 sec) 
Heartbeat CPU 0 instructions: 13000000 cycles: 12889929 heartbeat IPC: 0.278556 cumulative IPC: 0.353919 (Simulation time: 0 hr 7 min 51 sec) 
Heartbeat CPU 0 instructions: 14000003 cycles: 14202247 heartbeat IPC: 0.762013 cumulative IPC: 0.408629 (Simulation time: 0 hr 8 min 21 sec) 
Heartbeat CPU 0 instructions: 15000000 cycles: 15949009 heartbeat IPC: 0.572486 cumulative IPC: 0.433441 (Simulation time: 0 hr 8 min 56 sec) 
Heartbeat CPU 0 instructions: 16000000 cycles: 19381136 heartbeat IPC: 0.291365 cumulative IPC: 0.400863 (Simulation time: 0 hr 9 min 44 sec) 
Heartbeat CPU 0 instructions: 17000001 cycles: 23139965 heartbeat IPC: 0.266041 cumulative IPC: 0.373801 (Simulation time: 0 hr 10 min 45 sec) 
Heartbeat CPU 0 instructions: 18000000 cycles: 29740633 heartbeat IPC: 0.1515 cumulative IPC: 0.315866 (Simulation time: 0 hr 11 min 40 sec) 
Heartbeat CPU 0 instructions: 19000003 cycles: 34276228 heartbeat IPC: 0.220479 cumulative IPC: 0.301378 (Simulation time: 0 hr 12 min 43 sec) 
Heartbeat CPU 0 instructions: 20000000 cycles: 36506520 heartbeat IPC: 0.44837 cumulative IPC: 0.311593 (Simulation time: 0 hr 13 min 40 sec) 
Heartbeat CPU 0 instructions: 21000001 cycles: 41153282 heartbeat IPC: 0.215204 cumulative IPC: 0.299402 (Simulation time: 0 hr 14 min 40 sec) 
Heartbeat CPU 0 instructions: 22000001 cycles: 45319949 heartbeat IPC: 0.24 cumulative IPC: 0.293352 (Simulation time: 0 hr 15 min 27 sec) 
Heartbeat CPU 0 instructions: 23000002 cycles: 48545097 heartbeat IPC: 0.310064 cumulative IPC: 0.294573 (Simulation time: 0 hr 16 min 8 sec) 
Heartbeat CPU 0 instructions: 24000000 cycles: 52373557 heartbeat IPC: 0.261201 cumulative IPC: 0.291909 (Simulation time: 0 hr 17 min 3 sec) 
Heartbeat CPU 0 instructions: 25000000 cycles: 56287275 heartbeat IPC: 0.255512 cumulative IPC: 0.289163 (Simulation time: 0 hr 17 min 45 sec) 
Heartbeat CPU 0 instructions: 26000002 cycles: 60059569 heartbeat IPC: 0.265091 cumulative IPC: 0.287531 (Simulation time: 0 hr 18 min 41 sec) 
Heartbeat CPU 0 instructions: 27000000 cycles: 62656998 heartbeat IPC: 0.384995 cumulative IPC: 0.291878 (Simulation time: 0 hr 19 min 21 sec) 
Heartbeat CPU 0 instructions: 28000000 cycles: 66319158 heartbeat IPC: 0.273063 cumulative IPC: 0.290765 (Simulation time: 0 hr 20 min 14 sec) 
Heartbeat CPU 0 instructions: 29000002 cycles: 68352047 heartbeat IPC: 0.491912 cumulative IPC: 0.29716 (Simulation time: 0 hr 20 min 58 sec) 
Heartbeat CPU 0 instructions: 30000003 cycles: 69270936 heartbeat IPC: 1.08827 cumulative IPC: 0.308368 (Simulation time: 0 hr 21 min 29 sec) 
Heartbeat CPU 0 instructions: 31000003 cycles: 70611429 heartbeat IPC: 0.745994 cumulative IPC: 0.31723 (Simulation time: 0 hr 22 min 5 sec) 
Heartbeat CPU 0 instructions: 32000000 cycles: 73748447 heartbeat IPC: 0.318773 cumulative IPC: 0.3173 (Simulation time: 0 hr 22 min 55 sec) 
Heartbeat CPU 0 instructions: 33000000 cycles: 76758429 heartbeat IPC: 0.332228 cumulative IPC: 0.317921 (Simulation time: 0 hr 23 min 46 sec) 
Heartbeat CPU 0 instructions: 34000002 cycles: 78490674 heartbeat IPC: 0.577287 cumulative IPC: 0.323986 (Simulation time: 0 hr 24 min 24 sec) 
Heartbeat CPU 0 instructions: 35000003 cycles: 81192435 heartbeat IPC: 0.370129 cumulative IPC: 0.32561 (Simulation time: 0 hr 25 min 6 sec) 
Heartbeat CPU 0 instructions: 36000000 cycles: 83807600 heartbeat IPC: 0.382384 cumulative IPC: 0.32748 (Simulation time: 0 hr 25 min 56 sec) 
Heartbeat CPU 0 instructions: 37000000 cycles: 87459639 heartbeat IPC: 0.27382 cumulative IPC: 0.32512 (Simulation time: 0 hr 26 min 46 sec) 
Heartbeat CPU 0 instructions: 38000002 cycles: 88758981 heartbeat IPC: 0.769622 cumulative IPC: 0.331968 (Simulation time: 0 hr 27 min 14 sec) 
Heartbeat CPU 0 instructions: 39000003 cycles: 90762120 heartbeat IPC: 0.499217 cumulative IPC: 0.335848 (Simulation time: 0 hr 27 min 47 sec) 
Heartbeat CPU 0 instructions: 40000000 cycles: 94238997 heartbeat IPC: 0.287614 cumulative IPC: 0.333981 (Simulation time: 0 hr 28 min 38 sec) 
Heartbeat CPU 0 instructions: 41000000 cycles: 97661415 heartbeat IPC: 0.292191 cumulative IPC: 0.332447 (Simulation time: 0 hr 29 min 24 sec) 
Heartbeat CPU 0 instructions: 42000001 cycles: 99523342 heartbeat IPC: 0.537078 cumulative IPC: 0.336453 (Simulation time: 0 hr 30 min 6 sec) 
Heartbeat CPU 0 instructions: 43000001 cycles: 103360937 heartbeat IPC: 0.26058 cumulative IPC: 0.33351 (Simulation time: 0 hr 31 min 4 sec) 
Heartbeat CPU 0 instructions: 44000000 cycles: 105744151 heartbeat IPC: 0.419601 cumulative IPC: 0.335535 (Simulation time: 0 hr 31 min 36 sec) 
Heartbeat CPU 0 instructions: 45000001 cycles: 107038692 heartbeat IPC: 0.772475 cumulative IPC: 0.341047 (Simulation time: 0 hr 32 min 5 sec) 
Heartbeat CPU 0 instructions: 46000002 cycles: 109871055 heartbeat IPC: 0.353062 cumulative IPC: 0.341369 (Simulation time: 0 hr 32 min 48 sec) 
Heartbeat CPU 0 instructions: 47000000 cycles: 113114263 heartbeat IPC: 0.308336 cumulative IPC: 0.340384 (Simulation time: 0 hr 33 min 43 sec) 
Heartbeat CPU 0 instructions: 48000000 cycles: 115900017 heartbeat IPC: 0.358969 cumulative IPC: 0.340848 (Simulation time: 0 hr 34 min 38 sec) 
Heartbeat CPU 0 instructions: 49000001 cycles: 117920818 heartbeat IPC: 0.494854 cumulative IPC: 0.34359 (Simulation time: 0 hr 35 min 25 sec) 
Heartbeat CPU 0 instructions: 50000000 cycles: 121306947 heartbeat IPC: 0.295322 cumulative IPC: 0.342192 (Simulation time: 0 hr 36 min 17 sec) 
Heartbeat CPU 0 instructions: 51000003 cycles: 123750173 heartbeat IPC: 0.409296 cumulative IPC: 0.343566 (Simulation time: 0 hr 36 min 58 sec) 
Heartbeat CPU 0 instructions: 52000000 cycles: 125045737 heartbeat IPC: 0.771862 cumulative IPC: 0.348165 (Simulation time: 0 hr 37 min 28 sec) 
Heartbeat CPU 0 instructions: 53000003 cycles: 127859731 heartbeat IPC: 0.355368 cumulative IPC: 0.34833 (Simulation time: 0 hr 38 min 13 sec) 
Heartbeat CPU 0 instructions: 54000000 cycles: 131123620 heartbeat IPC: 0.306382 cumulative IPC: 0.347249 (Simulation time: 0 hr 39 min 4 sec) 
Heartbeat CPU 0 instructions: 55000001 cycles: 134153091 heartbeat IPC: 0.330091 cumulative IPC: 0.346848 (Simulation time: 0 hr 39 min 57 sec) 
Heartbeat CPU 0 instructions: 56000000 cycles: 136041252 heartbeat IPC: 0.529615 cumulative IPC: 0.34947 (Simulation time: 0 hr 40 min 36 sec) 
Heartbeat CPU 0 instructions: 57000000 cycles: 139506961 heartbeat IPC: 0.288541 cumulative IPC: 0.347907 (Simulation time: 0 hr 41 min 24 sec) 
Heartbeat CPU 0 instructions: 58000000 cycles: 141787409 heartbeat IPC: 0.43851 cumulative IPC: 0.349411 (Simulation time: 0 hr 42 min 0 sec) 
Heartbeat CPU 0 instructions: 59000001 cycles: 143070599 heartbeat IPC: 0.779309 cumulative IPC: 0.35339 (Simulation time: 0 hr 42 min 30 sec) 
Heartbeat CPU 0 instructions: 60000000 cycles: 145893567 heartbeat IPC: 0.354237 cumulative IPC: 0.353406 (Simulation time: 0 hr 43 min 12 sec) 
Heartbeat CPU 0 instructions: 61000003 cycles: 149138207 heartbeat IPC: 0.308202 cumulative IPC: 0.352393 (Simulation time: 0 hr 44 min 7 sec) 
Heartbeat CPU 0 instructions: 62000002 cycles: 152256700 heartbeat IPC: 0.320667 cumulative IPC: 0.351724 (Simulation time: 0 hr 44 min 57 sec) 
Heartbeat CPU 0 instructions: 63000001 cycles: 153955873 heartbeat IPC: 0.588521 cumulative IPC: 0.354414 (Simulation time: 0 hr 45 min 34 sec) 
Heartbeat CPU 0 instructions: 64000000 cycles: 157778436 heartbeat IPC: 0.261604 cumulative IPC: 0.352101 (Simulation time: 0 hr 46 min 28 sec) 
Heartbeat CPU 0 instructions: 65000001 cycles: 159696630 heartbeat IPC: 0.521324 cumulative IPC: 0.354192 (Simulation time: 0 hr 47 min 1 sec) 
Heartbeat CPU 0 instructions: 66000000 cycles: 160978567 heartbeat IPC: 0.780069 cumulative IPC: 0.357679 (Simulation time: 0 hr 47 min 35 sec) 
Heartbeat CPU 0 instructions: 67000003 cycles: 163835126 heartbeat IPC: 0.350073 cumulative IPC: 0.357542 (Simulation time: 0 hr 48 min 20 sec) 
Heartbeat CPU 0 instructions: 68000000 cycles: 167115080 heartbeat IPC: 0.304881 cumulative IPC: 0.356481 (Simulation time: 0 hr 49 min 13 sec) 
Heartbeat CPU 0 instructions: 69000001 cycles: 169781088 heartbeat IPC: 0.375093 cumulative IPC: 0.356781 (Simulation time: 0 hr 49 min 58 sec) 
Heartbeat CPU 0 instructions: 70000000 cycles: 171668327 heartbeat IPC: 0.529874 cumulative IPC: 0.358734 (Simulation time: 0 hr 50 min 42 sec) 
Heartbeat CPU 0 instructions: 71000001 cycles: 175138756 heartbeat IPC: 0.288149 cumulative IPC: 0.357299 (Simulation time: 0 hr 51 min 36 sec) 
Heartbeat CPU 0 instructions: 72000000 cycles: 177399249 heartbeat IPC: 0.442381 cumulative IPC: 0.358411 (Simulation time: 0 hr 52 min 15 sec) 
Heartbeat CPU 0 instructions: 73000000 cycles: 178682619 heartbeat IPC: 0.779199 cumulative IPC: 0.36151 (Simulation time: 0 hr 52 min 46 sec) 
Heartbeat CPU 0 instructions: 74000001 cycles: 181494818 heartbeat IPC: 0.355594 cumulative IPC: 0.361416 (Simulation time: 0 hr 53 min 27 sec) 
Heartbeat CPU 0 instructions: 75000003 cycles: 184701694 heartbeat IPC: 0.311831 cumulative IPC: 0.360534 (Simulation time: 0 hr 54 min 19 sec) 
Heartbeat CPU 0 instructions: 76000000 cycles: 187823128 heartbeat IPC: 0.320365 cumulative IPC: 0.35985 (Simulation time: 0 hr 55 min 3 sec) 
Heartbeat CPU 0 instructions: 77000000 cycles: 189476752 heartbeat IPC: 0.604732 cumulative IPC: 0.362038 (Simulation time: 0 hr 55 min 39 sec) 
Heartbeat CPU 0 instructions: 78000000 cycles: 193350827 heartbeat IPC: 0.258126 cumulative IPC: 0.359908 (Simulation time: 0 hr 56 min 35 sec) 
Heartbeat CPU 0 instructions: 79000002 cycles: 195157885 heartbeat IPC: 0.553387 cumulative IPC: 0.36174 (Simulation time: 0 hr 57 min 5 sec) 
Heartbeat CPU 0 instructions: 80000000 cycles: 196434181 heartbeat IPC: 0.783516 cumulative IPC: 0.364544 (Simulation time: 0 hr 57 min 34 sec) 
Heartbeat CPU 0 instructions: 81000000 cycles: 199287660 heartbeat IPC: 0.350449 cumulative IPC: 0.364338 (Simulation time: 0 hr 58 min 13 sec) 
Heartbeat CPU 0 instructions: 82000000 cycles: 202582636 heartbeat IPC: 0.303492 cumulative IPC: 0.363326 (Simulation time: 0 hr 59 min 10 sec) 
Heartbeat CPU 0 instructions: 83000000 cycles: 205775963 heartbeat IPC: 0.313153 cumulative IPC: 0.36253 (Simulation time: 1 hr 0 min 7 sec) 
Heartbeat CPU 0 instructions: 84000000 cycles: 207564626 heartbeat IPC: 0.559077 cumulative IPC: 0.364261 (Simulation time: 1 hr 0 min 51 sec) 
Heartbeat CPU 0 instructions: 85000000 cycles: 211499134 heartbeat IPC: 0.254161 cumulative IPC: 0.362169 (Simulation time: 1 hr 1 min 57 sec) 
Heartbeat CPU 0 instructions: 86000002 cycles: 212945237 heartbeat IPC: 0.691515 cumulative IPC: 0.364453 (Simulation time: 1 hr 2 min 29 sec) 
Heartbeat CPU 0 instructions: 87000002 cycles: 214216850 heartbeat IPC: 0.786403 cumulative IPC: 0.36701 (Simulation time: 1 hr 3 min 3 sec) 
Heartbeat CPU 0 instructions: 88000000 cycles: 217069267 heartbeat IPC: 0.350579 cumulative IPC: 0.36679 (Simulation time: 1 hr 3 min 45 sec) 
Heartbeat CPU 0 instructions: 89000001 cycles: 220691164 heartbeat IPC: 0.276099 cumulative IPC: 0.365271 (Simulation time: 1 hr 4 min 39 sec) 
Heartbeat CPU 0 instructions: 90000001 cycles: 223720966 heartbeat IPC: 0.330055 cumulative IPC: 0.364785 (Simulation time: 1 hr 5 min 21 sec) 
Heartbeat CPU 0 instructions: 91000002 cycles: 225627369 heartbeat IPC: 0.524549 cumulative IPC: 0.366161 (Simulation time: 1 hr 5 min 59 sec) 
Heartbeat CPU 0 instructions: 92000000 cycles: 229441403 heartbeat IPC: 0.262189 cumulative IPC: 0.364399 (Simulation time: 1 hr 6 min 45 sec) 
Heartbeat CPU 0 instructions: 93000000 cycles: 230751475 heartbeat IPC: 0.763317 cumulative IPC: 0.366708 (Simulation time: 1 hr 7 min 10 sec) 
Heartbeat CPU 0 instructions: 94000000 cycles: 232145479 heartbeat IPC: 0.717358 cumulative IPC: 0.368854 (Simulation time: 1 hr 7 min 36 sec) 
Heartbeat CPU 0 instructions: 95000002 cycles: 235077301 heartbeat IPC: 0.341086 cumulative IPC: 0.368502 (Simulation time: 1 hr 8 min 15 sec) 
Heartbeat CPU 0 instructions: 96000000 cycles: 238101592 heartbeat IPC: 0.330655 cumulative IPC: 0.368012 (Simulation time: 1 hr 8 min 52 sec) 
Heartbeat CPU 0 instructions: 97000003 cycles: 240728581 heartbeat IPC: 0.380665 cumulative IPC: 0.368152 (Simulation time: 1 hr 9 min 21 sec) 
Heartbeat CPU 0 instructions: 98000003 cycles: 243051082 heartbeat IPC: 0.43057 cumulative IPC: 0.36876 (Simulation time: 1 hr 9 min 50 sec) 
Heartbeat CPU 0 instructions: 99000000 cycles: 246547227 heartbeat IPC: 0.286028 cumulative IPC: 0.367565 (Simulation time: 1 hr 10 min 21 sec) 
Heartbeat CPU 0 instructions: 100000000 cycles: 247863168 heartbeat IPC: 0.759912 cumulative IPC: 0.369686 (Simulation time: 1 hr 10 min 38 sec) 
Heartbeat CPU 0 instructions: 101000003 cycles: 249813969 heartbeat IPC: 0.512612 cumulative IPC: 0.370822 (Simulation time: 1 hr 11 min 0 sec) 
Heartbeat CPU 0 instructions: 102000002 cycles: 252916485 heartbeat IPC: 0.322319 cumulative IPC: 0.370217 (Simulation time: 1 hr 11 min 32 sec) 
Heartbeat CPU 0 instructions: 103000000 cycles: 255256785 heartbeat IPC: 0.427295 cumulative IPC: 0.370749 (Simulation time: 1 hr 12 min 0 sec) 
Heartbeat CPU 0 instructions: 104000000 cycles: 264127035 heartbeat IPC: 0.112736 cumulative IPC: 0.361937 (Simulation time: 1 hr 12 min 36 sec) 
Heartbeat CPU 0 instructions: 105000000 cycles: 266262345 heartbeat IPC: 0.468316 cumulative IPC: 0.362805 (Simulation time: 1 hr 13 min 3 sec) 
Heartbeat CPU 0 instructions: 106000002 cycles: 270276063 heartbeat IPC: 0.249146 cumulative IPC: 0.361089 (Simulation time: 1 hr 13 min 32 sec) 
Heartbeat CPU 0 instructions: 107000003 cycles: 274728961 heartbeat IPC: 0.224573 cumulative IPC: 0.35884 (Simulation time: 1 hr 14 min 0 sec) 
Heartbeat CPU 0 instructions: 108000000 cycles: 278226233 heartbeat IPC: 0.285936 cumulative IPC: 0.357909 (Simulation time: 1 hr 14 min 24 sec) 
Heartbeat CPU 0 instructions: 109000000 cycles: 281565474 heartbeat IPC: 0.299469 cumulative IPC: 0.357205 (Simulation time: 1 hr 14 min 47 sec) 
Heartbeat CPU 0 instructions: 110000003 cycles: 285262294 heartbeat IPC: 0.270504 cumulative IPC: 0.356063 (Simulation time: 1 hr 15 min 7 sec) 
Finished CPU 0 instructions: 100000003 cycles: 280848874 cummulative IPC: 0.356063 (Simulation time: 1 hr 15 min 7 sec) 

ChampSim completed all CPUs

Region of Interest Statistics

CPU 0 cummulative IPC: 0.356063 instructions: 100000003 cycles: 280848874
LLC TOTAL     ACCESS:    8733876  HIT:    4051919  MISS:    4681957
LLC LOAD      ACCESS:    2233658  HIT:     952158  MISS:    1281500
LLC RFO       ACCESS:     871489  HIT:     367760  MISS:     503729
LLC PREFETCH  ACCESS:    3453870  HIT:    1232904  MISS:    2220966
LLC WRITEBACK ACCESS:    2174859  HIT:    1499097  MISS:     675762
