
*** ChampSim Multicore Out-of-Order Simulator ***

Warmup Instructions: 10000000
Simulation Instructions: 100000000
Configuration: 2
Number of CPUs: 1
LLC sets: 2048
LLC ways: 16
Off-chip DRAM Channels: 1 Width: 64-bit Data Rate: 1600 MT/s

CPU 0 runs /datasets/cs240c-wi22-a00-public/data/Assignment2-gz/cactusADM_1039B.trace.gz
CPU 0 L1D next line prefetcher
CPU 0 L2C IP-based stride prefetcher
Heartbeat CPU 0 instructions: 1000000 cycles: 595518 heartbeat IPC: 1.67921 cumulative IPC: 1.67921 (Simulation time: 0 hr 0 min 45 sec) 
Heartbeat CPU 0 instructions: 2000002 cycles: 1190937 heartbeat IPC: 1.67949 cumulative IPC: 1.67935 (Simulation time: 0 hr 1 min 26 sec) 
Heartbeat CPU 0 instructions: 3000003 cycles: 1786622 heartbeat IPC: 1.67874 cumulative IPC: 1.67915 (Simulation time: 0 hr 2 min 9 sec) 
Heartbeat CPU 0 instructions: 4000000 cycles: 2382046 heartbeat IPC: 1.67947 cumulative IPC: 1.67923 (Simulation time: 0 hr 2 min 51 sec) 
Heartbeat CPU 0 instructions: 5000001 cycles: 2977457 heartbeat IPC: 1.67951 cumulative IPC: 1.67929 (Simulation time: 0 hr 3 min 34 sec) 
Heartbeat CPU 0 instructions: 6000002 cycles: 3572930 heartbeat IPC: 1.67934 cumulative IPC: 1.67929 (Simulation time: 0 hr 4 min 18 sec) 
Heartbeat CPU 0 instructions: 7000000 cycles: 4168306 heartbeat IPC: 1.67961 cumulative IPC: 1.67934 (Simulation time: 0 hr 4 min 58 sec) 
Heartbeat CPU 0 instructions: 8000000 cycles: 4763681 heartbeat IPC: 1.67961 cumulative IPC: 1.67937 (Simulation time: 0 hr 5 min 38 sec) 
Heartbeat CPU 0 instructions: 9000002 cycles: 5359336 heartbeat IPC: 1.67883 cumulative IPC: 1.67931 (Simulation time: 0 hr 6 min 23 sec) 
Heartbeat CPU 0 instructions: 10000003 cycles: 5974113 heartbeat IPC: 1.62661 cumulative IPC: 1.67389 (Simulation time: 0 hr 7 min 1 sec) 

Warmup complete CPU 0 instructions: 10000003 cycles: 5974113 (Simulation time: 0 hr 7 min 1 sec) 

Heartbeat CPU 0 instructions: 11000003 cycles: 12126926 heartbeat IPC: 0.162527 cumulative IPC: 0.162527 (Simulation time: 0 hr 7 min 59 sec) 
Heartbeat CPU 0 instructions: 12000000 cycles: 13869364 heartbeat IPC: 0.573907 cumulative IPC: 0.253316 (Simulation time: 0 hr 8 min 42 sec) 
Heartbeat CPU 0 instructions: 13000002 cycles: 15537632 heartbeat IPC: 0.599425 cumulative IPC: 0.313692 (Simulation time: 0 hr 9 min 27 sec) 
Heartbeat CPU 0 instructions: 14000001 cycles: 17245578 heartbeat IPC: 0.585498 cumulative IPC: 0.354878 (Simulation time: 0 hr 10 min 14 sec) 
Heartbeat CPU 0 instructions: 15000002 cycles: 18989310 heartbeat IPC: 0.573483 cumulative IPC: 0.384166 (Simulation time: 0 hr 11 min 2 sec) 
Heartbeat CPU 0 instructions: 16000000 cycles: 20735869 heartbeat IPC: 0.572553 cumulative IPC: 0.406456 (Simulation time: 0 hr 11 min 49 sec) 
Heartbeat CPU 0 instructions: 17000003 cycles: 22459923 heartbeat IPC: 0.58003 cumulative IPC: 0.424608 (Simulation time: 0 hr 12 min 30 sec) 
Heartbeat CPU 0 instructions: 18000002 cycles: 24114045 heartbeat IPC: 0.60455 cumulative IPC: 0.441016 (Simulation time: 0 hr 13 min 13 sec) 
Heartbeat CPU 0 instructions: 19000003 cycles: 25850272 heartbeat IPC: 0.575962 cumulative IPC: 0.452804 (Simulation time: 0 hr 14 min 0 sec) 
Heartbeat CPU 0 instructions: 20000000 cycles: 27593675 heartbeat IPC: 0.573589 cumulative IPC: 0.462544 (Simulation time: 0 hr 14 min 48 sec) 
Heartbeat CPU 0 instructions: 21000002 cycles: 29337104 heartbeat IPC: 0.573583 cumulative IPC: 0.47083 (Simulation time: 0 hr 15 min 30 sec) 
Heartbeat CPU 0 instructions: 22000003 cycles: 31027556 heartbeat IPC: 0.591558 cumulative IPC: 0.478976 (Simulation time: 0 hr 16 min 13 sec) 
Heartbeat CPU 0 instructions: 23000001 cycles: 32712588 heartbeat IPC: 0.593459 cumulative IPC: 0.486191 (Simulation time: 0 hr 17 min 1 sec) 
Heartbeat CPU 0 instructions: 24000000 cycles: 39508399 heartbeat IPC: 0.147149 cumulative IPC: 0.417483 (Simulation time: 0 hr 17 min 54 sec) 
Heartbeat CPU 0 instructions: 25000002 cycles: 41247494 heartbeat IPC: 0.575013 cumulative IPC: 0.42525 (Simulation time: 0 hr 18 min 38 sec) 
Heartbeat CPU 0 instructions: 26000002 cycles: 42973686 heartbeat IPC: 0.57931 cumulative IPC: 0.432437 (Simulation time: 0 hr 19 min 27 sec) 
Heartbeat CPU 0 instructions: 27000002 cycles: 44639952 heartbeat IPC: 0.600144 cumulative IPC: 0.439665 (Simulation time: 0 hr 20 min 8 sec) 
Heartbeat CPU 0 instructions: 28000000 cycles: 46372117 heartbeat IPC: 0.577311 cumulative IPC: 0.445567 (Simulation time: 0 hr 20 min 48 sec) 
Heartbeat CPU 0 instructions: 29000000 cycles: 48113925 heartbeat IPC: 0.574116 cumulative IPC: 0.45088 (Simulation time: 0 hr 21 min 32 sec) 
Heartbeat CPU 0 instructions: 30000003 cycles: 49853497 heartbeat IPC: 0.574856 cumulative IPC: 0.455795 (Simulation time: 0 hr 22 min 16 sec) 
Heartbeat CPU 0 instructions: 31000001 cycles: 51550722 heartbeat IPC: 0.589196 cumulative IPC: 0.460763 (Simulation time: 0 hr 22 min 56 sec) 
Heartbeat CPU 0 instructions: 32000000 cycles: 53226920 heartbeat IPC: 0.596588 cumulative IPC: 0.465581 (Simulation time: 0 hr 23 min 40 sec) 
Heartbeat CPU 0 instructions: 33000001 cycles: 54966107 heartbeat IPC: 0.574982 cumulative IPC: 0.469464 (Simulation time: 0 hr 24 min 21 sec) 
Heartbeat CPU 0 instructions: 34000000 cycles: 56707279 heartbeat IPC: 0.574325 cumulative IPC: 0.473063 (Simulation time: 0 hr 25 min 5 sec) 
Heartbeat CPU 0 instructions: 35000001 cycles: 58444560 heartbeat IPC: 0.575613 cumulative IPC: 0.476459 (Simulation time: 0 hr 25 min 44 sec) 
Heartbeat CPU 0 instructions: 36000000 cycles: 60109969 heartbeat IPC: 0.600452 cumulative IPC: 0.480273 (Simulation time: 0 hr 26 min 27 sec) 
Heartbeat CPU 0 instructions: 37000002 cycles: 66828749 heartbeat IPC: 0.148837 cumulative IPC: 0.44368 (Simulation time: 0 hr 27 min 25 sec) 
Heartbeat CPU 0 instructions: 38000001 cycles: 68570709 heartbeat IPC: 0.574065 cumulative IPC: 0.447309 (Simulation time: 0 hr 28 min 12 sec) 
Heartbeat CPU 0 instructions: 39000002 cycles: 70313898 heartbeat IPC: 0.573662 cumulative IPC: 0.450732 (Simulation time: 0 hr 28 min 51 sec) 
Heartbeat CPU 0 instructions: 40000000 cycles: 72013952 heartbeat IPC: 0.588215 cumulative IPC: 0.454271 (Simulation time: 0 hr 29 min 33 sec) 
Heartbeat CPU 0 instructions: 41000003 cycles: 73687205 heartbeat IPC: 0.59764 cumulative IPC: 0.457814 (Simulation time: 0 hr 30 min 18 sec) 
Heartbeat CPU 0 instructions: 42000000 cycles: 75426987 heartbeat IPC: 0.574783 cumulative IPC: 0.460744 (Simulation time: 0 hr 31 min 1 sec) 
Heartbeat CPU 0 instructions: 43000000 cycles: 77170160 heartbeat IPC: 0.573667 cumulative IPC: 0.463509 (Simulation time: 0 hr 31 min 46 sec) 
Heartbeat CPU 0 instructions: 44000000 cycles: 78909673 heartbeat IPC: 0.574874 cumulative IPC: 0.466165 (Simulation time: 0 hr 32 min 30 sec) 
Heartbeat CPU 0 instructions: 45000000 cycles: 80579531 heartbeat IPC: 0.598853 cumulative IPC: 0.469135 (Simulation time: 0 hr 33 min 18 sec) 
Heartbeat CPU 0 instructions: 46000003 cycles: 82286402 heartbeat IPC: 0.585869 cumulative IPC: 0.471746 (Simulation time: 0 hr 34 min 5 sec) 
Heartbeat CPU 0 instructions: 47000001 cycles: 84028450 heartbeat IPC: 0.574036 cumulative IPC: 0.474029 (Simulation time: 0 hr 34 min 54 sec) 
Heartbeat CPU 0 instructions: 48000000 cycles: 85770928 heartbeat IPC: 0.573895 cumulative IPC: 0.476209 (Simulation time: 0 hr 35 min 40 sec) 
Heartbeat CPU 0 instructions: 49000001 cycles: 87496945 heartbeat IPC: 0.579369 cumulative IPC: 0.478394 (Simulation time: 0 hr 36 min 25 sec) 
Heartbeat CPU 0 instructions: 50000000 cycles: 94259242 heartbeat IPC: 0.147879 cumulative IPC: 0.453077 (Simulation time: 0 hr 37 min 25 sec) 
Heartbeat CPU 0 instructions: 51000003 cycles: 96024496 heartbeat IPC: 0.566492 cumulative IPC: 0.455301 (Simulation time: 0 hr 38 min 10 sec) 
Heartbeat CPU 0 instructions: 52000000 cycles: 97797262 heartbeat IPC: 0.564089 cumulative IPC: 0.457401 (Simulation time: 0 hr 38 min 55 sec) 
Heartbeat CPU 0 instructions: 53000003 cycles: 99568822 heartbeat IPC: 0.564476 cumulative IPC: 0.459428 (Simulation time: 0 hr 39 min 39 sec) 
Heartbeat CPU 0 instructions: 54000002 cycles: 101285082 heartbeat IPC: 0.582662 cumulative IPC: 0.461647 (Simulation time: 0 hr 40 min 28 sec) 
Heartbeat CPU 0 instructions: 55000001 cycles: 103011742 heartbeat IPC: 0.579152 cumulative IPC: 0.463738 (Simulation time: 0 hr 41 min 12 sec) 
Heartbeat CPU 0 instructions: 56000000 cycles: 104782469 heartbeat IPC: 0.564739 cumulative IPC: 0.465548 (Simulation time: 0 hr 42 min 1 sec) 
Heartbeat CPU 0 instructions: 57000000 cycles: 106558079 heartbeat IPC: 0.563187 cumulative IPC: 0.467271 (Simulation time: 0 hr 42 min 44 sec) 
Heartbeat CPU 0 instructions: 58000000 cycles: 108322999 heartbeat IPC: 0.566598 cumulative IPC: 0.468984 (Simulation time: 0 hr 43 min 29 sec) 
Heartbeat CPU 0 instructions: 59000002 cycles: 110010963 heartbeat IPC: 0.592431 cumulative IPC: 0.470987 (Simulation time: 0 hr 44 min 13 sec) 
Heartbeat CPU 0 instructions: 60000000 cycles: 111771206 heartbeat IPC: 0.568102 cumulative IPC: 0.472603 (Simulation time: 0 hr 44 min 59 sec) 
Heartbeat CPU 0 instructions: 61000001 cycles: 113546229 heartbeat IPC: 0.563374 cumulative IPC: 0.474101 (Simulation time: 0 hr 45 min 41 sec) 
Heartbeat CPU 0 instructions: 62000000 cycles: 115320131 heartbeat IPC: 0.563728 cumulative IPC: 0.475555 (Simulation time: 0 hr 46 min 30 sec) 
Heartbeat CPU 0 instructions: 63000001 cycles: 121633876 heartbeat IPC: 0.158385 cumulative IPC: 0.458241 (Simulation time: 0 hr 47 min 22 sec) 
Heartbeat CPU 0 instructions: 64000000 cycles: 123914185 heartbeat IPC: 0.438537 cumulative IPC: 0.45786 (Simulation time: 0 hr 48 min 5 sec) 
Heartbeat CPU 0 instructions: 65000002 cycles: 125684372 heartbeat IPC: 0.564913 cumulative IPC: 0.459443 (Simulation time: 0 hr 48 min 48 sec) 
Heartbeat CPU 0 instructions: 66000001 cycles: 127456515 heartbeat IPC: 0.564288 cumulative IPC: 0.460972 (Simulation time: 0 hr 49 min 34 sec) 
Heartbeat CPU 0 instructions: 67000003 cycles: 129221014 heartbeat IPC: 0.566734 cumulative IPC: 0.462486 (Simulation time: 0 hr 50 min 21 sec) 
Heartbeat CPU 0 instructions: 68000000 cycles: 130946554 heartbeat IPC: 0.579527 cumulative IPC: 0.464102 (Simulation time: 0 hr 51 min 10 sec) 
Heartbeat CPU 0 instructions: 69000003 cycles: 132722708 heartbeat IPC: 0.563016 cumulative IPC: 0.465488 (Simulation time: 0 hr 52 min 1 sec) 
Heartbeat CPU 0 instructions: 70000002 cycles: 134493146 heartbeat IPC: 0.564831 cumulative IPC: 0.466857 (Simulation time: 0 hr 52 min 49 sec) 
Heartbeat CPU 0 instructions: 71000000 cycles: 136264538 heartbeat IPC: 0.564527 cumulative IPC: 0.468185 (Simulation time: 0 hr 53 min 35 sec) 
Heartbeat CPU 0 instructions: 72000000 cycles: 138011768 heartbeat IPC: 0.572334 cumulative IPC: 0.469563 (Simulation time: 0 hr 54 min 22 sec) 
Heartbeat CPU 0 instructions: 73000001 cycles: 139711893 heartbeat IPC: 0.588193 cumulative IPC: 0.471071 (Simulation time: 0 hr 54 min 59 sec) 
Heartbeat CPU 0 instructions: 74000003 cycles: 141479336 heartbeat IPC: 0.56579 cumulative IPC: 0.472307 (Simulation time: 0 hr 55 min 38 sec) 
Heartbeat CPU 0 instructions: 75000002 cycles: 143252563 heartbeat IPC: 0.563943 cumulative IPC: 0.47349 (Simulation time: 0 hr 56 min 15 sec) 
Heartbeat CPU 0 instructions: 76000000 cycles: 148585077 heartbeat IPC: 0.187528 cumulative IPC: 0.462797 (Simulation time: 0 hr 57 min 3 sec) 
Heartbeat CPU 0 instructions: 77000001 cycles: 151776830 heartbeat IPC: 0.313308 cumulative IPC: 0.459525 (Simulation time: 0 hr 57 min 48 sec) 
Heartbeat CPU 0 instructions: 78000000 cycles: 153525193 heartbeat IPC: 0.571963 cumulative IPC: 0.460857 (Simulation time: 0 hr 58 min 29 sec) 
Heartbeat CPU 0 instructions: 79000002 cycles: 155294324 heartbeat IPC: 0.56525 cumulative IPC: 0.462094 (Simulation time: 0 hr 59 min 15 sec) 
Heartbeat CPU 0 instructions: 80000000 cycles: 157063413 heartbeat IPC: 0.565262 cumulative IPC: 0.463302 (Simulation time: 0 hr 59 min 58 sec) 
Heartbeat CPU 0 instructions: 81000002 cycles: 158811598 heartbeat IPC: 0.572023 cumulative IPC: 0.464546 (Simulation time: 1 hr 0 min 43 sec) 
Heartbeat CPU 0 instructions: 82000002 cycles: 160505106 heartbeat IPC: 0.59049 cumulative IPC: 0.465926 (Simulation time: 1 hr 1 min 22 sec) 
Heartbeat CPU 0 instructions: 83000003 cycles: 162270484 heartbeat IPC: 0.566451 cumulative IPC: 0.467061 (Simulation time: 1 hr 2 min 1 sec) 
Heartbeat CPU 0 instructions: 84000000 cycles: 164041284 heartbeat IPC: 0.564715 cumulative IPC: 0.468155 (Simulation time: 1 hr 2 min 40 sec) 
Heartbeat CPU 0 instructions: 85000002 cycles: 165812108 heartbeat IPC: 0.56471 cumulative IPC: 0.469225 (Simulation time: 1 hr 3 min 21 sec) 
Heartbeat CPU 0 instructions: 86000003 cycles: 167527991 heartbeat IPC: 0.582791 cumulative IPC: 0.470431 (Simulation time: 1 hr 4 min 0 sec) 
Heartbeat CPU 0 instructions: 87000000 cycles: 169270384 heartbeat IPC: 0.573922 cumulative IPC: 0.471536 (Simulation time: 1 hr 4 min 36 sec) 
Heartbeat CPU 0 instructions: 88000000 cycles: 171040246 heartbeat IPC: 0.565016 cumulative IPC: 0.472538 (Simulation time: 1 hr 5 min 15 sec) 
Heartbeat CPU 0 instructions: 89000001 cycles: 175411421 heartbeat IPC: 0.228772 cumulative IPC: 0.466249 (Simulation time: 1 hr 5 min 57 sec) 
Heartbeat CPU 0 instructions: 90000002 cycles: 179553332 heartbeat IPC: 0.241435 cumulative IPC: 0.460885 (Simulation time: 1 hr 6 min 36 sec) 
Heartbeat CPU 0 instructions: 91000000 cycles: 181246449 heartbeat IPC: 0.590625 cumulative IPC: 0.462138 (Simulation time: 1 hr 7 min 16 sec) 
Heartbeat CPU 0 instructions: 92000000 cycles: 183008659 heartbeat IPC: 0.567469 cumulative IPC: 0.463186 (Simulation time: 1 hr 7 min 51 sec) 
Heartbeat CPU 0 instructions: 93000001 cycles: 184778981 heartbeat IPC: 0.56487 cumulative IPC: 0.464193 (Simulation time: 1 hr 8 min 27 sec) 
Heartbeat CPU 0 instructions: 94000003 cycles: 186552369 heartbeat IPC: 0.563893 cumulative IPC: 0.465172 (Simulation time: 1 hr 8 min 58 sec) 
Heartbeat CPU 0 instructions: 95000001 cycles: 188271334 heartbeat IPC: 0.581744 cumulative IPC: 0.466271 (Simulation time: 1 hr 9 min 32 sec) 
Heartbeat CPU 0 instructions: 96000000 cycles: 189990093 heartbeat IPC: 0.581815 cumulative IPC: 0.467351 (Simulation time: 1 hr 9 min 59 sec) 
Heartbeat CPU 0 instructions: 97000002 cycles: 191757964 heartbeat IPC: 0.565653 cumulative IPC: 0.468286 (Simulation time: 1 hr 10 min 27 sec) 
Heartbeat CPU 0 instructions: 98000000 cycles: 193529845 heartbeat IPC: 0.564371 cumulative IPC: 0.469194 (Simulation time: 1 hr 10 min 55 sec) 
Heartbeat CPU 0 instructions: 99000002 cycles: 195297821 heartbeat IPC: 0.56562 cumulative IPC: 0.470094 (Simulation time: 1 hr 11 min 23 sec) 
Heartbeat CPU 0 instructions: 100000000 cycles: 196989018 heartbeat IPC: 0.591296 cumulative IPC: 0.471167 (Simulation time: 1 hr 11 min 46 sec) 
Heartbeat CPU 0 instructions: 101000002 cycles: 198743151 heartbeat IPC: 0.570083 cumulative IPC: 0.472068 (Simulation time: 1 hr 12 min 8 sec) 
Heartbeat CPU 0 instructions: 102000000 cycles: 202107241 heartbeat IPC: 0.297257 cumulative IPC: 0.469069 (Simulation time: 1 hr 12 min 34 sec) 
Heartbeat CPU 0 instructions: 103000002 cycles: 207256902 heartbeat IPC: 0.194188 cumulative IPC: 0.462037 (Simulation time: 1 hr 13 min 0 sec) 
Heartbeat CPU 0 instructions: 104000000 cycles: 208981902 heartbeat IPC: 0.579709 cumulative IPC: 0.463036 (Simulation time: 1 hr 13 min 23 sec) 
Heartbeat CPU 0 instructions: 105000002 cycles: 210694944 heartbeat IPC: 0.583758 cumulative IPC: 0.464047 (Simulation time: 1 hr 13 min 46 sec) 
Heartbeat CPU 0 instructions: 106000001 cycles: 212466286 heartbeat IPC: 0.564543 cumulative IPC: 0.464909 (Simulation time: 1 hr 14 min 8 sec) 
Heartbeat CPU 0 instructions: 107000003 cycles: 214235313 heartbeat IPC: 0.565284 cumulative IPC: 0.465761 (Simulation time: 1 hr 14 min 29 sec) 
Heartbeat CPU 0 instructions: 108000000 cycles: 216001376 heartbeat IPC: 0.56623 cumulative IPC: 0.466606 (Simulation time: 1 hr 14 min 49 sec) 
Heartbeat CPU 0 instructions: 109000003 cycles: 217696026 heartbeat IPC: 0.590094 cumulative IPC: 0.467595 (Simulation time: 1 hr 15 min 9 sec) 
Heartbeat CPU 0 instructions: 110000002 cycles: 219444685 heartbeat IPC: 0.571866 cumulative IPC: 0.468449 (Simulation time: 1 hr 15 min 27 sec) 
Finished CPU 0 instructions: 100000003 cycles: 213470573 cummulative IPC: 0.468449 (Simulation time: 1 hr 15 min 27 sec) 

ChampSim completed all CPUs

Region of Interest Statistics

CPU 0 cummulative IPC: 0.468449 instructions: 100000003 cycles: 213470573
LLC TOTAL     ACCESS:    1173412  HIT:     340899  MISS:     832513
LLC LOAD      ACCESS:      30054  HIT:       1821  MISS:      28233
LLC RFO       ACCESS:     265309  HIT:      16132  MISS:     249177
LLC PREFETCH  ACCESS:     610705  HIT:     159257  MISS:     451448
LLC WRITEBACK ACCESS:     267344  HIT:     163689  MISS:     103655
