
*** ChampSim Multicore Out-of-Order Simulator ***

Warmup Instructions: 10000000
Simulation Instructions: 100000000
Configuration: 2
Number of CPUs: 1
LLC sets: 2048
LLC ways: 16
Off-chip DRAM Channels: 1 Width: 64-bit Data Rate: 1600 MT/s

CPU 0 runs /datasets/cs240c-wi22-a00-public/data/Assignment2-gz/libquantum_964B.trace.gz
CPU 0 L1D next line prefetcher
CPU 0 L2C IP-based stride prefetcher
Heartbeat CPU 0 instructions: 1000002 cycles: 333341 heartbeat IPC: 2.99994 cumulative IPC: 2.99994 (Simulation time: 0 hr 0 min 26 sec) 
Heartbeat CPU 0 instructions: 2000001 cycles: 666674 heartbeat IPC: 3 cumulative IPC: 2.99997 (Simulation time: 0 hr 0 min 57 sec) 
Heartbeat CPU 0 instructions: 3000000 cycles: 1000007 heartbeat IPC: 3 cumulative IPC: 2.99998 (Simulation time: 0 hr 1 min 30 sec) 
Heartbeat CPU 0 instructions: 4000000 cycles: 1333341 heartbeat IPC: 2.99999 cumulative IPC: 2.99998 (Simulation time: 0 hr 2 min 2 sec) 
Heartbeat CPU 0 instructions: 5000000 cycles: 1666674 heartbeat IPC: 3 cumulative IPC: 2.99999 (Simulation time: 0 hr 2 min 32 sec) 
Heartbeat CPU 0 instructions: 6000002 cycles: 2000008 heartbeat IPC: 3 cumulative IPC: 2.99999 (Simulation time: 0 hr 3 min 2 sec) 
Heartbeat CPU 0 instructions: 7000001 cycles: 2331518 heartbeat IPC: 3.0165 cumulative IPC: 3.00234 (Simulation time: 0 hr 3 min 36 sec) 
Heartbeat CPU 0 instructions: 8000000 cycles: 2662240 heartbeat IPC: 3.02368 cumulative IPC: 3.00499 (Simulation time: 0 hr 4 min 7 sec) 
Heartbeat CPU 0 instructions: 9000001 cycles: 2992962 heartbeat IPC: 3.02369 cumulative IPC: 3.00705 (Simulation time: 0 hr 4 min 37 sec) 
Heartbeat CPU 0 instructions: 10000001 cycles: 3323684 heartbeat IPC: 3.02369 cumulative IPC: 3.00871 (Simulation time: 0 hr 5 min 7 sec) 

Warmup complete CPU 0 instructions: 10000001 cycles: 3323684 (Simulation time: 0 hr 5 min 7 sec) 

Heartbeat CPU 0 instructions: 11000000 cycles: 5048891 heartbeat IPC: 0.57964 cumulative IPC: 0.57964 (Simulation time: 0 hr 5 min 50 sec) 
Heartbeat CPU 0 instructions: 12000000 cycles: 6783791 heartbeat IPC: 0.576402 cumulative IPC: 0.578017 (Simulation time: 0 hr 6 min 43 sec) 
Heartbeat CPU 0 instructions: 13000001 cycles: 8510316 heartbeat IPC: 0.579199 cumulative IPC: 0.57841 (Simulation time: 0 hr 7 min 40 sec) 
Heartbeat CPU 0 instructions: 14000000 cycles: 10240523 heartbeat IPC: 0.577965 cumulative IPC: 0.578299 (Simulation time: 0 hr 8 min 33 sec) 
Heartbeat CPU 0 instructions: 15000003 cycles: 11972238 heartbeat IPC: 0.577464 cumulative IPC: 0.578132 (Simulation time: 0 hr 9 min 30 sec) 
Heartbeat CPU 0 instructions: 16000000 cycles: 13698716 heartbeat IPC: 0.579212 cumulative IPC: 0.578311 (Simulation time: 0 hr 10 min 19 sec) 
Heartbeat CPU 0 instructions: 17000000 cycles: 15434144 heartbeat IPC: 0.576227 cumulative IPC: 0.578013 (Simulation time: 0 hr 11 min 8 sec) 
Heartbeat CPU 0 instructions: 18000003 cycles: 17158451 heartbeat IPC: 0.579945 cumulative IPC: 0.578253 (Simulation time: 0 hr 11 min 52 sec) 
Heartbeat CPU 0 instructions: 19000002 cycles: 18888712 heartbeat IPC: 0.577947 cumulative IPC: 0.578219 (Simulation time: 0 hr 12 min 41 sec) 
Heartbeat CPU 0 instructions: 20000000 cycles: 20617460 heartbeat IPC: 0.578452 cumulative IPC: 0.578243 (Simulation time: 0 hr 13 min 37 sec) 
Heartbeat CPU 0 instructions: 21000003 cycles: 22347077 heartbeat IPC: 0.578164 cumulative IPC: 0.578236 (Simulation time: 0 hr 14 min 34 sec) 
Heartbeat CPU 0 instructions: 22000002 cycles: 24079184 heartbeat IPC: 0.577331 cumulative IPC: 0.57816 (Simulation time: 0 hr 15 min 32 sec) 
Heartbeat CPU 0 instructions: 23000000 cycles: 25803211 heartbeat IPC: 0.580036 cumulative IPC: 0.578304 (Simulation time: 0 hr 16 min 16 sec) 
Heartbeat CPU 0 instructions: 24000000 cycles: 27543901 heartbeat IPC: 0.574485 cumulative IPC: 0.578029 (Simulation time: 0 hr 17 min 10 sec) 
Heartbeat CPU 0 instructions: 25000000 cycles: 29270582 heartbeat IPC: 0.579146 cumulative IPC: 0.578104 (Simulation time: 0 hr 18 min 2 sec) 
Heartbeat CPU 0 instructions: 26000002 cycles: 31218117 heartbeat IPC: 0.513471 cumulative IPC: 0.573591 (Simulation time: 0 hr 18 min 55 sec) 
Heartbeat CPU 0 instructions: 27000002 cycles: 33668318 heartbeat IPC: 0.40813 cumulative IPC: 0.560231 (Simulation time: 0 hr 20 min 0 sec) 
Heartbeat CPU 0 instructions: 28000000 cycles: 36175571 heartbeat IPC: 0.398842 cumulative IPC: 0.547914 (Simulation time: 0 hr 21 min 12 sec) 
Heartbeat CPU 0 instructions: 29000002 cycles: 38703678 heartbeat IPC: 0.395554 cumulative IPC: 0.537027 (Simulation time: 0 hr 22 min 25 sec) 
Heartbeat CPU 0 instructions: 30000002 cycles: 41257903 heartbeat IPC: 0.391508 cumulative IPC: 0.527228 (Simulation time: 0 hr 23 min 40 sec) 
Heartbeat CPU 0 instructions: 31000002 cycles: 43577041 heartbeat IPC: 0.431195 cumulative IPC: 0.521696 (Simulation time: 0 hr 24 min 59 sec) 
Heartbeat CPU 0 instructions: 32000000 cycles: 45819775 heartbeat IPC: 0.445883 cumulative IPC: 0.517695 (Simulation time: 0 hr 26 min 11 sec) 
Heartbeat CPU 0 instructions: 33000002 cycles: 48057447 heartbeat IPC: 0.446894 cumulative IPC: 0.514153 (Simulation time: 0 hr 27 min 24 sec) 
Heartbeat CPU 0 instructions: 34000002 cycles: 50301422 heartbeat IPC: 0.445638 cumulative IPC: 0.51088 (Simulation time: 0 hr 28 min 42 sec) 
Heartbeat CPU 0 instructions: 35000002 cycles: 52538044 heartbeat IPC: 0.447103 cumulative IPC: 0.507982 (Simulation time: 0 hr 29 min 53 sec) 
Heartbeat CPU 0 instructions: 36000000 cycles: 54699025 heartbeat IPC: 0.462752 cumulative IPC: 0.506079 (Simulation time: 0 hr 31 min 0 sec) 
Heartbeat CPU 0 instructions: 37000001 cycles: 56262879 heartbeat IPC: 0.639446 cumulative IPC: 0.510019 (Simulation time: 0 hr 32 min 0 sec) 
Heartbeat CPU 0 instructions: 38000000 cycles: 57741865 heartbeat IPC: 0.676138 cumulative IPC: 0.514534 (Simulation time: 0 hr 33 min 1 sec) 
Heartbeat CPU 0 instructions: 39000003 cycles: 59204844 heartbeat IPC: 0.683539 cumulative IPC: 0.518959 (Simulation time: 0 hr 33 min 50 sec) 
Heartbeat CPU 0 instructions: 40000000 cycles: 60665490 heartbeat IPC: 0.684627 cumulative IPC: 0.523178 (Simulation time: 0 hr 34 min 28 sec) 
Heartbeat CPU 0 instructions: 41000001 cycles: 62122662 heartbeat IPC: 0.686261 cumulative IPC: 0.52722 (Simulation time: 0 hr 35 min 8 sec) 
Heartbeat CPU 0 instructions: 42000000 cycles: 63573037 heartbeat IPC: 0.689476 cumulative IPC: 0.531126 (Simulation time: 0 hr 35 min 51 sec) 
Heartbeat CPU 0 instructions: 43000001 cycles: 65018602 heartbeat IPC: 0.691772 cumulative IPC: 0.53489 (Simulation time: 0 hr 36 min 31 sec) 
Heartbeat CPU 0 instructions: 44000000 cycles: 66450146 heartbeat IPC: 0.698546 cumulative IPC: 0.538601 (Simulation time: 0 hr 37 min 14 sec) 
Heartbeat CPU 0 instructions: 45000002 cycles: 67881879 heartbeat IPC: 0.698456 cumulative IPC: 0.542147 (Simulation time: 0 hr 37 min 51 sec) 
Heartbeat CPU 0 instructions: 46000001 cycles: 69348060 heartbeat IPC: 0.682043 cumulative IPC: 0.545253 (Simulation time: 0 hr 38 min 33 sec) 
Heartbeat CPU 0 instructions: 47000000 cycles: 70814150 heartbeat IPC: 0.682086 cumulative IPC: 0.548226 (Simulation time: 0 hr 39 min 13 sec) 
Heartbeat CPU 0 instructions: 48000000 cycles: 72280314 heartbeat IPC: 0.682052 cumulative IPC: 0.551071 (Simulation time: 0 hr 39 min 49 sec) 
Heartbeat CPU 0 instructions: 49000002 cycles: 73746749 heartbeat IPC: 0.681927 cumulative IPC: 0.553796 (Simulation time: 0 hr 40 min 29 sec) 
Heartbeat CPU 0 instructions: 50000001 cycles: 75212841 heartbeat IPC: 0.682085 cumulative IPC: 0.556412 (Simulation time: 0 hr 41 min 8 sec) 
Heartbeat CPU 0 instructions: 51000000 cycles: 76678931 heartbeat IPC: 0.682086 cumulative IPC: 0.558924 (Simulation time: 0 hr 41 min 48 sec) 
Heartbeat CPU 0 instructions: 52000000 cycles: 78145196 heartbeat IPC: 0.682005 cumulative IPC: 0.561336 (Simulation time: 0 hr 42 min 25 sec) 
Heartbeat CPU 0 instructions: 53000000 cycles: 79611402 heartbeat IPC: 0.682032 cumulative IPC: 0.563656 (Simulation time: 0 hr 43 min 2 sec) 
Heartbeat CPU 0 instructions: 54000002 cycles: 81077488 heartbeat IPC: 0.68209 cumulative IPC: 0.565889 (Simulation time: 0 hr 43 min 42 sec) 
Heartbeat CPU 0 instructions: 55000002 cycles: 82609846 heartbeat IPC: 0.652589 cumulative IPC: 0.567564 (Simulation time: 0 hr 44 min 20 sec) 
Heartbeat CPU 0 instructions: 56000000 cycles: 84338061 heartbeat IPC: 0.578631 cumulative IPC: 0.5678 (Simulation time: 0 hr 44 min 57 sec) 
Heartbeat CPU 0 instructions: 57000001 cycles: 86078089 heartbeat IPC: 0.574704 cumulative IPC: 0.567946 (Simulation time: 0 hr 45 min 32 sec) 
Heartbeat CPU 0 instructions: 58000000 cycles: 87804638 heartbeat IPC: 0.579189 cumulative IPC: 0.568175 (Simulation time: 0 hr 46 min 6 sec) 
Heartbeat CPU 0 instructions: 59000003 cycles: 89521047 heartbeat IPC: 0.582613 cumulative IPC: 0.568463 (Simulation time: 0 hr 46 min 42 sec) 
Heartbeat CPU 0 instructions: 60000000 cycles: 91213207 heartbeat IPC: 0.590959 cumulative IPC: 0.568896 (Simulation time: 0 hr 47 min 20 sec) 
Heartbeat CPU 0 instructions: 61000002 cycles: 92923163 heartbeat IPC: 0.584812 cumulative IPC: 0.5692 (Simulation time: 0 hr 47 min 53 sec) 
Heartbeat CPU 0 instructions: 62000001 cycles: 94641952 heartbeat IPC: 0.581804 cumulative IPC: 0.569437 (Simulation time: 0 hr 48 min 31 sec) 
Heartbeat CPU 0 instructions: 63000001 cycles: 96318713 heartbeat IPC: 0.596388 cumulative IPC: 0.569923 (Simulation time: 0 hr 49 min 5 sec) 
Heartbeat CPU 0 instructions: 64000000 cycles: 97997269 heartbeat IPC: 0.59575 cumulative IPC: 0.570381 (Simulation time: 0 hr 49 min 43 sec) 
Heartbeat CPU 0 instructions: 65000002 cycles: 99730827 heartbeat IPC: 0.576849 cumulative IPC: 0.570497 (Simulation time: 0 hr 50 min 16 sec) 
Heartbeat CPU 0 instructions: 66000002 cycles: 101467416 heartbeat IPC: 0.575841 cumulative IPC: 0.570592 (Simulation time: 0 hr 50 min 54 sec) 
Heartbeat CPU 0 instructions: 67000000 cycles: 103214903 heartbeat IPC: 0.572249 cumulative IPC: 0.570621 (Simulation time: 0 hr 51 min 30 sec) 
Heartbeat CPU 0 instructions: 68000000 cycles: 104968113 heartbeat IPC: 0.570382 cumulative IPC: 0.570617 (Simulation time: 0 hr 52 min 5 sec) 
Heartbeat CPU 0 instructions: 69000000 cycles: 106716610 heartbeat IPC: 0.57192 cumulative IPC: 0.570639 (Simulation time: 0 hr 52 min 40 sec) 
Heartbeat CPU 0 instructions: 70000002 cycles: 108467516 heartbeat IPC: 0.571134 cumulative IPC: 0.570647 (Simulation time: 0 hr 53 min 18 sec) 
Heartbeat CPU 0 instructions: 71000001 cycles: 110207203 heartbeat IPC: 0.574815 cumulative IPC: 0.570715 (Simulation time: 0 hr 53 min 58 sec) 
Heartbeat CPU 0 instructions: 72000000 cycles: 111957350 heartbeat IPC: 0.57138 cumulative IPC: 0.570725 (Simulation time: 0 hr 54 min 47 sec) 
Heartbeat CPU 0 instructions: 73000000 cycles: 113703980 heartbeat IPC: 0.572531 cumulative IPC: 0.570754 (Simulation time: 0 hr 55 min 30 sec) 
Heartbeat CPU 0 instructions: 74000000 cycles: 115556780 heartbeat IPC: 0.539724 cumulative IPC: 0.570242 (Simulation time: 0 hr 56 min 26 sec) 
Heartbeat CPU 0 instructions: 75000000 cycles: 117756431 heartbeat IPC: 0.454618 cumulative IPC: 0.568019 (Simulation time: 0 hr 57 min 34 sec) 
Heartbeat CPU 0 instructions: 76000000 cycles: 119957376 heartbeat IPC: 0.45435 cumulative IPC: 0.565874 (Simulation time: 0 hr 58 min 39 sec) 
Heartbeat CPU 0 instructions: 77000000 cycles: 122146235 heartbeat IPC: 0.456859 cumulative IPC: 0.563866 (Simulation time: 0 hr 59 min 49 sec) 
Heartbeat CPU 0 instructions: 78000000 cycles: 124356575 heartbeat IPC: 0.452419 cumulative IPC: 0.561831 (Simulation time: 1 hr 0 min 57 sec) 
Heartbeat CPU 0 instructions: 79000000 cycles: 126564527 heartbeat IPC: 0.452908 cumulative IPC: 0.559879 (Simulation time: 1 hr 2 min 0 sec) 
Heartbeat CPU 0 instructions: 80000000 cycles: 128703819 heartbeat IPC: 0.467444 cumulative IPC: 0.558302 (Simulation time: 1 hr 3 min 3 sec) 
Heartbeat CPU 0 instructions: 81000000 cycles: 130882977 heartbeat IPC: 0.458893 cumulative IPC: 0.556604 (Simulation time: 1 hr 4 min 0 sec) 
Heartbeat CPU 0 instructions: 82000000 cycles: 133075947 heartbeat IPC: 0.456003 cumulative IPC: 0.554904 (Simulation time: 1 hr 4 min 51 sec) 
Heartbeat CPU 0 instructions: 83000000 cycles: 135234650 heartbeat IPC: 0.463241 cumulative IPC: 0.553404 (Simulation time: 1 hr 5 min 25 sec) 
Heartbeat CPU 0 instructions: 84000000 cycles: 137398560 heartbeat IPC: 0.462126 cumulative IPC: 0.55193 (Simulation time: 1 hr 6 min 2 sec) 
Heartbeat CPU 0 instructions: 85000001 cycles: 139058031 heartbeat IPC: 0.602602 cumulative IPC: 0.55255 (Simulation time: 1 hr 6 min 36 sec) 
Heartbeat CPU 0 instructions: 86000000 cycles: 140559278 heartbeat IPC: 0.666112 cumulative IPC: 0.553792 (Simulation time: 1 hr 7 min 2 sec) 
Heartbeat CPU 0 instructions: 87000003 cycles: 142057336 heartbeat IPC: 0.667533 cumulative IPC: 0.55502 (Simulation time: 1 hr 7 min 31 sec) 
Heartbeat CPU 0 instructions: 88000000 cycles: 143581589 heartbeat IPC: 0.656057 cumulative IPC: 0.556118 (Simulation time: 1 hr 8 min 0 sec) 
Heartbeat CPU 0 instructions: 89000001 cycles: 145092298 heartbeat IPC: 0.661942 cumulative IPC: 0.557246 (Simulation time: 1 hr 8 min 30 sec) 
Heartbeat CPU 0 instructions: 90000000 cycles: 146615011 heartbeat IPC: 0.656722 cumulative IPC: 0.558303 (Simulation time: 1 hr 8 min 56 sec) 
Heartbeat CPU 0 instructions: 91000001 cycles: 148113076 heartbeat IPC: 0.667528 cumulative IPC: 0.559433 (Simulation time: 1 hr 9 min 19 sec) 
Heartbeat CPU 0 instructions: 92000000 cycles: 149601911 heartbeat IPC: 0.671665 cumulative IPC: 0.560576 (Simulation time: 1 hr 9 min 45 sec) 
Heartbeat CPU 0 instructions: 93000002 cycles: 151024420 heartbeat IPC: 0.702985 cumulative IPC: 0.561947 (Simulation time: 1 hr 10 min 5 sec) 
Heartbeat CPU 0 instructions: 94000001 cycles: 152514786 heartbeat IPC: 0.670975 cumulative IPC: 0.563036 (Simulation time: 1 hr 10 min 25 sec) 
Heartbeat CPU 0 instructions: 95000000 cycles: 154024924 heartbeat IPC: 0.66219 cumulative IPC: 0.56403 (Simulation time: 1 hr 10 min 51 sec) 
Heartbeat CPU 0 instructions: 96000000 cycles: 155529246 heartbeat IPC: 0.664751 cumulative IPC: 0.565025 (Simulation time: 1 hr 11 min 13 sec) 
Heartbeat CPU 0 instructions: 97000002 cycles: 157030603 heartbeat IPC: 0.666065 cumulative IPC: 0.566012 (Simulation time: 1 hr 11 min 35 sec) 
Heartbeat CPU 0 instructions: 98000001 cycles: 158527540 heartbeat IPC: 0.66803 cumulative IPC: 0.566996 (Simulation time: 1 hr 11 min 55 sec) 
Heartbeat CPU 0 instructions: 99000000 cycles: 160022230 heartbeat IPC: 0.669034 cumulative IPC: 0.56797 (Simulation time: 1 hr 12 min 15 sec) 
Heartbeat CPU 0 instructions: 100000000 cycles: 161527756 heartbeat IPC: 0.66422 cumulative IPC: 0.568886 (Simulation time: 1 hr 12 min 32 sec) 
Heartbeat CPU 0 instructions: 101000000 cycles: 163026907 heartbeat IPC: 0.667044 cumulative IPC: 0.569807 (Simulation time: 1 hr 12 min 51 sec) 
Heartbeat CPU 0 instructions: 102000002 cycles: 164517871 heartbeat IPC: 0.670708 cumulative IPC: 0.57074 (Simulation time: 1 hr 13 min 10 sec) 
Heartbeat CPU 0 instructions: 103000001 cycles: 166013491 heartbeat IPC: 0.668618 cumulative IPC: 0.57164 (Simulation time: 1 hr 13 min 28 sec) 
Heartbeat CPU 0 instructions: 104000000 cycles: 168132386 heartbeat IPC: 0.471944 cumulative IPC: 0.570358 (Simulation time: 1 hr 13 min 49 sec) 
Heartbeat CPU 0 instructions: 105000000 cycles: 170345052 heartbeat IPC: 0.451943 cumulative IPC: 0.568789 (Simulation time: 1 hr 14 min 11 sec) 
Heartbeat CPU 0 instructions: 106000000 cycles: 172546870 heartbeat IPC: 0.45417 cumulative IPC: 0.567298 (Simulation time: 1 hr 14 min 31 sec) 
Heartbeat CPU 0 instructions: 107000000 cycles: 174772757 heartbeat IPC: 0.449259 cumulative IPC: 0.565766 (Simulation time: 1 hr 14 min 49 sec) 
Heartbeat CPU 0 instructions: 108000000 cycles: 176968793 heartbeat IPC: 0.455366 cumulative IPC: 0.564369 (Simulation time: 1 hr 15 min 9 sec) 
Heartbeat CPU 0 instructions: 109000000 cycles: 179204500 heartbeat IPC: 0.447286 cumulative IPC: 0.562881 (Simulation time: 1 hr 15 min 26 sec) 
Heartbeat CPU 0 instructions: 110000000 cycles: 181440369 heartbeat IPC: 0.447253 cumulative IPC: 0.56143 (Simulation time: 1 hr 15 min 41 sec) 
Finished CPU 0 instructions: 100000003 cycles: 178116686 cummulative IPC: 0.56143 (Simulation time: 1 hr 15 min 41 sec) 

ChampSim completed all CPUs

Region of Interest Statistics

CPU 0 cummulative IPC: 0.56143 instructions: 100000003 cycles: 178116686
LLC TOTAL     ACCESS:    4917134  HIT:     300681  MISS:    4616453
LLC LOAD      ACCESS:    1155938  HIT:      34873  MISS:    1121065
LLC RFO       ACCESS:         24  HIT:         16  MISS:          8
LLC PREFETCH  ACCESS:    2234474  HIT:      85520  MISS:    2148954
LLC WRITEBACK ACCESS:    1526698  HIT:     180272  MISS:    1346426
