
*** ChampSim Multicore Out-of-Order Simulator ***

Warmup Instructions: 10000000
Simulation Instructions: 100000000
Configuration: 2
Number of CPUs: 1
LLC sets: 2048
LLC ways: 16
Off-chip DRAM Channels: 1 Width: 64-bit Data Rate: 1600 MT/s

CPU 0 runs /datasets/cs240c-wi22-a00-public/data/Assignment2-gz/bzip2_281B.trace.gz
CPU 0 L1D next line prefetcher
CPU 0 L2C IP-based stride prefetcher
Heartbeat CPU 0 instructions: 1000000 cycles: 445878 heartbeat IPC: 2.24277 cumulative IPC: 2.24277 (Simulation time: 0 hr 0 min 25 sec) 
select_counter is 470
Heartbeat CPU 0 instructions: 2000003 cycles: 900175 heartbeat IPC: 2.20121 cumulative IPC: 2.22179 (Simulation time: 0 hr 0 min 46 sec) 
select_counter is 383
Heartbeat CPU 0 instructions: 3000002 cycles: 1315001 heartbeat IPC: 2.41065 cumulative IPC: 2.28137 (Simulation time: 0 hr 1 min 6 sec) 
select_counter is 127
Heartbeat CPU 0 instructions: 4000000 cycles: 1753479 heartbeat IPC: 2.28061 cumulative IPC: 2.28118 (Simulation time: 0 hr 1 min 25 sec) 
select_counter is 119
Heartbeat CPU 0 instructions: 5000002 cycles: 2175479 heartbeat IPC: 2.36967 cumulative IPC: 2.29835 (Simulation time: 0 hr 1 min 45 sec) 
select_counter is 770
Heartbeat CPU 0 instructions: 6000000 cycles: 2666173 heartbeat IPC: 2.03793 cumulative IPC: 2.25042 (Simulation time: 0 hr 2 min 7 sec) 
select_counter is 587
Heartbeat CPU 0 instructions: 7000001 cycles: 3193499 heartbeat IPC: 1.89636 cumulative IPC: 2.19195 (Simulation time: 0 hr 2 min 29 sec) 
select_counter is 520
Heartbeat CPU 0 instructions: 8000000 cycles: 3726203 heartbeat IPC: 1.87721 cumulative IPC: 2.14696 (Simulation time: 0 hr 2 min 51 sec) 
select_counter is 471
Heartbeat CPU 0 instructions: 9000000 cycles: 4232546 heartbeat IPC: 1.97495 cumulative IPC: 2.12638 (Simulation time: 0 hr 3 min 11 sec) 
select_counter is 362
Heartbeat CPU 0 instructions: 10000002 cycles: 4685491 heartbeat IPC: 2.20778 cumulative IPC: 2.13425 (Simulation time: 0 hr 3 min 36 sec) 
select_counter is 342

Warmup complete CPU 0 instructions: 10000002 cycles: 4685491 (Simulation time: 0 hr 3 min 36 sec) 

Heartbeat CPU 0 instructions: 11000000 cycles: 6188519 heartbeat IPC: 0.665322 cumulative IPC: 0.665322 (Simulation time: 0 hr 4 min 3 sec) 
select_counter is 298
Heartbeat CPU 0 instructions: 12000000 cycles: 7427565 heartbeat IPC: 0.807073 cumulative IPC: 0.729374 (Simulation time: 0 hr 4 min 33 sec) 
select_counter is 203
Heartbeat CPU 0 instructions: 13000001 cycles: 8724440 heartbeat IPC: 0.771085 cumulative IPC: 0.742767 (Simulation time: 0 hr 4 min 58 sec) 
select_counter is 230
Heartbeat CPU 0 instructions: 14000000 cycles: 10159546 heartbeat IPC: 0.696812 cumulative IPC: 0.730719 (Simulation time: 0 hr 5 min 18 sec) 
select_counter is 180
Heartbeat CPU 0 instructions: 15000000 cycles: 11511585 heartbeat IPC: 0.739624 cumulative IPC: 0.732483 (Simulation time: 0 hr 5 min 38 sec) 
select_counter is 27
Heartbeat CPU 0 instructions: 16000000 cycles: 12975128 heartbeat IPC: 0.683273 cumulative IPC: 0.723795 (Simulation time: 0 hr 6 min 0 sec) 
select_counter is 43
Heartbeat CPU 0 instructions: 17000000 cycles: 14573178 heartbeat IPC: 0.625763 cumulative IPC: 0.707951 (Simulation time: 0 hr 6 min 21 sec) 
select_counter is 229
Heartbeat CPU 0 instructions: 18000002 cycles: 16179161 heartbeat IPC: 0.622673 cumulative IPC: 0.696035 (Simulation time: 0 hr 6 min 39 sec) 
select_counter is 169
Heartbeat CPU 0 instructions: 19000003 cycles: 17630934 heartbeat IPC: 0.688814 cumulative IPC: 0.695225 (Simulation time: 0 hr 6 min 57 sec) 
select_counter is 127
Heartbeat CPU 0 instructions: 20000000 cycles: 19168868 heartbeat IPC: 0.650221 cumulative IPC: 0.690447 (Simulation time: 0 hr 7 min 16 sec) 
select_counter is 76
Heartbeat CPU 0 instructions: 21000001 cycles: 20737823 heartbeat IPC: 0.637368 cumulative IPC: 0.685259 (Simulation time: 0 hr 7 min 36 sec) 
select_counter is 33
Heartbeat CPU 0 instructions: 22000000 cycles: 22548896 heartbeat IPC: 0.552158 cumulative IPC: 0.671764 (Simulation time: 0 hr 8 min 1 sec) 
select_counter is 980
Heartbeat CPU 0 instructions: 23000001 cycles: 24171764 heartbeat IPC: 0.616194 cumulative IPC: 0.667136 (Simulation time: 0 hr 8 min 18 sec) 
select_counter is 955
Heartbeat CPU 0 instructions: 24000000 cycles: 25978951 heartbeat IPC: 0.553346 cumulative IPC: 0.657479 (Simulation time: 0 hr 8 min 42 sec) 
select_counter is 683
Heartbeat CPU 0 instructions: 25000002 cycles: 27654671 heartbeat IPC: 0.59676 cumulative IPC: 0.653049 (Simulation time: 0 hr 9 min 8 sec) 
select_counter is 681
Heartbeat CPU 0 instructions: 26000000 cycles: 28968089 heartbeat IPC: 0.761371 cumulative IPC: 0.658908 (Simulation time: 0 hr 9 min 35 sec) 
select_counter is 511
Heartbeat CPU 0 instructions: 27000002 cycles: 30333410 heartbeat IPC: 0.73243 cumulative IPC: 0.662822 (Simulation time: 0 hr 10 min 0 sec) 
select_counter is 430
Heartbeat CPU 0 instructions: 28000000 cycles: 31329354 heartbeat IPC: 1.00407 cumulative IPC: 0.675578 (Simulation time: 0 hr 10 min 21 sec) 
select_counter is 415
Heartbeat CPU 0 instructions: 29000001 cycles: 32232747 heartbeat IPC: 1.10694 cumulative IPC: 0.689724 (Simulation time: 0 hr 10 min 40 sec) 
select_counter is 413
Heartbeat CPU 0 instructions: 30000000 cycles: 33149715 heartbeat IPC: 1.09055 cumulative IPC: 0.702636 (Simulation time: 0 hr 11 min 0 sec) 
select_counter is 411
Heartbeat CPU 0 instructions: 31000003 cycles: 34146859 heartbeat IPC: 1.00287 cumulative IPC: 0.712798 (Simulation time: 0 hr 11 min 19 sec) 
select_counter is 379
Heartbeat CPU 0 instructions: 32000000 cycles: 35071795 heartbeat IPC: 1.08115 cumulative IPC: 0.72401 (Simulation time: 0 hr 11 min 40 sec) 
select_counter is 358
Heartbeat CPU 0 instructions: 33000002 cycles: 36063419 heartbeat IPC: 1.00845 cumulative IPC: 0.732999 (Simulation time: 0 hr 12 min 3 sec) 
select_counter is 342
Heartbeat CPU 0 instructions: 34000000 cycles: 37010331 heartbeat IPC: 1.05606 cumulative IPC: 0.742463 (Simulation time: 0 hr 12 min 22 sec) 
select_counter is 330
Heartbeat CPU 0 instructions: 35000000 cycles: 37868704 heartbeat IPC: 1.16499 cumulative IPC: 0.753393 (Simulation time: 0 hr 12 min 39 sec) 
select_counter is 322
Heartbeat CPU 0 instructions: 36000000 cycles: 38711128 heartbeat IPC: 1.18705 cumulative IPC: 0.76413 (Simulation time: 0 hr 12 min 56 sec) 
select_counter is 309
Heartbeat CPU 0 instructions: 37000000 cycles: 39564050 heartbeat IPC: 1.17244 cumulative IPC: 0.774114 (Simulation time: 0 hr 13 min 13 sec) 
select_counter is 304
Heartbeat CPU 0 instructions: 38000002 cycles: 40359068 heartbeat IPC: 1.25784 cumulative IPC: 0.784895 (Simulation time: 0 hr 13 min 31 sec) 
select_counter is 295
Heartbeat CPU 0 instructions: 39000001 cycles: 41265786 heartbeat IPC: 1.10288 cumulative IPC: 0.792777 (Simulation time: 0 hr 13 min 48 sec) 
select_counter is 285
Heartbeat CPU 0 instructions: 40000000 cycles: 42200594 heartbeat IPC: 1.06974 cumulative IPC: 0.799678 (Simulation time: 0 hr 14 min 8 sec) 
select_counter is 270
Heartbeat CPU 0 instructions: 41000002 cycles: 43161751 heartbeat IPC: 1.04041 cumulative IPC: 0.805692 (Simulation time: 0 hr 14 min 28 sec) 
select_counter is 248
Heartbeat CPU 0 instructions: 42000001 cycles: 44118101 heartbeat IPC: 1.04564 cumulative IPC: 0.811511 (Simulation time: 0 hr 14 min 47 sec) 
select_counter is 236
Heartbeat CPU 0 instructions: 43000001 cycles: 45067430 heartbeat IPC: 1.05338 cumulative IPC: 0.817197 (Simulation time: 0 hr 15 min 5 sec) 
select_counter is 221
Heartbeat CPU 0 instructions: 44000000 cycles: 46043646 heartbeat IPC: 1.02436 cumulative IPC: 0.822087 (Simulation time: 0 hr 15 min 24 sec) 
select_counter is 205
Heartbeat CPU 0 instructions: 45000001 cycles: 46970079 heartbeat IPC: 1.07941 cumulative IPC: 0.827725 (Simulation time: 0 hr 15 min 42 sec) 
select_counter is 184
Heartbeat CPU 0 instructions: 46000000 cycles: 47872628 heartbeat IPC: 1.10797 cumulative IPC: 0.833582 (Simulation time: 0 hr 16 min 1 sec) 
select_counter is 182
Heartbeat CPU 0 instructions: 47000000 cycles: 48752062 heartbeat IPC: 1.13709 cumulative IPC: 0.839639 (Simulation time: 0 hr 16 min 20 sec) 
select_counter is 170
Heartbeat CPU 0 instructions: 48000000 cycles: 49658847 heartbeat IPC: 1.1028 cumulative IPC: 0.844945 (Simulation time: 0 hr 16 min 40 sec) 
select_counter is 165
Heartbeat CPU 0 instructions: 49000001 cycles: 50599273 heartbeat IPC: 1.06335 cumulative IPC: 0.849418 (Simulation time: 0 hr 16 min 59 sec) 
select_counter is 159
Heartbeat CPU 0 instructions: 50000003 cycles: 51580628 heartbeat IPC: 1.019 cumulative IPC: 0.852967 (Simulation time: 0 hr 17 min 17 sec) 
select_counter is 154
Heartbeat CPU 0 instructions: 51000002 cycles: 52537821 heartbeat IPC: 1.04472 cumulative IPC: 0.856803 (Simulation time: 0 hr 17 min 38 sec) 
select_counter is 145
Heartbeat CPU 0 instructions: 52000000 cycles: 53502851 heartbeat IPC: 1.03624 cumulative IPC: 0.86035 (Simulation time: 0 hr 17 min 58 sec) 
select_counter is 135
Heartbeat CPU 0 instructions: 53000001 cycles: 54480906 heartbeat IPC: 1.02244 cumulative IPC: 0.863533 (Simulation time: 0 hr 18 min 17 sec) 
select_counter is 123
Heartbeat CPU 0 instructions: 54000003 cycles: 55462349 heartbeat IPC: 1.01891 cumulative IPC: 0.866536 (Simulation time: 0 hr 18 min 37 sec) 
select_counter is 108
Heartbeat CPU 0 instructions: 55000000 cycles: 56426686 heartbeat IPC: 1.03698 cumulative IPC: 0.869713 (Simulation time: 0 hr 19 min 6 sec) 
select_counter is 98
Heartbeat CPU 0 instructions: 56000000 cycles: 57402705 heartbeat IPC: 1.02457 cumulative IPC: 0.87258 (Simulation time: 0 hr 19 min 27 sec) 
select_counter is 90
Heartbeat CPU 0 instructions: 57000002 cycles: 58370283 heartbeat IPC: 1.03351 cumulative IPC: 0.875481 (Simulation time: 0 hr 19 min 46 sec) 
select_counter is 75
Heartbeat CPU 0 instructions: 58000003 cycles: 59343440 heartbeat IPC: 1.02758 cumulative IPC: 0.878189 (Simulation time: 0 hr 20 min 5 sec) 
select_counter is 62
Heartbeat CPU 0 instructions: 59000003 cycles: 60371775 heartbeat IPC: 0.972446 cumulative IPC: 0.879929 (Simulation time: 0 hr 20 min 25 sec) 
select_counter is 62
Heartbeat CPU 0 instructions: 60000000 cycles: 61579322 heartbeat IPC: 0.828123 cumulative IPC: 0.87883 (Simulation time: 0 hr 20 min 48 sec) 
select_counter is 111
Heartbeat CPU 0 instructions: 61000000 cycles: 62786409 heartbeat IPC: 0.828441 cumulative IPC: 0.877783 (Simulation time: 0 hr 21 min 11 sec) 
select_counter is 124
Heartbeat CPU 0 instructions: 62000003 cycles: 64009851 heartbeat IPC: 0.817369 cumulative IPC: 0.876537 (Simulation time: 0 hr 21 min 33 sec) 
select_counter is 113
Heartbeat CPU 0 instructions: 63000001 cycles: 65241588 heartbeat IPC: 0.81186 cumulative IPC: 0.875221 (Simulation time: 0 hr 21 min 56 sec) 
select_counter is 153
Heartbeat CPU 0 instructions: 64000000 cycles: 66563040 heartbeat IPC: 0.756743 cumulative IPC: 0.872691 (Simulation time: 0 hr 22 min 16 sec) 
select_counter is 153
Heartbeat CPU 0 instructions: 65000001 cycles: 67767318 heartbeat IPC: 0.830374 cumulative IPC: 0.871883 (Simulation time: 0 hr 22 min 39 sec) 
select_counter is 142
Heartbeat CPU 0 instructions: 66000003 cycles: 68969416 heartbeat IPC: 0.831881 cumulative IPC: 0.871135 (Simulation time: 0 hr 23 min 7 sec) 
select_counter is 122
Heartbeat CPU 0 instructions: 67000000 cycles: 70180695 heartbeat IPC: 0.825571 cumulative IPC: 0.870293 (Simulation time: 0 hr 23 min 35 sec) 
select_counter is 118
Heartbeat CPU 0 instructions: 68000000 cycles: 71494975 heartbeat IPC: 0.760873 cumulative IPC: 0.86814 (Simulation time: 0 hr 24 min 0 sec) 
select_counter is 136
Heartbeat CPU 0 instructions: 69000000 cycles: 72691432 heartbeat IPC: 0.835801 cumulative IPC: 0.867571 (Simulation time: 0 hr 24 min 28 sec) 
select_counter is 134
Heartbeat CPU 0 instructions: 70000002 cycles: 73893831 heartbeat IPC: 0.831672 cumulative IPC: 0.866948 (Simulation time: 0 hr 24 min 55 sec) 
select_counter is 114
Heartbeat CPU 0 instructions: 71000003 cycles: 75100603 heartbeat IPC: 0.828658 cumulative IPC: 0.866291 (Simulation time: 0 hr 25 min 20 sec) 
select_counter is 102
Heartbeat CPU 0 instructions: 72000000 cycles: 76308868 heartbeat IPC: 0.827631 cumulative IPC: 0.865639 (Simulation time: 0 hr 25 min 47 sec) 
select_counter is 106
Heartbeat CPU 0 instructions: 73000002 cycles: 77612474 heartbeat IPC: 0.767105 cumulative IPC: 0.863878 (Simulation time: 0 hr 26 min 11 sec) 
select_counter is 113
Heartbeat CPU 0 instructions: 74000000 cycles: 78812037 heartbeat IPC: 0.833635 cumulative IPC: 0.863388 (Simulation time: 0 hr 26 min 40 sec) 
select_counter is 106
Heartbeat CPU 0 instructions: 75000001 cycles: 80013453 heartbeat IPC: 0.832352 cumulative IPC: 0.862893 (Simulation time: 0 hr 27 min 7 sec) 
select_counter is 85
Heartbeat CPU 0 instructions: 76000000 cycles: 81222829 heartbeat IPC: 0.826872 cumulative IPC: 0.862324 (Simulation time: 0 hr 27 min 34 sec) 
select_counter is 73
Heartbeat CPU 0 instructions: 77000001 cycles: 82480088 heartbeat IPC: 0.795382 cumulative IPC: 0.861242 (Simulation time: 0 hr 28 min 1 sec) 
select_counter is 92
Heartbeat CPU 0 instructions: 78000003 cycles: 83646181 heartbeat IPC: 0.857566 cumulative IPC: 0.861188 (Simulation time: 0 hr 28 min 20 sec) 
select_counter is 83
Heartbeat CPU 0 instructions: 79000000 cycles: 84565204 heartbeat IPC: 1.08811 cumulative IPC: 0.863799 (Simulation time: 0 hr 28 min 39 sec) 
select_counter is 90
Heartbeat CPU 0 instructions: 80000000 cycles: 85468821 heartbeat IPC: 1.10666 cumulative IPC: 0.866515 (Simulation time: 0 hr 29 min 0 sec) 
select_counter is 82
Heartbeat CPU 0 instructions: 81000000 cycles: 86314745 heartbeat IPC: 1.18214 cumulative IPC: 0.869786 (Simulation time: 0 hr 29 min 20 sec) 
select_counter is 73
Heartbeat CPU 0 instructions: 82000001 cycles: 87206913 heartbeat IPC: 1.12087 cumulative IPC: 0.872501 (Simulation time: 0 hr 29 min 41 sec) 
select_counter is 66
Heartbeat CPU 0 instructions: 83000000 cycles: 88130801 heartbeat IPC: 1.08238 cumulative IPC: 0.874824 (Simulation time: 0 hr 30 min 2 sec) 
select_counter is 59
Heartbeat CPU 0 instructions: 84000000 cycles: 89048278 heartbeat IPC: 1.08995 cumulative IPC: 0.877164 (Simulation time: 0 hr 30 min 19 sec) 
select_counter is 75
Heartbeat CPU 0 instructions: 85000002 cycles: 89983694 heartbeat IPC: 1.06905 cumulative IPC: 0.879268 (Simulation time: 0 hr 30 min 46 sec) 
select_counter is 84
Heartbeat CPU 0 instructions: 86000002 cycles: 90913080 heartbeat IPC: 1.07598 cumulative IPC: 0.881388 (Simulation time: 0 hr 31 min 11 sec) 
select_counter is 85
Heartbeat CPU 0 instructions: 87000002 cycles: 91842474 heartbeat IPC: 1.07597 cumulative IPC: 0.883463 (Simulation time: 0 hr 31 min 38 sec) 
select_counter is 86
Heartbeat CPU 0 instructions: 88000000 cycles: 92892476 heartbeat IPC: 0.952377 cumulative IPC: 0.884284 (Simulation time: 0 hr 32 min 4 sec) 
select_counter is 90
Heartbeat CPU 0 instructions: 89000002 cycles: 93986705 heartbeat IPC: 0.913887 cumulative IPC: 0.884646 (Simulation time: 0 hr 32 min 30 sec) 
select_counter is 89
Heartbeat CPU 0 instructions: 90000001 cycles: 95077910 heartbeat IPC: 0.916417 cumulative IPC: 0.88503 (Simulation time: 0 hr 32 min 55 sec) 
select_counter is 90
Heartbeat CPU 0 instructions: 91000001 cycles: 96177238 heartbeat IPC: 0.909647 cumulative IPC: 0.885326 (Simulation time: 0 hr 33 min 20 sec) 
select_counter is 95
Heartbeat CPU 0 instructions: 92000000 cycles: 97263284 heartbeat IPC: 0.92077 cumulative IPC: 0.885742 (Simulation time: 0 hr 33 min 45 sec) 
select_counter is 100
Heartbeat CPU 0 instructions: 93000001 cycles: 98351504 heartbeat IPC: 0.918933 cumulative IPC: 0.886127 (Simulation time: 0 hr 34 min 10 sec) 
select_counter is 106
Heartbeat CPU 0 instructions: 94000001 cycles: 99435195 heartbeat IPC: 0.922772 cumulative IPC: 0.886546 (Simulation time: 0 hr 34 min 34 sec) 
select_counter is 107
Heartbeat CPU 0 instructions: 95000000 cycles: 100522794 heartbeat IPC: 0.919456 cumulative IPC: 0.88692 (Simulation time: 0 hr 35 min 0 sec) 
select_counter is 107
Heartbeat CPU 0 instructions: 96000000 cycles: 101606840 heartbeat IPC: 0.92247 cumulative IPC: 0.887317 (Simulation time: 0 hr 35 min 25 sec) 
select_counter is 110
Heartbeat CPU 0 instructions: 97000002 cycles: 102691802 heartbeat IPC: 0.921693 cumulative IPC: 0.887698 (Simulation time: 0 hr 35 min 50 sec) 
select_counter is 109
Heartbeat CPU 0 instructions: 98000002 cycles: 103775808 heartbeat IPC: 0.922504 cumulative IPC: 0.888079 (Simulation time: 0 hr 36 min 15 sec) 
select_counter is 108
Heartbeat CPU 0 instructions: 99000000 cycles: 104859989 heartbeat IPC: 0.922353 cumulative IPC: 0.88845 (Simulation time: 0 hr 36 min 42 sec) 
select_counter is 108
Heartbeat CPU 0 instructions: 100000000 cycles: 105945135 heartbeat IPC: 0.921535 cumulative IPC: 0.888804 (Simulation time: 0 hr 37 min 6 sec) 
select_counter is 108
Heartbeat CPU 0 instructions: 101000000 cycles: 107032115 heartbeat IPC: 0.91998 cumulative IPC: 0.889135 (Simulation time: 0 hr 37 min 31 sec) 
select_counter is 107
Heartbeat CPU 0 instructions: 102000000 cycles: 108122977 heartbeat IPC: 0.916706 cumulative IPC: 0.889426 (Simulation time: 0 hr 37 min 57 sec) 
select_counter is 107
Heartbeat CPU 0 instructions: 103000002 cycles: 109212331 heartbeat IPC: 0.917977 cumulative IPC: 0.889724 (Simulation time: 0 hr 38 min 22 sec) 
select_counter is 107
Heartbeat CPU 0 instructions: 104000000 cycles: 110300961 heartbeat IPC: 0.918584 cumulative IPC: 0.890021 (Simulation time: 0 hr 38 min 44 sec) 
select_counter is 108
Heartbeat CPU 0 instructions: 105000003 cycles: 111395074 heartbeat IPC: 0.913985 cumulative IPC: 0.890267 (Simulation time: 0 hr 39 min 8 sec) 
select_counter is 108
Heartbeat CPU 0 instructions: 106000002 cycles: 112491261 heartbeat IPC: 0.912252 cumulative IPC: 0.89049 (Simulation time: 0 hr 39 min 33 sec) 
select_counter is 109
Heartbeat CPU 0 instructions: 107000001 cycles: 113575724 heartbeat IPC: 0.922114 cumulative IPC: 0.890805 (Simulation time: 0 hr 39 min 56 sec) 
select_counter is 107
Heartbeat CPU 0 instructions: 108000000 cycles: 114669658 heartbeat IPC: 0.914131 cumulative IPC: 0.891037 (Simulation time: 0 hr 40 min 21 sec) 
select_counter is 107
Heartbeat CPU 0 instructions: 109000001 cycles: 115764507 heartbeat IPC: 0.913369 cumulative IPC: 0.891257 (Simulation time: 0 hr 40 min 43 sec) 
select_counter is 106
Heartbeat CPU 0 instructions: 110000002 cycles: 116864836 heartbeat IPC: 0.90882 cumulative IPC: 0.89143 (Simulation time: 0 hr 41 min 6 sec) 
select_counter is 105
Finished CPU 0 instructions: 100000000 cycles: 112179345 cummulative IPC: 0.89143 (Simulation time: 0 hr 41 min 6 sec) 

ChampSim completed all CPUs

Region of Interest Statistics

CPU 0 cummulative IPC: 0.89143 instructions: 100000000 cycles: 112179345
LLC TOTAL     ACCESS:    2346731  HIT:    2061845  MISS:     284886
LLC LOAD      ACCESS:     882501  HIT:     854737  MISS:      27764
LLC RFO       ACCESS:     180704  HIT:     108250  MISS:      72454
LLC PREFETCH  ACCESS:    1098708  HIT:     939039  MISS:     159669
LLC WRITEBACK ACCESS:     184818  HIT:     159819  MISS:      24999
Ship samples: 
20, 59, 84, 101, 143, 188, 208, 251, 279, 313, 345, 372, 384, 417, 469, 499, 519, 544, 578, 632, 643, 675, 711, 752, 778, 826, 835, 872, 916, 936, 979, 1013, 1048, 1059, 1116, 1133, 1159, 1208, 1217, 1263, 1303, 1331, 1372, 1379, 1411, 1465, 1478, 1521, 1540, 1592, 1615, 1632, 1688, 1720, 1747, 1783, 1815, 1848, 1876, 1910, 1921, 1957, 2015, 2036, 
Lime duel samples: 
13, 55, 74, 97, 134, 176, 212, 245, 270, 314, 351, 382, 409, 422, 479, 492, 524, 573, 584, 614, 659, 684, 728, 753, 769, 815, 840, 883, 905, 935, 969, 1019, 1050, 1078, 1114, 1147, 1183, 1200, 1230, 1256, 1291, 1321, 1370, 1404, 1424, 1451, 1495, 1518, 1566, 1588, 1601, 1638, 1686, 1700, 1728, 1763, 1820, 1841, 1875, 1896, 1951, 1965, 2000, 2019, 
Lime samples: 
13, 212, 409, 584, 769, 969, 1183, 1370, 1566, 1728, 1951, 
Insertion Distribution: 
	LOAD 13018 0 0 0 0 0 8673 2693 
	RFO 10342 0 0 0 0 0 32146 20718 
	PREF 0 9926 0 0 0 0 34966 98710 
	WRITEBACK 0 0 0 0 0 0 0 19940 
Total Prefetch Downgrades: 19233
