
*** ChampSim Multicore Out-of-Order Simulator ***

Warmup Instructions: 10000000
Simulation Instructions: 100000000
Configuration: 2
Number of CPUs: 1
LLC sets: 2048
LLC ways: 16
Off-chip DRAM Channels: 1 Width: 64-bit Data Rate: 1600 MT/s

CPU 0 runs /datasets/cs240c-wi22-a00-public/data/Assignment2-gz/leslie3d_1186B.trace.gz
CPU 0 L1D next line prefetcher
CPU 0 L2C IP-based stride prefetcher
Heartbeat CPU 0 instructions: 1000002 cycles: 564515 heartbeat IPC: 1.77144 cumulative IPC: 1.77144 (Simulation time: 0 hr 0 min 33 sec) 
select_counter is 180
Heartbeat CPU 0 instructions: 2000000 cycles: 1215823 heartbeat IPC: 1.53537 cumulative IPC: 1.64498 (Simulation time: 0 hr 1 min 2 sec) 
select_counter is 113
Heartbeat CPU 0 instructions: 3000000 cycles: 1867532 heartbeat IPC: 1.53443 cumulative IPC: 1.6064 (Simulation time: 0 hr 1 min 36 sec) 
select_counter is 33
Heartbeat CPU 0 instructions: 4000000 cycles: 2473060 heartbeat IPC: 1.65145 cumulative IPC: 1.61743 (Simulation time: 0 hr 2 min 9 sec) 
select_counter is 1022
Heartbeat CPU 0 instructions: 5000000 cycles: 3083404 heartbeat IPC: 1.63842 cumulative IPC: 1.62158 (Simulation time: 0 hr 2 min 37 sec) 
select_counter is 926
Heartbeat CPU 0 instructions: 6000000 cycles: 3735163 heartbeat IPC: 1.53431 cumulative IPC: 1.60636 (Simulation time: 0 hr 3 min 6 sec) 
select_counter is 901
Heartbeat CPU 0 instructions: 7000001 cycles: 4386431 heartbeat IPC: 1.53547 cumulative IPC: 1.59583 (Simulation time: 0 hr 3 min 40 sec) 
select_counter is 867
Heartbeat CPU 0 instructions: 8000000 cycles: 4951013 heartbeat IPC: 1.77122 cumulative IPC: 1.61583 (Simulation time: 0 hr 4 min 16 sec) 
select_counter is 888
Heartbeat CPU 0 instructions: 9000003 cycles: 5602310 heartbeat IPC: 1.5354 cumulative IPC: 1.60648 (Simulation time: 0 hr 4 min 42 sec) 
select_counter is 829
Heartbeat CPU 0 instructions: 10000001 cycles: 6253464 heartbeat IPC: 1.53573 cumulative IPC: 1.59911 (Simulation time: 0 hr 5 min 14 sec) 
select_counter is 770

Warmup complete CPU 0 instructions: 10000001 cycles: 6253464 (Simulation time: 0 hr 5 min 14 sec) 

Heartbeat CPU 0 instructions: 11000001 cycles: 7638423 heartbeat IPC: 0.722043 cumulative IPC: 0.722043 (Simulation time: 0 hr 5 min 45 sec) 
select_counter is 792
Heartbeat CPU 0 instructions: 12000000 cycles: 8884316 heartbeat IPC: 0.802636 cumulative IPC: 0.76021 (Simulation time: 0 hr 6 min 15 sec) 
select_counter is 704
Heartbeat CPU 0 instructions: 13000000 cycles: 10110323 heartbeat IPC: 0.815656 cumulative IPC: 0.777835 (Simulation time: 0 hr 6 min 49 sec) 
select_counter is 653
Heartbeat CPU 0 instructions: 14000000 cycles: 11372582 heartbeat IPC: 0.79223 cumulative IPC: 0.781384 (Simulation time: 0 hr 7 min 16 sec) 
select_counter is 595
Heartbeat CPU 0 instructions: 15000002 cycles: 12773154 heartbeat IPC: 0.713995 cumulative IPC: 0.766908 (Simulation time: 0 hr 7 min 42 sec) 
select_counter is 519
Heartbeat CPU 0 instructions: 16000000 cycles: 14011222 heartbeat IPC: 0.807708 cumulative IPC: 0.773419 (Simulation time: 0 hr 8 min 10 sec) 
select_counter is 480
Heartbeat CPU 0 instructions: 17000000 cycles: 15235016 heartbeat IPC: 0.817131 cumulative IPC: 0.779375 (Simulation time: 0 hr 8 min 42 sec) 
select_counter is 418
Heartbeat CPU 0 instructions: 18000001 cycles: 16713534 heartbeat IPC: 0.676354 cumulative IPC: 0.764813 (Simulation time: 0 hr 9 min 20 sec) 
select_counter is 413
Heartbeat CPU 0 instructions: 19000003 cycles: 17974091 heartbeat IPC: 0.793302 cumulative IPC: 0.767877 (Simulation time: 0 hr 9 min 50 sec) 
select_counter is 364
Heartbeat CPU 0 instructions: 20000000 cycles: 19209012 heartbeat IPC: 0.809766 cumulative IPC: 0.77187 (Simulation time: 0 hr 10 min 21 sec) 
select_counter is 327
Heartbeat CPU 0 instructions: 21000003 cycles: 20546418 heartbeat IPC: 0.747718 cumulative IPC: 0.76961 (Simulation time: 0 hr 10 min 53 sec) 
select_counter is 304
Heartbeat CPU 0 instructions: 22000003 cycles: 21893798 heartbeat IPC: 0.742181 cumulative IPC: 0.767247 (Simulation time: 0 hr 11 min 21 sec) 
select_counter is 258
Heartbeat CPU 0 instructions: 23000002 cycles: 23096690 heartbeat IPC: 0.831329 cumulative IPC: 0.771824 (Simulation time: 0 hr 11 min 48 sec) 
select_counter is 222
Heartbeat CPU 0 instructions: 24000000 cycles: 24289459 heartbeat IPC: 0.838384 cumulative IPC: 0.776226 (Simulation time: 0 hr 12 min 18 sec) 
select_counter is 173
Heartbeat CPU 0 instructions: 25000000 cycles: 25738496 heartbeat IPC: 0.690113 cumulative IPC: 0.769822 (Simulation time: 0 hr 12 min 44 sec) 
select_counter is 162
Heartbeat CPU 0 instructions: 26000000 cycles: 26949855 heartbeat IPC: 0.825519 cumulative IPC: 0.773082 (Simulation time: 0 hr 13 min 12 sec) 
select_counter is 120
Heartbeat CPU 0 instructions: 27000000 cycles: 28156336 heartbeat IPC: 0.828857 cumulative IPC: 0.776154 (Simulation time: 0 hr 13 min 39 sec) 
select_counter is 70
Heartbeat CPU 0 instructions: 28000000 cycles: 29580234 heartbeat IPC: 0.702298 cumulative IPC: 0.771646 (Simulation time: 0 hr 14 min 5 sec) 
select_counter is 31
Heartbeat CPU 0 instructions: 29000002 cycles: 30804272 heartbeat IPC: 0.81697 cumulative IPC: 0.773905 (Simulation time: 0 hr 14 min 32 sec) 
select_counter is 1010
Heartbeat CPU 0 instructions: 30000002 cycles: 31999737 heartbeat IPC: 0.836495 cumulative IPC: 0.776811 (Simulation time: 0 hr 15 min 2 sec) 
select_counter is 962
Heartbeat CPU 0 instructions: 31000002 cycles: 33229909 heartbeat IPC: 0.812894 cumulative IPC: 0.778457 (Simulation time: 0 hr 15 min 33 sec) 
select_counter is 913
Heartbeat CPU 0 instructions: 32000000 cycles: 34583473 heartbeat IPC: 0.738789 cumulative IPC: 0.776562 (Simulation time: 0 hr 16 min 5 sec) 
select_counter is 871
Heartbeat CPU 0 instructions: 33000000 cycles: 35778852 heartbeat IPC: 0.836555 cumulative IPC: 0.778991 (Simulation time: 0 hr 16 min 37 sec) 
select_counter is 825
Heartbeat CPU 0 instructions: 34000000 cycles: 36981209 heartbeat IPC: 0.8317 cumulative IPC: 0.781053 (Simulation time: 0 hr 17 min 8 sec) 
select_counter is 781
Heartbeat CPU 0 instructions: 35000000 cycles: 38382160 heartbeat IPC: 0.713801 cumulative IPC: 0.778121 (Simulation time: 0 hr 17 min 36 sec) 
select_counter is 752
Heartbeat CPU 0 instructions: 36000000 cycles: 39606424 heartbeat IPC: 0.816817 cumulative IPC: 0.779541 (Simulation time: 0 hr 18 min 7 sec) 
select_counter is 693
Heartbeat CPU 0 instructions: 37000003 cycles: 40832886 heartbeat IPC: 0.815356 cumulative IPC: 0.780811 (Simulation time: 0 hr 18 min 38 sec) 
select_counter is 667
Heartbeat CPU 0 instructions: 38000003 cycles: 42166213 heartbeat IPC: 0.750004 cumulative IPC: 0.779667 (Simulation time: 0 hr 19 min 4 sec) 
select_counter is 589
Heartbeat CPU 0 instructions: 39000001 cycles: 43452000 heartbeat IPC: 0.777732 cumulative IPC: 0.779601 (Simulation time: 0 hr 19 min 32 sec) 
select_counter is 525
Heartbeat CPU 0 instructions: 40000000 cycles: 44676015 heartbeat IPC: 0.816983 cumulative IPC: 0.780791 (Simulation time: 0 hr 20 min 3 sec) 
select_counter is 496
Heartbeat CPU 0 instructions: 41000000 cycles: 45874859 heartbeat IPC: 0.834137 cumulative IPC: 0.782406 (Simulation time: 0 hr 20 min 31 sec) 
select_counter is 458
Heartbeat CPU 0 instructions: 42000000 cycles: 47316746 heartbeat IPC: 0.693536 cumulative IPC: 0.779285 (Simulation time: 0 hr 20 min 59 sec) 
select_counter is 374
Heartbeat CPU 0 instructions: 43000002 cycles: 48513464 heartbeat IPC: 0.83562 cumulative IPC: 0.78088 (Simulation time: 0 hr 21 min 31 sec) 
select_counter is 333
Heartbeat CPU 0 instructions: 44000000 cycles: 49721753 heartbeat IPC: 0.827615 cumulative IPC: 0.782179 (Simulation time: 0 hr 22 min 2 sec) 
select_counter is 311
Heartbeat CPU 0 instructions: 45000001 cycles: 51215681 heartbeat IPC: 0.669377 cumulative IPC: 0.778431 (Simulation time: 0 hr 22 min 30 sec) 
select_counter is 230
Heartbeat CPU 0 instructions: 46000001 cycles: 52956857 heartbeat IPC: 0.574324 cumulative IPC: 0.770822 (Simulation time: 0 hr 23 min 6 sec) 
select_counter is 63
Heartbeat CPU 0 instructions: 47000002 cycles: 54742668 heartbeat IPC: 0.55997 cumulative IPC: 0.763056 (Simulation time: 0 hr 23 min 45 sec) 
select_counter is 72
Heartbeat CPU 0 instructions: 48000000 cycles: 56698658 heartbeat IPC: 0.511249 cumulative IPC: 0.753293 (Simulation time: 0 hr 24 min 21 sec) 
select_counter is 395
Heartbeat CPU 0 instructions: 49000002 cycles: 58582712 heartbeat IPC: 0.530771 cumulative IPC: 0.745281 (Simulation time: 0 hr 25 min 0 sec) 
select_counter is 672
Heartbeat CPU 0 instructions: 50000002 cycles: 60505884 heartbeat IPC: 0.519974 cumulative IPC: 0.737294 (Simulation time: 0 hr 25 min 40 sec) 
select_counter is 1018
Heartbeat CPU 0 instructions: 51000000 cycles: 62482591 heartbeat IPC: 0.505891 cumulative IPC: 0.729159 (Simulation time: 0 hr 26 min 23 sec) 
select_counter is 1022
Heartbeat CPU 0 instructions: 52000000 cycles: 64443488 heartbeat IPC: 0.509971 cumulative IPC: 0.721773 (Simulation time: 0 hr 27 min 1 sec) 
select_counter is 1018
Heartbeat CPU 0 instructions: 53000000 cycles: 66453126 heartbeat IPC: 0.497602 cumulative IPC: 0.71429 (Simulation time: 0 hr 27 min 44 sec) 
select_counter is 1021
Heartbeat CPU 0 instructions: 54000003 cycles: 68453834 heartbeat IPC: 0.499825 cumulative IPC: 0.707391 (Simulation time: 0 hr 28 min 22 sec) 
select_counter is 1022
Heartbeat CPU 0 instructions: 55000001 cycles: 70641855 heartbeat IPC: 0.457033 cumulative IPC: 0.698884 (Simulation time: 0 hr 29 min 3 sec) 
select_counter is 1022
Heartbeat CPU 0 instructions: 56000000 cycles: 73088856 heartbeat IPC: 0.408663 cumulative IPC: 0.688258 (Simulation time: 0 hr 29 min 45 sec) 
select_counter is 1022
Heartbeat CPU 0 instructions: 57000003 cycles: 75504580 heartbeat IPC: 0.413956 cumulative IPC: 0.678689 (Simulation time: 0 hr 30 min 25 sec) 
select_counter is 1020
Heartbeat CPU 0 instructions: 58000001 cycles: 77987093 heartbeat IPC: 0.402817 cumulative IPC: 0.669142 (Simulation time: 0 hr 31 min 4 sec) 
select_counter is 1021
Heartbeat CPU 0 instructions: 59000003 cycles: 80316980 heartbeat IPC: 0.429206 cumulative IPC: 0.661594 (Simulation time: 0 hr 31 min 50 sec) 
select_counter is 1020
Heartbeat CPU 0 instructions: 60000000 cycles: 82634589 heartbeat IPC: 0.431478 cumulative IPC: 0.654612 (Simulation time: 0 hr 32 min 34 sec) 
select_counter is 1019
Heartbeat CPU 0 instructions: 61000003 cycles: 84965165 heartbeat IPC: 0.42908 cumulative IPC: 0.647934 (Simulation time: 0 hr 33 min 19 sec) 
select_counter is 1021
Heartbeat CPU 0 instructions: 62000001 cycles: 87328363 heartbeat IPC: 0.423155 cumulative IPC: 0.641382 (Simulation time: 0 hr 34 min 3 sec) 
select_counter is 1023
Heartbeat CPU 0 instructions: 63000000 cycles: 89333375 heartbeat IPC: 0.49875 cumulative IPC: 0.63794 (Simulation time: 0 hr 34 min 42 sec) 
select_counter is 1011
Heartbeat CPU 0 instructions: 64000000 cycles: 90656534 heartbeat IPC: 0.755767 cumulative IPC: 0.639787 (Simulation time: 0 hr 35 min 19 sec) 
select_counter is 773
Heartbeat CPU 0 instructions: 65000000 cycles: 92015234 heartbeat IPC: 0.735998 cumulative IPC: 0.641311 (Simulation time: 0 hr 35 min 54 sec) 
select_counter is 610
Heartbeat CPU 0 instructions: 66000002 cycles: 93376745 heartbeat IPC: 0.73448 cumulative IPC: 0.642767 (Simulation time: 0 hr 36 min 26 sec) 
select_counter is 499
Heartbeat CPU 0 instructions: 67000001 cycles: 94720769 heartbeat IPC: 0.744034 cumulative IPC: 0.644306 (Simulation time: 0 hr 37 min 0 sec) 
select_counter is 408
Heartbeat CPU 0 instructions: 68000000 cycles: 96068776 heartbeat IPC: 0.741835 cumulative IPC: 0.64577 (Simulation time: 0 hr 37 min 31 sec) 
select_counter is 314
Heartbeat CPU 0 instructions: 69000000 cycles: 97352623 heartbeat IPC: 0.778909 cumulative IPC: 0.647646 (Simulation time: 0 hr 38 min 6 sec) 
select_counter is 247
Heartbeat CPU 0 instructions: 70000000 cycles: 98677732 heartbeat IPC: 0.754655 cumulative IPC: 0.64918 (Simulation time: 0 hr 38 min 35 sec) 
select_counter is 107
Heartbeat CPU 0 instructions: 71000003 cycles: 99958919 heartbeat IPC: 0.780529 cumulative IPC: 0.650976 (Simulation time: 0 hr 39 min 8 sec) 
select_counter is 923
Heartbeat CPU 0 instructions: 72000000 cycles: 101267770 heartbeat IPC: 0.764027 cumulative IPC: 0.652533 (Simulation time: 0 hr 39 min 39 sec) 
select_counter is 761
Heartbeat CPU 0 instructions: 73000000 cycles: 102609468 heartbeat IPC: 0.745324 cumulative IPC: 0.653825 (Simulation time: 0 hr 40 min 12 sec) 
select_counter is 593
Heartbeat CPU 0 instructions: 74000000 cycles: 103939390 heartbeat IPC: 0.751924 cumulative IPC: 0.655161 (Simulation time: 0 hr 40 min 46 sec) 
select_counter is 406
Heartbeat CPU 0 instructions: 75000003 cycles: 105267493 heartbeat IPC: 0.752956 cumulative IPC: 0.656473 (Simulation time: 0 hr 41 min 17 sec) 
select_counter is 271
Heartbeat CPU 0 instructions: 76000000 cycles: 106546969 heartbeat IPC: 0.781568 cumulative IPC: 0.658069 (Simulation time: 0 hr 41 min 46 sec) 
select_counter is 121
Heartbeat CPU 0 instructions: 77000000 cycles: 107860230 heartbeat IPC: 0.761463 cumulative IPC: 0.659405 (Simulation time: 0 hr 42 min 15 sec) 
select_counter is 1016
Heartbeat CPU 0 instructions: 78000001 cycles: 109163079 heartbeat IPC: 0.767549 cumulative IPC: 0.660774 (Simulation time: 0 hr 42 min 44 sec) 
select_counter is 861
Heartbeat CPU 0 instructions: 79000002 cycles: 110504518 heartbeat IPC: 0.745469 cumulative IPC: 0.661864 (Simulation time: 0 hr 43 min 13 sec) 
select_counter is 682
Heartbeat CPU 0 instructions: 80000000 cycles: 111865864 heartbeat IPC: 0.734566 cumulative IPC: 0.662801 (Simulation time: 0 hr 43 min 41 sec) 
select_counter is 544
Heartbeat CPU 0 instructions: 81000000 cycles: 113196836 heartbeat IPC: 0.751331 cumulative IPC: 0.663903 (Simulation time: 0 hr 44 min 9 sec) 
select_counter is 374
Heartbeat CPU 0 instructions: 82000003 cycles: 114516398 heartbeat IPC: 0.757829 cumulative IPC: 0.665048 (Simulation time: 0 hr 44 min 37 sec) 
select_counter is 260
Heartbeat CPU 0 instructions: 83000001 cycles: 115802823 heartbeat IPC: 0.777347 cumulative IPC: 0.666366 (Simulation time: 0 hr 45 min 1 sec) 
select_counter is 110
Heartbeat CPU 0 instructions: 84000000 cycles: 117100028 heartbeat IPC: 0.770887 cumulative IPC: 0.667589 (Simulation time: 0 hr 45 min 24 sec) 
select_counter is 978
Heartbeat CPU 0 instructions: 85000001 cycles: 118392834 heartbeat IPC: 0.773512 cumulative IPC: 0.668811 (Simulation time: 0 hr 45 min 45 sec) 
select_counter is 851
Heartbeat CPU 0 instructions: 86000003 cycles: 119719015 heartbeat IPC: 0.754046 cumulative IPC: 0.669807 (Simulation time: 0 hr 46 min 6 sec) 
select_counter is 743
Heartbeat CPU 0 instructions: 87000001 cycles: 121054186 heartbeat IPC: 0.748966 cumulative IPC: 0.670727 (Simulation time: 0 hr 46 min 24 sec) 
select_counter is 607
Heartbeat CPU 0 instructions: 88000000 cycles: 122399811 heartbeat IPC: 0.743148 cumulative IPC: 0.671567 (Simulation time: 0 hr 46 min 42 sec) 
select_counter is 453
Heartbeat CPU 0 instructions: 89000001 cycles: 123720809 heartbeat IPC: 0.757004 cumulative IPC: 0.672527 (Simulation time: 0 hr 46 min 59 sec) 
select_counter is 310
Heartbeat CPU 0 instructions: 90000002 cycles: 125020295 heartbeat IPC: 0.769536 cumulative IPC: 0.673589 (Simulation time: 0 hr 47 min 15 sec) 
select_counter is 210
Heartbeat CPU 0 instructions: 91000000 cycles: 126328311 heartbeat IPC: 0.764515 cumulative IPC: 0.674579 (Simulation time: 0 hr 47 min 31 sec) 
select_counter is 102
Heartbeat CPU 0 instructions: 92000000 cycles: 127607844 heartbeat IPC: 0.781535 cumulative IPC: 0.675707 (Simulation time: 0 hr 47 min 47 sec) 
select_counter is 6
Heartbeat CPU 0 instructions: 93000002 cycles: 128932072 heartbeat IPC: 0.755158 cumulative IPC: 0.676565 (Simulation time: 0 hr 48 min 3 sec) 
select_counter is 937
Heartbeat CPU 0 instructions: 94000000 cycles: 130233636 heartbeat IPC: 0.768305 cumulative IPC: 0.677528 (Simulation time: 0 hr 48 min 19 sec) 
select_counter is 789
Heartbeat CPU 0 instructions: 95000003 cycles: 131552772 heartbeat IPC: 0.758074 cumulative IPC: 0.678376 (Simulation time: 0 hr 48 min 35 sec) 
select_counter is 706
Heartbeat CPU 0 instructions: 96000000 cycles: 132897734 heartbeat IPC: 0.743513 cumulative IPC: 0.679067 (Simulation time: 0 hr 48 min 51 sec) 
select_counter is 635
Heartbeat CPU 0 instructions: 97000001 cycles: 134218758 heartbeat IPC: 0.756989 cumulative IPC: 0.679872 (Simulation time: 0 hr 49 min 6 sec) 
select_counter is 531
Heartbeat CPU 0 instructions: 98000002 cycles: 135571996 heartbeat IPC: 0.738969 cumulative IPC: 0.68049 (Simulation time: 0 hr 49 min 21 sec) 
select_counter is 439
Heartbeat CPU 0 instructions: 99000000 cycles: 136858692 heartbeat IPC: 0.777183 cumulative IPC: 0.681443 (Simulation time: 0 hr 49 min 34 sec) 
select_counter is 359
Heartbeat CPU 0 instructions: 100000000 cycles: 138191372 heartbeat IPC: 0.750368 cumulative IPC: 0.682139 (Simulation time: 0 hr 49 min 46 sec) 
select_counter is 228
Heartbeat CPU 0 instructions: 101000000 cycles: 139486475 heartbeat IPC: 0.772139 cumulative IPC: 0.683014 (Simulation time: 0 hr 49 min 59 sec) 
select_counter is 96
Heartbeat CPU 0 instructions: 102000001 cycles: 140766342 heartbeat IPC: 0.781332 cumulative IPC: 0.683949 (Simulation time: 0 hr 50 min 11 sec) 
select_counter is 995
Heartbeat CPU 0 instructions: 103000002 cycles: 142106273 heartbeat IPC: 0.746308 cumulative IPC: 0.684564 (Simulation time: 0 hr 50 min 23 sec) 
select_counter is 860
Heartbeat CPU 0 instructions: 104000000 cycles: 143424340 heartbeat IPC: 0.758685 cumulative IPC: 0.685277 (Simulation time: 0 hr 50 min 34 sec) 
select_counter is 764
Heartbeat CPU 0 instructions: 105000001 cycles: 144799829 heartbeat IPC: 0.727015 cumulative IPC: 0.685691 (Simulation time: 0 hr 50 min 44 sec) 
select_counter is 669
Heartbeat CPU 0 instructions: 106000002 cycles: 146135719 heartbeat IPC: 0.748565 cumulative IPC: 0.686292 (Simulation time: 0 hr 50 min 54 sec) 
select_counter is 542
Heartbeat CPU 0 instructions: 107000000 cycles: 147490042 heartbeat IPC: 0.738375 cumulative IPC: 0.686791 (Simulation time: 0 hr 51 min 3 sec) 
select_counter is 434
Heartbeat CPU 0 instructions: 108000000 cycles: 148779014 heartbeat IPC: 0.775812 cumulative IPC: 0.687596 (Simulation time: 0 hr 51 min 12 sec) 
select_counter is 305
Heartbeat CPU 0 instructions: 109000003 cycles: 150049150 heartbeat IPC: 0.78732 cumulative IPC: 0.688477 (Simulation time: 0 hr 51 min 21 sec) 
select_counter is 153
Heartbeat CPU 0 instructions: 110000001 cycles: 151365456 heartbeat IPC: 0.7597 cumulative IPC: 0.689123 (Simulation time: 0 hr 51 min 28 sec) 
select_counter is 21
Finished CPU 0 instructions: 100000000 cycles: 145111992 cummulative IPC: 0.689123 (Simulation time: 0 hr 51 min 28 sec) 

ChampSim completed all CPUs

Region of Interest Statistics

CPU 0 cummulative IPC: 0.689123 instructions: 100000000 cycles: 145111992
LLC TOTAL     ACCESS:    3758319  HIT:    1127663  MISS:    2630656
LLC LOAD      ACCESS:     404022  HIT:      94296  MISS:     309726
LLC RFO       ACCESS:     463727  HIT:     173613  MISS:     290114
LLC PREFETCH  ACCESS:    2141405  HIT:     358436  MISS:    1782969
LLC WRITEBACK ACCESS:     749165  HIT:     501318  MISS:     247847
Ship samples: 
31, 57, 91, 123, 144, 160, 215, 243, 285, 297, 324, 377, 393, 446, 467, 491, 519, 547, 587, 610, 654, 688, 713, 757, 778, 808, 844, 876, 924, 937, 990, 993, 1049, 1064, 1090, 1151, 1165, 1205, 1236, 1276, 1288, 1325, 1350, 1385, 1411, 1457, 1480, 1511, 1558, 1574, 1626, 1641, 1685, 1725, 1753, 1777, 1813, 1828, 1862, 1890, 1940, 1961, 1996, 2027, 
Lime duel samples: 
23, 50, 81, 102, 128, 175, 213, 230, 272, 294, 321, 366, 413, 442, 468, 500, 530, 548, 578, 638, 667, 674, 709, 740, 774, 830, 847, 865, 917, 938, 975, 1013, 1029, 1060, 1092, 1130, 1168, 1200, 1238, 1258, 1310, 1316, 1364, 1401, 1410, 1459, 1474, 1522, 1537, 1583, 1624, 1637, 1671, 1726, 1737, 1768, 1822, 1830, 1871, 1906, 1943, 1962, 2012, 2047, 
Lime samples: 
23, 213, 413, 578, 774, 975, 1168, 1364, 1537, 1737, 1943, 
Insertion Distribution: 
	LOAD 19857 0 0 0 0 0 12038 83630 
	RFO 1489 0 0 0 0 0 2270 58241 
	PREF 0 28700 0 0 0 0 76032 648854 
	WRITEBACK 0 0 0 0 0 0 0 156497 
Total Prefetch Downgrades: 29918
