
*** ChampSim Multicore Out-of-Order Simulator ***

Warmup Instructions: 10000000
Simulation Instructions: 100000000
Configuration: 2
Number of CPUs: 1
LLC sets: 2048
LLC ways: 16
Off-chip DRAM Channels: 1 Width: 64-bit Data Rate: 1600 MT/s

CPU 0 runs /datasets/cs240c-wi22-a00-public/data/Assignment2-gz/mcf_158B.trace.gz
CPU 0 L1D next line prefetcher
CPU 0 L2C IP-based stride prefetcher
Heartbeat CPU 0 instructions: 1000002 cycles: 512628 heartbeat IPC: 1.95074 cumulative IPC: 1.95074 (Simulation time: 0 hr 0 min 35 sec) 
select_counter is 329
Heartbeat CPU 0 instructions: 2000002 cycles: 1023669 heartbeat IPC: 1.95679 cumulative IPC: 1.95376 (Simulation time: 0 hr 1 min 14 sec) 
select_counter is 750
Heartbeat CPU 0 instructions: 3000000 cycles: 1536070 heartbeat IPC: 1.95159 cumulative IPC: 1.95304 (Simulation time: 0 hr 1 min 51 sec) 
select_counter is 206
Heartbeat CPU 0 instructions: 4000000 cycles: 2046915 heartbeat IPC: 1.95754 cumulative IPC: 1.95416 (Simulation time: 0 hr 2 min 39 sec) 
select_counter is 406
Heartbeat CPU 0 instructions: 5000002 cycles: 2554616 heartbeat IPC: 1.96967 cumulative IPC: 1.95724 (Simulation time: 0 hr 3 min 15 sec) 
select_counter is 632
Heartbeat CPU 0 instructions: 6000001 cycles: 3067060 heartbeat IPC: 1.95143 cumulative IPC: 1.95627 (Simulation time: 0 hr 3 min 48 sec) 
select_counter is 860
Heartbeat CPU 0 instructions: 7000001 cycles: 3576020 heartbeat IPC: 1.96479 cumulative IPC: 1.95748 (Simulation time: 0 hr 4 min 22 sec) 
select_counter is 889
Heartbeat CPU 0 instructions: 8000000 cycles: 4086830 heartbeat IPC: 1.95767 cumulative IPC: 1.95751 (Simulation time: 0 hr 5 min 0 sec) 
select_counter is 923
Heartbeat CPU 0 instructions: 9000000 cycles: 4605187 heartbeat IPC: 1.92917 cumulative IPC: 1.95432 (Simulation time: 0 hr 5 min 38 sec) 
select_counter is 472
Heartbeat CPU 0 instructions: 10000001 cycles: 5139651 heartbeat IPC: 1.87104 cumulative IPC: 1.94566 (Simulation time: 0 hr 6 min 13 sec) 
select_counter is 131

Warmup complete CPU 0 instructions: 10000001 cycles: 5139651 (Simulation time: 0 hr 6 min 13 sec) 

Heartbeat CPU 0 instructions: 11000001 cycles: 14961511 heartbeat IPC: 0.101814 cumulative IPC: 0.101814 (Simulation time: 0 hr 7 min 4 sec) 
select_counter is 486
Heartbeat CPU 0 instructions: 12000000 cycles: 23480786 heartbeat IPC: 0.117381 cumulative IPC: 0.109044 (Simulation time: 0 hr 7 min 48 sec) 
select_counter is 174
Heartbeat CPU 0 instructions: 13000001 cycles: 32397017 heartbeat IPC: 0.112155 cumulative IPC: 0.110062 (Simulation time: 0 hr 8 min 34 sec) 
select_counter is 566
Heartbeat CPU 0 instructions: 14000001 cycles: 39777168 heartbeat IPC: 0.135499 cumulative IPC: 0.115482 (Simulation time: 0 hr 9 min 18 sec) 
select_counter is 10
Heartbeat CPU 0 instructions: 15000000 cycles: 49115865 heartbeat IPC: 0.107081 cumulative IPC: 0.113698 (Simulation time: 0 hr 10 min 0 sec) 
select_counter is 567
Heartbeat CPU 0 instructions: 16000000 cycles: 64678060 heartbeat IPC: 0.0642583 cumulative IPC: 0.100775 (Simulation time: 0 hr 11 min 3 sec) 
select_counter is 399
Heartbeat CPU 0 instructions: 17000001 cycles: 75825035 heartbeat IPC: 0.0897105 cumulative IPC: 0.0990304 (Simulation time: 0 hr 11 min 59 sec) 
select_counter is 601
Heartbeat CPU 0 instructions: 18000000 cycles: 84608199 heartbeat IPC: 0.113854 cumulative IPC: 0.100669 (Simulation time: 0 hr 12 min 40 sec) 
select_counter is 833
Heartbeat CPU 0 instructions: 19000001 cycles: 93865381 heartbeat IPC: 0.108024 cumulative IPC: 0.101436 (Simulation time: 0 hr 13 min 32 sec) 
select_counter is 303
Heartbeat CPU 0 instructions: 20000000 cycles: 102875901 heartbeat IPC: 0.110981 cumulative IPC: 0.102316 (Simulation time: 0 hr 14 min 26 sec) 
select_counter is 874
Heartbeat CPU 0 instructions: 21000000 cycles: 111772313 heartbeat IPC: 0.112405 cumulative IPC: 0.103158 (Simulation time: 0 hr 15 min 9 sec) 
select_counter is 260
Heartbeat CPU 0 instructions: 22000002 cycles: 120938738 heartbeat IPC: 0.109094 cumulative IPC: 0.103628 (Simulation time: 0 hr 15 min 56 sec) 
select_counter is 688
Heartbeat CPU 0 instructions: 23000002 cycles: 131283193 heartbeat IPC: 0.0966702 cumulative IPC: 0.103057 (Simulation time: 0 hr 16 min 47 sec) 
select_counter is 141
Heartbeat CPU 0 instructions: 24000000 cycles: 146911424 heartbeat IPC: 0.0639866 cumulative IPC: 0.0987503 (Simulation time: 0 hr 17 min 51 sec) 
select_counter is 914
Heartbeat CPU 0 instructions: 25000000 cycles: 155892064 heartbeat IPC: 0.111351 cumulative IPC: 0.0995009 (Simulation time: 0 hr 18 min 45 sec) 
select_counter is 151
Heartbeat CPU 0 instructions: 26000000 cycles: 163638910 heartbeat IPC: 0.129085 cumulative IPC: 0.100947 (Simulation time: 0 hr 19 min 29 sec) 
select_counter is 521
Heartbeat CPU 0 instructions: 27000002 cycles: 170715200 heartbeat IPC: 0.141317 cumulative IPC: 0.102672 (Simulation time: 0 hr 20 min 13 sec) 
select_counter is 813
Heartbeat CPU 0 instructions: 28000000 cycles: 185950991 heartbeat IPC: 0.0656348 cumulative IPC: 0.0995513 (Simulation time: 0 hr 21 min 10 sec) 
select_counter is 785
Heartbeat CPU 0 instructions: 29000003 cycles: 194862209 heartbeat IPC: 0.112218 cumulative IPC: 0.100146 (Simulation time: 0 hr 21 min 51 sec) 
select_counter is 271
Heartbeat CPU 0 instructions: 30000003 cycles: 201884999 heartbeat IPC: 0.142394 cumulative IPC: 0.101654 (Simulation time: 0 hr 22 min 33 sec) 
select_counter is 781
Heartbeat CPU 0 instructions: 31000003 cycles: 210241797 heartbeat IPC: 0.119663 cumulative IPC: 0.102388 (Simulation time: 0 hr 23 min 22 sec) 
select_counter is 387
Heartbeat CPU 0 instructions: 32000000 cycles: 225151645 heartbeat IPC: 0.0670696 cumulative IPC: 0.0999945 (Simulation time: 0 hr 24 min 30 sec) 
select_counter is 617
Heartbeat CPU 0 instructions: 33000000 cycles: 232286707 heartbeat IPC: 0.140153 cumulative IPC: 0.101256 (Simulation time: 0 hr 25 min 22 sec) 
select_counter is 115
Heartbeat CPU 0 instructions: 34000000 cycles: 240491128 heartbeat IPC: 0.121886 cumulative IPC: 0.101975 (Simulation time: 0 hr 26 min 12 sec) 
select_counter is 787
Heartbeat CPU 0 instructions: 35000001 cycles: 248890579 heartbeat IPC: 0.119056 cumulative IPC: 0.102564 (Simulation time: 0 hr 27 min 7 sec) 
select_counter is 319
Heartbeat CPU 0 instructions: 36000000 cycles: 264835731 heartbeat IPC: 0.0627149 cumulative IPC: 0.100117 (Simulation time: 0 hr 28 min 19 sec) 
select_counter is 621
Heartbeat CPU 0 instructions: 37000001 cycles: 272940918 heartbeat IPC: 0.123378 cumulative IPC: 0.100821 (Simulation time: 0 hr 29 min 11 sec) 
select_counter is 115
Heartbeat CPU 0 instructions: 38000000 cycles: 281570205 heartbeat IPC: 0.115884 cumulative IPC: 0.101291 (Simulation time: 0 hr 30 min 2 sec) 
select_counter is 734
Heartbeat CPU 0 instructions: 39000000 cycles: 288768367 heartbeat IPC: 0.138924 cumulative IPC: 0.102246 (Simulation time: 0 hr 30 min 52 sec) 
select_counter is 453
Heartbeat CPU 0 instructions: 40000000 cycles: 303254057 heartbeat IPC: 0.0690336 cumulative IPC: 0.100633 (Simulation time: 0 hr 31 min 58 sec) 
select_counter is 544
Heartbeat CPU 0 instructions: 41000003 cycles: 312198444 heartbeat IPC: 0.111802 cumulative IPC: 0.100958 (Simulation time: 0 hr 32 min 54 sec) 
select_counter is 288
Heartbeat CPU 0 instructions: 42000000 cycles: 319298904 heartbeat IPC: 0.140836 cumulative IPC: 0.101859 (Simulation time: 0 hr 33 min 42 sec) 
select_counter is 733
Heartbeat CPU 0 instructions: 43000001 cycles: 330083627 heartbeat IPC: 0.0927238 cumulative IPC: 0.101556 (Simulation time: 0 hr 34 min 41 sec) 
select_counter is 417
Heartbeat CPU 0 instructions: 44000000 cycles: 342272615 heartbeat IPC: 0.0820412 cumulative IPC: 0.10085 (Simulation time: 0 hr 35 min 38 sec) 
select_counter is 421
Heartbeat CPU 0 instructions: 45000000 cycles: 348460408 heartbeat IPC: 0.161609 cumulative IPC: 0.101945 (Simulation time: 0 hr 36 min 20 sec) 
select_counter is 800
Heartbeat CPU 0 instructions: 46000002 cycles: 358952840 heartbeat IPC: 0.095307 cumulative IPC: 0.101749 (Simulation time: 0 hr 37 min 12 sec) 
select_counter is 592
Heartbeat CPU 0 instructions: 47000002 cycles: 371517238 heartbeat IPC: 0.07959 cumulative IPC: 0.100989 (Simulation time: 0 hr 38 min 8 sec) 
select_counter is 531
Heartbeat CPU 0 instructions: 48000000 cycles: 377517607 heartbeat IPC: 0.166656 cumulative IPC: 0.102047 (Simulation time: 0 hr 38 min 44 sec) 
select_counter is 996
Heartbeat CPU 0 instructions: 49000003 cycles: 388110330 heartbeat IPC: 0.0944047 cumulative IPC: 0.101835 (Simulation time: 0 hr 39 min 32 sec) 
select_counter is 677
Heartbeat CPU 0 instructions: 50000000 cycles: 400820049 heartbeat IPC: 0.0786797 cumulative IPC: 0.101092 (Simulation time: 0 hr 40 min 28 sec) 
select_counter is 764
Heartbeat CPU 0 instructions: 51000000 cycles: 406813411 heartbeat IPC: 0.166851 cumulative IPC: 0.102073 (Simulation time: 0 hr 41 min 4 sec) 
select_counter is 220
Heartbeat CPU 0 instructions: 52000000 cycles: 415912019 heartbeat IPC: 0.109907 cumulative IPC: 0.102246 (Simulation time: 0 hr 41 min 49 sec) 
select_counter is 1016
Heartbeat CPU 0 instructions: 53000000 cycles: 429744476 heartbeat IPC: 0.0722937 cumulative IPC: 0.101271 (Simulation time: 0 hr 42 min 48 sec) 
select_counter is 865
Heartbeat CPU 0 instructions: 54000000 cycles: 436332653 heartbeat IPC: 0.151787 cumulative IPC: 0.102042 (Simulation time: 0 hr 43 min 29 sec) 
select_counter is 396
Heartbeat CPU 0 instructions: 55000000 cycles: 443772224 heartbeat IPC: 0.134416 cumulative IPC: 0.102592 (Simulation time: 0 hr 44 min 8 sec) 
select_counter is 19
Heartbeat CPU 0 instructions: 56000000 cycles: 458829819 heartbeat IPC: 0.0664117 cumulative IPC: 0.101391 (Simulation time: 0 hr 44 min 58 sec) 
select_counter is 962
Heartbeat CPU 0 instructions: 57000001 cycles: 465687196 heartbeat IPC: 0.145829 cumulative IPC: 0.102052 (Simulation time: 0 hr 45 min 27 sec) 
select_counter is 459
Heartbeat CPU 0 instructions: 58000001 cycles: 471353337 heartbeat IPC: 0.176487 cumulative IPC: 0.102957 (Simulation time: 0 hr 45 min 52 sec) 
select_counter is 992
Heartbeat CPU 0 instructions: 59000000 cycles: 487428960 heartbeat IPC: 0.0622059 cumulative IPC: 0.101599 (Simulation time: 0 hr 46 min 32 sec) 
select_counter is 1014
Heartbeat CPU 0 instructions: 60000000 cycles: 494655532 heartbeat IPC: 0.138378 cumulative IPC: 0.102142 (Simulation time: 0 hr 46 min 55 sec) 
select_counter is 593
Heartbeat CPU 0 instructions: 61000000 cycles: 501084557 heartbeat IPC: 0.155545 cumulative IPC: 0.102834 (Simulation time: 0 hr 47 min 16 sec) 
select_counter is 290
Heartbeat CPU 0 instructions: 62000001 cycles: 513547032 heartbeat IPC: 0.080241 cumulative IPC: 0.10228 (Simulation time: 0 hr 47 min 45 sec) 
select_counter is 114
Heartbeat CPU 0 instructions: 63000001 cycles: 523875558 heartbeat IPC: 0.0968192 cumulative IPC: 0.102171 (Simulation time: 0 hr 48 min 12 sec) 
select_counter is 919
Heartbeat CPU 0 instructions: 64000000 cycles: 530570122 heartbeat IPC: 0.149375 cumulative IPC: 0.102773 (Simulation time: 0 hr 48 min 33 sec) 
select_counter is 436
Heartbeat CPU 0 instructions: 65000000 cycles: 537421694 heartbeat IPC: 0.145952 cumulative IPC: 0.103329 (Simulation time: 0 hr 48 min 55 sec) 
select_counter is 1004
Heartbeat CPU 0 instructions: 66000000 cycles: 552516935 heartbeat IPC: 0.066246 cumulative IPC: 0.102306 (Simulation time: 0 hr 49 min 25 sec) 
select_counter is 934
Heartbeat CPU 0 instructions: 67000002 cycles: 559073124 heartbeat IPC: 0.152528 cumulative IPC: 0.1029 (Simulation time: 0 hr 49 min 41 sec) 
select_counter is 452
Heartbeat CPU 0 instructions: 68000000 cycles: 564561678 heartbeat IPC: 0.182197 cumulative IPC: 0.103678 (Simulation time: 0 hr 49 min 57 sec) 
select_counter is 966
Heartbeat CPU 0 instructions: 69000000 cycles: 578058714 heartbeat IPC: 0.0740903 cumulative IPC: 0.102981 (Simulation time: 0 hr 50 min 19 sec) 
select_counter is 856
Heartbeat CPU 0 instructions: 70000000 cycles: 587560425 heartbeat IPC: 0.105244 cumulative IPC: 0.103018 (Simulation time: 0 hr 50 min 36 sec) 
select_counter is 552
Heartbeat CPU 0 instructions: 71000002 cycles: 593161007 heartbeat IPC: 0.178553 cumulative IPC: 0.103738 (Simulation time: 0 hr 50 min 49 sec) 
select_counter is 44
Heartbeat CPU 0 instructions: 72000000 cycles: 601529331 heartbeat IPC: 0.119498 cumulative IPC: 0.103959 (Simulation time: 0 hr 51 min 3 sec) 
select_counter is 620
Heartbeat CPU 0 instructions: 73000000 cycles: 616008941 heartbeat IPC: 0.0690626 cumulative IPC: 0.103132 (Simulation time: 0 hr 51 min 20 sec) 
select_counter is 835
Heartbeat CPU 0 instructions: 74000000 cycles: 622235143 heartbeat IPC: 0.160612 cumulative IPC: 0.103712 (Simulation time: 0 hr 51 min 29 sec) 
select_counter is 242
Heartbeat CPU 0 instructions: 75000002 cycles: 629063400 heartbeat IPC: 0.146451 cumulative IPC: 0.104179 (Simulation time: 0 hr 51 min 37 sec) 
select_counter is 614
Heartbeat CPU 0 instructions: 76000000 cycles: 641365132 heartbeat IPC: 0.0812892 cumulative IPC: 0.103737 (Simulation time: 0 hr 51 min 44 sec) 
select_counter is 675
Heartbeat CPU 0 instructions: 77000000 cycles: 651976568 heartbeat IPC: 0.094238 cumulative IPC: 0.103581 (Simulation time: 0 hr 51 min 49 sec) 
select_counter is 433
Heartbeat CPU 0 instructions: 78000000 cycles: 658827299 heartbeat IPC: 0.14597 cumulative IPC: 0.104025 (Simulation time: 0 hr 51 min 54 sec) 
select_counter is 840
Heartbeat CPU 0 instructions: 79000001 cycles: 666127557 heartbeat IPC: 0.136982 cumulative IPC: 0.104389 (Simulation time: 0 hr 51 min 59 sec) 
select_counter is 253
Heartbeat CPU 0 instructions: 80000000 cycles: 681658835 heartbeat IPC: 0.0643861 cumulative IPC: 0.103471 (Simulation time: 0 hr 52 min 6 sec) 
select_counter is 363
Heartbeat CPU 0 instructions: 81000001 cycles: 688860874 heartbeat IPC: 0.13885 cumulative IPC: 0.103843 (Simulation time: 0 hr 52 min 11 sec) 
select_counter is 812
Heartbeat CPU 0 instructions: 82000001 cycles: 695720173 heartbeat IPC: 0.145787 cumulative IPC: 0.10426 (Simulation time: 0 hr 52 min 16 sec) 
select_counter is 330
Heartbeat CPU 0 instructions: 83000001 cycles: 708225586 heartbeat IPC: 0.0799654 cumulative IPC: 0.103828 (Simulation time: 0 hr 52 min 22 sec) 
select_counter is 382
Heartbeat CPU 0 instructions: 84000000 cycles: 718698205 heartbeat IPC: 0.095487 cumulative IPC: 0.103706 (Simulation time: 0 hr 52 min 28 sec) 
select_counter is 306
Heartbeat CPU 0 instructions: 85000000 cycles: 725049113 heartbeat IPC: 0.157458 cumulative IPC: 0.10418 (Simulation time: 0 hr 52 min 32 sec) 
select_counter is 865
Heartbeat CPU 0 instructions: 86000000 cycles: 733333845 heartbeat IPC: 0.120704 cumulative IPC: 0.104368 (Simulation time: 0 hr 52 min 37 sec) 
select_counter is 576
Heartbeat CPU 0 instructions: 87000000 cycles: 748417651 heartbeat IPC: 0.0662963 cumulative IPC: 0.103595 (Simulation time: 0 hr 52 min 44 sec) 
select_counter is 841
Heartbeat CPU 0 instructions: 88000000 cycles: 755383379 heartbeat IPC: 0.14356 cumulative IPC: 0.103966 (Simulation time: 0 hr 52 min 49 sec) 
select_counter is 356
Heartbeat CPU 0 instructions: 89000000 cycles: 762119183 heartbeat IPC: 0.14846 cumulative IPC: 0.104362 (Simulation time: 0 hr 52 min 54 sec) 
select_counter is 984
Heartbeat CPU 0 instructions: 90000002 cycles: 776284742 heartbeat IPC: 0.0705939 cumulative IPC: 0.103742 (Simulation time: 0 hr 53 min 0 sec) 
select_counter is 1002
Heartbeat CPU 0 instructions: 91000000 cycles: 785841537 heartbeat IPC: 0.104637 cumulative IPC: 0.103753 (Simulation time: 0 hr 53 min 6 sec) 
select_counter is 633
Heartbeat CPU 0 instructions: 92000000 cycles: 792250508 heartbeat IPC: 0.156031 cumulative IPC: 0.104178 (Simulation time: 0 hr 53 min 10 sec) 
select_counter is 6
Heartbeat CPU 0 instructions: 93000003 cycles: 803830398 heartbeat IPC: 0.0863569 cumulative IPC: 0.10392 (Simulation time: 0 hr 53 min 16 sec) 
select_counter is 690
Heartbeat CPU 0 instructions: 94000000 cycles: 815898529 heartbeat IPC: 0.0828626 cumulative IPC: 0.103607 (Simulation time: 0 hr 53 min 23 sec) 
select_counter is 600
Heartbeat CPU 0 instructions: 95000000 cycles: 822307349 heartbeat IPC: 0.156035 cumulative IPC: 0.104018 (Simulation time: 0 hr 53 min 27 sec) 
select_counter is 45
Heartbeat CPU 0 instructions: 96000000 cycles: 830416821 heartbeat IPC: 0.123313 cumulative IPC: 0.104207 (Simulation time: 0 hr 53 min 32 sec) 
select_counter is 699
Heartbeat CPU 0 instructions: 97000003 cycles: 846057308 heartbeat IPC: 0.0639368 cumulative IPC: 0.103458 (Simulation time: 0 hr 53 min 39 sec) 
select_counter is 828
Heartbeat CPU 0 instructions: 98000002 cycles: 853260017 heartbeat IPC: 0.138837 cumulative IPC: 0.103759 (Simulation time: 0 hr 53 min 44 sec) 
select_counter is 301
Heartbeat CPU 0 instructions: 99000000 cycles: 860593339 heartbeat IPC: 0.136364 cumulative IPC: 0.104038 (Simulation time: 0 hr 53 min 49 sec) 
select_counter is 657
Heartbeat CPU 0 instructions: 100000000 cycles: 874300599 heartbeat IPC: 0.072954 cumulative IPC: 0.103548 (Simulation time: 0 hr 53 min 56 sec) 
select_counter is 675
Heartbeat CPU 0 instructions: 101000000 cycles: 884315036 heartbeat IPC: 0.0998558 cumulative IPC: 0.103506 (Simulation time: 0 hr 54 min 1 sec) 
select_counter is 386
Heartbeat CPU 0 instructions: 102000000 cycles: 891667085 heartbeat IPC: 0.136017 cumulative IPC: 0.103776 (Simulation time: 0 hr 54 min 6 sec) 
select_counter is 659
Heartbeat CPU 0 instructions: 103000001 cycles: 898203161 heartbeat IPC: 0.152997 cumulative IPC: 0.104136 (Simulation time: 0 hr 54 min 11 sec) 
select_counter is 79
Heartbeat CPU 0 instructions: 104000000 cycles: 914420078 heartbeat IPC: 0.0616639 cumulative IPC: 0.103378 (Simulation time: 0 hr 54 min 18 sec) 
select_counter is 1011
Heartbeat CPU 0 instructions: 105000000 cycles: 922960447 heartbeat IPC: 0.117091 cumulative IPC: 0.103506 (Simulation time: 0 hr 54 min 23 sec) 
select_counter is 587
Heartbeat CPU 0 instructions: 106000000 cycles: 929709933 heartbeat IPC: 0.148159 cumulative IPC: 0.103832 (Simulation time: 0 hr 54 min 28 sec) 
select_counter is 123
Heartbeat CPU 0 instructions: 107000000 cycles: 940132016 heartbeat IPC: 0.0959501 cumulative IPC: 0.103744 (Simulation time: 0 hr 54 min 33 sec) 
select_counter is 852
Heartbeat CPU 0 instructions: 108000000 cycles: 953810333 heartbeat IPC: 0.0731084 cumulative IPC: 0.103302 (Simulation time: 0 hr 54 min 40 sec) 
select_counter is 833
Heartbeat CPU 0 instructions: 109000001 cycles: 961033825 heartbeat IPC: 0.138437 cumulative IPC: 0.103568 (Simulation time: 0 hr 54 min 45 sec) 
select_counter is 323
Heartbeat CPU 0 instructions: 110000000 cycles: 969074037 heartbeat IPC: 0.124375 cumulative IPC: 0.103741 (Simulation time: 0 hr 54 min 50 sec) 
select_counter is 658
Finished CPU 0 instructions: 100000002 cycles: 963934388 cummulative IPC: 0.103741 (Simulation time: 0 hr 54 min 50 sec) 

ChampSim completed all CPUs

Region of Interest Statistics

CPU 0 cummulative IPC: 0.103741 instructions: 100000002 cycles: 963934388
LLC TOTAL     ACCESS:   21079998  HIT:    8743945  MISS:   12336053
LLC LOAD      ACCESS:    9507725  HIT:    5396935  MISS:    4110790
LLC RFO       ACCESS:     164327  HIT:      76492  MISS:      87835
LLC PREFETCH  ACCESS:    9645188  HIT:    2177413  MISS:    7467775
LLC WRITEBACK ACCESS:    1762758  HIT:    1093105  MISS:     669653
Ship samples: 
10, 46, 82, 121, 146, 191, 203, 232, 278, 314, 351, 372, 384, 432, 454, 505, 531, 565, 588, 639, 655, 672, 718, 756, 774, 822, 839, 878, 911, 957, 976, 999, 1026, 1083, 1094, 1127, 1172, 1197, 1219, 1258, 1290, 1327, 1351, 1407, 1414, 1465, 1488, 1522, 1560, 1569, 1601, 1660, 1665, 1717, 1739, 1774, 1792, 1831, 1883, 1919, 1924, 1975, 2009, 2022, 
Lime duel samples: 
17, 42, 69, 100, 138, 190, 217, 233, 280, 299, 326, 379, 395, 446, 456, 489, 528, 552, 581, 623, 653, 696, 721, 747, 779, 809, 838, 870, 909, 936, 962, 1011, 1052, 1079, 1103, 1139, 1182, 1208, 1247, 1249, 1289, 1313, 1362, 1406, 1431, 1469, 1494, 1505, 1554, 1582, 1630, 1640, 1685, 1705, 1732, 1791, 1813, 1853, 1864, 1895, 1921, 1976, 2004, 2026, 
Lime samples: 
17, 217, 395, 581, 779, 962, 1182, 1362, 1554, 1732, 1921, 
Insertion Distribution: 
	LOAD 221231 0 0 0 0 0 225800 1047523 
	RFO 17325 0 0 0 0 0 8198 12276 
	PREF 0 616106 0 0 0 0 807055 2409006 
	WRITEBACK 0 0 0 0 0 0 0 185201 
Total Prefetch Downgrades: 722935
