
*** ChampSim Multicore Out-of-Order Simulator ***

Warmup Instructions: 10000000
Simulation Instructions: 100000000
Configuration: 2
Number of CPUs: 1
LLC sets: 2048
LLC ways: 16
Off-chip DRAM Channels: 1 Width: 64-bit Data Rate: 1600 MT/s

CPU 0 runs /datasets/cs240c-wi22-a00-public/data/Assignment2-gz/zeusmp_100B.trace.gz
CPU 0 L1D next line prefetcher
CPU 0 L2C IP-based stride prefetcher
Heartbeat CPU 0 instructions: 1000002 cycles: 462677 heartbeat IPC: 2.16134 cumulative IPC: 2.16134 (Simulation time: 0 hr 0 min 25 sec) 
select_counter is 486
Heartbeat CPU 0 instructions: 2000001 cycles: 925467 heartbeat IPC: 2.16081 cumulative IPC: 2.16107 (Simulation time: 0 hr 0 min 53 sec) 
select_counter is 475
Heartbeat CPU 0 instructions: 3000003 cycles: 1388524 heartbeat IPC: 2.15957 cumulative IPC: 2.16057 (Simulation time: 0 hr 1 min 15 sec) 
select_counter is 480
Heartbeat CPU 0 instructions: 4000000 cycles: 1851244 heartbeat IPC: 2.16113 cumulative IPC: 2.16071 (Simulation time: 0 hr 1 min 45 sec) 
select_counter is 404
Heartbeat CPU 0 instructions: 5000003 cycles: 2314185 heartbeat IPC: 2.16011 cumulative IPC: 2.16059 (Simulation time: 0 hr 2 min 12 sec) 
select_counter is 336
Heartbeat CPU 0 instructions: 6000001 cycles: 2777065 heartbeat IPC: 2.16038 cumulative IPC: 2.16055 (Simulation time: 0 hr 2 min 34 sec) 
select_counter is 268
Heartbeat CPU 0 instructions: 7000001 cycles: 3239748 heartbeat IPC: 2.16131 cumulative IPC: 2.16066 (Simulation time: 0 hr 2 min 56 sec) 
select_counter is 226
Heartbeat CPU 0 instructions: 8000000 cycles: 3702598 heartbeat IPC: 2.16053 cumulative IPC: 2.16065 (Simulation time: 0 hr 3 min 20 sec) 
select_counter is 153
Heartbeat CPU 0 instructions: 9000003 cycles: 4165361 heartbeat IPC: 2.16094 cumulative IPC: 2.16068 (Simulation time: 0 hr 3 min 41 sec) 
select_counter is 238
Heartbeat CPU 0 instructions: 10000001 cycles: 4628687 heartbeat IPC: 2.1583 cumulative IPC: 2.16044 (Simulation time: 0 hr 4 min 7 sec) 
select_counter is 239

Warmup complete CPU 0 instructions: 10000001 cycles: 4628687 (Simulation time: 0 hr 4 min 7 sec) 

Heartbeat CPU 0 instructions: 11000000 cycles: 5302649 heartbeat IPC: 1.48376 cumulative IPC: 1.48376 (Simulation time: 0 hr 4 min 32 sec) 
select_counter is 259
Heartbeat CPU 0 instructions: 12000000 cycles: 5984993 heartbeat IPC: 1.46554 cumulative IPC: 1.47459 (Simulation time: 0 hr 4 min 58 sec) 
select_counter is 206
Heartbeat CPU 0 instructions: 13000001 cycles: 6674338 heartbeat IPC: 1.45065 cumulative IPC: 1.46653 (Simulation time: 0 hr 5 min 27 sec) 
select_counter is 161
Heartbeat CPU 0 instructions: 14000003 cycles: 7346034 heartbeat IPC: 1.48877 cumulative IPC: 1.47202 (Simulation time: 0 hr 5 min 53 sec) 
select_counter is 110
Heartbeat CPU 0 instructions: 15000002 cycles: 8018753 heartbeat IPC: 1.4865 cumulative IPC: 1.4749 (Simulation time: 0 hr 6 min 22 sec) 
select_counter is 85
Heartbeat CPU 0 instructions: 16000000 cycles: 8687928 heartbeat IPC: 1.49437 cumulative IPC: 1.47811 (Simulation time: 0 hr 6 min 51 sec) 
select_counter is 144
Heartbeat CPU 0 instructions: 17000003 cycles: 9463878 heartbeat IPC: 1.28875 cumulative IPC: 1.44772 (Simulation time: 0 hr 7 min 13 sec) 
select_counter is 163
Heartbeat CPU 0 instructions: 18000000 cycles: 10160878 heartbeat IPC: 1.43472 cumulative IPC: 1.44608 (Simulation time: 0 hr 7 min 34 sec) 
select_counter is 167
Heartbeat CPU 0 instructions: 19000002 cycles: 10857370 heartbeat IPC: 1.43577 cumulative IPC: 1.44493 (Simulation time: 0 hr 8 min 2 sec) 
select_counter is 157
Heartbeat CPU 0 instructions: 20000000 cycles: 11552426 heartbeat IPC: 1.43873 cumulative IPC: 1.44431 (Simulation time: 0 hr 8 min 24 sec) 
select_counter is 231
Heartbeat CPU 0 instructions: 21000001 cycles: 12260050 heartbeat IPC: 1.41318 cumulative IPC: 1.44142 (Simulation time: 0 hr 8 min 47 sec) 
select_counter is 241
Heartbeat CPU 0 instructions: 22000001 cycles: 12955539 heartbeat IPC: 1.43784 cumulative IPC: 1.44112 (Simulation time: 0 hr 9 min 12 sec) 
select_counter is 344
Heartbeat CPU 0 instructions: 23000002 cycles: 13671796 heartbeat IPC: 1.39615 cumulative IPC: 1.43756 (Simulation time: 0 hr 9 min 38 sec) 
select_counter is 357
Heartbeat CPU 0 instructions: 24000000 cycles: 14370146 heartbeat IPC: 1.43194 cumulative IPC: 1.43716 (Simulation time: 0 hr 10 min 4 sec) 
select_counter is 416
Heartbeat CPU 0 instructions: 25000001 cycles: 15082099 heartbeat IPC: 1.40459 cumulative IPC: 1.43494 (Simulation time: 0 hr 10 min 25 sec) 
select_counter is 492
Heartbeat CPU 0 instructions: 26000001 cycles: 15777681 heartbeat IPC: 1.43765 cumulative IPC: 1.43511 (Simulation time: 0 hr 10 min 47 sec) 
select_counter is 534
Heartbeat CPU 0 instructions: 27000000 cycles: 16486928 heartbeat IPC: 1.40994 cumulative IPC: 1.4336 (Simulation time: 0 hr 11 min 13 sec) 
select_counter is 590
Heartbeat CPU 0 instructions: 28000000 cycles: 17180809 heartbeat IPC: 1.44117 cumulative IPC: 1.43402 (Simulation time: 0 hr 11 min 37 sec) 
select_counter is 658
Heartbeat CPU 0 instructions: 29000000 cycles: 17871693 heartbeat IPC: 1.44742 cumulative IPC: 1.43472 (Simulation time: 0 hr 12 min 4 sec) 
select_counter is 741
Heartbeat CPU 0 instructions: 30000003 cycles: 18576071 heartbeat IPC: 1.4197 cumulative IPC: 1.43396 (Simulation time: 0 hr 12 min 30 sec) 
select_counter is 778
Heartbeat CPU 0 instructions: 31000000 cycles: 19267375 heartbeat IPC: 1.44654 cumulative IPC: 1.43455 (Simulation time: 0 hr 12 min 55 sec) 
select_counter is 837
Heartbeat CPU 0 instructions: 32000000 cycles: 19974978 heartbeat IPC: 1.41322 cumulative IPC: 1.43357 (Simulation time: 0 hr 13 min 21 sec) 
select_counter is 886
Heartbeat CPU 0 instructions: 33000002 cycles: 20666304 heartbeat IPC: 1.4465 cumulative IPC: 1.43413 (Simulation time: 0 hr 13 min 45 sec) 
select_counter is 957
Heartbeat CPU 0 instructions: 34000002 cycles: 21371365 heartbeat IPC: 1.41832 cumulative IPC: 1.43346 (Simulation time: 0 hr 14 min 11 sec) 
select_counter is 1015
Heartbeat CPU 0 instructions: 35000003 cycles: 22065880 heartbeat IPC: 1.43986 cumulative IPC: 1.43372 (Simulation time: 0 hr 14 min 36 sec) 
select_counter is 1020
Heartbeat CPU 0 instructions: 36000000 cycles: 22772919 heartbeat IPC: 1.41434 cumulative IPC: 1.43296 (Simulation time: 0 hr 15 min 1 sec) 
select_counter is 1021
Heartbeat CPU 0 instructions: 37000001 cycles: 23469045 heartbeat IPC: 1.43652 cumulative IPC: 1.43309 (Simulation time: 0 hr 15 min 26 sec) 
select_counter is 1022
Heartbeat CPU 0 instructions: 38000003 cycles: 24176715 heartbeat IPC: 1.41309 cumulative IPC: 1.43237 (Simulation time: 0 hr 15 min 51 sec) 
select_counter is 1022
Heartbeat CPU 0 instructions: 39000001 cycles: 24873704 heartbeat IPC: 1.43474 cumulative IPC: 1.43245 (Simulation time: 0 hr 16 min 16 sec) 
select_counter is 1021
Heartbeat CPU 0 instructions: 40000000 cycles: 25584575 heartbeat IPC: 1.40672 cumulative IPC: 1.43158 (Simulation time: 0 hr 16 min 38 sec) 
select_counter is 1018
Heartbeat CPU 0 instructions: 41000000 cycles: 26283039 heartbeat IPC: 1.43171 cumulative IPC: 1.43158 (Simulation time: 0 hr 17 min 3 sec) 
select_counter is 1020
Heartbeat CPU 0 instructions: 42000001 cycles: 26978330 heartbeat IPC: 1.43825 cumulative IPC: 1.43179 (Simulation time: 0 hr 17 min 24 sec) 
select_counter is 1020
Heartbeat CPU 0 instructions: 43000003 cycles: 27692330 heartbeat IPC: 1.40056 cumulative IPC: 1.43082 (Simulation time: 0 hr 17 min 46 sec) 
select_counter is 992
Heartbeat CPU 0 instructions: 44000000 cycles: 28389664 heartbeat IPC: 1.43403 cumulative IPC: 1.43092 (Simulation time: 0 hr 18 min 9 sec) 
select_counter is 1021
Heartbeat CPU 0 instructions: 45000001 cycles: 29101646 heartbeat IPC: 1.40453 cumulative IPC: 1.43015 (Simulation time: 0 hr 18 min 40 sec) 
select_counter is 1023
Heartbeat CPU 0 instructions: 46000002 cycles: 29801291 heartbeat IPC: 1.4293 cumulative IPC: 1.43013 (Simulation time: 0 hr 19 min 3 sec) 
select_counter is 1021
Heartbeat CPU 0 instructions: 47000003 cycles: 30511472 heartbeat IPC: 1.40809 cumulative IPC: 1.42952 (Simulation time: 0 hr 19 min 24 sec) 
select_counter is 1023
Heartbeat CPU 0 instructions: 48000000 cycles: 31210906 heartbeat IPC: 1.42972 cumulative IPC: 1.42953 (Simulation time: 0 hr 19 min 46 sec) 
select_counter is 1022
Heartbeat CPU 0 instructions: 49000001 cycles: 31924954 heartbeat IPC: 1.40047 cumulative IPC: 1.42877 (Simulation time: 0 hr 20 min 11 sec) 
select_counter is 1021
Heartbeat CPU 0 instructions: 50000001 cycles: 32627303 heartbeat IPC: 1.42379 cumulative IPC: 1.42864 (Simulation time: 0 hr 20 min 41 sec) 
select_counter is 1023
Heartbeat CPU 0 instructions: 51000002 cycles: 33339405 heartbeat IPC: 1.40429 cumulative IPC: 1.42804 (Simulation time: 0 hr 21 min 5 sec) 
select_counter is 1017
Heartbeat CPU 0 instructions: 52000000 cycles: 34039363 heartbeat IPC: 1.42865 cumulative IPC: 1.42805 (Simulation time: 0 hr 21 min 30 sec) 
select_counter is 1016
Heartbeat CPU 0 instructions: 53000001 cycles: 34753667 heartbeat IPC: 1.39997 cumulative IPC: 1.42739 (Simulation time: 0 hr 21 min 55 sec) 
select_counter is 1022
Heartbeat CPU 0 instructions: 54000003 cycles: 35455149 heartbeat IPC: 1.42556 cumulative IPC: 1.42735 (Simulation time: 0 hr 22 min 17 sec) 
select_counter is 1018
Heartbeat CPU 0 instructions: 55000003 cycles: 36163028 heartbeat IPC: 1.41267 cumulative IPC: 1.42702 (Simulation time: 0 hr 22 min 40 sec) 
select_counter is 1020
Heartbeat CPU 0 instructions: 56000000 cycles: 36873006 heartbeat IPC: 1.40849 cumulative IPC: 1.42661 (Simulation time: 0 hr 23 min 4 sec) 
select_counter is 997
Heartbeat CPU 0 instructions: 57000003 cycles: 37574379 heartbeat IPC: 1.42578 cumulative IPC: 1.42659 (Simulation time: 0 hr 23 min 29 sec) 
select_counter is 1023
Heartbeat CPU 0 instructions: 58000003 cycles: 38287322 heartbeat IPC: 1.40264 cumulative IPC: 1.42608 (Simulation time: 0 hr 23 min 55 sec) 
select_counter is 1017
Heartbeat CPU 0 instructions: 59000000 cycles: 38991414 heartbeat IPC: 1.42026 cumulative IPC: 1.42596 (Simulation time: 0 hr 24 min 23 sec) 
select_counter is 1019
Heartbeat CPU 0 instructions: 60000000 cycles: 39709539 heartbeat IPC: 1.39252 cumulative IPC: 1.42528 (Simulation time: 0 hr 24 min 53 sec) 
select_counter is 1013
Heartbeat CPU 0 instructions: 61000000 cycles: 40413202 heartbeat IPC: 1.42113 cumulative IPC: 1.4252 (Simulation time: 0 hr 25 min 22 sec) 
select_counter is 1023
Heartbeat CPU 0 instructions: 62000001 cycles: 41130019 heartbeat IPC: 1.39506 cumulative IPC: 1.42461 (Simulation time: 0 hr 25 min 55 sec) 
select_counter is 1023
Heartbeat CPU 0 instructions: 63000001 cycles: 41832142 heartbeat IPC: 1.42425 cumulative IPC: 1.4246 (Simulation time: 0 hr 26 min 24 sec) 
select_counter is 1017
Heartbeat CPU 0 instructions: 64000000 cycles: 42550965 heartbeat IPC: 1.39116 cumulative IPC: 1.42397 (Simulation time: 0 hr 26 min 54 sec) 
select_counter is 1023
Heartbeat CPU 0 instructions: 65000003 cycles: 43252525 heartbeat IPC: 1.4254 cumulative IPC: 1.42399 (Simulation time: 0 hr 27 min 22 sec) 
select_counter is 1022
Heartbeat CPU 0 instructions: 66000003 cycles: 43967102 heartbeat IPC: 1.39943 cumulative IPC: 1.42355 (Simulation time: 0 hr 27 min 53 sec) 
select_counter is 1014
Heartbeat CPU 0 instructions: 67000000 cycles: 44669981 heartbeat IPC: 1.42272 cumulative IPC: 1.42353 (Simulation time: 0 hr 28 min 21 sec) 
select_counter is 1017
Heartbeat CPU 0 instructions: 68000000 cycles: 45381474 heartbeat IPC: 1.4055 cumulative IPC: 1.42322 (Simulation time: 0 hr 28 min 51 sec) 
select_counter is 1007
Heartbeat CPU 0 instructions: 69000000 cycles: 46086505 heartbeat IPC: 1.41838 cumulative IPC: 1.42313 (Simulation time: 0 hr 29 min 20 sec) 
select_counter is 1023
Heartbeat CPU 0 instructions: 70000003 cycles: 46785414 heartbeat IPC: 1.43081 cumulative IPC: 1.42326 (Simulation time: 0 hr 29 min 48 sec) 
select_counter is 1019
Heartbeat CPU 0 instructions: 71000003 cycles: 47498525 heartbeat IPC: 1.40231 cumulative IPC: 1.42291 (Simulation time: 0 hr 30 min 17 sec) 
select_counter is 1016
Heartbeat CPU 0 instructions: 72000000 cycles: 48200398 heartbeat IPC: 1.42475 cumulative IPC: 1.42294 (Simulation time: 0 hr 30 min 45 sec) 
select_counter is 1023
Heartbeat CPU 0 instructions: 73000002 cycles: 48917452 heartbeat IPC: 1.3946 cumulative IPC: 1.42248 (Simulation time: 0 hr 31 min 14 sec) 
select_counter is 1016
Heartbeat CPU 0 instructions: 74000003 cycles: 49618096 heartbeat IPC: 1.42726 cumulative IPC: 1.42256 (Simulation time: 0 hr 31 min 45 sec) 
select_counter is 1023
Heartbeat CPU 0 instructions: 75000003 cycles: 50332427 heartbeat IPC: 1.39991 cumulative IPC: 1.4222 (Simulation time: 0 hr 32 min 14 sec) 
select_counter is 1020
Heartbeat CPU 0 instructions: 76000000 cycles: 51032612 heartbeat IPC: 1.42819 cumulative IPC: 1.42229 (Simulation time: 0 hr 32 min 43 sec) 
select_counter is 1023
Heartbeat CPU 0 instructions: 77000000 cycles: 51752501 heartbeat IPC: 1.3891 cumulative IPC: 1.42179 (Simulation time: 0 hr 33 min 11 sec) 
select_counter is 1020
Heartbeat CPU 0 instructions: 78000002 cycles: 52456103 heartbeat IPC: 1.42126 cumulative IPC: 1.42178 (Simulation time: 0 hr 33 min 37 sec) 
select_counter is 1015
Heartbeat CPU 0 instructions: 79000000 cycles: 53170133 heartbeat IPC: 1.4005 cumulative IPC: 1.42147 (Simulation time: 0 hr 34 min 5 sec) 
select_counter is 1021
Heartbeat CPU 0 instructions: 80000000 cycles: 53871216 heartbeat IPC: 1.42636 cumulative IPC: 1.42154 (Simulation time: 0 hr 34 min 33 sec) 
select_counter is 1023
Heartbeat CPU 0 instructions: 81000003 cycles: 54588783 heartbeat IPC: 1.3936 cumulative IPC: 1.42113 (Simulation time: 0 hr 35 min 2 sec) 
select_counter is 1020
Heartbeat CPU 0 instructions: 82000000 cycles: 55293472 heartbeat IPC: 1.41906 cumulative IPC: 1.42111 (Simulation time: 0 hr 35 min 29 sec) 
select_counter is 1023
Heartbeat CPU 0 instructions: 83000002 cycles: 55991048 heartbeat IPC: 1.43354 cumulative IPC: 1.42127 (Simulation time: 0 hr 35 min 56 sec) 
select_counter is 1020
Heartbeat CPU 0 instructions: 84000000 cycles: 56704026 heartbeat IPC: 1.40257 cumulative IPC: 1.42102 (Simulation time: 0 hr 36 min 21 sec) 
select_counter is 1016
Heartbeat CPU 0 instructions: 85000001 cycles: 57401993 heartbeat IPC: 1.43273 cumulative IPC: 1.42117 (Simulation time: 0 hr 36 min 44 sec) 
select_counter is 1023
Heartbeat CPU 0 instructions: 86000001 cycles: 58119041 heartbeat IPC: 1.39461 cumulative IPC: 1.42082 (Simulation time: 0 hr 37 min 12 sec) 
select_counter is 1008
Heartbeat CPU 0 instructions: 87000001 cycles: 58824777 heartbeat IPC: 1.41696 cumulative IPC: 1.42077 (Simulation time: 0 hr 37 min 38 sec) 
select_counter is 1018
Heartbeat CPU 0 instructions: 88000000 cycles: 59537474 heartbeat IPC: 1.40312 cumulative IPC: 1.42054 (Simulation time: 0 hr 38 min 5 sec) 
select_counter is 1019
Heartbeat CPU 0 instructions: 89000003 cycles: 60240834 heartbeat IPC: 1.42175 cumulative IPC: 1.42055 (Simulation time: 0 hr 38 min 31 sec) 
select_counter is 1021
Heartbeat CPU 0 instructions: 90000001 cycles: 60956750 heartbeat IPC: 1.39681 cumulative IPC: 1.42025 (Simulation time: 0 hr 38 min 57 sec) 
select_counter is 1023
Heartbeat CPU 0 instructions: 91000001 cycles: 61662645 heartbeat IPC: 1.41664 cumulative IPC: 1.42021 (Simulation time: 0 hr 39 min 23 sec) 
select_counter is 1018
Heartbeat CPU 0 instructions: 92000000 cycles: 62379128 heartbeat IPC: 1.39571 cumulative IPC: 1.4199 (Simulation time: 0 hr 39 min 48 sec) 
select_counter is 1007
Heartbeat CPU 0 instructions: 93000001 cycles: 63081414 heartbeat IPC: 1.42392 cumulative IPC: 1.41995 (Simulation time: 0 hr 40 min 13 sec) 
select_counter is 1022
Heartbeat CPU 0 instructions: 94000003 cycles: 63798672 heartbeat IPC: 1.3942 cumulative IPC: 1.41964 (Simulation time: 0 hr 40 min 38 sec) 
select_counter is 1022
Heartbeat CPU 0 instructions: 95000003 cycles: 64504122 heartbeat IPC: 1.41753 cumulative IPC: 1.41961 (Simulation time: 0 hr 41 min 1 sec) 
select_counter is 1023
Heartbeat CPU 0 instructions: 96000000 cycles: 65213321 heartbeat IPC: 1.41004 cumulative IPC: 1.4195 (Simulation time: 0 hr 41 min 24 sec) 
select_counter is 1021
Heartbeat CPU 0 instructions: 97000000 cycles: 65927775 heartbeat IPC: 1.39967 cumulative IPC: 1.41927 (Simulation time: 0 hr 41 min 47 sec) 
select_counter is 1016
Heartbeat CPU 0 instructions: 98000001 cycles: 66627143 heartbeat IPC: 1.42986 cumulative IPC: 1.41939 (Simulation time: 0 hr 42 min 13 sec) 
select_counter is 1021
Heartbeat CPU 0 instructions: 99000001 cycles: 67348692 heartbeat IPC: 1.38591 cumulative IPC: 1.41901 (Simulation time: 0 hr 42 min 36 sec) 
select_counter is 1022
Heartbeat CPU 0 instructions: 100000000 cycles: 68056724 heartbeat IPC: 1.41236 cumulative IPC: 1.41893 (Simulation time: 0 hr 42 min 59 sec) 
select_counter is 1001
Heartbeat CPU 0 instructions: 101000002 cycles: 68778903 heartbeat IPC: 1.3847 cumulative IPC: 1.41855 (Simulation time: 0 hr 43 min 22 sec) 
select_counter is 1015
Heartbeat CPU 0 instructions: 102000003 cycles: 69492075 heartbeat IPC: 1.40219 cumulative IPC: 1.41837 (Simulation time: 0 hr 43 min 43 sec) 
select_counter is 1019
Heartbeat CPU 0 instructions: 103000001 cycles: 70222340 heartbeat IPC: 1.36936 cumulative IPC: 1.41782 (Simulation time: 0 hr 44 min 7 sec) 
select_counter is 1022
Heartbeat CPU 0 instructions: 104000000 cycles: 70934785 heartbeat IPC: 1.40362 cumulative IPC: 1.41767 (Simulation time: 0 hr 44 min 29 sec) 
select_counter is 1009
Heartbeat CPU 0 instructions: 105000003 cycles: 71659362 heartbeat IPC: 1.38012 cumulative IPC: 1.41726 (Simulation time: 0 hr 44 min 51 sec) 
select_counter is 1022
Heartbeat CPU 0 instructions: 106000002 cycles: 72370357 heartbeat IPC: 1.40648 cumulative IPC: 1.41715 (Simulation time: 0 hr 45 min 8 sec) 
select_counter is 1023
Heartbeat CPU 0 instructions: 107000000 cycles: 73092314 heartbeat IPC: 1.38512 cumulative IPC: 1.41681 (Simulation time: 0 hr 45 min 28 sec) 
select_counter is 1022
Heartbeat CPU 0 instructions: 108000000 cycles: 73795179 heartbeat IPC: 1.42275 cumulative IPC: 1.41687 (Simulation time: 0 hr 45 min 45 sec) 
select_counter is 1020
Heartbeat CPU 0 instructions: 109000002 cycles: 74494433 heartbeat IPC: 1.4301 cumulative IPC: 1.417 (Simulation time: 0 hr 46 min 1 sec) 
select_counter is 1014
Heartbeat CPU 0 instructions: 110000000 cycles: 75208183 heartbeat IPC: 1.40105 cumulative IPC: 1.41684 (Simulation time: 0 hr 46 min 18 sec) 
select_counter is 1019
Finished CPU 0 instructions: 100000003 cycles: 70579497 cummulative IPC: 1.41684 (Simulation time: 0 hr 46 min 18 sec) 

ChampSim completed all CPUs

Region of Interest Statistics

CPU 0 cummulative IPC: 1.41684 instructions: 100000003 cycles: 70579497
LLC TOTAL     ACCESS:     830934  HIT:     206871  MISS:     624063
LLC LOAD      ACCESS:      25795  HIT:      12218  MISS:      13577
LLC RFO       ACCESS:     201240  HIT:       7854  MISS:     193386
LLC PREFETCH  ACCESS:     401200  HIT:       8767  MISS:     392433
LLC WRITEBACK ACCESS:     202699  HIT:     178032  MISS:      24667
Ship samples: 
26, 57, 81, 97, 144, 160, 213, 241, 263, 293, 349, 355, 407, 434, 464, 488, 521, 549, 597, 615, 666, 684, 725, 754, 797, 813, 842, 875, 900, 943, 973, 1001, 1036, 1069, 1096, 1144, 1176, 1196, 1243, 1260, 1311, 1330, 1355, 1386, 1435, 1444, 1488, 1535, 1563, 1598, 1601, 1637, 1690, 1702, 1744, 1774, 1805, 1848, 1886, 1895, 1947, 1953, 2008, 2024, 
Lime duel samples: 
29, 36, 76, 109, 148, 161, 220, 240, 267, 298, 334, 361, 401, 435, 462, 496, 532, 564, 598, 633, 662, 675, 714, 759, 799, 800, 858, 881, 897, 957, 980, 1015, 1047, 1070, 1089, 1140, 1154, 1188, 1229, 1278, 1304, 1338, 1353, 1405, 1423, 1465, 1480, 1517, 1564, 1581, 1603, 1654, 1689, 1714, 1749, 1779, 1807, 1824, 1880, 1890, 1945, 1963, 1996, 2017, 
Lime samples: 
29, 220, 401, 598, 799, 980, 1154, 1353, 1564, 1749, 1945, 
Insertion Distribution: 
	LOAD 440 0 0 0 0 0 3046 1474 
	RFO 1150 0 0 0 0 0 11059 29215 
	PREF 0 10021 0 0 0 0 26248 56216 
	WRITEBACK 0 0 0 0 0 0 0 25263 
Total Prefetch Downgrades: 4682
