Initialize SIGNATURE TABLE
ST_SET: 1
ST_WAY: 256
ST_TAG_BIT: 16
ST_TAG_MASK: ffff

Initialize PATTERN TABLE
PT_SET: 512
PT_WAY: 4
SIG_DELTA_BIT: 7
C_SIG_BIT: 4
C_DELTA_BIT: 4

Initialize PREFETCH FILTER
FILTER_SET: 1024

*** ChampSim Multicore Out-of-Order Simulator ***

Warmup Instructions: 50000000
Simulation Instructions: 50000000
Number of CPUs: 1
LLC sets: 2048
LLC ways: 16
Off-chip DRAM Size: 4096 MB Channels: 1 Width: 64-bit Data Rate: 3200 MT/s

CPU 0 runs /Users/gandhardeshpande/Desktop/CSE240C/HW1/ChampSim/ipc1_public/client_002.champsimtrace.xz
CPU 0 L1I next line prefetcher
Running FNL-MMA for L1I
CPU 0 L1D next line prefetcher
Heartbeat CPU 0 instructions: 10000000 cycles: 3404858 heartbeat IPC: 2.93698 cumulative IPC: 2.93698 (Simulation time: 0 hr 0 min 13 sec) 
Heartbeat CPU 0 instructions: 20000002 cycles: 6860315 heartbeat IPC: 2.89397 cumulative IPC: 2.91532 (Simulation time: 0 hr 0 min 27 sec) 
Heartbeat CPU 0 instructions: 30000001 cycles: 10292836 heartbeat IPC: 2.91331 cumulative IPC: 2.91465 (Simulation time: 0 hr 0 min 40 sec) 
Heartbeat CPU 0 instructions: 40000002 cycles: 13725268 heartbeat IPC: 2.91339 cumulative IPC: 2.91433 (Simulation time: 0 hr 0 min 54 sec) 
Heartbeat CPU 0 instructions: 50000002 cycles: 17165775 heartbeat IPC: 2.90655 cumulative IPC: 2.91277 (Simulation time: 0 hr 1 min 8 sec) 

Warmup complete CPU 0 instructions: 50000002 cycles: 17165775 (Simulation time: 0 hr 1 min 8 sec) 

Heartbeat CPU 0 instructions: 60000002 cycles: 23105417 heartbeat IPC: 1.6836 cumulative IPC: 1.6836 (Simulation time: 0 hr 1 min 20 sec) 
Heartbeat CPU 0 instructions: 70000001 cycles: 29103250 heartbeat IPC: 1.66727 cumulative IPC: 1.6754 (Simulation time: 0 hr 1 min 32 sec) 
Heartbeat CPU 0 instructions: 80000002 cycles: 34981173 heartbeat IPC: 1.70128 cumulative IPC: 1.68394 (Simulation time: 0 hr 1 min 44 sec) 
Heartbeat CPU 0 instructions: 90000000 cycles: 41419984 heartbeat IPC: 1.55308 cumulative IPC: 1.6492 (Simulation time: 0 hr 1 min 55 sec) 
Heartbeat CPU 0 instructions: 100000003 cycles: 47356749 heartbeat IPC: 1.68442 cumulative IPC: 1.65612 (Simulation time: 0 hr 2 min 7 sec) 
Finished CPU 0 instructions: 50000001 cycles: 30190974 cumulative IPC: 1.65612 (Simulation time: 0 hr 2 min 7 sec) 

ChampSim completed all CPUs

Region of Interest Statistics

CPU 0 cumulative IPC: 1.65612 instructions: 50000001 cycles: 30190974
L1D TOTAL     ACCESS:   19114076  HIT:   18774796  MISS:     339280
L1D LOAD      ACCESS:    6477531  HIT:    6360649  MISS:     116882
L1D RFO       ACCESS:    6419665  HIT:    6329905  MISS:      89760
L1D PREFETCH  ACCESS:    6216880  HIT:    6084242  MISS:     132638
L1D WRITEBACK ACCESS:          0  HIT:          0  MISS:          0
L1D PREFETCH  REQUESTED:    6487445  ISSUED:    6285868  USEFUL:      53809  USELESS:      78971
L1D AVERAGE MISS LATENCY: 48.8613 cycles
L1I TOTAL     ACCESS:   12384326  HIT:   11257559  MISS:    1126767
L1I LOAD      ACCESS:    9540459  HIT:    9468938  MISS:      71521
L1I RFO       ACCESS:          0  HIT:          0  MISS:          0
L1I PREFETCH  ACCESS:    2843867  HIT:    1788621  MISS:    1055246
L1I WRITEBACK ACCESS:          0  HIT:          0  MISS:          0
L1I PREFETCH  REQUESTED:    2911158  ISSUED:    2911143  USEFUL:     686616  USELESS:     368634
L1I AVERAGE MISS LATENCY: 17.4513 cycles
L2C TOTAL     ACCESS:    2069223  HIT:    1824651  MISS:     244572
L2C LOAD      ACCESS:     159992  HIT:     117566  MISS:      42426
L2C RFO       ACCESS:      88818  HIT:      22984  MISS:      65834
L2C PREFETCH  ACCESS:    1694899  HIT:    1559033  MISS:     135866
L2C WRITEBACK ACCESS:     125514  HIT:     125068  MISS:        446
L2C PREFETCH  REQUESTED:    1504320  ISSUED:    1503466  USEFUL:      14072  USELESS:     121183
L2C AVERAGE MISS LATENCY: 63.8915 cycles
LLC TOTAL     ACCESS:     669490  HIT:     604373  MISS:      65117
LLC LOAD      ACCESS:      42426  HIT:      36424  MISS:       6002
LLC RFO       ACCESS:      65834  HIT:      36551  MISS:      29283
LLC PREFETCH  ACCESS:     476905  HIT:     447360  MISS:      29545
LLC WRITEBACK ACCESS:      84325  HIT:      84038  MISS:        287
LLC PREFETCH  REQUESTED:          0  ISSUED:          0  USEFUL:       6310  USELESS:      21712
LLC AVERAGE MISS LATENCY: 177.49 cycles
Major fault: 0 Minor fault: 3091
I-Shadow cache 408 bytes
Touched + WorthPF tables 24576 bytes 
MMA filter 174 bytes 
FNL filter 272 bytes 
TOTAL PREFETCHER STORAGE SIZE: 98134 bytes
CPU 0 L1I next line prefetcher final stats
CPU 0 L1D next line prefetcher final stats

DRAM Statistics
 CHANNEL 0
 RQ ROW_BUFFER_HIT:      22318  ROW_BUFFER_MISS:      42511
 DBUS_CONGESTED:      44776
 WQ ROW_BUFFER_HIT:       9013  ROW_BUFFER_MISS:      28486  FULL:          0

 AVG_CONGESTED_CYCLE: 6

CPU 0 Branch Prediction Accuracy: 99.2117% MPKI: 1.49752 Average ROB Occupancy at Mispredict: 115.371

Branch types
NOT_BRANCH: 40501616 81.0032%
BRANCH_DIRECT_JUMP: 517397 1.03479%
BRANCH_INDIRECT: 112348 0.224696%
BRANCH_CONDITIONAL: 6698737 13.3975%
BRANCH_DIRECT_CALL: 960974 1.92195%
BRANCH_INDIRECT_CALL: 123707 0.247414%
BRANCH_RETURN: 1084929 2.16986%
BRANCH_OTHER: 0 0%

