Initialize SIGNATURE TABLE
ST_SET: 1
ST_WAY: 256
ST_TAG_BIT: 16
ST_TAG_MASK: ffff

Initialize PATTERN TABLE
PT_SET: 512
PT_WAY: 4
SIG_DELTA_BIT: 7
C_SIG_BIT: 4
C_DELTA_BIT: 4

Initialize PREFETCH FILTER
FILTER_SET: 1024

*** ChampSim Multicore Out-of-Order Simulator ***

Warmup Instructions: 50000000
Simulation Instructions: 50000000
Number of CPUs: 1
LLC sets: 2048
LLC ways: 16
Off-chip DRAM Size: 4096 MB Channels: 1 Width: 64-bit Data Rate: 3200 MT/s

CPU 0 runs /Users/gandhardeshpande/Desktop/CSE240C/HW1/ChampSim/ipc1_public/server_039.champsimtrace.xz
CPU 0 L1I next line prefetcher
Running FNL-MMA for L1I
CPU 0 L1D next line prefetcher
Heartbeat CPU 0 instructions: 10000003 cycles: 3451500 heartbeat IPC: 2.89729 cumulative IPC: 2.89729 (Simulation time: 0 hr 0 min 15 sec) 
Heartbeat CPU 0 instructions: 20000002 cycles: 6896065 heartbeat IPC: 2.90312 cumulative IPC: 2.9002 (Simulation time: 0 hr 0 min 30 sec) 
Heartbeat CPU 0 instructions: 30000001 cycles: 10342444 heartbeat IPC: 2.9016 cumulative IPC: 2.90067 (Simulation time: 0 hr 0 min 45 sec) 
Heartbeat CPU 0 instructions: 40000002 cycles: 13784213 heartbeat IPC: 2.90548 cumulative IPC: 2.90187 (Simulation time: 0 hr 1 min 0 sec) 
Heartbeat CPU 0 instructions: 50000001 cycles: 17225341 heartbeat IPC: 2.90602 cumulative IPC: 2.9027 (Simulation time: 0 hr 1 min 14 sec) 

Warmup complete CPU 0 instructions: 50000001 cycles: 17225341 (Simulation time: 0 hr 1 min 14 sec) 

Heartbeat CPU 0 instructions: 60000000 cycles: 23012993 heartbeat IPC: 1.72782 cumulative IPC: 1.72782 (Simulation time: 0 hr 1 min 29 sec) 
Heartbeat CPU 0 instructions: 70000000 cycles: 28791126 heartbeat IPC: 1.73066 cumulative IPC: 1.72924 (Simulation time: 0 hr 1 min 43 sec) 
Heartbeat CPU 0 instructions: 80000000 cycles: 34569169 heartbeat IPC: 1.73069 cumulative IPC: 1.72972 (Simulation time: 0 hr 1 min 58 sec) 
Heartbeat CPU 0 instructions: 90000001 cycles: 40348568 heartbeat IPC: 1.73028 cumulative IPC: 1.72986 (Simulation time: 0 hr 2 min 12 sec) 
Heartbeat CPU 0 instructions: 100000002 cycles: 46135968 heartbeat IPC: 1.72789 cumulative IPC: 1.72947 (Simulation time: 0 hr 2 min 27 sec) 
Finished CPU 0 instructions: 50000001 cycles: 28910627 cumulative IPC: 1.72947 (Simulation time: 0 hr 2 min 27 sec) 

ChampSim completed all CPUs

Region of Interest Statistics

CPU 0 cumulative IPC: 1.72947 instructions: 50000001 cycles: 28910627
L1D TOTAL     ACCESS:   19888264  HIT:   19393668  MISS:     494596
L1D LOAD      ACCESS:    6492641  HIT:    6271109  MISS:     221532
L1D RFO       ACCESS:    7090218  HIT:    7023295  MISS:      66923
L1D PREFETCH  ACCESS:    6305405  HIT:    6099264  MISS:     206141
L1D WRITEBACK ACCESS:          0  HIT:          0  MISS:          0
L1D PREFETCH  REQUESTED:    6508561  ISSUED:    6376521  USEFUL:      49993  USELESS:     156152
L1D AVERAGE MISS LATENCY: 15.0474 cycles
L1I TOTAL     ACCESS:   15900042  HIT:   11090480  MISS:    4809562
L1I LOAD      ACCESS:    9351978  HIT:    9273614  MISS:      78364
L1I RFO       ACCESS:          0  HIT:          0  MISS:          0
L1I PREFETCH  ACCESS:    6548064  HIT:    1816866  MISS:    4731198
L1I WRITEBACK ACCESS:          0  HIT:          0  MISS:          0
L1I PREFETCH  REQUESTED:    6718383  ISSUED:    6718383  USEFUL:    4122523  USELESS:     608690
L1I AVERAGE MISS LATENCY: 14.3684 cycles
L2C TOTAL     ACCESS:    7124236  HIT:    7124149  MISS:         87
L2C LOAD      ACCESS:     237128  HIT:     237125  MISS:          3
L2C RFO       ACCESS:      66751  HIT:      66751  MISS:          0
L2C PREFETCH  ACCESS:    6640379  HIT:    6640295  MISS:         84
L2C WRITEBACK ACCESS:     179978  HIT:     179978  MISS:          0
L2C PREFETCH  REQUESTED:    5108263  ISSUED:    5108179  USEFUL:          2  USELESS:          0
L2C AVERAGE MISS LATENCY: 41.7586 cycles
LLC TOTAL     ACCESS:     753589  HIT:     753335  MISS:        254
LLC LOAD      ACCESS:          3  HIT:          1  MISS:          2
LLC RFO       ACCESS:          0  HIT:          0  MISS:          0
LLC PREFETCH  ACCESS:     753586  HIT:     753334  MISS:        252
LLC WRITEBACK ACCESS:          0  HIT:          0  MISS:          0
LLC PREFETCH  REQUESTED:          0  ISSUED:          0  USEFUL:          1  USELESS:          0
LLC AVERAGE MISS LATENCY: 168.102 cycles
Major fault: 0 Minor fault: 356
I-Shadow cache 408 bytes
Touched + WorthPF tables 24576 bytes 
MMA filter 174 bytes 
FNL filter 272 bytes 
TOTAL PREFETCHER STORAGE SIZE: 98134 bytes
CPU 0 L1I next line prefetcher final stats
CPU 0 L1D next line prefetcher final stats

DRAM Statistics
 CHANNEL 0
 RQ ROW_BUFFER_HIT:         27  ROW_BUFFER_MISS:        227
 DBUS_CONGESTED:         29
 WQ ROW_BUFFER_HIT:          0  ROW_BUFFER_MISS:          0  FULL:          0

 AVG_CONGESTED_CYCLE: 6

CPU 0 Branch Prediction Accuracy: 99.9091% MPKI: 0.1547 Average ROB Occupancy at Mispredict: 284.742

Branch types
NOT_BRANCH: 41495035 82.9901%
BRANCH_DIRECT_JUMP: 491309 0.982618%
BRANCH_INDIRECT: 0 0%
BRANCH_CONDITIONAL: 5595263 11.1905%
BRANCH_DIRECT_CALL: 1028409 2.05682%
BRANCH_INDIRECT_CALL: 180757 0.361514%
BRANCH_RETURN: 1209170 2.41834%
BRANCH_OTHER: 0 0%

