Initialize SIGNATURE TABLE
ST_SET: 1
ST_WAY: 256
ST_TAG_BIT: 16
ST_TAG_MASK: ffff

Initialize PATTERN TABLE
PT_SET: 512
PT_WAY: 4
SIG_DELTA_BIT: 7
C_SIG_BIT: 4
C_DELTA_BIT: 4

Initialize PREFETCH FILTER
FILTER_SET: 1024

*** ChampSim Multicore Out-of-Order Simulator ***

Warmup Instructions: 50000000
Simulation Instructions: 50000000
Number of CPUs: 1
LLC sets: 2048
LLC ways: 16
Off-chip DRAM Size: 4096 MB Channels: 1 Width: 64-bit Data Rate: 3200 MT/s

CPU 0 runs /Users/gandhardeshpande/Desktop/CSE240C/HW1/ChampSim/ipc1_public/server_034.champsimtrace.xz
CPU 0 L1I next line prefetcher
Running FNL-MMA for L1I
CPU 0 L1D next line prefetcher
Heartbeat CPU 0 instructions: 10000000 cycles: 3329127 heartbeat IPC: 3.00379 cumulative IPC: 3.00379 (Simulation time: 0 hr 0 min 14 sec) 
Heartbeat CPU 0 instructions: 20000002 cycles: 6650869 heartbeat IPC: 3.01047 cumulative IPC: 3.00713 (Simulation time: 0 hr 0 min 29 sec) 
Heartbeat CPU 0 instructions: 30000003 cycles: 9980880 heartbeat IPC: 3.00299 cumulative IPC: 3.00575 (Simulation time: 0 hr 0 min 43 sec) 
Heartbeat CPU 0 instructions: 40000001 cycles: 13308827 heartbeat IPC: 3.00485 cumulative IPC: 3.00552 (Simulation time: 0 hr 0 min 58 sec) 
Heartbeat CPU 0 instructions: 50000000 cycles: 16635983 heartbeat IPC: 3.00557 cumulative IPC: 3.00553 (Simulation time: 0 hr 1 min 12 sec) 

Warmup complete CPU 0 instructions: 50000002 cycles: 16635984 (Simulation time: 0 hr 1 min 12 sec) 

Heartbeat CPU 0 instructions: 60000002 cycles: 22581137 heartbeat IPC: 1.68204 cumulative IPC: 1.68204 (Simulation time: 0 hr 1 min 27 sec) 
Heartbeat CPU 0 instructions: 70000003 cycles: 28942631 heartbeat IPC: 1.57196 cumulative IPC: 1.62514 (Simulation time: 0 hr 1 min 42 sec) 
Heartbeat CPU 0 instructions: 80000002 cycles: 34965489 heartbeat IPC: 1.66034 cumulative IPC: 1.63671 (Simulation time: 0 hr 1 min 57 sec) 
Heartbeat CPU 0 instructions: 90000002 cycles: 40986453 heartbeat IPC: 1.66086 cumulative IPC: 1.64268 (Simulation time: 0 hr 2 min 12 sec) 
Heartbeat CPU 0 instructions: 100000002 cycles: 46990206 heartbeat IPC: 1.66562 cumulative IPC: 1.64722 (Simulation time: 0 hr 2 min 27 sec) 
Finished CPU 0 instructions: 50000000 cycles: 30354222 cumulative IPC: 1.64722 (Simulation time: 0 hr 2 min 27 sec) 

ChampSim completed all CPUs

Region of Interest Statistics

CPU 0 cumulative IPC: 1.64722 instructions: 50000000 cycles: 30354222
L1D TOTAL     ACCESS:   18236041  HIT:   16811972  MISS:    1424069
L1D LOAD      ACCESS:    6128132  HIT:    5471715  MISS:     656417
L1D RFO       ACCESS:    6161432  HIT:    6018747  MISS:     142685
L1D PREFETCH  ACCESS:    5946477  HIT:    5321510  MISS:     624967
L1D WRITEBACK ACCESS:          0  HIT:          0  MISS:          0
L1D PREFETCH  REQUESTED:    6162386  ISSUED:    6072933  USEFUL:     140543  USELESS:     484393
L1D AVERAGE MISS LATENCY: 17.6454 cycles
L1I TOTAL     ACCESS:   15082715  HIT:   11020266  MISS:    4062449
L1I LOAD      ACCESS:    9669434  HIT:    9609234  MISS:      60200
L1I RFO       ACCESS:          0  HIT:          0  MISS:          0
L1I PREFETCH  ACCESS:    5413281  HIT:    1411032  MISS:    4002249
L1I WRITEBACK ACCESS:          0  HIT:          0  MISS:          0
L1I PREFETCH  REQUESTED:    5557559  ISSUED:    5556637  USEFUL:    3319889  USELESS:     682329
L1I AVERAGE MISS LATENCY: 14.8827 cycles
L2C TOTAL     ACCESS:    7356522  HIT:    7242063  MISS:     114459
L2C LOAD      ACCESS:     660042  HIT:     622117  MISS:      37925
L2C RFO       ACCESS:     140856  HIT:     131729  MISS:       9127
L2C PREFETCH  ACCESS:    6204894  HIT:    6138922  MISS:      65972
L2C WRITEBACK ACCESS:     350730  HIT:     349295  MISS:       1435
L2C PREFETCH  REQUESTED:    6467109  ISSUED:    6449385  USEFUL:       3104  USELESS:      62150
L2C AVERAGE MISS LATENCY: 42.0237 cycles
LLC TOTAL     ACCESS:    2249316  HIT:    2233562  MISS:      15754
LLC LOAD      ACCESS:      37832  HIT:      34861  MISS:       2971
LLC RFO       ACCESS:       9126  HIT:       8899  MISS:        227
LLC PREFETCH  ACCESS:    2162616  HIT:    2150183  MISS:      12433
LLC WRITEBACK ACCESS:      39742  HIT:      39619  MISS:        123
LLC PREFETCH  REQUESTED:          0  ISSUED:          0  USEFUL:       3382  USELESS:       7000
LLC AVERAGE MISS LATENCY: 162.585 cycles
Major fault: 0 Minor fault: 1170
I-Shadow cache 408 bytes
Touched + WorthPF tables 24576 bytes 
MMA filter 174 bytes 
FNL filter 272 bytes 
TOTAL PREFETCHER STORAGE SIZE: 98134 bytes
CPU 0 L1I next line prefetcher final stats
CPU 0 L1D next line prefetcher final stats

DRAM Statistics
 CHANNEL 0
 RQ ROW_BUFFER_HIT:       3842  ROW_BUFFER_MISS:      11786
 DBUS_CONGESTED:       7004
 WQ ROW_BUFFER_HIT:       1183  ROW_BUFFER_MISS:       3575  FULL:          0

 AVG_CONGESTED_CYCLE: 5

CPU 0 Branch Prediction Accuracy: 99.926% MPKI: 0.14472 Average ROB Occupancy at Mispredict: 265.797

Branch types
NOT_BRANCH: 40221080 80.4422%
BRANCH_DIRECT_JUMP: 771319 1.54264%
BRANCH_INDIRECT: 108663 0.217326%
BRANCH_CONDITIONAL: 6375043 12.7501%
BRANCH_DIRECT_CALL: 1049638 2.09928%
BRANCH_INDIRECT_CALL: 212283 0.424566%
BRANCH_RETURN: 1261926 2.52385%
BRANCH_OTHER: 0 0%

