Initialize SIGNATURE TABLE
ST_SET: 1
ST_WAY: 256
ST_TAG_BIT: 16
ST_TAG_MASK: ffff

Initialize PATTERN TABLE
PT_SET: 512
PT_WAY: 4
SIG_DELTA_BIT: 7
C_SIG_BIT: 4
C_DELTA_BIT: 4

Initialize PREFETCH FILTER
FILTER_SET: 1024

*** ChampSim Multicore Out-of-Order Simulator ***

Warmup Instructions: 50000000
Simulation Instructions: 50000000
Number of CPUs: 1
LLC sets: 2048
LLC ways: 16
Off-chip DRAM Size: 4096 MB Channels: 1 Width: 64-bit Data Rate: 3200 MT/s

CPU 0 runs /Users/gandhardeshpande/Desktop/CSE240C/HW1/ChampSim/ipc1_public/server_012.champsimtrace.xz
L1I Barca has been initializedCPU 0 L1D next line prefetcher
Heartbeat CPU 0 instructions: 10000002 cycles: 3198144 heartbeat IPC: 3.12681 cumulative IPC: 3.12681 (Simulation time: 0 hr 0 min 16 sec) 
Heartbeat CPU 0 instructions: 20000002 cycles: 6399677 heartbeat IPC: 3.1235 cumulative IPC: 3.12516 (Simulation time: 0 hr 0 min 32 sec) 
Heartbeat CPU 0 instructions: 30000001 cycles: 9601914 heartbeat IPC: 3.12282 cumulative IPC: 3.12438 (Simulation time: 0 hr 0 min 48 sec) 
Heartbeat CPU 0 instructions: 40000000 cycles: 12809830 heartbeat IPC: 3.11729 cumulative IPC: 3.1226 (Simulation time: 0 hr 1 min 4 sec) 
Heartbeat CPU 0 instructions: 50000003 cycles: 16010351 heartbeat IPC: 3.12449 cumulative IPC: 3.12298 (Simulation time: 0 hr 1 min 20 sec) 

Warmup complete CPU 0 instructions: 50000003 cycles: 16010351 (Simulation time: 0 hr 1 min 20 sec) 

Heartbeat CPU 0 instructions: 60000002 cycles: 26547183 heartbeat IPC: 0.949052 cumulative IPC: 0.949052 (Simulation time: 0 hr 1 min 34 sec) 
Heartbeat CPU 0 instructions: 70000000 cycles: 37060996 heartbeat IPC: 0.95113 cumulative IPC: 0.95009 (Simulation time: 0 hr 1 min 47 sec) 
Heartbeat CPU 0 instructions: 80000003 cycles: 47887071 heartbeat IPC: 0.923696 cumulative IPC: 0.941126 (Simulation time: 0 hr 2 min 1 sec) 
Heartbeat CPU 0 instructions: 90000003 cycles: 58743442 heartbeat IPC: 0.921118 cumulative IPC: 0.936043 (Simulation time: 0 hr 2 min 14 sec) 
Heartbeat CPU 0 instructions: 100000002 cycles: 69450179 heartbeat IPC: 0.933991 cumulative IPC: 0.935632 (Simulation time: 0 hr 2 min 28 sec) 
Finished CPU 0 instructions: 50000001 cycles: 53439829 cumulative IPC: 0.935632 (Simulation time: 0 hr 2 min 28 sec) 

ChampSim completed all CPUs

Region of Interest Statistics

CPU 0 cumulative IPC: 0.935632 instructions: 50000001 cycles: 53439829
L1D TOTAL     ACCESS:   18455159  HIT:   17411073  MISS:    1044086
L1D LOAD      ACCESS:    6834826  HIT:    6359915  MISS:     474911
L1D RFO       ACCESS:    5012482  HIT:    4930273  MISS:      82209
L1D PREFETCH  ACCESS:    6607851  HIT:    6120885  MISS:     486966
L1D WRITEBACK ACCESS:          0  HIT:          0  MISS:          0
L1D PREFETCH  REQUESTED:    6870599  ISSUED:    6764840  USEFUL:     145721  USELESS:     341266
L1D AVERAGE MISS LATENCY: 38.6698 cycles
L1I TOTAL     ACCESS:    8686708  HIT:    7345299  MISS:    1341409
L1I LOAD      ACCESS:    8552909  HIT:    7320438  MISS:    1232471
L1I RFO       ACCESS:          0  HIT:          0  MISS:          0
L1I PREFETCH  ACCESS:     133799  HIT:      24861  MISS:     108938
L1I WRITEBACK ACCESS:          0  HIT:          0  MISS:          0
L1I PREFETCH  REQUESTED:     172662  ISSUED:     172662  USEFUL:      81589  USELESS:      27346
L1I AVERAGE MISS LATENCY: 30.4299 cycles
L2C TOTAL     ACCESS:    3622258  HIT:    2422087  MISS:    1200171
L2C LOAD      ACCESS:    1673790  HIT:     867316  MISS:     806474
L2C RFO       ACCESS:      81096  HIT:      34071  MISS:      47025
L2C PREFETCH  ACCESS:    1591852  HIT:    1245711  MISS:     346141
L2C WRITEBACK ACCESS:     275520  HIT:     274989  MISS:        531
L2C PREFETCH  REQUESTED:    3552755  ISSUED:    3552309  USEFUL:      68198  USELESS:     278001
L2C AVERAGE MISS LATENCY: 40.4281 cycles
LLC TOTAL     ACCESS:    3065236  HIT:    2890493  MISS:     174743
LLC LOAD      ACCESS:     775834  HIT:     735986  MISS:      39848
LLC RFO       ACCESS:      47022  HIT:      36775  MISS:      10247
LLC PREFETCH  ACCESS:    2083622  HIT:    1959562  MISS:     124060
LLC WRITEBACK ACCESS:     158758  HIT:     158170  MISS:        588
LLC PREFETCH  REQUESTED:          0  ISSUED:          0  USEFUL:      23446  USELESS:     100592
LLC AVERAGE MISS LATENCY: 161.427 cycles
Major fault: 0 Minor fault: 5596
CPU 0 L1D next line prefetcher final stats

DRAM Statistics
 CHANNEL 0
 RQ ROW_BUFFER_HIT:      28486  ROW_BUFFER_MISS:     145661
 DBUS_CONGESTED:      69484
 WQ ROW_BUFFER_HIT:      10519  ROW_BUFFER_MISS:      51844  FULL:          0

 AVG_CONGESTED_CYCLE: 5

CPU 0 Branch Prediction Accuracy: 99.4607% MPKI: 1.00288 Average ROB Occupancy at Mispredict: 70.9128

Branch types
NOT_BRANCH: 40700937 81.4019%
BRANCH_DIRECT_JUMP: 469808 0.939616%
BRANCH_INDIRECT: 153732 0.307464%
BRANCH_CONDITIONAL: 6944055 13.8881%
BRANCH_DIRECT_CALL: 679876 1.35975%
BRANCH_INDIRECT_CALL: 168745 0.33749%
BRANCH_RETURN: 882491 1.76498%
BRANCH_OTHER: 0 0%

