Initialize SIGNATURE TABLE
ST_SET: 1
ST_WAY: 256
ST_TAG_BIT: 16
ST_TAG_MASK: ffff

Initialize PATTERN TABLE
PT_SET: 512
PT_WAY: 4
SIG_DELTA_BIT: 7
C_SIG_BIT: 4
C_DELTA_BIT: 4

Initialize PREFETCH FILTER
FILTER_SET: 1024

*** ChampSim Multicore Out-of-Order Simulator ***

Warmup Instructions: 50000000
Simulation Instructions: 50000000
Number of CPUs: 1
LLC sets: 2048
LLC ways: 16
Off-chip DRAM Size: 4096 MB Channels: 1 Width: 64-bit Data Rate: 3200 MT/s

CPU 0 runs /Users/gandhardeshpande/Desktop/CSE240C/HW1/ChampSim/ipc1_public/server_039.champsimtrace.xz
L1I Barca has been initializedCPU 0 L1D next line prefetcher
Heartbeat CPU 0 instructions: 10000003 cycles: 3453122 heartbeat IPC: 2.89593 cumulative IPC: 2.89593 (Simulation time: 0 hr 0 min 16 sec) 
Heartbeat CPU 0 instructions: 20000002 cycles: 6899457 heartbeat IPC: 2.90163 cumulative IPC: 2.89878 (Simulation time: 0 hr 0 min 32 sec) 
Heartbeat CPU 0 instructions: 30000001 cycles: 10347540 heartbeat IPC: 2.90016 cumulative IPC: 2.89924 (Simulation time: 0 hr 0 min 48 sec) 
Heartbeat CPU 0 instructions: 40000002 cycles: 13790823 heartbeat IPC: 2.90421 cumulative IPC: 2.90048 (Simulation time: 0 hr 1 min 4 sec) 
Heartbeat CPU 0 instructions: 50000001 cycles: 17233520 heartbeat IPC: 2.9047 cumulative IPC: 2.90132 (Simulation time: 0 hr 1 min 20 sec) 

Warmup complete CPU 0 instructions: 50000001 cycles: 17233520 (Simulation time: 0 hr 1 min 20 sec) 

Heartbeat CPU 0 instructions: 60000000 cycles: 27328235 heartbeat IPC: 0.990617 cumulative IPC: 0.990617 (Simulation time: 0 hr 1 min 31 sec) 
Heartbeat CPU 0 instructions: 70000000 cycles: 37428298 heartbeat IPC: 0.990093 cumulative IPC: 0.990355 (Simulation time: 0 hr 1 min 42 sec) 
Heartbeat CPU 0 instructions: 80000000 cycles: 47551650 heartbeat IPC: 0.987815 cumulative IPC: 0.989507 (Simulation time: 0 hr 1 min 53 sec) 
Heartbeat CPU 0 instructions: 90000001 cycles: 57688535 heartbeat IPC: 0.986496 cumulative IPC: 0.988753 (Simulation time: 0 hr 2 min 4 sec) 
Heartbeat CPU 0 instructions: 100000002 cycles: 67844523 heartbeat IPC: 0.984641 cumulative IPC: 0.987927 (Simulation time: 0 hr 2 min 14 sec) 
Finished CPU 0 instructions: 50000001 cycles: 50611003 cumulative IPC: 0.987927 (Simulation time: 0 hr 2 min 14 sec) 

ChampSim completed all CPUs

Region of Interest Statistics

CPU 0 cumulative IPC: 0.987927 instructions: 50000001 cycles: 50611003
L1D TOTAL     ACCESS:   23283511  HIT:   22786490  MISS:     497021
L1D LOAD      ACCESS:    8122296  HIT:    7901371  MISS:     220925
L1D RFO       ACCESS:    7185563  HIT:    7116356  MISS:      69207
L1D PREFETCH  ACCESS:    7975652  HIT:    7768763  MISS:     206889
L1D WRITEBACK ACCESS:          0  HIT:          0  MISS:          0
L1D PREFETCH  REQUESTED:    8136768  ISSUED:    8056945  USEFUL:      49098  USELESS:     157795
L1D AVERAGE MISS LATENCY: 14.8194 cycles
L1I TOTAL     ACCESS:    9661707  HIT:    5564078  MISS:    4097629
L1I LOAD      ACCESS:    9239386  HIT:    5494651  MISS:    3744735
L1I RFO       ACCESS:          0  HIT:          0  MISS:          0
L1I PREFETCH  ACCESS:     422321  HIT:      69427  MISS:     352894
L1I WRITEBACK ACCESS:          0  HIT:          0  MISS:          0
L1I PREFETCH  REQUESTED:     649159  ISSUED:     649159  USEFUL:     336638  USELESS:      16260
L1I AVERAGE MISS LATENCY: 13.9247 cycles
L2C TOTAL     ACCESS:    7893816  HIT:    7893761  MISS:         55
L2C LOAD      ACCESS:    3907324  HIT:    3907321  MISS:          3
L2C RFO       ACCESS:      66933  HIT:      66933  MISS:          0
L2C PREFETCH  ACCESS:    3739354  HIT:    3739302  MISS:         52
L2C WRITEBACK ACCESS:     180205  HIT:     180205  MISS:          0
L2C PREFETCH  REQUESTED:    5077748  ISSUED:    5077748  USEFUL:          1  USELESS:          0
L2C AVERAGE MISS LATENCY: 55.2364 cycles
LLC TOTAL     ACCESS:    1141985  HIT:    1141768  MISS:        217
LLC LOAD      ACCESS:          3  HIT:          2  MISS:          1
LLC RFO       ACCESS:          0  HIT:          0  MISS:          0
LLC PREFETCH  ACCESS:    1141982  HIT:    1141766  MISS:        216
LLC WRITEBACK ACCESS:          0  HIT:          0  MISS:          0
LLC PREFETCH  REQUESTED:          0  ISSUED:          0  USEFUL:          2  USELESS:          0
LLC AVERAGE MISS LATENCY: 171.327 cycles
Major fault: 0 Minor fault: 356
CPU 0 L1D next line prefetcher final stats

DRAM Statistics
 CHANNEL 0
 RQ ROW_BUFFER_HIT:         20  ROW_BUFFER_MISS:        197
 DBUS_CONGESTED:         35
 WQ ROW_BUFFER_HIT:          0  ROW_BUFFER_MISS:          0  FULL:          0

 AVG_CONGESTED_CYCLE: 6

CPU 0 Branch Prediction Accuracy: 99.9091% MPKI: 0.1547 Average ROB Occupancy at Mispredict: 9.24344

Branch types
NOT_BRANCH: 41494795 82.9896%
BRANCH_DIRECT_JUMP: 491305 0.98261%
BRANCH_INDIRECT: 0 0%
BRANCH_CONDITIONAL: 5595230 11.1905%
BRANCH_DIRECT_CALL: 1028406 2.05681%
BRANCH_INDIRECT_CALL: 180755 0.36151%
BRANCH_RETURN: 1209170 2.41834%
BRANCH_OTHER: 0 0%

