Initialize SIGNATURE TABLE
ST_SET: 1
ST_WAY: 256
ST_TAG_BIT: 16
ST_TAG_MASK: ffff

Initialize PATTERN TABLE
PT_SET: 512
PT_WAY: 4
SIG_DELTA_BIT: 7
C_SIG_BIT: 4
C_DELTA_BIT: 4

Initialize PREFETCH FILTER
FILTER_SET: 1024

*** ChampSim Multicore Out-of-Order Simulator ***

Warmup Instructions: 50000000
Simulation Instructions: 50000000
Number of CPUs: 1
LLC sets: 2048
LLC ways: 16
Off-chip DRAM Size: 4096 MB Channels: 1 Width: 64-bit Data Rate: 3200 MT/s

CPU 0 runs /Users/gandhardeshpande/Desktop/CSE240C/HW1/ChampSim/ipc1_public/server_010.champsimtrace.xz
CPU 0 L1I next line prefetcher
CPU 0 L1D next line prefetcher
Heartbeat CPU 0 instructions: 10000000 cycles: 3193928 heartbeat IPC: 3.13094 cumulative IPC: 3.13094 (Simulation time: 0 hr 0 min 13 sec) 
Heartbeat CPU 0 instructions: 20000002 cycles: 6383649 heartbeat IPC: 3.13507 cumulative IPC: 3.133 (Simulation time: 0 hr 0 min 27 sec) 
Heartbeat CPU 0 instructions: 30000001 cycles: 9577209 heartbeat IPC: 3.1313 cumulative IPC: 3.13244 (Simulation time: 0 hr 0 min 41 sec) 
Heartbeat CPU 0 instructions: 40000000 cycles: 12766791 heartbeat IPC: 3.13521 cumulative IPC: 3.13313 (Simulation time: 0 hr 0 min 54 sec) 
Heartbeat CPU 0 instructions: 50000003 cycles: 15962158 heartbeat IPC: 3.12953 cumulative IPC: 3.13241 (Simulation time: 0 hr 1 min 8 sec) 

Warmup complete CPU 0 instructions: 50000003 cycles: 15962158 (Simulation time: 0 hr 1 min 8 sec) 

Heartbeat CPU 0 instructions: 60000001 cycles: 23122898 heartbeat IPC: 1.3965 cumulative IPC: 1.3965 (Simulation time: 0 hr 1 min 20 sec) 
Heartbeat CPU 0 instructions: 70000000 cycles: 30331267 heartbeat IPC: 1.38728 cumulative IPC: 1.39187 (Simulation time: 0 hr 1 min 32 sec) 
Heartbeat CPU 0 instructions: 80000003 cycles: 37619019 heartbeat IPC: 1.37217 cumulative IPC: 1.38524 (Simulation time: 0 hr 1 min 45 sec) 
Heartbeat CPU 0 instructions: 90000002 cycles: 44682021 heartbeat IPC: 1.41583 cumulative IPC: 1.39276 (Simulation time: 0 hr 1 min 57 sec) 
Heartbeat CPU 0 instructions: 100000003 cycles: 65297625 heartbeat IPC: 0.48507 cumulative IPC: 1.01347 (Simulation time: 0 hr 2 min 18 sec) 
Finished CPU 0 instructions: 50000000 cycles: 49335467 cumulative IPC: 1.01347 (Simulation time: 0 hr 2 min 18 sec) 

ChampSim completed all CPUs

Region of Interest Statistics

CPU 0 cumulative IPC: 1.01347 instructions: 50000000 cycles: 49335467
L1D TOTAL     ACCESS:   19882945  HIT:   16657824  MISS:    3225121
L1D LOAD      ACCESS:    7698263  HIT:    6104411  MISS:    1593852
L1D RFO       ACCESS:    4710037  HIT:    4615670  MISS:      94367
L1D PREFETCH  ACCESS:    7474645  HIT:    5937743  MISS:    1536902
L1D WRITEBACK ACCESS:          0  HIT:          0  MISS:          0
L1D PREFETCH  REQUESTED:    7731728  ISSUED:    7634820  USEFUL:     116416  USELESS:    1420458
L1D AVERAGE MISS LATENCY: 22.8123 cycles
L1I TOTAL     ACCESS:   12740330  HIT:   10989989  MISS:    1750341
L1I LOAD      ACCESS:    9952375  HIT:    9833160  MISS:     119215
L1I RFO       ACCESS:          0  HIT:          0  MISS:          0
L1I PREFETCH  ACCESS:    2787955  HIT:    1156829  MISS:    1631126
L1I WRITEBACK ACCESS:          0  HIT:          0  MISS:          0
L1I PREFETCH  REQUESTED:    2949149  ISSUED:    2948439  USEFUL:    1134531  USELESS:     496607
L1I AVERAGE MISS LATENCY: 29.2091 cycles
L2C TOTAL     ACCESS:    6308890  HIT:    5142178  MISS:    1166712
L2C LOAD      ACCESS:    1599806  HIT:    1371470  MISS:     228336
L2C RFO       ACCESS:      93303  HIT:      48231  MISS:      45072
L2C PREFETCH  ACCESS:    4350416  HIT:    3458748  MISS:     891668
L2C WRITEBACK ACCESS:     265365  HIT:     263729  MISS:       1636
L2C PREFETCH  REQUESTED:    5870490  ISSUED:    5868798  USEFUL:      22767  USELESS:     870141
L2C AVERAGE MISS LATENCY: 46.5219 cycles
LLC TOTAL     ACCESS:    2374344  HIT:    2250808  MISS:     123536
LLC LOAD      ACCESS:     228259  HIT:     211829  MISS:      16430
LLC RFO       ACCESS:      45070  HIT:      35506  MISS:       9564
LLC PREFETCH  ACCESS:    1949932  HIT:    1852540  MISS:      97392
LLC WRITEBACK ACCESS:     151083  HIT:     150933  MISS:        150
LLC PREFETCH  REQUESTED:          0  ISSUED:          0  USEFUL:       8807  USELESS:      89070
LLC AVERAGE MISS LATENCY: 175.175 cycles
Major fault: 0 Minor fault: 5597
I-Shadow cache 408 bytes
Touched + WorthPF tables 24576 bytes 
MMA filter 174 bytes 
FNL filter 272 bytes 
TOTAL PREFETCHER STORAGE SIZE: 98134 bytes
CPU 0 L1I next line prefetcher final stats
CPU 0 L1D next line prefetcher final stats

DRAM Statistics
 CHANNEL 0
 RQ ROW_BUFFER_HIT:      18674  ROW_BUFFER_MISS:     104702
 DBUS_CONGESTED:      56089
 WQ ROW_BUFFER_HIT:      10237  ROW_BUFFER_MISS:      44027  FULL:          0

 AVG_CONGESTED_CYCLE: 5

CPU 0 Branch Prediction Accuracy: 99.5528% MPKI: 0.89798 Average ROB Occupancy at Mispredict: 128.975

Branch types
NOT_BRANCH: 39958794 79.9176%
BRANCH_DIRECT_JUMP: 449946 0.899892%
BRANCH_INDIRECT: 140210 0.28042%
BRANCH_CONDITIONAL: 7679677 15.3594%
BRANCH_DIRECT_CALL: 701578 1.40316%
BRANCH_INDIRECT_CALL: 168971 0.337942%
BRANCH_RETURN: 900560 1.80112%
BRANCH_OTHER: 0 0%

