
*** ChampSim Multicore Out-of-Order Simulator ***

Warmup Instructions: 10000000
Simulation Instructions: 100000000
Configuration: 2
Number of CPUs: 1
LLC sets: 2048
LLC ways: 16
Off-chip DRAM Channels: 1 Width: 64-bit Data Rate: 1600 MT/s

CPU 0 runs /datasets/cs240c-wi22-a00-public/data/Assignment2-gz/calculix_2655B.trace.gz
CPU 0 L1D next line prefetcher
CPU 0 L2C IP-based stride prefetcher
Heartbeat CPU 0 instructions: 1000003 cycles: 392386 heartbeat IPC: 2.54852 cumulative IPC: 2.54852 (Simulation time: 0 hr 0 min 17 sec) 
select_counter is 1878
Heartbeat CPU 0 instructions: 2000001 cycles: 785148 heartbeat IPC: 2.54607 cumulative IPC: 2.54729 (Simulation time: 0 hr 0 min 36 sec) 
select_counter is 1614
Heartbeat CPU 0 instructions: 3000002 cycles: 1177702 heartbeat IPC: 2.54742 cumulative IPC: 2.54734 (Simulation time: 0 hr 0 min 55 sec) 
select_counter is 1331
Heartbeat CPU 0 instructions: 4000000 cycles: 1569470 heartbeat IPC: 2.55253 cumulative IPC: 2.54863 (Simulation time: 0 hr 1 min 14 sec) 
select_counter is 1164
Heartbeat CPU 0 instructions: 5000003 cycles: 1961681 heartbeat IPC: 2.54966 cumulative IPC: 2.54884 (Simulation time: 0 hr 1 min 32 sec) 
select_counter is 887
Heartbeat CPU 0 instructions: 6000003 cycles: 2353811 heartbeat IPC: 2.55017 cumulative IPC: 2.54906 (Simulation time: 0 hr 1 min 51 sec) 
select_counter is 601
Heartbeat CPU 0 instructions: 7000002 cycles: 2745962 heartbeat IPC: 2.55004 cumulative IPC: 2.5492 (Simulation time: 0 hr 2 min 10 sec) 
select_counter is 323
Heartbeat CPU 0 instructions: 8000000 cycles: 3137929 heartbeat IPC: 2.55123 cumulative IPC: 2.54945 (Simulation time: 0 hr 2 min 27 sec) 
select_counter is 63
Heartbeat CPU 0 instructions: 9000001 cycles: 3530115 heartbeat IPC: 2.54981 cumulative IPC: 2.54949 (Simulation time: 0 hr 2 min 45 sec) 
select_counter is 3896
Heartbeat CPU 0 instructions: 10000000 cycles: 3921577 heartbeat IPC: 2.55452 cumulative IPC: 2.54999 (Simulation time: 0 hr 3 min 4 sec) 
select_counter is 3719

Warmup complete CPU 0 instructions: 10000004 cycles: 3921578 (Simulation time: 0 hr 3 min 4 sec) 

Heartbeat CPU 0 instructions: 11000001 cycles: 4584096 heartbeat IPC: 1.50939 cumulative IPC: 1.50939 (Simulation time: 0 hr 3 min 29 sec) 
select_counter is 3404
Heartbeat CPU 0 instructions: 12000000 cycles: 5241625 heartbeat IPC: 1.52084 cumulative IPC: 1.51509 (Simulation time: 0 hr 3 min 54 sec) 
select_counter is 3086
Heartbeat CPU 0 instructions: 13000000 cycles: 5893711 heartbeat IPC: 1.53354 cumulative IPC: 1.52119 (Simulation time: 0 hr 4 min 17 sec) 
select_counter is 2785
Heartbeat CPU 0 instructions: 14000003 cycles: 6536683 heartbeat IPC: 1.55528 cumulative IPC: 1.52957 (Simulation time: 0 hr 4 min 39 sec) 
select_counter is 2491
Heartbeat CPU 0 instructions: 15000000 cycles: 7174634 heartbeat IPC: 1.56751 cumulative IPC: 1.53702 (Simulation time: 0 hr 5 min 6 sec) 
select_counter is 2202
Heartbeat CPU 0 instructions: 16000000 cycles: 7878002 heartbeat IPC: 1.42173 cumulative IPC: 1.51652 (Simulation time: 0 hr 5 min 28 sec) 
select_counter is 2033
Heartbeat CPU 0 instructions: 17000000 cycles: 8513361 heartbeat IPC: 1.57391 cumulative IPC: 1.52446 (Simulation time: 0 hr 5 min 52 sec) 
select_counter is 1756
Heartbeat CPU 0 instructions: 18000000 cycles: 9140236 heartbeat IPC: 1.59521 cumulative IPC: 1.53296 (Simulation time: 0 hr 6 min 13 sec) 
select_counter is 1482
Heartbeat CPU 0 instructions: 19000000 cycles: 9762958 heartbeat IPC: 1.60585 cumulative IPC: 1.54073 (Simulation time: 0 hr 6 min 39 sec) 
select_counter is 1207
Heartbeat CPU 0 instructions: 20000000 cycles: 10389397 heartbeat IPC: 1.59632 cumulative IPC: 1.54612 (Simulation time: 0 hr 7 min 4 sec) 
select_counter is 931
Heartbeat CPU 0 instructions: 21000000 cycles: 11017970 heartbeat IPC: 1.59091 cumulative IPC: 1.55008 (Simulation time: 0 hr 7 min 27 sec) 
select_counter is 632
Heartbeat CPU 0 instructions: 22000001 cycles: 11718714 heartbeat IPC: 1.42706 cumulative IPC: 1.53903 (Simulation time: 0 hr 7 min 52 sec) 
select_counter is 473
Heartbeat CPU 0 instructions: 23000000 cycles: 12250037 heartbeat IPC: 1.88209 cumulative IPC: 1.56091 (Simulation time: 0 hr 8 min 15 sec) 
select_counter is 162
Heartbeat CPU 0 instructions: 24000000 cycles: 12707873 heartbeat IPC: 2.18419 cumulative IPC: 1.59339 (Simulation time: 0 hr 8 min 37 sec) 
select_counter is 3971
Heartbeat CPU 0 instructions: 25000003 cycles: 13171881 heartbeat IPC: 2.15514 cumulative IPC: 1.62157 (Simulation time: 0 hr 8 min 56 sec) 
select_counter is 3673
Heartbeat CPU 0 instructions: 26000003 cycles: 13635431 heartbeat IPC: 2.15726 cumulative IPC: 1.64713 (Simulation time: 0 hr 9 min 18 sec) 
select_counter is 3394
Heartbeat CPU 0 instructions: 27000000 cycles: 14129755 heartbeat IPC: 2.02296 cumulative IPC: 1.66533 (Simulation time: 0 hr 9 min 42 sec) 
select_counter is 3124
Heartbeat CPU 0 instructions: 28000000 cycles: 14804138 heartbeat IPC: 1.48284 cumulative IPC: 1.65402 (Simulation time: 0 hr 10 min 7 sec) 
select_counter is 2957
Heartbeat CPU 0 instructions: 29000003 cycles: 15435481 heartbeat IPC: 1.58393 cumulative IPC: 1.65018 (Simulation time: 0 hr 10 min 28 sec) 
select_counter is 2695
Heartbeat CPU 0 instructions: 30000001 cycles: 16075443 heartbeat IPC: 1.56259 cumulative IPC: 1.64557 (Simulation time: 0 hr 10 min 49 sec) 
select_counter is 2407
Heartbeat CPU 0 instructions: 31000002 cycles: 16705117 heartbeat IPC: 1.58812 cumulative IPC: 1.64274 (Simulation time: 0 hr 11 min 12 sec) 
select_counter is 2132
Heartbeat CPU 0 instructions: 32000000 cycles: 17321045 heartbeat IPC: 1.62356 cumulative IPC: 1.64186 (Simulation time: 0 hr 11 min 36 sec) 
select_counter is 1884
Heartbeat CPU 0 instructions: 33000003 cycles: 17981055 heartbeat IPC: 1.51513 cumulative IPC: 1.63591 (Simulation time: 0 hr 11 min 58 sec) 
select_counter is 1647
Heartbeat CPU 0 instructions: 34000002 cycles: 18675925 heartbeat IPC: 1.43912 cumulative IPC: 1.62664 (Simulation time: 0 hr 12 min 19 sec) 
select_counter is 1416
Heartbeat CPU 0 instructions: 35000001 cycles: 19338095 heartbeat IPC: 1.51018 cumulative IPC: 1.62164 (Simulation time: 0 hr 12 min 43 sec) 
select_counter is 1095
Heartbeat CPU 0 instructions: 36000000 cycles: 19991225 heartbeat IPC: 1.53109 cumulative IPC: 1.61796 (Simulation time: 0 hr 13 min 4 sec) 
select_counter is 782
Heartbeat CPU 0 instructions: 37000002 cycles: 20644213 heartbeat IPC: 1.53142 cumulative IPC: 1.61458 (Simulation time: 0 hr 13 min 29 sec) 
select_counter is 470
Heartbeat CPU 0 instructions: 38000002 cycles: 21168756 heartbeat IPC: 1.90642 cumulative IPC: 1.62345 (Simulation time: 0 hr 13 min 50 sec) 
select_counter is 161
Heartbeat CPU 0 instructions: 39000002 cycles: 21766295 heartbeat IPC: 1.67353 cumulative IPC: 1.62513 (Simulation time: 0 hr 14 min 12 sec) 
select_counter is 4022
Heartbeat CPU 0 instructions: 40000000 cycles: 22271540 heartbeat IPC: 1.97923 cumulative IPC: 1.63488 (Simulation time: 0 hr 14 min 33 sec) 
select_counter is 3964
Heartbeat CPU 0 instructions: 41000003 cycles: 22762299 heartbeat IPC: 2.03767 cumulative IPC: 1.64537 (Simulation time: 0 hr 14 min 55 sec) 
select_counter is 3948
Heartbeat CPU 0 instructions: 42000001 cycles: 23284762 heartbeat IPC: 1.91401 cumulative IPC: 1.65262 (Simulation time: 0 hr 15 min 15 sec) 
select_counter is 3885
Heartbeat CPU 0 instructions: 43000001 cycles: 23814746 heartbeat IPC: 1.88685 cumulative IPC: 1.65886 (Simulation time: 0 hr 15 min 36 sec) 
select_counter is 3860
Heartbeat CPU 0 instructions: 44000000 cycles: 24528649 heartbeat IPC: 1.40075 cumulative IPC: 1.64992 (Simulation time: 0 hr 16 min 4 sec) 
select_counter is 3853
Heartbeat CPU 0 instructions: 45000002 cycles: 24994568 heartbeat IPC: 2.1463 cumulative IPC: 1.66089 (Simulation time: 0 hr 16 min 25 sec) 
select_counter is 3832
Heartbeat CPU 0 instructions: 46000003 cycles: 25513367 heartbeat IPC: 1.92753 cumulative IPC: 1.6673 (Simulation time: 0 hr 16 min 46 sec) 
select_counter is 3805
Heartbeat CPU 0 instructions: 47000000 cycles: 26020888 heartbeat IPC: 1.97036 cumulative IPC: 1.67426 (Simulation time: 0 hr 17 min 10 sec) 
select_counter is 3709
Heartbeat CPU 0 instructions: 48000000 cycles: 26569395 heartbeat IPC: 1.82313 cumulative IPC: 1.67787 (Simulation time: 0 hr 17 min 31 sec) 
select_counter is 3632
Heartbeat CPU 0 instructions: 49000000 cycles: 27016583 heartbeat IPC: 2.2362 cumulative IPC: 1.68868 (Simulation time: 0 hr 17 min 54 sec) 
select_counter is 3627
Heartbeat CPU 0 instructions: 50000002 cycles: 27501830 heartbeat IPC: 2.06081 cumulative IPC: 1.69633 (Simulation time: 0 hr 18 min 12 sec) 
select_counter is 3603
Heartbeat CPU 0 instructions: 51000001 cycles: 27980869 heartbeat IPC: 2.08751 cumulative IPC: 1.70412 (Simulation time: 0 hr 18 min 29 sec) 
select_counter is 3580
Heartbeat CPU 0 instructions: 52000000 cycles: 28416586 heartbeat IPC: 2.29507 cumulative IPC: 1.71463 (Simulation time: 0 hr 18 min 46 sec) 
select_counter is 3563
Heartbeat CPU 0 instructions: 53000002 cycles: 28948521 heartbeat IPC: 1.87993 cumulative IPC: 1.71815 (Simulation time: 0 hr 19 min 8 sec) 
select_counter is 3553
Heartbeat CPU 0 instructions: 54000002 cycles: 29750097 heartbeat IPC: 1.24754 cumulative IPC: 1.70354 (Simulation time: 0 hr 19 min 28 sec) 
select_counter is 3533
Heartbeat CPU 0 instructions: 55000002 cycles: 30289451 heartbeat IPC: 1.85407 cumulative IPC: 1.70662 (Simulation time: 0 hr 19 min 50 sec) 
select_counter is 3504
Heartbeat CPU 0 instructions: 56000000 cycles: 30774914 heartbeat IPC: 2.05989 cumulative IPC: 1.71301 (Simulation time: 0 hr 20 min 14 sec) 
select_counter is 3449
Heartbeat CPU 0 instructions: 57000000 cycles: 31317699 heartbeat IPC: 1.84235 cumulative IPC: 1.71557 (Simulation time: 0 hr 20 min 31 sec) 
select_counter is 3414
Heartbeat CPU 0 instructions: 58000003 cycles: 31768700 heartbeat IPC: 2.2173 cumulative IPC: 1.7237 (Simulation time: 0 hr 20 min 49 sec) 
select_counter is 3397
Heartbeat CPU 0 instructions: 59000001 cycles: 32303863 heartbeat IPC: 1.86859 cumulative IPC: 1.72643 (Simulation time: 0 hr 21 min 7 sec) 
select_counter is 3368
Heartbeat CPU 0 instructions: 60000000 cycles: 32786566 heartbeat IPC: 2.07167 cumulative IPC: 1.7322 (Simulation time: 0 hr 21 min 29 sec) 
select_counter is 3346
Heartbeat CPU 0 instructions: 61000002 cycles: 33303075 heartbeat IPC: 1.93608 cumulative IPC: 1.73579 (Simulation time: 0 hr 21 min 52 sec) 
select_counter is 3313
Heartbeat CPU 0 instructions: 62000003 cycles: 33827455 heartbeat IPC: 1.90702 cumulative IPC: 1.73879 (Simulation time: 0 hr 22 min 12 sec) 
select_counter is 3288
Heartbeat CPU 0 instructions: 63000003 cycles: 34509795 heartbeat IPC: 1.46555 cumulative IPC: 1.73269 (Simulation time: 0 hr 22 min 32 sec) 
select_counter is 3275
Heartbeat CPU 0 instructions: 64000000 cycles: 35001330 heartbeat IPC: 2.03444 cumulative IPC: 1.73747 (Simulation time: 0 hr 22 min 50 sec) 
select_counter is 3265
Heartbeat CPU 0 instructions: 65000001 cycles: 35530492 heartbeat IPC: 1.88978 cumulative IPC: 1.74002 (Simulation time: 0 hr 23 min 13 sec) 
select_counter is 3256
Heartbeat CPU 0 instructions: 66000002 cycles: 36187588 heartbeat IPC: 1.52185 cumulative IPC: 1.73557 (Simulation time: 0 hr 23 min 37 sec) 
select_counter is 3242
Heartbeat CPU 0 instructions: 67000003 cycles: 36778473 heartbeat IPC: 1.69238 cumulative IPC: 1.7348 (Simulation time: 0 hr 23 min 59 sec) 
select_counter is 3190
Heartbeat CPU 0 instructions: 68000000 cycles: 37358659 heartbeat IPC: 1.72358 cumulative IPC: 1.7346 (Simulation time: 0 hr 24 min 22 sec) 
select_counter is 3118
Heartbeat CPU 0 instructions: 69000001 cycles: 37932404 heartbeat IPC: 1.74294 cumulative IPC: 1.73474 (Simulation time: 0 hr 24 min 44 sec) 
select_counter is 3060
Heartbeat CPU 0 instructions: 70000002 cycles: 38515224 heartbeat IPC: 1.7158 cumulative IPC: 1.73442 (Simulation time: 0 hr 25 min 7 sec) 
select_counter is 3002
Heartbeat CPU 0 instructions: 71000003 cycles: 39091874 heartbeat IPC: 1.73416 cumulative IPC: 1.73442 (Simulation time: 0 hr 25 min 31 sec) 
select_counter is 2963
Heartbeat CPU 0 instructions: 72000000 cycles: 39672168 heartbeat IPC: 1.72326 cumulative IPC: 1.73424 (Simulation time: 0 hr 25 min 54 sec) 
select_counter is 2891
Heartbeat CPU 0 instructions: 73000000 cycles: 40252432 heartbeat IPC: 1.72335 cumulative IPC: 1.73406 (Simulation time: 0 hr 26 min 19 sec) 
select_counter is 2812
Heartbeat CPU 0 instructions: 74000000 cycles: 40825151 heartbeat IPC: 1.74606 cumulative IPC: 1.73425 (Simulation time: 0 hr 26 min 42 sec) 
select_counter is 2725
Heartbeat CPU 0 instructions: 75000000 cycles: 41467207 heartbeat IPC: 1.5575 cumulative IPC: 1.73123 (Simulation time: 0 hr 27 min 7 sec) 
select_counter is 2659
Heartbeat CPU 0 instructions: 76000000 cycles: 42066899 heartbeat IPC: 1.66752 cumulative IPC: 1.73023 (Simulation time: 0 hr 27 min 27 sec) 
select_counter is 2627
Heartbeat CPU 0 instructions: 77000003 cycles: 42666379 heartbeat IPC: 1.66812 cumulative IPC: 1.72926 (Simulation time: 0 hr 27 min 52 sec) 
select_counter is 2571
Heartbeat CPU 0 instructions: 78000002 cycles: 43262318 heartbeat IPC: 1.67802 cumulative IPC: 1.72849 (Simulation time: 0 hr 28 min 14 sec) 
select_counter is 2539
Heartbeat CPU 0 instructions: 79000001 cycles: 43849578 heartbeat IPC: 1.70282 cumulative IPC: 1.72811 (Simulation time: 0 hr 28 min 40 sec) 
select_counter is 2507
Heartbeat CPU 0 instructions: 80000000 cycles: 44443765 heartbeat IPC: 1.68297 cumulative IPC: 1.72745 (Simulation time: 0 hr 28 min 59 sec) 
select_counter is 2472
Heartbeat CPU 0 instructions: 81000001 cycles: 45034206 heartbeat IPC: 1.69365 cumulative IPC: 1.72696 (Simulation time: 0 hr 29 min 19 sec) 
select_counter is 2420
Heartbeat CPU 0 instructions: 82000001 cycles: 45614901 heartbeat IPC: 1.72207 cumulative IPC: 1.7269 (Simulation time: 0 hr 29 min 40 sec) 
select_counter is 2362
Heartbeat CPU 0 instructions: 83000003 cycles: 46197020 heartbeat IPC: 1.71787 cumulative IPC: 1.72677 (Simulation time: 0 hr 30 min 5 sec) 
select_counter is 2291
Heartbeat CPU 0 instructions: 84000000 cycles: 46817483 heartbeat IPC: 1.61169 cumulative IPC: 1.72511 (Simulation time: 0 hr 30 min 28 sec) 
select_counter is 2250
Heartbeat CPU 0 instructions: 85000002 cycles: 47366740 heartbeat IPC: 1.82064 cumulative IPC: 1.72631 (Simulation time: 0 hr 30 min 49 sec) 
select_counter is 2208
Heartbeat CPU 0 instructions: 86000001 cycles: 48083530 heartbeat IPC: 1.39511 cumulative IPC: 1.72094 (Simulation time: 0 hr 31 min 15 sec) 
select_counter is 2173
Heartbeat CPU 0 instructions: 87000003 cycles: 48673738 heartbeat IPC: 1.69432 cumulative IPC: 1.72059 (Simulation time: 0 hr 31 min 37 sec) 
select_counter is 2120
Heartbeat CPU 0 instructions: 88000000 cycles: 49143311 heartbeat IPC: 2.12959 cumulative IPC: 1.72483 (Simulation time: 0 hr 31 min 58 sec) 
select_counter is 2095
Heartbeat CPU 0 instructions: 89000000 cycles: 49609290 heartbeat IPC: 2.14602 cumulative IPC: 1.72913 (Simulation time: 0 hr 32 min 17 sec) 
select_counter is 2054
Heartbeat CPU 0 instructions: 90000001 cycles: 50080288 heartbeat IPC: 2.12315 cumulative IPC: 1.73315 (Simulation time: 0 hr 32 min 38 sec) 
select_counter is 2005
Heartbeat CPU 0 instructions: 91000002 cycles: 50636731 heartbeat IPC: 1.79713 cumulative IPC: 1.73391 (Simulation time: 0 hr 33 min 1 sec) 
select_counter is 1952
Heartbeat CPU 0 instructions: 92000000 cycles: 51174784 heartbeat IPC: 1.85855 cumulative IPC: 1.73533 (Simulation time: 0 hr 33 min 22 sec) 
select_counter is 1877
Heartbeat CPU 0 instructions: 93000000 cycles: 51715362 heartbeat IPC: 1.84987 cumulative IPC: 1.73663 (Simulation time: 0 hr 33 min 45 sec) 
select_counter is 1787
Heartbeat CPU 0 instructions: 94000003 cycles: 52236566 heartbeat IPC: 1.91864 cumulative IPC: 1.73859 (Simulation time: 0 hr 34 min 4 sec) 
select_counter is 1688
Heartbeat CPU 0 instructions: 95000003 cycles: 52795012 heartbeat IPC: 1.79068 cumulative IPC: 1.73919 (Simulation time: 0 hr 34 min 24 sec) 
select_counter is 1632
Heartbeat CPU 0 instructions: 96000000 cycles: 53279222 heartbeat IPC: 2.06521 cumulative IPC: 1.74238 (Simulation time: 0 hr 34 min 49 sec) 
select_counter is 1622
Heartbeat CPU 0 instructions: 97000002 cycles: 53780614 heartbeat IPC: 1.99445 cumulative IPC: 1.74492 (Simulation time: 0 hr 35 min 14 sec) 
select_counter is 1571
Heartbeat CPU 0 instructions: 98000001 cycles: 54258592 heartbeat IPC: 2.09214 cumulative IPC: 1.74822 (Simulation time: 0 hr 35 min 34 sec) 
select_counter is 1537
Heartbeat CPU 0 instructions: 99000001 cycles: 54813122 heartbeat IPC: 1.80333 cumulative IPC: 1.74882 (Simulation time: 0 hr 35 min 56 sec) 
select_counter is 1482
Heartbeat CPU 0 instructions: 100000000 cycles: 55311993 heartbeat IPC: 2.00452 cumulative IPC: 1.7513 (Simulation time: 0 hr 36 min 19 sec) 
select_counter is 1441
Heartbeat CPU 0 instructions: 101000001 cycles: 55810107 heartbeat IPC: 2.00757 cumulative IPC: 1.75376 (Simulation time: 0 hr 36 min 40 sec) 
select_counter is 1392
Heartbeat CPU 0 instructions: 102000003 cycles: 56287738 heartbeat IPC: 2.09367 cumulative IPC: 1.75686 (Simulation time: 0 hr 37 min 6 sec) 
select_counter is 1344
Heartbeat CPU 0 instructions: 103000003 cycles: 56830539 heartbeat IPC: 1.8423 cumulative IPC: 1.75774 (Simulation time: 0 hr 37 min 29 sec) 
select_counter is 1275
Heartbeat CPU 0 instructions: 104000000 cycles: 57391344 heartbeat IPC: 1.78315 cumulative IPC: 1.758 (Simulation time: 0 hr 37 min 50 sec) 
select_counter is 1244
Heartbeat CPU 0 instructions: 105000001 cycles: 57819961 heartbeat IPC: 2.33309 cumulative IPC: 1.76258 (Simulation time: 0 hr 38 min 10 sec) 
select_counter is 1229
Heartbeat CPU 0 instructions: 106000002 cycles: 58269513 heartbeat IPC: 2.22444 cumulative IPC: 1.7664 (Simulation time: 0 hr 38 min 28 sec) 
select_counter is 1215
Heartbeat CPU 0 instructions: 107000001 cycles: 58724760 heartbeat IPC: 2.19661 cumulative IPC: 1.76997 (Simulation time: 0 hr 38 min 50 sec) 
select_counter is 1208
Heartbeat CPU 0 instructions: 108000000 cycles: 59144707 heartbeat IPC: 2.38125 cumulative IPC: 1.77462 (Simulation time: 0 hr 39 min 13 sec) 
select_counter is 1197
Heartbeat CPU 0 instructions: 109000000 cycles: 59625175 heartbeat IPC: 2.0813 cumulative IPC: 1.77726 (Simulation time: 0 hr 39 min 35 sec) 
select_counter is 1184
Heartbeat CPU 0 instructions: 110000000 cycles: 60044962 heartbeat IPC: 2.38216 cumulative IPC: 1.78179 (Simulation time: 0 hr 39 min 58 sec) 
select_counter is 1177
Finished CPU 0 instructions: 100000000 cycles: 56123385 cummulative IPC: 1.78179 (Simulation time: 0 hr 39 min 58 sec) 

ChampSim completed all CPUs

Region of Interest Statistics

CPU 0 cummulative IPC: 1.78179 instructions: 100000000 cycles: 56123385
LLC TOTAL     ACCESS:     865118  HIT:     275875  MISS:     589243
LLC LOAD      ACCESS:     110514  HIT:      90309  MISS:      20205
LLC RFO       ACCESS:        412  HIT:        403  MISS:          9
LLC PREFETCH  ACCESS:     655881  HIT:     118577  MISS:     537304
LLC WRITEBACK ACCESS:      98311  HIT:      66586  MISS:      31725
Ship samples: 
19, 53, 71, 121, 146, 175, 195, 252, 263, 288, 340, 381, 392, 417, 458, 502, 525, 559, 607, 621, 662, 699, 732, 744, 774, 829, 851, 876, 913, 931, 977, 1018, 1028, 1075, 1106, 1142, 1181, 1185, 1225, 1276, 1297, 1323, 1364, 1407, 1413, 1442, 1500, 1526, 1541, 1573, 1610, 1663, 1676, 1718, 1758, 1788, 1809, 1836, 1856, 1902, 1940, 1983, 2011, 2038, 
Lime duel samples: 
13, 42, 81, 116, 153, 173, 201, 255, 270, 302, 346, 363, 401, 439, 456, 483, 542, 555, 596, 616, 658, 700, 729, 760, 771, 808, 859, 890, 923, 942, 988, 1017, 1055, 1065, 1092, 1121, 1160, 1201, 1241, 1257, 1296, 1338, 1348, 1399, 1414, 1443, 1495, 1532, 1537, 1577, 1623, 1659, 1672, 1697, 1738, 1766, 1816, 1824, 1864, 1906, 1923, 1957, 2000, 2016, 
Lime samples: 
13, 153, 270, 401, 542, 658, 771, 923, 1055, 1160, 1296, 1414, 1537, 1672, 1816, 1923, 
Insertion Distribution: 
	LOAD 1972 0 0 0 0 0 3236 2336 
	RFO 0 0 0 0 0 0 14 0 
	PREF 0 90109 0 0 0 0 74643 71848 
	WRITEBACK 0 0 0 0 0 0 0 12668 
Total Prefetch Downgrades: 5519
