
*** ChampSim Multicore Out-of-Order Simulator ***

Warmup Instructions: 10000000
Simulation Instructions: 100000000
Configuration: 2
Number of CPUs: 1
LLC sets: 2048
LLC ways: 16
Off-chip DRAM Channels: 1 Width: 64-bit Data Rate: 1600 MT/s

CPU 0 runs /datasets/cs240c-wi22-a00-public/data/Assignment2-gz/GemsFDTD_109B.trace.gz
CPU 0 L1D next line prefetcher
CPU 0 L2C IP-based stride prefetcher
Heartbeat CPU 0 instructions: 1000002 cycles: 579772 heartbeat IPC: 1.72482 cumulative IPC: 1.72482 (Simulation time: 0 hr 0 min 28 sec) 
select_counter is 1704
Heartbeat CPU 0 instructions: 2000001 cycles: 1159546 heartbeat IPC: 1.72481 cumulative IPC: 1.72481 (Simulation time: 0 hr 1 min 2 sec) 
select_counter is 1665
Heartbeat CPU 0 instructions: 3000000 cycles: 1738736 heartbeat IPC: 1.72655 cumulative IPC: 1.72539 (Simulation time: 0 hr 1 min 35 sec) 
select_counter is 1598
Heartbeat CPU 0 instructions: 4000000 cycles: 2317752 heartbeat IPC: 1.72707 cumulative IPC: 1.72581 (Simulation time: 0 hr 2 min 8 sec) 
select_counter is 1489
Heartbeat CPU 0 instructions: 5000000 cycles: 2897598 heartbeat IPC: 1.7246 cumulative IPC: 1.72557 (Simulation time: 0 hr 2 min 41 sec) 
select_counter is 1487
Heartbeat CPU 0 instructions: 6000002 cycles: 3478335 heartbeat IPC: 1.72195 cumulative IPC: 1.72496 (Simulation time: 0 hr 3 min 12 sec) 
select_counter is 1467
Heartbeat CPU 0 instructions: 7000001 cycles: 4059034 heartbeat IPC: 1.72206 cumulative IPC: 1.72455 (Simulation time: 0 hr 3 min 43 sec) 
select_counter is 1457
Heartbeat CPU 0 instructions: 8000000 cycles: 4639232 heartbeat IPC: 1.72355 cumulative IPC: 1.72442 (Simulation time: 0 hr 4 min 16 sec) 
select_counter is 1462
Heartbeat CPU 0 instructions: 9000002 cycles: 5219421 heartbeat IPC: 1.72358 cumulative IPC: 1.72433 (Simulation time: 0 hr 4 min 49 sec) 
select_counter is 1448
Heartbeat CPU 0 instructions: 10000001 cycles: 5799599 heartbeat IPC: 1.72361 cumulative IPC: 1.72426 (Simulation time: 0 hr 5 min 23 sec) 
select_counter is 1421

Warmup complete CPU 0 instructions: 10000001 cycles: 5799599 (Simulation time: 0 hr 5 min 23 sec) 

Heartbeat CPU 0 instructions: 11000002 cycles: 6861350 heartbeat IPC: 0.941841 cumulative IPC: 0.941841 (Simulation time: 0 hr 6 min 2 sec) 
select_counter is 1396
Heartbeat CPU 0 instructions: 12000000 cycles: 7924704 heartbeat IPC: 0.940419 cumulative IPC: 0.94113 (Simulation time: 0 hr 6 min 37 sec) 
select_counter is 1390
Heartbeat CPU 0 instructions: 13000001 cycles: 9022284 heartbeat IPC: 0.911096 cumulative IPC: 0.930901 (Simulation time: 0 hr 7 min 10 sec) 
select_counter is 1372
Heartbeat CPU 0 instructions: 14000002 cycles: 10096972 heartbeat IPC: 0.930504 cumulative IPC: 0.930801 (Simulation time: 0 hr 7 min 45 sec) 
select_counter is 1351
Heartbeat CPU 0 instructions: 15000000 cycles: 11178515 heartbeat IPC: 0.924603 cumulative IPC: 0.929555 (Simulation time: 0 hr 8 min 24 sec) 
select_counter is 1310
Heartbeat CPU 0 instructions: 16000000 cycles: 12252229 heartbeat IPC: 0.931347 cumulative IPC: 0.929853 (Simulation time: 0 hr 9 min 1 sec) 
select_counter is 1303
Heartbeat CPU 0 instructions: 17000000 cycles: 13350844 heartbeat IPC: 0.910237 cumulative IPC: 0.926999 (Simulation time: 0 hr 9 min 37 sec) 
select_counter is 1293
Heartbeat CPU 0 instructions: 18000003 cycles: 14414984 heartbeat IPC: 0.939729 cumulative IPC: 0.928572 (Simulation time: 0 hr 10 min 13 sec) 
select_counter is 1273
Heartbeat CPU 0 instructions: 19000001 cycles: 15498781 heartbeat IPC: 0.92268 cumulative IPC: 0.927913 (Simulation time: 0 hr 10 min 47 sec) 
select_counter is 1243
Heartbeat CPU 0 instructions: 20000000 cycles: 16738760 heartbeat IPC: 0.806464 cumulative IPC: 0.914147 (Simulation time: 0 hr 11 min 19 sec) 
select_counter is 1290
Heartbeat CPU 0 instructions: 21000001 cycles: 18050555 heartbeat IPC: 0.762315 cumulative IPC: 0.897889 (Simulation time: 0 hr 11 min 51 sec) 
select_counter is 1370
Heartbeat CPU 0 instructions: 22000001 cycles: 21496316 heartbeat IPC: 0.290212 cumulative IPC: 0.764491 (Simulation time: 0 hr 12 min 25 sec) 
select_counter is 2122
Heartbeat CPU 0 instructions: 23000001 cycles: 22762602 heartbeat IPC: 0.789711 cumulative IPC: 0.766374 (Simulation time: 0 hr 12 min 57 sec) 
select_counter is 2148
Heartbeat CPU 0 instructions: 24000000 cycles: 26391629 heartbeat IPC: 0.275556 cumulative IPC: 0.679875 (Simulation time: 0 hr 13 min 35 sec) 
select_counter is 3140
Heartbeat CPU 0 instructions: 25000003 cycles: 27638627 heartbeat IPC: 0.801928 cumulative IPC: 0.686844 (Simulation time: 0 hr 14 min 9 sec) 
select_counter is 3149
Heartbeat CPU 0 instructions: 26000000 cycles: 31324871 heartbeat IPC: 0.271278 cumulative IPC: 0.62683 (Simulation time: 0 hr 14 min 50 sec) 
select_counter is 4039
Heartbeat CPU 0 instructions: 27000000 cycles: 32539586 heartbeat IPC: 0.823238 cumulative IPC: 0.635752 (Simulation time: 0 hr 15 min 21 sec) 
select_counter is 4042
Heartbeat CPU 0 instructions: 28000000 cycles: 36085081 heartbeat IPC: 0.282048 cumulative IPC: 0.594344 (Simulation time: 0 hr 15 min 57 sec) 
select_counter is 4046
Heartbeat CPU 0 instructions: 29000000 cycles: 37305226 heartbeat IPC: 0.819575 cumulative IPC: 0.603067 (Simulation time: 0 hr 16 min 29 sec) 
select_counter is 4048
Heartbeat CPU 0 instructions: 30000003 cycles: 38653858 heartbeat IPC: 0.741494 cumulative IPC: 0.608749 (Simulation time: 0 hr 16 min 56 sec) 
select_counter is 3961
Heartbeat CPU 0 instructions: 31000002 cycles: 39820443 heartbeat IPC: 0.857202 cumulative IPC: 0.617269 (Simulation time: 0 hr 17 min 31 sec) 
select_counter is 3958
Heartbeat CPU 0 instructions: 32000000 cycles: 41130960 heartbeat IPC: 0.763056 cumulative IPC: 0.622676 (Simulation time: 0 hr 17 min 59 sec) 
select_counter is 3873
Heartbeat CPU 0 instructions: 33000003 cycles: 42293404 heartbeat IPC: 0.860259 cumulative IPC: 0.630244 (Simulation time: 0 hr 18 min 30 sec) 
select_counter is 3873
Heartbeat CPU 0 instructions: 34000002 cycles: 43616423 heartbeat IPC: 0.755846 cumulative IPC: 0.634638 (Simulation time: 0 hr 18 min 59 sec) 
select_counter is 3745
Heartbeat CPU 0 instructions: 35000003 cycles: 44797301 heartbeat IPC: 0.846828 cumulative IPC: 0.641063 (Simulation time: 0 hr 19 min 32 sec) 
select_counter is 3745
Heartbeat CPU 0 instructions: 36000000 cycles: 46163123 heartbeat IPC: 0.732158 cumulative IPC: 0.644146 (Simulation time: 0 hr 20 min 1 sec) 
select_counter is 3601
Heartbeat CPU 0 instructions: 37000000 cycles: 47492619 heartbeat IPC: 0.752165 cumulative IPC: 0.64759 (Simulation time: 0 hr 20 min 35 sec) 
select_counter is 3601
Heartbeat CPU 0 instructions: 38000001 cycles: 48822157 heartbeat IPC: 0.752142 cumulative IPC: 0.650821 (Simulation time: 0 hr 21 min 10 sec) 
select_counter is 3601
Heartbeat CPU 0 instructions: 39000000 cycles: 50151546 heartbeat IPC: 0.752225 cumulative IPC: 0.653861 (Simulation time: 0 hr 21 min 48 sec) 
select_counter is 3601
Heartbeat CPU 0 instructions: 40000000 cycles: 51481086 heartbeat IPC: 0.75214 cumulative IPC: 0.656721 (Simulation time: 0 hr 22 min 22 sec) 
select_counter is 3601
Heartbeat CPU 0 instructions: 41000000 cycles: 52750304 heartbeat IPC: 0.787887 cumulative IPC: 0.660267 (Simulation time: 0 hr 22 min 55 sec) 
select_counter is 3482
Heartbeat CPU 0 instructions: 42000000 cycles: 54079785 heartbeat IPC: 0.752173 cumulative IPC: 0.662798 (Simulation time: 0 hr 23 min 29 sec) 
select_counter is 3482
Heartbeat CPU 0 instructions: 43000002 cycles: 55409454 heartbeat IPC: 0.752068 cumulative IPC: 0.66519 (Simulation time: 0 hr 24 min 1 sec) 
select_counter is 3482
Heartbeat CPU 0 instructions: 44000000 cycles: 56738955 heartbeat IPC: 0.75216 cumulative IPC: 0.66746 (Simulation time: 0 hr 24 min 35 sec) 
select_counter is 3482
Heartbeat CPU 0 instructions: 45000001 cycles: 58068280 heartbeat IPC: 0.752262 cumulative IPC: 0.669617 (Simulation time: 0 hr 25 min 9 sec) 
select_counter is 3482
Heartbeat CPU 0 instructions: 46000003 cycles: 59441281 heartbeat IPC: 0.728333 cumulative IPC: 0.67112 (Simulation time: 0 hr 25 min 42 sec) 
select_counter is 3431
Heartbeat CPU 0 instructions: 47000001 cycles: 60567595 heartbeat IPC: 0.88785 cumulative IPC: 0.675577 (Simulation time: 0 hr 26 min 9 sec) 
select_counter is 3269
Heartbeat CPU 0 instructions: 48000000 cycles: 61944465 heartbeat IPC: 0.726284 cumulative IPC: 0.676821 (Simulation time: 0 hr 26 min 38 sec) 
select_counter is 3031
Heartbeat CPU 0 instructions: 49000003 cycles: 71543800 heartbeat IPC: 0.104174 cumulative IPC: 0.593208 (Simulation time: 0 hr 27 min 42 sec) 
select_counter is 3973
Heartbeat CPU 0 instructions: 50000001 cycles: 73372629 heartbeat IPC: 0.546797 cumulative IPC: 0.591952 (Simulation time: 0 hr 28 min 19 sec) 
select_counter is 3634
Heartbeat CPU 0 instructions: 51000000 cycles: 75008664 heartbeat IPC: 0.611233 cumulative IPC: 0.592408 (Simulation time: 0 hr 28 min 55 sec) 
select_counter is 3483
Heartbeat CPU 0 instructions: 52000000 cycles: 76637149 heartbeat IPC: 0.614068 cumulative IPC: 0.592906 (Simulation time: 0 hr 29 min 29 sec) 
select_counter is 3410
Heartbeat CPU 0 instructions: 53000000 cycles: 78250854 heartbeat IPC: 0.619692 cumulative IPC: 0.593502 (Simulation time: 0 hr 30 min 8 sec) 
select_counter is 3351
Heartbeat CPU 0 instructions: 54000000 cycles: 79879127 heartbeat IPC: 0.614148 cumulative IPC: 0.593956 (Simulation time: 0 hr 30 min 41 sec) 
select_counter is 3332
Heartbeat CPU 0 instructions: 55000001 cycles: 81471253 heartbeat IPC: 0.628092 cumulative IPC: 0.594674 (Simulation time: 0 hr 31 min 6 sec) 
select_counter is 3309
Heartbeat CPU 0 instructions: 56000000 cycles: 83076232 heartbeat IPC: 0.62306 cumulative IPC: 0.595264 (Simulation time: 0 hr 31 min 30 sec) 
select_counter is 3315
Heartbeat CPU 0 instructions: 57000002 cycles: 84692966 heartbeat IPC: 0.618532 cumulative IPC: 0.595741 (Simulation time: 0 hr 31 min 57 sec) 
select_counter is 3328
Heartbeat CPU 0 instructions: 58000003 cycles: 86304747 heartbeat IPC: 0.620432 cumulative IPC: 0.596235 (Simulation time: 0 hr 32 min 25 sec) 
select_counter is 3293
Heartbeat CPU 0 instructions: 59000001 cycles: 87915747 heartbeat IPC: 0.620731 cumulative IPC: 0.596716 (Simulation time: 0 hr 32 min 50 sec) 
select_counter is 3278
Heartbeat CPU 0 instructions: 60000000 cycles: 89543245 heartbeat IPC: 0.614439 cumulative IPC: 0.59706 (Simulation time: 0 hr 33 min 20 sec) 
select_counter is 3268
Heartbeat CPU 0 instructions: 61000000 cycles: 91131114 heartbeat IPC: 0.629775 cumulative IPC: 0.597669 (Simulation time: 0 hr 33 min 47 sec) 
select_counter is 3257
Heartbeat CPU 0 instructions: 62000003 cycles: 92715660 heartbeat IPC: 0.631097 cumulative IPC: 0.598278 (Simulation time: 0 hr 34 min 15 sec) 
select_counter is 3217
Heartbeat CPU 0 instructions: 63000000 cycles: 94320804 heartbeat IPC: 0.622995 cumulative IPC: 0.598727 (Simulation time: 0 hr 34 min 42 sec) 
select_counter is 3221
Heartbeat CPU 0 instructions: 64000000 cycles: 95937727 heartbeat IPC: 0.618459 cumulative IPC: 0.599081 (Simulation time: 0 hr 35 min 8 sec) 
select_counter is 3213
Heartbeat CPU 0 instructions: 65000003 cycles: 97571367 heartbeat IPC: 0.612132 cumulative IPC: 0.599313 (Simulation time: 0 hr 35 min 34 sec) 
select_counter is 3211
Heartbeat CPU 0 instructions: 66000001 cycles: 99207909 heartbeat IPC: 0.611043 cumulative IPC: 0.599518 (Simulation time: 0 hr 36 min 2 sec) 
select_counter is 3160
Heartbeat CPU 0 instructions: 67000000 cycles: 100816747 heartbeat IPC: 0.621566 cumulative IPC: 0.599892 (Simulation time: 0 hr 36 min 28 sec) 
select_counter is 3110
Heartbeat CPU 0 instructions: 68000000 cycles: 102436592 heartbeat IPC: 0.617343 cumulative IPC: 0.600184 (Simulation time: 0 hr 36 min 55 sec) 
select_counter is 3077
Heartbeat CPU 0 instructions: 69000000 cycles: 104044678 heartbeat IPC: 0.621857 cumulative IPC: 0.600539 (Simulation time: 0 hr 37 min 21 sec) 
select_counter is 3034
Heartbeat CPU 0 instructions: 70000003 cycles: 105624327 heartbeat IPC: 0.633054 cumulative IPC: 0.601053 (Simulation time: 0 hr 37 min 48 sec) 
select_counter is 3031
Heartbeat CPU 0 instructions: 71000000 cycles: 107249212 heartbeat IPC: 0.615426 cumulative IPC: 0.601284 (Simulation time: 0 hr 38 min 15 sec) 
select_counter is 2993
Heartbeat CPU 0 instructions: 72000000 cycles: 108846137 heartbeat IPC: 0.626203 cumulative IPC: 0.60167 (Simulation time: 0 hr 38 min 42 sec) 
select_counter is 2994
Heartbeat CPU 0 instructions: 73000002 cycles: 110471166 heartbeat IPC: 0.615375 cumulative IPC: 0.601883 (Simulation time: 0 hr 39 min 7 sec) 
select_counter is 2990
Heartbeat CPU 0 instructions: 74000000 cycles: 112106369 heartbeat IPC: 0.611544 cumulative IPC: 0.602031 (Simulation time: 0 hr 39 min 36 sec) 
select_counter is 2972
Heartbeat CPU 0 instructions: 75000000 cycles: 113735996 heartbeat IPC: 0.613637 cumulative IPC: 0.602206 (Simulation time: 0 hr 40 min 2 sec) 
select_counter is 2928
Heartbeat CPU 0 instructions: 76000000 cycles: 115329980 heartbeat IPC: 0.627359 cumulative IPC: 0.602573 (Simulation time: 0 hr 40 min 26 sec) 
select_counter is 2939
Heartbeat CPU 0 instructions: 77000003 cycles: 116957542 heartbeat IPC: 0.614418 cumulative IPC: 0.602746 (Simulation time: 0 hr 40 min 51 sec) 
select_counter is 2940
Heartbeat CPU 0 instructions: 78000001 cycles: 118570123 heartbeat IPC: 0.620123 cumulative IPC: 0.602994 (Simulation time: 0 hr 41 min 16 sec) 
select_counter is 2924
Heartbeat CPU 0 instructions: 79000001 cycles: 120161554 heartbeat IPC: 0.628365 cumulative IPC: 0.603347 (Simulation time: 0 hr 41 min 41 sec) 
select_counter is 2901
Heartbeat CPU 0 instructions: 80000000 cycles: 121765641 heartbeat IPC: 0.623407 cumulative IPC: 0.603625 (Simulation time: 0 hr 42 min 5 sec) 
select_counter is 2883
Heartbeat CPU 0 instructions: 81000001 cycles: 123369310 heartbeat IPC: 0.623571 cumulative IPC: 0.603897 (Simulation time: 0 hr 42 min 31 sec) 
select_counter is 2878
Heartbeat CPU 0 instructions: 82000000 cycles: 124976757 heartbeat IPC: 0.622104 cumulative IPC: 0.604143 (Simulation time: 0 hr 42 min 55 sec) 
select_counter is 2868
Heartbeat CPU 0 instructions: 83000003 cycles: 126575703 heartbeat IPC: 0.625414 cumulative IPC: 0.604424 (Simulation time: 0 hr 43 min 23 sec) 
select_counter is 2843
Heartbeat CPU 0 instructions: 84000000 cycles: 128179314 heartbeat IPC: 0.623591 cumulative IPC: 0.604675 (Simulation time: 0 hr 43 min 47 sec) 
select_counter is 2855
Heartbeat CPU 0 instructions: 85000001 cycles: 129796800 heartbeat IPC: 0.618244 cumulative IPC: 0.604852 (Simulation time: 0 hr 44 min 13 sec) 
select_counter is 2827
Heartbeat CPU 0 instructions: 86000001 cycles: 131417505 heartbeat IPC: 0.617015 cumulative IPC: 0.605009 (Simulation time: 0 hr 44 min 37 sec) 
select_counter is 2860
Heartbeat CPU 0 instructions: 87000002 cycles: 133028428 heartbeat IPC: 0.620763 cumulative IPC: 0.605209 (Simulation time: 0 hr 45 min 0 sec) 
select_counter is 2863
Heartbeat CPU 0 instructions: 88000000 cycles: 134658348 heartbeat IPC: 0.613526 cumulative IPC: 0.605314 (Simulation time: 0 hr 45 min 23 sec) 
select_counter is 2830
Heartbeat CPU 0 instructions: 89000003 cycles: 136298487 heartbeat IPC: 0.609706 cumulative IPC: 0.605369 (Simulation time: 0 hr 45 min 45 sec) 
select_counter is 2811
Heartbeat CPU 0 instructions: 90000000 cycles: 137946058 heartbeat IPC: 0.606952 cumulative IPC: 0.605389 (Simulation time: 0 hr 46 min 8 sec) 
select_counter is 2795
Heartbeat CPU 0 instructions: 91000000 cycles: 139589920 heartbeat IPC: 0.608324 cumulative IPC: 0.605425 (Simulation time: 0 hr 46 min 29 sec) 
select_counter is 2774
Heartbeat CPU 0 instructions: 92000000 cycles: 141210201 heartbeat IPC: 0.617177 cumulative IPC: 0.605566 (Simulation time: 0 hr 46 min 49 sec) 
select_counter is 2738
Heartbeat CPU 0 instructions: 93000001 cycles: 142839969 heartbeat IPC: 0.613585 cumulative IPC: 0.605661 (Simulation time: 0 hr 47 min 9 sec) 
select_counter is 2729
Heartbeat CPU 0 instructions: 94000003 cycles: 144445483 heartbeat IPC: 0.622855 cumulative IPC: 0.60586 (Simulation time: 0 hr 47 min 28 sec) 
select_counter is 2730
Heartbeat CPU 0 instructions: 95000000 cycles: 146036251 heartbeat IPC: 0.628625 cumulative IPC: 0.606118 (Simulation time: 0 hr 47 min 48 sec) 
select_counter is 2766
Heartbeat CPU 0 instructions: 96000000 cycles: 147648864 heartbeat IPC: 0.620112 cumulative IPC: 0.606277 (Simulation time: 0 hr 48 min 5 sec) 
select_counter is 2788
Heartbeat CPU 0 instructions: 97000002 cycles: 149263543 heartbeat IPC: 0.619319 cumulative IPC: 0.606424 (Simulation time: 0 hr 48 min 21 sec) 
select_counter is 2806
Heartbeat CPU 0 instructions: 98000000 cycles: 150893220 heartbeat IPC: 0.613617 cumulative IPC: 0.606505 (Simulation time: 0 hr 48 min 37 sec) 
select_counter is 2845
Heartbeat CPU 0 instructions: 99000000 cycles: 152473174 heartbeat IPC: 0.63293 cumulative IPC: 0.60679 (Simulation time: 0 hr 48 min 52 sec) 
select_counter is 2806
Heartbeat CPU 0 instructions: 100000000 cycles: 154102787 heartbeat IPC: 0.613643 cumulative IPC: 0.606865 (Simulation time: 0 hr 49 min 8 sec) 
select_counter is 2767
Heartbeat CPU 0 instructions: 101000001 cycles: 155735869 heartbeat IPC: 0.61234 cumulative IPC: 0.606925 (Simulation time: 0 hr 49 min 24 sec) 
select_counter is 2782
Heartbeat CPU 0 instructions: 102000000 cycles: 157360525 heartbeat IPC: 0.615514 cumulative IPC: 0.607017 (Simulation time: 0 hr 49 min 40 sec) 
select_counter is 2781
Heartbeat CPU 0 instructions: 103000000 cycles: 158970678 heartbeat IPC: 0.621059 cumulative IPC: 0.607164 (Simulation time: 0 hr 49 min 55 sec) 
select_counter is 2737
Heartbeat CPU 0 instructions: 104000000 cycles: 160590861 heartbeat IPC: 0.617214 cumulative IPC: 0.607269 (Simulation time: 0 hr 50 min 10 sec) 
select_counter is 2760
Heartbeat CPU 0 instructions: 105000000 cycles: 162223284 heartbeat IPC: 0.612586 cumulative IPC: 0.607325 (Simulation time: 0 hr 50 min 25 sec) 
select_counter is 2730
Heartbeat CPU 0 instructions: 106000001 cycles: 163844413 heartbeat IPC: 0.616855 cumulative IPC: 0.607423 (Simulation time: 0 hr 50 min 39 sec) 
select_counter is 2715
Heartbeat CPU 0 instructions: 107000001 cycles: 165472763 heartbeat IPC: 0.614119 cumulative IPC: 0.607491 (Simulation time: 0 hr 50 min 52 sec) 
select_counter is 2725
Heartbeat CPU 0 instructions: 108000000 cycles: 167100418 heartbeat IPC: 0.61438 cumulative IPC: 0.60756 (Simulation time: 0 hr 51 min 6 sec) 
select_counter is 2741
Heartbeat CPU 0 instructions: 109000003 cycles: 168679767 heartbeat IPC: 0.633174 cumulative IPC: 0.607809 (Simulation time: 0 hr 51 min 19 sec) 
select_counter is 2719
Heartbeat CPU 0 instructions: 110000002 cycles: 170284899 heartbeat IPC: 0.623001 cumulative IPC: 0.607957 (Simulation time: 0 hr 51 min 32 sec) 
select_counter is 2675
Finished CPU 0 instructions: 100000001 cycles: 164485300 cummulative IPC: 0.607957 (Simulation time: 0 hr 51 min 32 sec) 

ChampSim completed all CPUs

Region of Interest Statistics

CPU 0 cummulative IPC: 0.607957 instructions: 100000001 cycles: 164485300
LLC TOTAL     ACCESS:    4812475  HIT:     577454  MISS:    4235021
LLC LOAD      ACCESS:     462188  HIT:      32332  MISS:     429856
LLC RFO       ACCESS:     126471  HIT:      98898  MISS:      27573
LLC PREFETCH  ACCESS:    2859528  HIT:     103349  MISS:    2756179
LLC WRITEBACK ACCESS:    1364288  HIT:     342875  MISS:    1021413
Ship samples: 
7, 56, 82, 125, 142, 187, 193, 254, 280, 305, 324, 361, 400, 442, 473, 510, 543, 555, 594, 615, 663, 680, 709, 764, 774, 824, 851, 869, 913, 955, 966, 995, 1038, 1086, 1098, 1134, 1159, 1209, 1244, 1257, 1283, 1324, 1348, 1402, 1425, 1440, 1486, 1533, 1554, 1598, 1600, 1661, 1666, 1716, 1740, 1760, 1823, 1830, 1886, 1913, 1941, 1958, 2013, 2016, 
Lime duel samples: 
12, 63, 86, 121, 144, 186, 219, 226, 259, 288, 347, 358, 410, 431, 471, 487, 536, 565, 600, 635, 653, 674, 728, 742, 797, 813, 842, 866, 899, 959, 971, 1017, 1029, 1070, 1089, 1125, 1153, 1206, 1228, 1269, 1282, 1314, 1366, 1393, 1429, 1461, 1495, 1508, 1565, 1595, 1628, 1644, 1671, 1719, 1758, 1789, 1807, 1836, 1859, 1888, 1935, 1977, 1987, 2019, 
Lime samples: 
12, 144, 259, 410, 536, 653, 797, 899, 1029, 1153, 1282, 1429, 1565, 1671, 1807, 1935, 
Insertion Distribution: 
	LOAD 956 0 0 0 0 0 11691 54164 
	RFO 1 0 0 0 0 0 3365 5745 
	PREF 0 259 0 0 0 0 46125 520699 
	WRITEBACK 0 0 0 0 0 0 0 305301 
Total Prefetch Downgrades: 606
