
*** ChampSim Multicore Out-of-Order Simulator ***

Warmup Instructions: 10000000
Simulation Instructions: 100000000
Configuration: 2
Number of CPUs: 1
LLC sets: 2048
LLC ways: 16
Off-chip DRAM Channels: 1 Width: 64-bit Data Rate: 1600 MT/s

CPU 0 runs /datasets/cs240c-wi22-a00-public/data/Assignment2-gz/omnetpp_17B.trace.gz
CPU 0 L1D next line prefetcher
CPU 0 L2C IP-based stride prefetcher
Heartbeat CPU 0 instructions: 1000000 cycles: 559587 heartbeat IPC: 1.78703 cumulative IPC: 1.78703 (Simulation time: 0 hr 0 min 23 sec) 
select_counter is 2174
Heartbeat CPU 0 instructions: 2000002 cycles: 1133563 heartbeat IPC: 1.74224 cumulative IPC: 1.76435 (Simulation time: 0 hr 0 min 48 sec) 
select_counter is 2168
Heartbeat CPU 0 instructions: 3000001 cycles: 1768952 heartbeat IPC: 1.57384 cumulative IPC: 1.69592 (Simulation time: 0 hr 1 min 9 sec) 
select_counter is 2226
Heartbeat CPU 0 instructions: 4000000 cycles: 2333694 heartbeat IPC: 1.77072 cumulative IPC: 1.71402 (Simulation time: 0 hr 1 min 33 sec) 
select_counter is 2383
Heartbeat CPU 0 instructions: 5000002 cycles: 2892638 heartbeat IPC: 1.78909 cumulative IPC: 1.72853 (Simulation time: 0 hr 2 min 0 sec) 
select_counter is 2481
Heartbeat CPU 0 instructions: 6000000 cycles: 3471162 heartbeat IPC: 1.72853 cumulative IPC: 1.72853 (Simulation time: 0 hr 2 min 23 sec) 
select_counter is 2364
Heartbeat CPU 0 instructions: 7000000 cycles: 4035454 heartbeat IPC: 1.77213 cumulative IPC: 1.73463 (Simulation time: 0 hr 2 min 47 sec) 
select_counter is 2557
Heartbeat CPU 0 instructions: 8000000 cycles: 4697187 heartbeat IPC: 1.51118 cumulative IPC: 1.70315 (Simulation time: 0 hr 3 min 11 sec) 
select_counter is 2558
Heartbeat CPU 0 instructions: 9000000 cycles: 5358992 heartbeat IPC: 1.51102 cumulative IPC: 1.67942 (Simulation time: 0 hr 3 min 35 sec) 
select_counter is 2559
Heartbeat CPU 0 instructions: 10000001 cycles: 6020561 heartbeat IPC: 1.51156 cumulative IPC: 1.66097 (Simulation time: 0 hr 3 min 55 sec) 
select_counter is 2558

Warmup complete CPU 0 instructions: 10000001 cycles: 6020561 (Simulation time: 0 hr 3 min 55 sec) 

Heartbeat CPU 0 instructions: 11000001 cycles: 7065377 heartbeat IPC: 0.957106 cumulative IPC: 0.957106 (Simulation time: 0 hr 4 min 18 sec) 
select_counter is 2562
Heartbeat CPU 0 instructions: 12000000 cycles: 8109920 heartbeat IPC: 0.957355 cumulative IPC: 0.957231 (Simulation time: 0 hr 4 min 40 sec) 
select_counter is 2564
Heartbeat CPU 0 instructions: 13000000 cycles: 9179832 heartbeat IPC: 0.934656 cumulative IPC: 0.949586 (Simulation time: 0 hr 5 min 4 sec) 
select_counter is 2561
Heartbeat CPU 0 instructions: 14000001 cycles: 10224083 heartbeat IPC: 0.957625 cumulative IPC: 0.951583 (Simulation time: 0 hr 5 min 28 sec) 
select_counter is 2560
Heartbeat CPU 0 instructions: 15000000 cycles: 11268291 heartbeat IPC: 0.957663 cumulative IPC: 0.952793 (Simulation time: 0 hr 5 min 51 sec) 
select_counter is 2560
Heartbeat CPU 0 instructions: 16000000 cycles: 12312458 heartbeat IPC: 0.957701 cumulative IPC: 0.953607 (Simulation time: 0 hr 6 min 13 sec) 
select_counter is 2559
Heartbeat CPU 0 instructions: 17000000 cycles: 13357995 heartbeat IPC: 0.956446 cumulative IPC: 0.954012 (Simulation time: 0 hr 6 min 36 sec) 
select_counter is 2559
Heartbeat CPU 0 instructions: 18000001 cycles: 14399339 heartbeat IPC: 0.960298 cumulative IPC: 0.954793 (Simulation time: 0 hr 6 min 57 sec) 
select_counter is 2558
Heartbeat CPU 0 instructions: 19000002 cycles: 15434149 heartbeat IPC: 0.966362 cumulative IPC: 0.956065 (Simulation time: 0 hr 7 min 19 sec) 
select_counter is 2554
Heartbeat CPU 0 instructions: 20000000 cycles: 18787113 heartbeat IPC: 0.298243 cumulative IPC: 0.783297 (Simulation time: 0 hr 7 min 49 sec) 
select_counter is 2518
Heartbeat CPU 0 instructions: 21000000 cycles: 21305924 heartbeat IPC: 0.397013 cumulative IPC: 0.719643 (Simulation time: 0 hr 8 min 15 sec) 
select_counter is 2372
Heartbeat CPU 0 instructions: 22000002 cycles: 23129848 heartbeat IPC: 0.54827 cumulative IPC: 0.701374 (Simulation time: 0 hr 8 min 42 sec) 
select_counter is 2486
Heartbeat CPU 0 instructions: 23000000 cycles: 26435099 heartbeat IPC: 0.302548 cumulative IPC: 0.636801 (Simulation time: 0 hr 9 min 13 sec) 
select_counter is 2464
Heartbeat CPU 0 instructions: 24000000 cycles: 29745335 heartbeat IPC: 0.302093 cumulative IPC: 0.5901 (Simulation time: 0 hr 9 min 40 sec) 
select_counter is 2428
Heartbeat CPU 0 instructions: 25000001 cycles: 32419531 heartbeat IPC: 0.373945 cumulative IPC: 0.568204 (Simulation time: 0 hr 10 min 4 sec) 
select_counter is 2333
Heartbeat CPU 0 instructions: 26000001 cycles: 34084913 heartbeat IPC: 0.600463 cumulative IPC: 0.570118 (Simulation time: 0 hr 10 min 26 sec) 
select_counter is 2370
Heartbeat CPU 0 instructions: 27000000 cycles: 37393819 heartbeat IPC: 0.302214 cumulative IPC: 0.541863 (Simulation time: 0 hr 10 min 56 sec) 
select_counter is 2303
Heartbeat CPU 0 instructions: 28000000 cycles: 40705758 heartbeat IPC: 0.301938 cumulative IPC: 0.518953 (Simulation time: 0 hr 11 min 26 sec) 
select_counter is 2239
Heartbeat CPU 0 instructions: 29000000 cycles: 43558310 heartbeat IPC: 0.350563 cumulative IPC: 0.506157 (Simulation time: 0 hr 11 min 59 sec) 
select_counter is 2169
Heartbeat CPU 0 instructions: 30000000 cycles: 45052538 heartbeat IPC: 0.669242 cumulative IPC: 0.5124 (Simulation time: 0 hr 12 min 23 sec) 
select_counter is 2174
Heartbeat CPU 0 instructions: 31000000 cycles: 48354373 heartbeat IPC: 0.302862 cumulative IPC: 0.496057 (Simulation time: 0 hr 12 min 49 sec) 
select_counter is 2117
Heartbeat CPU 0 instructions: 32000000 cycles: 51624562 heartbeat IPC: 0.305793 cumulative IPC: 0.482414 (Simulation time: 0 hr 13 min 17 sec) 
select_counter is 2117
Heartbeat CPU 0 instructions: 33000001 cycles: 54618738 heartbeat IPC: 0.333982 cumulative IPC: 0.473269 (Simulation time: 0 hr 13 min 44 sec) 
select_counter is 2083
Heartbeat CPU 0 instructions: 34000000 cycles: 55914229 heartbeat IPC: 0.771907 cumulative IPC: 0.481023 (Simulation time: 0 hr 14 min 4 sec) 
select_counter is 2105
Heartbeat CPU 0 instructions: 35000003 cycles: 59135252 heartbeat IPC: 0.310461 cumulative IPC: 0.47068 (Simulation time: 0 hr 14 min 34 sec) 
select_counter is 2113
Heartbeat CPU 0 instructions: 36000000 cycles: 62398106 heartbeat IPC: 0.306479 cumulative IPC: 0.461177 (Simulation time: 0 hr 15 min 4 sec) 
select_counter is 2114
Heartbeat CPU 0 instructions: 37000001 cycles: 65252768 heartbeat IPC: 0.350305 cumulative IPC: 0.455833 (Simulation time: 0 hr 15 min 28 sec) 
select_counter is 2090
Heartbeat CPU 0 instructions: 38000000 cycles: 66663302 heartbeat IPC: 0.708951 cumulative IPC: 0.461721 (Simulation time: 0 hr 15 min 50 sec) 
select_counter is 2116
Heartbeat CPU 0 instructions: 39000000 cycles: 69900483 heartbeat IPC: 0.308911 cumulative IPC: 0.453977 (Simulation time: 0 hr 16 min 24 sec) 
select_counter is 2113
Heartbeat CPU 0 instructions: 40000000 cycles: 73134661 heartbeat IPC: 0.309198 cumulative IPC: 0.447 (Simulation time: 0 hr 16 min 55 sec) 
select_counter is 2111
Heartbeat CPU 0 instructions: 41000002 cycles: 75897810 heartbeat IPC: 0.361907 cumulative IPC: 0.443635 (Simulation time: 0 hr 17 min 22 sec) 
select_counter is 2070
Heartbeat CPU 0 instructions: 42000000 cycles: 77400176 heartbeat IPC: 0.665615 cumulative IPC: 0.448307 (Simulation time: 0 hr 17 min 46 sec) 
select_counter is 2104
Heartbeat CPU 0 instructions: 43000003 cycles: 82727344 heartbeat IPC: 0.187718 cumulative IPC: 0.43021 (Simulation time: 0 hr 18 min 19 sec) 
select_counter is 2110
Heartbeat CPU 0 instructions: 44000000 cycles: 83774078 heartbeat IPC: 0.95535 cumulative IPC: 0.437279 (Simulation time: 0 hr 18 min 44 sec) 
select_counter is 2110
Heartbeat CPU 0 instructions: 45000003 cycles: 84816858 heartbeat IPC: 0.958978 cumulative IPC: 0.444183 (Simulation time: 0 hr 19 min 3 sec) 
select_counter is 2114
Heartbeat CPU 0 instructions: 46000001 cycles: 85860035 heartbeat IPC: 0.958608 cumulative IPC: 0.450905 (Simulation time: 0 hr 19 min 23 sec) 
select_counter is 2112
Heartbeat CPU 0 instructions: 47000001 cycles: 86904590 heartbeat IPC: 0.957345 cumulative IPC: 0.457445 (Simulation time: 0 hr 19 min 41 sec) 
select_counter is 2113
Heartbeat CPU 0 instructions: 48000000 cycles: 87948008 heartbeat IPC: 0.958388 cumulative IPC: 0.463825 (Simulation time: 0 hr 20 min 2 sec) 
select_counter is 2113
Heartbeat CPU 0 instructions: 49000000 cycles: 88989814 heartbeat IPC: 0.959872 cumulative IPC: 0.470054 (Simulation time: 0 hr 20 min 20 sec) 
select_counter is 2115
Heartbeat CPU 0 instructions: 50000000 cycles: 90032602 heartbeat IPC: 0.958968 cumulative IPC: 0.476122 (Simulation time: 0 hr 20 min 39 sec) 
select_counter is 2114
Heartbeat CPU 0 instructions: 51000002 cycles: 91075885 heartbeat IPC: 0.958515 cumulative IPC: 0.482039 (Simulation time: 0 hr 21 min 2 sec) 
select_counter is 2115
Heartbeat CPU 0 instructions: 52000000 cycles: 92120124 heartbeat IPC: 0.957633 cumulative IPC: 0.487807 (Simulation time: 0 hr 21 min 27 sec) 
select_counter is 2115
Heartbeat CPU 0 instructions: 53000001 cycles: 93162596 heartbeat IPC: 0.959259 cumulative IPC: 0.493447 (Simulation time: 0 hr 21 min 48 sec) 
select_counter is 2116
Heartbeat CPU 0 instructions: 54000002 cycles: 94230850 heartbeat IPC: 0.936108 cumulative IPC: 0.498808 (Simulation time: 0 hr 22 min 7 sec) 
select_counter is 2118
Heartbeat CPU 0 instructions: 55000003 cycles: 95271255 heartbeat IPC: 0.961165 cumulative IPC: 0.504198 (Simulation time: 0 hr 22 min 29 sec) 
select_counter is 2116
Heartbeat CPU 0 instructions: 56000000 cycles: 97553360 heartbeat IPC: 0.438191 cumulative IPC: 0.502552 (Simulation time: 0 hr 22 min 51 sec) 
select_counter is 2058
Heartbeat CPU 0 instructions: 57000003 cycles: 99580231 heartbeat IPC: 0.493373 cumulative IPC: 0.502353 (Simulation time: 0 hr 23 min 15 sec) 
select_counter is 2090
Heartbeat CPU 0 instructions: 58000000 cycles: 102820958 heartbeat IPC: 0.308572 cumulative IPC: 0.495866 (Simulation time: 0 hr 23 min 46 sec) 
select_counter is 2093
Heartbeat CPU 0 instructions: 59000003 cycles: 106053389 heartbeat IPC: 0.309366 cumulative IPC: 0.489839 (Simulation time: 0 hr 24 min 14 sec) 
select_counter is 2100
Heartbeat CPU 0 instructions: 60000000 cycles: 108449477 heartbeat IPC: 0.417346 cumulative IPC: 0.488143 (Simulation time: 0 hr 24 min 41 sec) 
select_counter is 2039
Heartbeat CPU 0 instructions: 61000001 cycles: 110321198 heartbeat IPC: 0.534268 cumulative IPC: 0.488971 (Simulation time: 0 hr 25 min 4 sec) 
select_counter is 2102
Heartbeat CPU 0 instructions: 62000001 cycles: 113563931 heartbeat IPC: 0.308382 cumulative IPC: 0.483526 (Simulation time: 0 hr 25 min 31 sec) 
select_counter is 2093
Heartbeat CPU 0 instructions: 63000000 cycles: 116808829 heartbeat IPC: 0.308176 cumulative IPC: 0.47839 (Simulation time: 0 hr 26 min 1 sec) 
select_counter is 2087
Heartbeat CPU 0 instructions: 64000000 cycles: 119364902 heartbeat IPC: 0.391225 cumulative IPC: 0.476424 (Simulation time: 0 hr 26 min 30 sec) 
select_counter is 2020
Heartbeat CPU 0 instructions: 65000000 cycles: 121055502 heartbeat IPC: 0.591506 cumulative IPC: 0.478116 (Simulation time: 0 hr 26 min 55 sec) 
select_counter is 2090
Heartbeat CPU 0 instructions: 66000000 cycles: 124261488 heartbeat IPC: 0.311917 cumulative IPC: 0.473609 (Simulation time: 0 hr 27 min 25 sec) 
select_counter is 2092
Heartbeat CPU 0 instructions: 67000001 cycles: 127488278 heartbeat IPC: 0.309906 cumulative IPC: 0.46926 (Simulation time: 0 hr 27 min 55 sec) 
select_counter is 2109
Heartbeat CPU 0 instructions: 68000000 cycles: 130235896 heartbeat IPC: 0.363951 cumulative IPC: 0.466931 (Simulation time: 0 hr 28 min 21 sec) 
select_counter is 2075
Heartbeat CPU 0 instructions: 69000001 cycles: 131756370 heartbeat IPC: 0.65769 cumulative IPC: 0.469238 (Simulation time: 0 hr 28 min 48 sec) 
select_counter is 2108
Heartbeat CPU 0 instructions: 70000001 cycles: 134985408 heartbeat IPC: 0.30969 cumulative IPC: 0.465243 (Simulation time: 0 hr 29 min 18 sec) 
select_counter is 2103
Heartbeat CPU 0 instructions: 71000001 cycles: 138234059 heartbeat IPC: 0.30782 cumulative IPC: 0.461375 (Simulation time: 0 hr 29 min 46 sec) 
select_counter is 2109
Heartbeat CPU 0 instructions: 72000000 cycles: 141002056 heartbeat IPC: 0.361272 cumulative IPC: 0.459322 (Simulation time: 0 hr 30 min 15 sec) 
select_counter is 2071
Heartbeat CPU 0 instructions: 73000000 cycles: 142528027 heartbeat IPC: 0.65532 cumulative IPC: 0.461513 (Simulation time: 0 hr 30 min 43 sec) 
select_counter is 2109
Heartbeat CPU 0 instructions: 74000003 cycles: 145779624 heartbeat IPC: 0.307542 cumulative IPC: 0.457931 (Simulation time: 0 hr 31 min 11 sec) 
select_counter is 2108
Heartbeat CPU 0 instructions: 75000001 cycles: 149014355 heartbeat IPC: 0.309144 cumulative IPC: 0.454565 (Simulation time: 0 hr 31 min 39 sec) 
select_counter is 2103
Heartbeat CPU 0 instructions: 76000000 cycles: 151655855 heartbeat IPC: 0.378572 cumulative IPC: 0.453187 (Simulation time: 0 hr 32 min 7 sec) 
select_counter is 2045
Heartbeat CPU 0 instructions: 77000001 cycles: 153275924 heartbeat IPC: 0.617258 cumulative IPC: 0.454992 (Simulation time: 0 hr 32 min 31 sec) 
select_counter is 2106
Heartbeat CPU 0 instructions: 78000000 cycles: 156501881 heartbeat IPC: 0.309985 cumulative IPC: 0.451883 (Simulation time: 0 hr 33 min 3 sec) 
select_counter is 2109
Heartbeat CPU 0 instructions: 79000000 cycles: 159896797 heartbeat IPC: 0.294558 cumulative IPC: 0.448412 (Simulation time: 0 hr 33 min 32 sec) 
select_counter is 2106
Heartbeat CPU 0 instructions: 80000000 cycles: 161726365 heartbeat IPC: 0.546577 cumulative IPC: 0.449566 (Simulation time: 0 hr 33 min 53 sec) 
select_counter is 2064
Heartbeat CPU 0 instructions: 81000001 cycles: 164148244 heartbeat IPC: 0.412903 cumulative IPC: 0.449004 (Simulation time: 0 hr 34 min 17 sec) 
select_counter is 2101
Heartbeat CPU 0 instructions: 82000000 cycles: 167375363 heartbeat IPC: 0.309874 cumulative IPC: 0.446222 (Simulation time: 0 hr 34 min 46 sec) 
select_counter is 2104
Heartbeat CPU 0 instructions: 83000000 cycles: 170601118 heartbeat IPC: 0.310005 cumulative IPC: 0.443552 (Simulation time: 0 hr 35 min 17 sec) 
select_counter is 2115
Heartbeat CPU 0 instructions: 84000000 cycles: 172398892 heartbeat IPC: 0.556243 cumulative IPC: 0.444769 (Simulation time: 0 hr 35 min 40 sec) 
select_counter is 2068
Heartbeat CPU 0 instructions: 85000003 cycles: 174853404 heartbeat IPC: 0.407414 cumulative IPC: 0.444226 (Simulation time: 0 hr 36 min 6 sec) 
select_counter is 2107
Heartbeat CPU 0 instructions: 86000001 cycles: 178095017 heartbeat IPC: 0.308488 cumulative IPC: 0.441669 (Simulation time: 0 hr 36 min 32 sec) 
select_counter is 2108
Heartbeat CPU 0 instructions: 87000000 cycles: 181326392 heartbeat IPC: 0.309465 cumulative IPC: 0.439232 (Simulation time: 0 hr 37 min 0 sec) 
select_counter is 2106
Heartbeat CPU 0 instructions: 88000000 cycles: 182993912 heartbeat IPC: 0.599693 cumulative IPC: 0.440744 (Simulation time: 0 hr 37 min 23 sec) 
select_counter is 2075
Heartbeat CPU 0 instructions: 89000000 cycles: 187665011 heartbeat IPC: 0.214082 cumulative IPC: 0.434916 (Simulation time: 0 hr 37 min 58 sec) 
select_counter is 2115
Heartbeat CPU 0 instructions: 90000002 cycles: 188708455 heartbeat IPC: 0.958367 cumulative IPC: 0.437905 (Simulation time: 0 hr 38 min 19 sec) 
select_counter is 2119
Heartbeat CPU 0 instructions: 91000001 cycles: 189752663 heartbeat IPC: 0.957663 cumulative IPC: 0.440859 (Simulation time: 0 hr 38 min 40 sec) 
select_counter is 2118
Heartbeat CPU 0 instructions: 92000000 cycles: 190796309 heartbeat IPC: 0.958178 cumulative IPC: 0.443781 (Simulation time: 0 hr 39 min 0 sec) 
select_counter is 2121
Heartbeat CPU 0 instructions: 93000002 cycles: 191840649 heartbeat IPC: 0.957545 cumulative IPC: 0.446669 (Simulation time: 0 hr 39 min 25 sec) 
select_counter is 2120
Heartbeat CPU 0 instructions: 94000001 cycles: 192884496 heartbeat IPC: 0.957994 cumulative IPC: 0.449525 (Simulation time: 0 hr 39 min 47 sec) 
select_counter is 2121
Heartbeat CPU 0 instructions: 95000000 cycles: 193928842 heartbeat IPC: 0.957536 cumulative IPC: 0.452348 (Simulation time: 0 hr 40 min 8 sec) 
select_counter is 2122
Heartbeat CPU 0 instructions: 96000000 cycles: 194973822 heartbeat IPC: 0.956956 cumulative IPC: 0.455139 (Simulation time: 0 hr 40 min 32 sec) 
select_counter is 2122
Heartbeat CPU 0 instructions: 97000002 cycles: 196044851 heartbeat IPC: 0.933683 cumulative IPC: 0.457836 (Simulation time: 0 hr 40 min 51 sec) 
select_counter is 2119
Heartbeat CPU 0 instructions: 98000000 cycles: 197090496 heartbeat IPC: 0.956346 cumulative IPC: 0.460564 (Simulation time: 0 hr 41 min 14 sec) 
select_counter is 2120
Heartbeat CPU 0 instructions: 99000003 cycles: 198128833 heartbeat IPC: 0.963081 cumulative IPC: 0.46328 (Simulation time: 0 hr 41 min 34 sec) 
select_counter is 2120
Heartbeat CPU 0 instructions: 100000000 cycles: 199165287 heartbeat IPC: 0.964825 cumulative IPC: 0.465972 (Simulation time: 0 hr 41 min 54 sec) 
select_counter is 2121
Heartbeat CPU 0 instructions: 101000001 cycles: 200206725 heartbeat IPC: 0.960212 cumulative IPC: 0.468622 (Simulation time: 0 hr 42 min 15 sec) 
select_counter is 2119
Heartbeat CPU 0 instructions: 102000001 cycles: 203428227 heartbeat IPC: 0.310414 cumulative IPC: 0.466041 (Simulation time: 0 hr 42 min 40 sec) 
select_counter is 2085
Heartbeat CPU 0 instructions: 103000001 cycles: 204823449 heartbeat IPC: 0.716732 cumulative IPC: 0.4678 (Simulation time: 0 hr 43 min 2 sec) 
select_counter is 2061
Heartbeat CPU 0 instructions: 104000000 cycles: 207747893 heartbeat IPC: 0.341945 cumulative IPC: 0.465976 (Simulation time: 0 hr 43 min 30 sec) 
select_counter is 2098
Heartbeat CPU 0 instructions: 105000000 cycles: 210981239 heartbeat IPC: 0.309277 cumulative IPC: 0.463504 (Simulation time: 0 hr 43 min 59 sec) 
select_counter is 2094
Heartbeat CPU 0 instructions: 106000000 cycles: 214167571 heartbeat IPC: 0.31384 cumulative IPC: 0.461212 (Simulation time: 0 hr 44 min 23 sec) 
select_counter is 2108
Heartbeat CPU 0 instructions: 107000001 cycles: 215713545 heartbeat IPC: 0.646842 cumulative IPC: 0.462581 (Simulation time: 0 hr 44 min 46 sec) 
select_counter is 2074
Heartbeat CPU 0 instructions: 108000000 cycles: 218481159 heartbeat IPC: 0.361322 cumulative IPC: 0.461262 (Simulation time: 0 hr 45 min 11 sec) 
select_counter is 2102
Heartbeat CPU 0 instructions: 109000000 cycles: 221709971 heartbeat IPC: 0.309711 cumulative IPC: 0.458993 (Simulation time: 0 hr 45 min 35 sec) 
select_counter is 2091
Heartbeat CPU 0 instructions: 110000000 cycles: 224930186 heartbeat IPC: 0.310538 cumulative IPC: 0.45681 (Simulation time: 0 hr 45 min 54 sec) 
select_counter is 2101
Finished CPU 0 instructions: 100000003 cycles: 218909630 cummulative IPC: 0.456809 (Simulation time: 0 hr 45 min 54 sec) 

ChampSim completed all CPUs

Region of Interest Statistics

CPU 0 cummulative IPC: 0.456809 instructions: 100000003 cycles: 218909630
LLC TOTAL     ACCESS:    3283124  HIT:    1333142  MISS:    1949982
LLC LOAD      ACCESS:    1564052  HIT:    1295845  MISS:     268207
LLC RFO       ACCESS:       5220  HIT:       2313  MISS:       2907
LLC PREFETCH  ACCESS:    1697004  HIT:      29512  MISS:    1667492
LLC WRITEBACK ACCESS:      16848  HIT:       5472  MISS:      11376
Ship samples: 
13, 47, 68, 102, 133, 185, 210, 244, 285, 307, 322, 374, 388, 429, 462, 494, 518, 572, 603, 608, 664, 672, 716, 764, 780, 818, 840, 883, 925, 955, 972, 994, 1043, 1061, 1101, 1134, 1157, 1203, 1238, 1253, 1295, 1335, 1351, 1376, 1439, 1458, 1503, 1513, 1537, 1593, 1613, 1644, 1683, 1725, 1739, 1790, 1815, 1826, 1882, 1892, 1920, 1968, 2002, 2028, 
Lime duel samples: 
3, 38, 65, 125, 149, 181, 223, 243, 273, 312, 329, 382, 385, 420, 459, 511, 539, 573, 586, 611, 640, 697, 715, 756, 777, 816, 846, 879, 909, 958, 988, 1014, 1034, 1069, 1110, 1125, 1158, 1209, 1241, 1276, 1286, 1332, 1347, 1380, 1413, 1469, 1494, 1532, 1548, 1599, 1606, 1632, 1671, 1701, 1743, 1763, 1823, 1846, 1887, 1891, 1946, 1974, 2015, 2041, 
Lime samples: 
3, 149, 273, 385, 539, 640, 777, 909, 1034, 1158, 1286, 1413, 1548, 1671, 1823, 1946, 
Insertion Distribution: 
	LOAD 3493 0 0 0 0 0 4512 56248 
	RFO 0 0 0 0 0 0 40 165 
	PREF 0 0 0 0 0 0 10596 283068 
	WRITEBACK 0 0 0 0 0 0 0 354 
Total Prefetch Downgrades: 1382
