
*** ChampSim Multicore Out-of-Order Simulator ***

Warmup Instructions: 10000000
Simulation Instructions: 100000000
Configuration: 2
Number of CPUs: 1
LLC sets: 2048
LLC ways: 16
Off-chip DRAM Channels: 1 Width: 64-bit Data Rate: 1600 MT/s

CPU 0 runs /datasets/cs240c-wi22-a00-public/data/Assignment2-gz/cactusADM_1039B.trace.gz
CPU 0 L1D next line prefetcher
CPU 0 L2C IP-based stride prefetcher
Heartbeat CPU 0 instructions: 1000000 cycles: 595518 heartbeat IPC: 1.67921 cumulative IPC: 1.67921 (Simulation time: 0 hr 0 min 28 sec) 
select_counter is 2040
Heartbeat CPU 0 instructions: 2000002 cycles: 1190937 heartbeat IPC: 1.67949 cumulative IPC: 1.67935 (Simulation time: 0 hr 1 min 4 sec) 
select_counter is 2036
Heartbeat CPU 0 instructions: 3000003 cycles: 1786622 heartbeat IPC: 1.67874 cumulative IPC: 1.67915 (Simulation time: 0 hr 1 min 33 sec) 
select_counter is 2036
Heartbeat CPU 0 instructions: 4000000 cycles: 2382046 heartbeat IPC: 1.67947 cumulative IPC: 1.67923 (Simulation time: 0 hr 2 min 7 sec) 
select_counter is 2038
Heartbeat CPU 0 instructions: 5000001 cycles: 2977457 heartbeat IPC: 1.67951 cumulative IPC: 1.67929 (Simulation time: 0 hr 2 min 38 sec) 
select_counter is 2041
Heartbeat CPU 0 instructions: 6000002 cycles: 3572930 heartbeat IPC: 1.67934 cumulative IPC: 1.67929 (Simulation time: 0 hr 3 min 7 sec) 
select_counter is 2047
Heartbeat CPU 0 instructions: 7000000 cycles: 4168306 heartbeat IPC: 1.67961 cumulative IPC: 1.67934 (Simulation time: 0 hr 3 min 41 sec) 
select_counter is 2061
Heartbeat CPU 0 instructions: 8000000 cycles: 4763681 heartbeat IPC: 1.67961 cumulative IPC: 1.67937 (Simulation time: 0 hr 4 min 15 sec) 
select_counter is 2076
Heartbeat CPU 0 instructions: 9000002 cycles: 5359336 heartbeat IPC: 1.67883 cumulative IPC: 1.67931 (Simulation time: 0 hr 4 min 46 sec) 
select_counter is 2101
Heartbeat CPU 0 instructions: 10000003 cycles: 5974113 heartbeat IPC: 1.62661 cumulative IPC: 1.67389 (Simulation time: 0 hr 5 min 17 sec) 
select_counter is 2131

Warmup complete CPU 0 instructions: 10000003 cycles: 5974113 (Simulation time: 0 hr 5 min 17 sec) 

Heartbeat CPU 0 instructions: 11000003 cycles: 12120705 heartbeat IPC: 0.162692 cumulative IPC: 0.162692 (Simulation time: 0 hr 5 min 54 sec) 
select_counter is 2331
Heartbeat CPU 0 instructions: 12000000 cycles: 13863145 heartbeat IPC: 0.573906 cumulative IPC: 0.253516 (Simulation time: 0 hr 6 min 27 sec) 
select_counter is 2353
Heartbeat CPU 0 instructions: 13000002 cycles: 15531424 heartbeat IPC: 0.599421 cumulative IPC: 0.313896 (Simulation time: 0 hr 6 min 59 sec) 
select_counter is 2384
Heartbeat CPU 0 instructions: 14000001 cycles: 17239358 heartbeat IPC: 0.585502 cumulative IPC: 0.355074 (Simulation time: 0 hr 7 min 31 sec) 
select_counter is 2428
Heartbeat CPU 0 instructions: 15000002 cycles: 18983079 heartbeat IPC: 0.573487 cumulative IPC: 0.38435 (Simulation time: 0 hr 8 min 4 sec) 
select_counter is 2457
Heartbeat CPU 0 instructions: 16000000 cycles: 20729411 heartbeat IPC: 0.572628 cumulative IPC: 0.406633 (Simulation time: 0 hr 8 min 38 sec) 
select_counter is 2486
Heartbeat CPU 0 instructions: 17000003 cycles: 22453273 heartbeat IPC: 0.580095 cumulative IPC: 0.424779 (Simulation time: 0 hr 9 min 16 sec) 
select_counter is 2518
Heartbeat CPU 0 instructions: 18000002 cycles: 24107836 heartbeat IPC: 0.604389 cumulative IPC: 0.441167 (Simulation time: 0 hr 9 min 51 sec) 
select_counter is 2570
Heartbeat CPU 0 instructions: 19000003 cycles: 25844247 heartbeat IPC: 0.575901 cumulative IPC: 0.452941 (Simulation time: 0 hr 10 min 24 sec) 
select_counter is 2621
Heartbeat CPU 0 instructions: 20000000 cycles: 27587816 heartbeat IPC: 0.573534 cumulative IPC: 0.462669 (Simulation time: 0 hr 10 min 59 sec) 
select_counter is 2658
Heartbeat CPU 0 instructions: 21000002 cycles: 29331436 heartbeat IPC: 0.573521 cumulative IPC: 0.470944 (Simulation time: 0 hr 11 min 34 sec) 
select_counter is 2714
Heartbeat CPU 0 instructions: 22000003 cycles: 31021899 heartbeat IPC: 0.591555 cumulative IPC: 0.479084 (Simulation time: 0 hr 12 min 7 sec) 
select_counter is 2772
Heartbeat CPU 0 instructions: 23000001 cycles: 32706867 heartbeat IPC: 0.593482 cumulative IPC: 0.486295 (Simulation time: 0 hr 12 min 38 sec) 
select_counter is 2815
Heartbeat CPU 0 instructions: 24000000 cycles: 39502082 heartbeat IPC: 0.147162 cumulative IPC: 0.417562 (Simulation time: 0 hr 13 min 20 sec) 
select_counter is 2752
Heartbeat CPU 0 instructions: 25000002 cycles: 41243134 heartbeat IPC: 0.574367 cumulative IPC: 0.425302 (Simulation time: 0 hr 13 min 55 sec) 
select_counter is 2768
Heartbeat CPU 0 instructions: 26000002 cycles: 42970809 heartbeat IPC: 0.578813 cumulative IPC: 0.432471 (Simulation time: 0 hr 14 min 24 sec) 
select_counter is 2776
Heartbeat CPU 0 instructions: 27000002 cycles: 44638726 heartbeat IPC: 0.59955 cumulative IPC: 0.439678 (Simulation time: 0 hr 14 min 57 sec) 
select_counter is 2780
Heartbeat CPU 0 instructions: 28000000 cycles: 46371858 heartbeat IPC: 0.576989 cumulative IPC: 0.445569 (Simulation time: 0 hr 15 min 29 sec) 
select_counter is 2773
Heartbeat CPU 0 instructions: 29000000 cycles: 48115222 heartbeat IPC: 0.573604 cumulative IPC: 0.450866 (Simulation time: 0 hr 16 min 4 sec) 
select_counter is 2765
Heartbeat CPU 0 instructions: 30000003 cycles: 49855991 heartbeat IPC: 0.574461 cumulative IPC: 0.455769 (Simulation time: 0 hr 16 min 35 sec) 
select_counter is 2771
Heartbeat CPU 0 instructions: 31000001 cycles: 51554898 heartbeat IPC: 0.588613 cumulative IPC: 0.46072 (Simulation time: 0 hr 17 min 7 sec) 
select_counter is 2781
Heartbeat CPU 0 instructions: 32000000 cycles: 53232918 heartbeat IPC: 0.59594 cumulative IPC: 0.465522 (Simulation time: 0 hr 17 min 41 sec) 
select_counter is 2812
Heartbeat CPU 0 instructions: 33000001 cycles: 54972734 heartbeat IPC: 0.574774 cumulative IPC: 0.469401 (Simulation time: 0 hr 18 min 14 sec) 
select_counter is 2845
Heartbeat CPU 0 instructions: 34000000 cycles: 56714698 heartbeat IPC: 0.574064 cumulative IPC: 0.472994 (Simulation time: 0 hr 18 min 47 sec) 
select_counter is 2877
Heartbeat CPU 0 instructions: 35000001 cycles: 58451860 heartbeat IPC: 0.575652 cumulative IPC: 0.476392 (Simulation time: 0 hr 19 min 24 sec) 
select_counter is 2919
Heartbeat CPU 0 instructions: 36000000 cycles: 60117093 heartbeat IPC: 0.600516 cumulative IPC: 0.48021 (Simulation time: 0 hr 19 min 59 sec) 
select_counter is 2949
Heartbeat CPU 0 instructions: 37000002 cycles: 66836665 heartbeat IPC: 0.148819 cumulative IPC: 0.443623 (Simulation time: 0 hr 20 min 43 sec) 
select_counter is 2946
Heartbeat CPU 0 instructions: 38000001 cycles: 68579921 heartbeat IPC: 0.573639 cumulative IPC: 0.447243 (Simulation time: 0 hr 21 min 17 sec) 
select_counter is 2945
Heartbeat CPU 0 instructions: 39000002 cycles: 70324571 heartbeat IPC: 0.573181 cumulative IPC: 0.450657 (Simulation time: 0 hr 21 min 47 sec) 
select_counter is 2951
Heartbeat CPU 0 instructions: 40000000 cycles: 72026237 heartbeat IPC: 0.587658 cumulative IPC: 0.454187 (Simulation time: 0 hr 22 min 20 sec) 
select_counter is 2957
Heartbeat CPU 0 instructions: 41000003 cycles: 73700340 heartbeat IPC: 0.597337 cumulative IPC: 0.457725 (Simulation time: 0 hr 22 min 57 sec) 
select_counter is 2961
Heartbeat CPU 0 instructions: 42000000 cycles: 75440516 heartbeat IPC: 0.574653 cumulative IPC: 0.460654 (Simulation time: 0 hr 23 min 31 sec) 
select_counter is 2960
Heartbeat CPU 0 instructions: 43000000 cycles: 77184950 heartbeat IPC: 0.573252 cumulative IPC: 0.463413 (Simulation time: 0 hr 24 min 5 sec) 
select_counter is 2953
Heartbeat CPU 0 instructions: 44000000 cycles: 78925091 heartbeat IPC: 0.574666 cumulative IPC: 0.466066 (Simulation time: 0 hr 24 min 39 sec) 
select_counter is 2968
Heartbeat CPU 0 instructions: 45000000 cycles: 80596527 heartbeat IPC: 0.598288 cumulative IPC: 0.469028 (Simulation time: 0 hr 25 min 14 sec) 
select_counter is 2990
Heartbeat CPU 0 instructions: 46000003 cycles: 82303829 heartbeat IPC: 0.585721 cumulative IPC: 0.471638 (Simulation time: 0 hr 25 min 48 sec) 
select_counter is 3028
Heartbeat CPU 0 instructions: 47000001 cycles: 84046419 heartbeat IPC: 0.573857 cumulative IPC: 0.47392 (Simulation time: 0 hr 26 min 20 sec) 
select_counter is 3047
Heartbeat CPU 0 instructions: 48000000 cycles: 85789587 heartbeat IPC: 0.573668 cumulative IPC: 0.476098 (Simulation time: 0 hr 26 min 56 sec) 
select_counter is 3088
Heartbeat CPU 0 instructions: 49000001 cycles: 87516592 heartbeat IPC: 0.579038 cumulative IPC: 0.478278 (Simulation time: 0 hr 27 min 32 sec) 
select_counter is 3112
Heartbeat CPU 0 instructions: 50000000 cycles: 94290529 heartbeat IPC: 0.147624 cumulative IPC: 0.452917 (Simulation time: 0 hr 28 min 14 sec) 
select_counter is 3054
Heartbeat CPU 0 instructions: 51000003 cycles: 96057219 heartbeat IPC: 0.566032 cumulative IPC: 0.455135 (Simulation time: 0 hr 28 min 52 sec) 
select_counter is 3071
Heartbeat CPU 0 instructions: 52000000 cycles: 97831312 heartbeat IPC: 0.563667 cumulative IPC: 0.457231 (Simulation time: 0 hr 29 min 27 sec) 
select_counter is 3069
Heartbeat CPU 0 instructions: 53000003 cycles: 99603729 heartbeat IPC: 0.564203 cumulative IPC: 0.459256 (Simulation time: 0 hr 30 min 4 sec) 
select_counter is 3072
Heartbeat CPU 0 instructions: 54000002 cycles: 101321462 heartbeat IPC: 0.582162 cumulative IPC: 0.461471 (Simulation time: 0 hr 30 min 41 sec) 
select_counter is 3059
Heartbeat CPU 0 instructions: 55000001 cycles: 103048801 heartbeat IPC: 0.578925 cumulative IPC: 0.463561 (Simulation time: 0 hr 31 min 17 sec) 
select_counter is 3059
Heartbeat CPU 0 instructions: 56000000 cycles: 104820175 heartbeat IPC: 0.564533 cumulative IPC: 0.46537 (Simulation time: 0 hr 31 min 46 sec) 
select_counter is 3059
Heartbeat CPU 0 instructions: 57000000 cycles: 106594935 heartbeat IPC: 0.563456 cumulative IPC: 0.4671 (Simulation time: 0 hr 32 min 18 sec) 
select_counter is 3051
Heartbeat CPU 0 instructions: 58000000 cycles: 108360415 heartbeat IPC: 0.566418 cumulative IPC: 0.468813 (Simulation time: 0 hr 32 min 54 sec) 
select_counter is 3082
Heartbeat CPU 0 instructions: 59000002 cycles: 110048389 heartbeat IPC: 0.592427 cumulative IPC: 0.470818 (Simulation time: 0 hr 33 min 28 sec) 
select_counter is 3100
Heartbeat CPU 0 instructions: 60000000 cycles: 111807421 heartbeat IPC: 0.568493 cumulative IPC: 0.472441 (Simulation time: 0 hr 34 min 3 sec) 
select_counter is 3107
Heartbeat CPU 0 instructions: 61000001 cycles: 113582008 heartbeat IPC: 0.563512 cumulative IPC: 0.473943 (Simulation time: 0 hr 34 min 40 sec) 
select_counter is 3130
Heartbeat CPU 0 instructions: 62000000 cycles: 115354791 heartbeat IPC: 0.564084 cumulative IPC: 0.475404 (Simulation time: 0 hr 35 min 11 sec) 
select_counter is 3140
Heartbeat CPU 0 instructions: 63000001 cycles: 121683564 heartbeat IPC: 0.158009 cumulative IPC: 0.458044 (Simulation time: 0 hr 35 min 54 sec) 
select_counter is 3121
Heartbeat CPU 0 instructions: 64000000 cycles: 123962974 heartbeat IPC: 0.43871 cumulative IPC: 0.45767 (Simulation time: 0 hr 36 min 31 sec) 
select_counter is 3124
Heartbeat CPU 0 instructions: 65000002 cycles: 125735141 heartbeat IPC: 0.564282 cumulative IPC: 0.459248 (Simulation time: 0 hr 37 min 3 sec) 
select_counter is 3127
Heartbeat CPU 0 instructions: 66000001 cycles: 127508282 heartbeat IPC: 0.56397 cumulative IPC: 0.460776 (Simulation time: 0 hr 37 min 36 sec) 
select_counter is 3111
Heartbeat CPU 0 instructions: 67000003 cycles: 129274890 heartbeat IPC: 0.566058 cumulative IPC: 0.462284 (Simulation time: 0 hr 38 min 10 sec) 
select_counter is 3102
Heartbeat CPU 0 instructions: 68000000 cycles: 131003126 heartbeat IPC: 0.578623 cumulative IPC: 0.463892 (Simulation time: 0 hr 38 min 46 sec) 
select_counter is 3096
Heartbeat CPU 0 instructions: 69000003 cycles: 132781931 heartbeat IPC: 0.562177 cumulative IPC: 0.465271 (Simulation time: 0 hr 39 min 22 sec) 
select_counter is 3074
Heartbeat CPU 0 instructions: 70000002 cycles: 134554419 heartbeat IPC: 0.564178 cumulative IPC: 0.466634 (Simulation time: 0 hr 39 min 57 sec) 
select_counter is 3083
Heartbeat CPU 0 instructions: 71000000 cycles: 136327187 heartbeat IPC: 0.564088 cumulative IPC: 0.46796 (Simulation time: 0 hr 40 min 26 sec) 
select_counter is 3083
Heartbeat CPU 0 instructions: 72000000 cycles: 138074909 heartbeat IPC: 0.572173 cumulative IPC: 0.469339 (Simulation time: 0 hr 40 min 58 sec) 
select_counter is 3096
Heartbeat CPU 0 instructions: 73000001 cycles: 139776274 heartbeat IPC: 0.587764 cumulative IPC: 0.470844 (Simulation time: 0 hr 41 min 32 sec) 
select_counter is 3114
Heartbeat CPU 0 instructions: 74000003 cycles: 141544028 heartbeat IPC: 0.565691 cumulative IPC: 0.472081 (Simulation time: 0 hr 42 min 0 sec) 
select_counter is 3146
Heartbeat CPU 0 instructions: 75000002 cycles: 143318410 heartbeat IPC: 0.563576 cumulative IPC: 0.473263 (Simulation time: 0 hr 42 min 28 sec) 
select_counter is 3154
Heartbeat CPU 0 instructions: 76000000 cycles: 148679963 heartbeat IPC: 0.186513 cumulative IPC: 0.46249 (Simulation time: 0 hr 43 min 4 sec) 
select_counter is 3008
Heartbeat CPU 0 instructions: 77000001 cycles: 151887626 heartbeat IPC: 0.311754 cumulative IPC: 0.459176 (Simulation time: 0 hr 43 min 39 sec) 
select_counter is 2812
Heartbeat CPU 0 instructions: 78000000 cycles: 153636962 heartbeat IPC: 0.571645 cumulative IPC: 0.460508 (Simulation time: 0 hr 44 min 11 sec) 
select_counter is 2799
Heartbeat CPU 0 instructions: 79000002 cycles: 155407341 heartbeat IPC: 0.564852 cumulative IPC: 0.461745 (Simulation time: 0 hr 44 min 40 sec) 
select_counter is 2763
Heartbeat CPU 0 instructions: 80000000 cycles: 157178137 heartbeat IPC: 0.564717 cumulative IPC: 0.462951 (Simulation time: 0 hr 45 min 12 sec) 
select_counter is 2764
Heartbeat CPU 0 instructions: 81000002 cycles: 158927782 heartbeat IPC: 0.571546 cumulative IPC: 0.464193 (Simulation time: 0 hr 45 min 40 sec) 
select_counter is 2755
Heartbeat CPU 0 instructions: 82000002 cycles: 160624152 heartbeat IPC: 0.589494 cumulative IPC: 0.465567 (Simulation time: 0 hr 46 min 2 sec) 
select_counter is 2734
Heartbeat CPU 0 instructions: 83000003 cycles: 162391766 heartbeat IPC: 0.565735 cumulative IPC: 0.466699 (Simulation time: 0 hr 46 min 26 sec) 
select_counter is 2711
Heartbeat CPU 0 instructions: 84000000 cycles: 164164243 heartbeat IPC: 0.56418 cumulative IPC: 0.467791 (Simulation time: 0 hr 46 min 49 sec) 
select_counter is 2690
Heartbeat CPU 0 instructions: 85000002 cycles: 165936537 heartbeat IPC: 0.564242 cumulative IPC: 0.46886 (Simulation time: 0 hr 47 min 10 sec) 
select_counter is 2700
Heartbeat CPU 0 instructions: 86000003 cycles: 167653064 heartbeat IPC: 0.582572 cumulative IPC: 0.470067 (Simulation time: 0 hr 47 min 30 sec) 
select_counter is 2683
Heartbeat CPU 0 instructions: 87000000 cycles: 169397685 heartbeat IPC: 0.573189 cumulative IPC: 0.471168 (Simulation time: 0 hr 47 min 49 sec) 
select_counter is 2682
Heartbeat CPU 0 instructions: 88000000 cycles: 171168555 heartbeat IPC: 0.564694 cumulative IPC: 0.472171 (Simulation time: 0 hr 48 min 6 sec) 
select_counter is 2685
Heartbeat CPU 0 instructions: 89000001 cycles: 175566581 heartbeat IPC: 0.227375 cumulative IPC: 0.465823 (Simulation time: 0 hr 48 min 25 sec) 
select_counter is 2466
Heartbeat CPU 0 instructions: 90000002 cycles: 179742159 heartbeat IPC: 0.239488 cumulative IPC: 0.460384 (Simulation time: 0 hr 48 min 43 sec) 
select_counter is 2316
Heartbeat CPU 0 instructions: 91000000 cycles: 181435755 heartbeat IPC: 0.590458 cumulative IPC: 0.461639 (Simulation time: 0 hr 48 min 59 sec) 
select_counter is 2309
Heartbeat CPU 0 instructions: 92000000 cycles: 183198638 heartbeat IPC: 0.567253 cumulative IPC: 0.46269 (Simulation time: 0 hr 49 min 15 sec) 
select_counter is 2302
Heartbeat CPU 0 instructions: 93000001 cycles: 184968594 heartbeat IPC: 0.564986 cumulative IPC: 0.463701 (Simulation time: 0 hr 49 min 31 sec) 
select_counter is 2302
Heartbeat CPU 0 instructions: 94000003 cycles: 186742606 heartbeat IPC: 0.563695 cumulative IPC: 0.464683 (Simulation time: 0 hr 49 min 46 sec) 
select_counter is 2297
Heartbeat CPU 0 instructions: 95000001 cycles: 188463750 heartbeat IPC: 0.581008 cumulative IPC: 0.46578 (Simulation time: 0 hr 50 min 1 sec) 
select_counter is 2297
Heartbeat CPU 0 instructions: 96000000 cycles: 190184278 heartbeat IPC: 0.581216 cumulative IPC: 0.466858 (Simulation time: 0 hr 50 min 16 sec) 
select_counter is 2295
Heartbeat CPU 0 instructions: 97000002 cycles: 191953767 heartbeat IPC: 0.565136 cumulative IPC: 0.467793 (Simulation time: 0 hr 50 min 31 sec) 
select_counter is 2298
Heartbeat CPU 0 instructions: 98000000 cycles: 193727382 heartbeat IPC: 0.563819 cumulative IPC: 0.4687 (Simulation time: 0 hr 50 min 45 sec) 
select_counter is 2303
Heartbeat CPU 0 instructions: 99000002 cycles: 195495527 heartbeat IPC: 0.565566 cumulative IPC: 0.469604 (Simulation time: 0 hr 50 min 59 sec) 
select_counter is 2311
Heartbeat CPU 0 instructions: 100000000 cycles: 197186269 heartbeat IPC: 0.591455 cumulative IPC: 0.470681 (Simulation time: 0 hr 51 min 13 sec) 
select_counter is 2322
Heartbeat CPU 0 instructions: 101000002 cycles: 198940650 heartbeat IPC: 0.570003 cumulative IPC: 0.471584 (Simulation time: 0 hr 51 min 26 sec) 
select_counter is 2320
Heartbeat CPU 0 instructions: 102000000 cycles: 202310745 heartbeat IPC: 0.296727 cumulative IPC: 0.468583 (Simulation time: 0 hr 51 min 39 sec) 
select_counter is 2233
Heartbeat CPU 0 instructions: 103000002 cycles: 207467370 heartbeat IPC: 0.193926 cumulative IPC: 0.461554 (Simulation time: 0 hr 51 min 53 sec) 
select_counter is 2076
Heartbeat CPU 0 instructions: 104000000 cycles: 209192132 heartbeat IPC: 0.579789 cumulative IPC: 0.462557 (Simulation time: 0 hr 52 min 5 sec) 
select_counter is 2100
Heartbeat CPU 0 instructions: 105000002 cycles: 210905567 heartbeat IPC: 0.583624 cumulative IPC: 0.46357 (Simulation time: 0 hr 52 min 15 sec) 
select_counter is 2096
Heartbeat CPU 0 instructions: 106000001 cycles: 212677299 heartbeat IPC: 0.564419 cumulative IPC: 0.464434 (Simulation time: 0 hr 52 min 24 sec) 
select_counter is 2113
Heartbeat CPU 0 instructions: 107000003 cycles: 214448026 heartbeat IPC: 0.564741 cumulative IPC: 0.465286 (Simulation time: 0 hr 52 min 35 sec) 
select_counter is 2115
Heartbeat CPU 0 instructions: 108000000 cycles: 216217967 heartbeat IPC: 0.564989 cumulative IPC: 0.466125 (Simulation time: 0 hr 52 min 44 sec) 
select_counter is 2115
Heartbeat CPU 0 instructions: 109000003 cycles: 217915601 heartbeat IPC: 0.589057 cumulative IPC: 0.46711 (Simulation time: 0 hr 52 min 53 sec) 
select_counter is 2118
Heartbeat CPU 0 instructions: 110000002 cycles: 219665755 heartbeat IPC: 0.571378 cumulative IPC: 0.467964 (Simulation time: 0 hr 53 min 0 sec) 
select_counter is 2120
Finished CPU 0 instructions: 100000003 cycles: 213691643 cummulative IPC: 0.467964 (Simulation time: 0 hr 53 min 0 sec) 

ChampSim completed all CPUs

Region of Interest Statistics

CPU 0 cummulative IPC: 0.467964 instructions: 100000003 cycles: 213691643
LLC TOTAL     ACCESS:    1174837  HIT:     334625  MISS:     840212
LLC LOAD      ACCESS:      30874  HIT:       1369  MISS:      29505
LLC RFO       ACCESS:     265309  HIT:       8595  MISS:     256714
LLC PREFETCH  ACCESS:     611313  HIT:     128434  MISS:     482879
LLC WRITEBACK ACCESS:     267341  HIT:     196227  MISS:      71114
Ship samples: 
24, 48, 79, 124, 129, 187, 207, 242, 271, 294, 347, 373, 391, 433, 461, 494, 514, 566, 606, 611, 662, 672, 708, 755, 797, 821, 859, 882, 897, 953, 981, 1013, 1034, 1082, 1115, 1132, 1181, 1206, 1247, 1268, 1282, 1333, 1363, 1377, 1419, 1442, 1474, 1529, 1540, 1588, 1617, 1649, 1671, 1709, 1731, 1779, 1792, 1824, 1874, 1907, 1943, 1967, 1997, 2035, 
Lime duel samples: 
1, 58, 83, 96, 153, 166, 220, 229, 270, 299, 322, 354, 410, 438, 470, 498, 519, 546, 578, 623, 644, 703, 709, 754, 787, 825, 856, 874, 899, 931, 974, 1000, 1048, 1068, 1096, 1150, 1169, 1197, 1217, 1257, 1309, 1321, 1374, 1384, 1428, 1466, 1473, 1528, 1548, 1587, 1631, 1633, 1678, 1711, 1745, 1770, 1804, 1841, 1864, 1908, 1933, 1972, 1999, 2044, 
Lime samples: 
1, 153, 270, 410, 519, 644, 787, 899, 1048, 1169, 1309, 1428, 1548, 1678, 1804, 1933, 
Insertion Distribution: 
	LOAD 0 0 0 0 0 0 779 669 
	RFO 384 0 0 0 0 0 4350 6034 
	PREF 0 1532 0 0 0 0 24999 14836 
	WRITEBACK 0 0 0 0 0 0 0 5017 
Total Prefetch Downgrades: 1657
