
*** ChampSim Multicore Out-of-Order Simulator ***

Warmup Instructions: 10000000
Simulation Instructions: 100000000
Configuration: 2
Number of CPUs: 1
LLC sets: 2048
LLC ways: 16
Off-chip DRAM Channels: 1 Width: 64-bit Data Rate: 1600 MT/s

CPU 0 runs /datasets/cs240c-wi22-a00-public/data/Assignment2-gz/milc_360B.trace.gz
CPU 0 L1D next line prefetcher
CPU 0 L2C IP-based stride prefetcher
Heartbeat CPU 0 instructions: 1000001 cycles: 549511 heartbeat IPC: 1.8198 cumulative IPC: 1.8198 (Simulation time: 0 hr 0 min 25 sec) 
select_counter is 1922
Heartbeat CPU 0 instructions: 2000003 cycles: 1099026 heartbeat IPC: 1.81979 cumulative IPC: 1.8198 (Simulation time: 0 hr 0 min 55 sec) 
select_counter is 1867
Heartbeat CPU 0 instructions: 3000001 cycles: 1648486 heartbeat IPC: 1.81997 cumulative IPC: 1.81985 (Simulation time: 0 hr 1 min 23 sec) 
select_counter is 1744
Heartbeat CPU 0 instructions: 4000000 cycles: 2197959 heartbeat IPC: 1.81992 cumulative IPC: 1.81987 (Simulation time: 0 hr 1 min 52 sec) 
select_counter is 1692
Heartbeat CPU 0 instructions: 5000002 cycles: 2747468 heartbeat IPC: 1.81981 cumulative IPC: 1.81986 (Simulation time: 0 hr 2 min 21 sec) 
select_counter is 1712
Heartbeat CPU 0 instructions: 6000001 cycles: 3296983 heartbeat IPC: 1.81978 cumulative IPC: 1.81985 (Simulation time: 0 hr 2 min 51 sec) 
select_counter is 1700
Heartbeat CPU 0 instructions: 7000000 cycles: 3846462 heartbeat IPC: 1.8199 cumulative IPC: 1.81985 (Simulation time: 0 hr 3 min 23 sec) 
select_counter is 1674
Heartbeat CPU 0 instructions: 8000000 cycles: 4395923 heartbeat IPC: 1.81997 cumulative IPC: 1.81987 (Simulation time: 0 hr 3 min 48 sec) 
select_counter is 1620
Heartbeat CPU 0 instructions: 9000001 cycles: 4945436 heartbeat IPC: 1.8198 cumulative IPC: 1.81986 (Simulation time: 0 hr 4 min 19 sec) 
select_counter is 1544
Heartbeat CPU 0 instructions: 10000001 cycles: 5494911 heartbeat IPC: 1.81992 cumulative IPC: 1.81987 (Simulation time: 0 hr 4 min 49 sec) 
select_counter is 1551

Warmup complete CPU 0 instructions: 10000001 cycles: 5494911 (Simulation time: 0 hr 4 min 49 sec) 

Heartbeat CPU 0 instructions: 11000001 cycles: 7192394 heartbeat IPC: 0.589108 cumulative IPC: 0.589108 (Simulation time: 0 hr 5 min 19 sec) 
select_counter is 1477
Heartbeat CPU 0 instructions: 12000000 cycles: 8886553 heartbeat IPC: 0.590263 cumulative IPC: 0.589685 (Simulation time: 0 hr 5 min 53 sec) 
select_counter is 1402
Heartbeat CPU 0 instructions: 13000001 cycles: 10588685 heartbeat IPC: 0.587499 cumulative IPC: 0.588954 (Simulation time: 0 hr 6 min 26 sec) 
select_counter is 1250
Heartbeat CPU 0 instructions: 14000001 cycles: 12283135 heartbeat IPC: 0.590162 cumulative IPC: 0.589256 (Simulation time: 0 hr 6 min 56 sec) 
select_counter is 1201
Heartbeat CPU 0 instructions: 15000003 cycles: 13974695 heartbeat IPC: 0.591171 cumulative IPC: 0.589638 (Simulation time: 0 hr 7 min 27 sec) 
select_counter is 1166
Heartbeat CPU 0 instructions: 16000000 cycles: 15679541 heartbeat IPC: 0.586562 cumulative IPC: 0.589123 (Simulation time: 0 hr 7 min 56 sec) 
select_counter is 1066
Heartbeat CPU 0 instructions: 17000003 cycles: 17376043 heartbeat IPC: 0.58945 cumulative IPC: 0.58917 (Simulation time: 0 hr 8 min 27 sec) 
select_counter is 1008
Heartbeat CPU 0 instructions: 18000002 cycles: 19080031 heartbeat IPC: 0.586858 cumulative IPC: 0.58888 (Simulation time: 0 hr 8 min 58 sec) 
select_counter is 937
Heartbeat CPU 0 instructions: 19000000 cycles: 20780299 heartbeat IPC: 0.588141 cumulative IPC: 0.588798 (Simulation time: 0 hr 9 min 28 sec) 
select_counter is 818
Heartbeat CPU 0 instructions: 20000000 cycles: 22476660 heartbeat IPC: 0.589497 cumulative IPC: 0.588867 (Simulation time: 0 hr 10 min 3 sec) 
select_counter is 719
Heartbeat CPU 0 instructions: 21000002 cycles: 24165685 heartbeat IPC: 0.592059 cumulative IPC: 0.589156 (Simulation time: 0 hr 10 min 34 sec) 
select_counter is 691
Heartbeat CPU 0 instructions: 22000003 cycles: 25851332 heartbeat IPC: 0.593245 cumulative IPC: 0.589495 (Simulation time: 0 hr 11 min 4 sec) 
select_counter is 675
Heartbeat CPU 0 instructions: 23000001 cycles: 27540910 heartbeat IPC: 0.591863 cumulative IPC: 0.589676 (Simulation time: 0 hr 11 min 39 sec) 
select_counter is 648
Heartbeat CPU 0 instructions: 24000000 cycles: 29230856 heartbeat IPC: 0.591734 cumulative IPC: 0.589823 (Simulation time: 0 hr 12 min 14 sec) 
select_counter is 608
Heartbeat CPU 0 instructions: 25000003 cycles: 30924594 heartbeat IPC: 0.590412 cumulative IPC: 0.589862 (Simulation time: 0 hr 12 min 44 sec) 
select_counter is 549
Heartbeat CPU 0 instructions: 26000001 cycles: 32619766 heartbeat IPC: 0.589909 cumulative IPC: 0.589865 (Simulation time: 0 hr 13 min 14 sec) 
select_counter is 482
Heartbeat CPU 0 instructions: 27000001 cycles: 34303723 heartbeat IPC: 0.593839 cumulative IPC: 0.590097 (Simulation time: 0 hr 13 min 46 sec) 
select_counter is 490
Heartbeat CPU 0 instructions: 28000000 cycles: 35992158 heartbeat IPC: 0.592264 cumulative IPC: 0.590217 (Simulation time: 0 hr 14 min 16 sec) 
select_counter is 451
Heartbeat CPU 0 instructions: 29000001 cycles: 37680038 heartbeat IPC: 0.59246 cumulative IPC: 0.590335 (Simulation time: 0 hr 14 min 51 sec) 
select_counter is 396
Heartbeat CPU 0 instructions: 30000000 cycles: 39373986 heartbeat IPC: 0.590336 cumulative IPC: 0.590335 (Simulation time: 0 hr 15 min 30 sec) 
select_counter is 348
Heartbeat CPU 0 instructions: 31000003 cycles: 41061993 heartbeat IPC: 0.592416 cumulative IPC: 0.590434 (Simulation time: 0 hr 16 min 7 sec) 
select_counter is 285
Heartbeat CPU 0 instructions: 32000000 cycles: 42750914 heartbeat IPC: 0.592092 cumulative IPC: 0.590509 (Simulation time: 0 hr 16 min 38 sec) 
select_counter is 202
Heartbeat CPU 0 instructions: 33000000 cycles: 44437450 heartbeat IPC: 0.592931 cumulative IPC: 0.590614 (Simulation time: 0 hr 17 min 8 sec) 
select_counter is 141
Heartbeat CPU 0 instructions: 34000003 cycles: 46124070 heartbeat IPC: 0.592904 cumulative IPC: 0.590709 (Simulation time: 0 hr 17 min 39 sec) 
select_counter is 119
Heartbeat CPU 0 instructions: 35000001 cycles: 47816387 heartbeat IPC: 0.590905 cumulative IPC: 0.590717 (Simulation time: 0 hr 18 min 8 sec) 
select_counter is 40
Heartbeat CPU 0 instructions: 36000000 cycles: 49510680 heartbeat IPC: 0.590216 cumulative IPC: 0.590697 (Simulation time: 0 hr 18 min 38 sec) 
select_counter is 4031
Heartbeat CPU 0 instructions: 37000000 cycles: 51207677 heartbeat IPC: 0.589276 cumulative IPC: 0.590645 (Simulation time: 0 hr 19 min 5 sec) 
select_counter is 3988
Heartbeat CPU 0 instructions: 38000001 cycles: 52898991 heartbeat IPC: 0.591257 cumulative IPC: 0.590666 (Simulation time: 0 hr 19 min 33 sec) 
select_counter is 3963
Heartbeat CPU 0 instructions: 39000000 cycles: 54593027 heartbeat IPC: 0.590306 cumulative IPC: 0.590654 (Simulation time: 0 hr 20 min 6 sec) 
select_counter is 3905
Heartbeat CPU 0 instructions: 40000000 cycles: 56295928 heartbeat IPC: 0.587233 cumulative IPC: 0.590539 (Simulation time: 0 hr 20 min 38 sec) 
select_counter is 3881
Heartbeat CPU 0 instructions: 41000001 cycles: 57992998 heartbeat IPC: 0.589251 cumulative IPC: 0.590498 (Simulation time: 0 hr 21 min 9 sec) 
select_counter is 3819
Heartbeat CPU 0 instructions: 42000001 cycles: 59687375 heartbeat IPC: 0.590187 cumulative IPC: 0.590488 (Simulation time: 0 hr 21 min 40 sec) 
select_counter is 3767
Heartbeat CPU 0 instructions: 43000000 cycles: 61389344 heartbeat IPC: 0.587554 cumulative IPC: 0.590399 (Simulation time: 0 hr 22 min 9 sec) 
select_counter is 3710
Heartbeat CPU 0 instructions: 44000000 cycles: 63373540 heartbeat IPC: 0.503982 cumulative IPC: 0.587436 (Simulation time: 0 hr 22 min 48 sec) 
select_counter is 3339
Heartbeat CPU 0 instructions: 45000002 cycles: 65564210 heartbeat IPC: 0.456482 cumulative IPC: 0.58266 (Simulation time: 0 hr 23 min 25 sec) 
select_counter is 3228
Heartbeat CPU 0 instructions: 46000001 cycles: 67700596 heartbeat IPC: 0.46808 cumulative IPC: 0.578725 (Simulation time: 0 hr 24 min 1 sec) 
select_counter is 3223
Heartbeat CPU 0 instructions: 47000002 cycles: 69869309 heartbeat IPC: 0.461103 cumulative IPC: 0.574763 (Simulation time: 0 hr 24 min 39 sec) 
select_counter is 3207
Heartbeat CPU 0 instructions: 48000000 cycles: 71994416 heartbeat IPC: 0.470564 cumulative IPC: 0.571433 (Simulation time: 0 hr 25 min 20 sec) 
select_counter is 3208
Heartbeat CPU 0 instructions: 49000003 cycles: 74099410 heartbeat IPC: 0.475062 cumulative IPC: 0.568476 (Simulation time: 0 hr 25 min 55 sec) 
select_counter is 3198
Heartbeat CPU 0 instructions: 50000002 cycles: 75993620 heartbeat IPC: 0.527924 cumulative IPC: 0.567386 (Simulation time: 0 hr 26 min 32 sec) 
select_counter is 3172
Heartbeat CPU 0 instructions: 51000002 cycles: 77004482 heartbeat IPC: 0.989255 cumulative IPC: 0.57335 (Simulation time: 0 hr 27 min 0 sec) 
select_counter is 3168
Heartbeat CPU 0 instructions: 52000000 cycles: 78795925 heartbeat IPC: 0.558208 cumulative IPC: 0.57298 (Simulation time: 0 hr 27 min 29 sec) 
select_counter is 3204
Heartbeat CPU 0 instructions: 53000002 cycles: 81000200 heartbeat IPC: 0.453665 cumulative IPC: 0.569497 (Simulation time: 0 hr 28 min 3 sec) 
select_counter is 3083
Heartbeat CPU 0 instructions: 54000003 cycles: 83230827 heartbeat IPC: 0.448305 cumulative IPC: 0.566019 (Simulation time: 0 hr 28 min 34 sec) 
select_counter is 2969
Heartbeat CPU 0 instructions: 55000003 cycles: 85465705 heartbeat IPC: 0.447452 cumulative IPC: 0.562705 (Simulation time: 0 hr 29 min 5 sec) 
select_counter is 2826
Heartbeat CPU 0 instructions: 56000000 cycles: 87695119 heartbeat IPC: 0.448547 cumulative IPC: 0.559609 (Simulation time: 0 hr 29 min 38 sec) 
select_counter is 2635
Heartbeat CPU 0 instructions: 57000000 cycles: 89923228 heartbeat IPC: 0.448811 cumulative IPC: 0.556685 (Simulation time: 0 hr 30 min 8 sec) 
select_counter is 2572
Heartbeat CPU 0 instructions: 58000000 cycles: 92147029 heartbeat IPC: 0.449681 cumulative IPC: 0.553939 (Simulation time: 0 hr 30 min 37 sec) 
select_counter is 2442
Heartbeat CPU 0 instructions: 59000001 cycles: 94374654 heartbeat IPC: 0.448909 cumulative IPC: 0.551307 (Simulation time: 0 hr 31 min 9 sec) 
select_counter is 2407
Heartbeat CPU 0 instructions: 60000000 cycles: 96601713 heartbeat IPC: 0.449022 cumulative IPC: 0.548806 (Simulation time: 0 hr 31 min 38 sec) 
select_counter is 2321
Heartbeat CPU 0 instructions: 61000000 cycles: 98829388 heartbeat IPC: 0.448899 cumulative IPC: 0.546422 (Simulation time: 0 hr 32 min 5 sec) 
select_counter is 2143
Heartbeat CPU 0 instructions: 62000003 cycles: 101054512 heartbeat IPC: 0.449414 cumulative IPC: 0.544163 (Simulation time: 0 hr 32 min 33 sec) 
select_counter is 2054
Heartbeat CPU 0 instructions: 63000003 cycles: 103282804 heartbeat IPC: 0.448774 cumulative IPC: 0.541989 (Simulation time: 0 hr 33 min 4 sec) 
select_counter is 1872
Heartbeat CPU 0 instructions: 64000000 cycles: 105513543 heartbeat IPC: 0.448281 cumulative IPC: 0.539899 (Simulation time: 0 hr 33 min 34 sec) 
select_counter is 1756
Heartbeat CPU 0 instructions: 65000001 cycles: 107750394 heartbeat IPC: 0.447057 cumulative IPC: 0.537868 (Simulation time: 0 hr 34 min 6 sec) 
select_counter is 1639
Heartbeat CPU 0 instructions: 66000001 cycles: 109974907 heartbeat IPC: 0.449537 cumulative IPC: 0.535988 (Simulation time: 0 hr 34 min 39 sec) 
select_counter is 1535
Heartbeat CPU 0 instructions: 67000002 cycles: 112204295 heartbeat IPC: 0.448554 cumulative IPC: 0.534161 (Simulation time: 0 hr 35 min 11 sec) 
select_counter is 1396
Heartbeat CPU 0 instructions: 68000000 cycles: 114434467 heartbeat IPC: 0.448395 cumulative IPC: 0.532405 (Simulation time: 0 hr 35 min 40 sec) 
select_counter is 1315
Heartbeat CPU 0 instructions: 69000001 cycles: 116661860 heartbeat IPC: 0.448956 cumulative IPC: 0.530733 (Simulation time: 0 hr 36 min 14 sec) 
select_counter is 1233
Heartbeat CPU 0 instructions: 70000000 cycles: 118892903 heartbeat IPC: 0.44822 cumulative IPC: 0.52911 (Simulation time: 0 hr 36 min 46 sec) 
select_counter is 1114
Heartbeat CPU 0 instructions: 71000000 cycles: 121120150 heartbeat IPC: 0.448985 cumulative IPC: 0.527566 (Simulation time: 0 hr 37 min 18 sec) 
select_counter is 959
Heartbeat CPU 0 instructions: 72000000 cycles: 123344567 heartbeat IPC: 0.449556 cumulative IPC: 0.526094 (Simulation time: 0 hr 37 min 47 sec) 
select_counter is 834
Heartbeat CPU 0 instructions: 73000001 cycles: 125559227 heartbeat IPC: 0.451537 cumulative IPC: 0.524719 (Simulation time: 0 hr 38 min 21 sec) 
select_counter is 671
Heartbeat CPU 0 instructions: 74000002 cycles: 127158566 heartbeat IPC: 0.625259 cumulative IPC: 0.52604 (Simulation time: 0 hr 38 min 50 sec) 
select_counter is 290
Heartbeat CPU 0 instructions: 75000003 cycles: 128742552 heartbeat IPC: 0.631319 cumulative IPC: 0.527393 (Simulation time: 0 hr 39 min 25 sec) 
select_counter is 3871
Heartbeat CPU 0 instructions: 76000000 cycles: 130313959 heartbeat IPC: 0.63637 cumulative IPC: 0.528765 (Simulation time: 0 hr 39 min 58 sec) 
select_counter is 3175
Heartbeat CPU 0 instructions: 77000000 cycles: 131890556 heartbeat IPC: 0.634278 cumulative IPC: 0.530082 (Simulation time: 0 hr 40 min 29 sec) 
select_counter is 2497
Heartbeat CPU 0 instructions: 78000000 cycles: 133469430 heartbeat IPC: 0.633363 cumulative IPC: 0.531356 (Simulation time: 0 hr 40 min 59 sec) 
select_counter is 1773
Heartbeat CPU 0 instructions: 79000000 cycles: 135045588 heartbeat IPC: 0.634454 cumulative IPC: 0.53261 (Simulation time: 0 hr 41 min 30 sec) 
select_counter is 977
Heartbeat CPU 0 instructions: 80000000 cycles: 136631694 heartbeat IPC: 0.630475 cumulative IPC: 0.533794 (Simulation time: 0 hr 42 min 0 sec) 
select_counter is 285
Heartbeat CPU 0 instructions: 81000003 cycles: 138216610 heartbeat IPC: 0.63095 cumulative IPC: 0.534954 (Simulation time: 0 hr 42 min 31 sec) 
select_counter is 3710
Heartbeat CPU 0 instructions: 82000003 cycles: 139801239 heartbeat IPC: 0.631063 cumulative IPC: 0.536088 (Simulation time: 0 hr 42 min 58 sec) 
select_counter is 3086
Heartbeat CPU 0 instructions: 83000002 cycles: 141381171 heartbeat IPC: 0.632938 cumulative IPC: 0.537214 (Simulation time: 0 hr 43 min 24 sec) 
select_counter is 2452
Heartbeat CPU 0 instructions: 84000000 cycles: 142964414 heartbeat IPC: 0.631614 cumulative IPC: 0.538301 (Simulation time: 0 hr 43 min 49 sec) 
select_counter is 1823
Heartbeat CPU 0 instructions: 85000000 cycles: 144538972 heartbeat IPC: 0.635099 cumulative IPC: 0.539397 (Simulation time: 0 hr 44 min 14 sec) 
select_counter is 1061
Heartbeat CPU 0 instructions: 86000000 cycles: 146124510 heartbeat IPC: 0.630701 cumulative IPC: 0.540427 (Simulation time: 0 hr 44 min 42 sec) 
select_counter is 396
Heartbeat CPU 0 instructions: 87000000 cycles: 147705590 heartbeat IPC: 0.632479 cumulative IPC: 0.54145 (Simulation time: 0 hr 45 min 11 sec) 
select_counter is 3872
Heartbeat CPU 0 instructions: 88000000 cycles: 149284023 heartbeat IPC: 0.63354 cumulative IPC: 0.542461 (Simulation time: 0 hr 45 min 38 sec) 
select_counter is 3214
Heartbeat CPU 0 instructions: 89000002 cycles: 150865164 heartbeat IPC: 0.632456 cumulative IPC: 0.54344 (Simulation time: 0 hr 46 min 2 sec) 
select_counter is 2546
Heartbeat CPU 0 instructions: 90000002 cycles: 152439444 heartbeat IPC: 0.635211 cumulative IPC: 0.544423 (Simulation time: 0 hr 46 min 28 sec) 
select_counter is 1903
Heartbeat CPU 0 instructions: 91000003 cycles: 154013380 heartbeat IPC: 0.63535 cumulative IPC: 0.545387 (Simulation time: 0 hr 46 min 52 sec) 
select_counter is 1135
Heartbeat CPU 0 instructions: 92000000 cycles: 155593182 heartbeat IPC: 0.632989 cumulative IPC: 0.546309 (Simulation time: 0 hr 47 min 18 sec) 
select_counter is 347
Heartbeat CPU 0 instructions: 93000000 cycles: 157175304 heartbeat IPC: 0.632062 cumulative IPC: 0.547203 (Simulation time: 0 hr 47 min 40 sec) 
select_counter is 3746
Heartbeat CPU 0 instructions: 94000000 cycles: 158760296 heartbeat IPC: 0.630918 cumulative IPC: 0.548069 (Simulation time: 0 hr 47 min 57 sec) 
select_counter is 3145
Heartbeat CPU 0 instructions: 95000000 cycles: 160341299 heartbeat IPC: 0.63251 cumulative IPC: 0.548931 (Simulation time: 0 hr 48 min 13 sec) 
select_counter is 2403
Heartbeat CPU 0 instructions: 96000000 cycles: 161923625 heartbeat IPC: 0.631981 cumulative IPC: 0.549771 (Simulation time: 0 hr 48 min 31 sec) 
select_counter is 1641
Heartbeat CPU 0 instructions: 97000002 cycles: 163491043 heartbeat IPC: 0.637993 cumulative IPC: 0.550646 (Simulation time: 0 hr 48 min 44 sec) 
select_counter is 924
Heartbeat CPU 0 instructions: 98000003 cycles: 165065297 heartbeat IPC: 0.635222 cumulative IPC: 0.551481 (Simulation time: 0 hr 48 min 59 sec) 
select_counter is 251
Heartbeat CPU 0 instructions: 99000000 cycles: 166642551 heartbeat IPC: 0.634011 cumulative IPC: 0.552289 (Simulation time: 0 hr 49 min 13 sec) 
select_counter is 3734
Heartbeat CPU 0 instructions: 100000000 cycles: 168218635 heartbeat IPC: 0.634484 cumulative IPC: 0.553085 (Simulation time: 0 hr 49 min 27 sec) 
select_counter is 3139
Heartbeat CPU 0 instructions: 101000002 cycles: 169794192 heartbeat IPC: 0.634697 cumulative IPC: 0.553867 (Simulation time: 0 hr 49 min 42 sec) 
select_counter is 2443
Heartbeat CPU 0 instructions: 102000000 cycles: 171365737 heartbeat IPC: 0.636315 cumulative IPC: 0.554648 (Simulation time: 0 hr 49 min 56 sec) 
select_counter is 1780
Heartbeat CPU 0 instructions: 103000002 cycles: 172929745 heartbeat IPC: 0.639384 cumulative IPC: 0.55544 (Simulation time: 0 hr 50 min 10 sec) 
select_counter is 1059
Heartbeat CPU 0 instructions: 104000000 cycles: 174496155 heartbeat IPC: 0.638401 cumulative IPC: 0.556209 (Simulation time: 0 hr 50 min 23 sec) 
select_counter is 398
Heartbeat CPU 0 instructions: 105000003 cycles: 176080502 heartbeat IPC: 0.631177 cumulative IPC: 0.556905 (Simulation time: 0 hr 50 min 37 sec) 
select_counter is 3813
Heartbeat CPU 0 instructions: 106000002 cycles: 177662173 heartbeat IPC: 0.632242 cumulative IPC: 0.557597 (Simulation time: 0 hr 50 min 49 sec) 
select_counter is 3152
Heartbeat CPU 0 instructions: 107000000 cycles: 179236637 heartbeat IPC: 0.635136 cumulative IPC: 0.5583 (Simulation time: 0 hr 51 min 2 sec) 
select_counter is 2514
Heartbeat CPU 0 instructions: 108000000 cycles: 180805182 heartbeat IPC: 0.637533 cumulative IPC: 0.559009 (Simulation time: 0 hr 51 min 15 sec) 
select_counter is 1821
Heartbeat CPU 0 instructions: 109000002 cycles: 182365391 heartbeat IPC: 0.640941 cumulative IPC: 0.559732 (Simulation time: 0 hr 51 min 28 sec) 
select_counter is 1103
Heartbeat CPU 0 instructions: 110000000 cycles: 183933843 heartbeat IPC: 0.63757 cumulative IPC: 0.560416 (Simulation time: 0 hr 51 min 39 sec) 
select_counter is 378
Finished CPU 0 instructions: 100000003 cycles: 178438933 cummulative IPC: 0.560416 (Simulation time: 0 hr 51 min 39 sec) 

ChampSim completed all CPUs

Region of Interest Statistics

CPU 0 cummulative IPC: 0.560416 instructions: 100000003 cycles: 178438933
LLC TOTAL     ACCESS:    3481391  HIT:     275340  MISS:    3206051
LLC LOAD      ACCESS:    1002191  HIT:          9  MISS:    1002182
LLC RFO       ACCESS:     140009  HIT:          0  MISS:     140009
LLC PREFETCH  ACCESS:    1596520  HIT:      21736  MISS:    1574784
LLC WRITEBACK ACCESS:     742671  HIT:     253595  MISS:     489076
Ship samples: 
19, 46, 77, 97, 154, 178, 208, 253, 264, 290, 328, 369, 388, 438, 466, 500, 522, 544, 592, 635, 648, 701, 723, 764, 796, 817, 855, 877, 921, 950, 963, 1022, 1032, 1071, 1113, 1137, 1175, 1211, 1220, 1274, 1309, 1321, 1358, 1383, 1421, 1448, 1498, 1534, 1558, 1586, 1625, 1639, 1684, 1703, 1747, 1790, 1820, 1832, 1870, 1904, 1943, 1981, 1987, 2046, 
Lime duel samples: 
5, 32, 71, 117, 156, 167, 210, 229, 257, 302, 330, 364, 402, 428, 449, 507, 530, 571, 607, 609, 651, 686, 728, 762, 777, 806, 841, 867, 899, 942, 980, 1000, 1054, 1086, 1097, 1146, 1159, 1194, 1233, 1271, 1280, 1323, 1364, 1399, 1413, 1468, 1494, 1511, 1560, 1576, 1616, 1657, 1667, 1720, 1739, 1768, 1809, 1837, 1876, 1889, 1942, 1963, 2006, 2035, 
Lime samples: 
5, 156, 257, 402, 530, 651, 777, 899, 1054, 1159, 1280, 1413, 1560, 1667, 1809, 1942, 
Insertion Distribution: 
	LOAD 0 0 0 0 0 0 182139 488868 
	RFO 0 0 0 0 0 0 748 60409 
	PREF 0 0 0 0 0 0 85884 797858 
	WRITEBACK 0 0 0 0 0 0 0 284482 
Total Prefetch Downgrades: 2
