
*** ChampSim Multicore Out-of-Order Simulator ***

Warmup Instructions: 10000000
Simulation Instructions: 100000000
Configuration: 2
Number of CPUs: 1
LLC sets: 2048
LLC ways: 16
Off-chip DRAM Channels: 1 Width: 64-bit Data Rate: 1600 MT/s

CPU 0 runs /datasets/cs240c-wi22-a00-public/data/Assignment2-gz/cactusADM_1495B.trace.gz
CPU 0 L1D next line prefetcher
CPU 0 L2C IP-based stride prefetcher
Heartbeat CPU 0 instructions: 1000003 cycles: 593383 heartbeat IPC: 1.68526 cumulative IPC: 1.68526 (Simulation time: 0 hr 0 min 30 sec) 
select_counter is 2046
Heartbeat CPU 0 instructions: 2000000 cycles: 1186345 heartbeat IPC: 1.68644 cumulative IPC: 1.68585 (Simulation time: 0 hr 1 min 0 sec) 
select_counter is 2045
Heartbeat CPU 0 instructions: 3000003 cycles: 1779703 heartbeat IPC: 1.68533 cumulative IPC: 1.68568 (Simulation time: 0 hr 1 min 34 sec) 
select_counter is 2043
Heartbeat CPU 0 instructions: 4000000 cycles: 2372522 heartbeat IPC: 1.68685 cumulative IPC: 1.68597 (Simulation time: 0 hr 2 min 11 sec) 
select_counter is 2050
Heartbeat CPU 0 instructions: 5000000 cycles: 2965579 heartbeat IPC: 1.68618 cumulative IPC: 1.68601 (Simulation time: 0 hr 2 min 42 sec) 
select_counter is 2051
Heartbeat CPU 0 instructions: 6000001 cycles: 3558796 heartbeat IPC: 1.68573 cumulative IPC: 1.68596 (Simulation time: 0 hr 3 min 13 sec) 
select_counter is 2048
Heartbeat CPU 0 instructions: 7000000 cycles: 4151738 heartbeat IPC: 1.6865 cumulative IPC: 1.68604 (Simulation time: 0 hr 3 min 45 sec) 
select_counter is 2063
Heartbeat CPU 0 instructions: 8000000 cycles: 4906777 heartbeat IPC: 1.32443 cumulative IPC: 1.6304 (Simulation time: 0 hr 4 min 24 sec) 
select_counter is 2307
Heartbeat CPU 0 instructions: 9000002 cycles: 5499975 heartbeat IPC: 1.68578 cumulative IPC: 1.63637 (Simulation time: 0 hr 4 min 53 sec) 
select_counter is 2362
Heartbeat CPU 0 instructions: 10000002 cycles: 6092899 heartbeat IPC: 1.68656 cumulative IPC: 1.64126 (Simulation time: 0 hr 5 min 24 sec) 
select_counter is 2399

Warmup complete CPU 0 instructions: 10000002 cycles: 6092899 (Simulation time: 0 hr 5 min 24 sec) 

Heartbeat CPU 0 instructions: 11000000 cycles: 7785942 heartbeat IPC: 0.590651 cumulative IPC: 0.590651 (Simulation time: 0 hr 5 min 58 sec) 
select_counter is 2439
Heartbeat CPU 0 instructions: 12000000 cycles: 9529614 heartbeat IPC: 0.573502 cumulative IPC: 0.58195 (Simulation time: 0 hr 6 min 32 sec) 
select_counter is 2448
Heartbeat CPU 0 instructions: 13000002 cycles: 11274552 heartbeat IPC: 0.573087 cumulative IPC: 0.578966 (Simulation time: 0 hr 7 min 7 sec) 
select_counter is 2473
Heartbeat CPU 0 instructions: 14000001 cycles: 13009466 heartbeat IPC: 0.576397 cumulative IPC: 0.578321 (Simulation time: 0 hr 7 min 48 sec) 
select_counter is 2501
Heartbeat CPU 0 instructions: 15000001 cycles: 14666774 heartbeat IPC: 0.603388 cumulative IPC: 0.583167 (Simulation time: 0 hr 8 min 26 sec) 
select_counter is 2529
Heartbeat CPU 0 instructions: 16000000 cycles: 16387805 heartbeat IPC: 0.581046 cumulative IPC: 0.582812 (Simulation time: 0 hr 9 min 4 sec) 
select_counter is 2564
Heartbeat CPU 0 instructions: 17000003 cycles: 18131445 heartbeat IPC: 0.573515 cumulative IPC: 0.581466 (Simulation time: 0 hr 9 min 38 sec) 
select_counter is 2606
Heartbeat CPU 0 instructions: 18000000 cycles: 19876950 heartbeat IPC: 0.572898 cumulative IPC: 0.580381 (Simulation time: 0 hr 10 min 11 sec) 
select_counter is 2648
Heartbeat CPU 0 instructions: 19000002 cycles: 21587230 heartbeat IPC: 0.584701 cumulative IPC: 0.580858 (Simulation time: 0 hr 10 min 45 sec) 
select_counter is 2686
Heartbeat CPU 0 instructions: 20000000 cycles: 23253283 heartbeat IPC: 0.60022 cumulative IPC: 0.582737 (Simulation time: 0 hr 11 min 18 sec) 
select_counter is 2721
Heartbeat CPU 0 instructions: 21000001 cycles: 29673506 heartbeat IPC: 0.155758 cumulative IPC: 0.466485 (Simulation time: 0 hr 12 min 1 sec) 
select_counter is 2679
Heartbeat CPU 0 instructions: 22000000 cycles: 31775147 heartbeat IPC: 0.475818 cumulative IPC: 0.467249 (Simulation time: 0 hr 12 min 33 sec) 
select_counter is 2694
Heartbeat CPU 0 instructions: 23000001 cycles: 33508387 heartbeat IPC: 0.576955 cumulative IPC: 0.474184 (Simulation time: 0 hr 13 min 5 sec) 
select_counter is 2709
Heartbeat CPU 0 instructions: 24000000 cycles: 35165745 heartbeat IPC: 0.603369 cumulative IPC: 0.481549 (Simulation time: 0 hr 13 min 36 sec) 
select_counter is 2700
Heartbeat CPU 0 instructions: 25000002 cycles: 36893898 heartbeat IPC: 0.578654 cumulative IPC: 0.486997 (Simulation time: 0 hr 14 min 6 sec) 
select_counter is 2695
Heartbeat CPU 0 instructions: 26000000 cycles: 38650268 heartbeat IPC: 0.569355 cumulative IPC: 0.49144 (Simulation time: 0 hr 14 min 44 sec) 
select_counter is 2681
Heartbeat CPU 0 instructions: 27000002 cycles: 40390843 heartbeat IPC: 0.574524 cumulative IPC: 0.495657 (Simulation time: 0 hr 15 min 16 sec) 
select_counter is 2671
Heartbeat CPU 0 instructions: 28000000 cycles: 42101154 heartbeat IPC: 0.584688 cumulative IPC: 0.499885 (Simulation time: 0 hr 15 min 48 sec) 
select_counter is 2663
Heartbeat CPU 0 instructions: 29000003 cycles: 43761164 heartbeat IPC: 0.602408 cumulative IPC: 0.504403 (Simulation time: 0 hr 16 min 23 sec) 
select_counter is 2651
Heartbeat CPU 0 instructions: 30000000 cycles: 45529463 heartbeat IPC: 0.565514 cumulative IPC: 0.507143 (Simulation time: 0 hr 16 min 56 sec) 
select_counter is 2671
Heartbeat CPU 0 instructions: 31000003 cycles: 47271650 heartbeat IPC: 0.573993 cumulative IPC: 0.509972 (Simulation time: 0 hr 17 min 29 sec) 
select_counter is 2668
Heartbeat CPU 0 instructions: 32000000 cycles: 49011130 heartbeat IPC: 0.574883 cumulative IPC: 0.512603 (Simulation time: 0 hr 18 min 0 sec) 
select_counter is 2664
Heartbeat CPU 0 instructions: 33000001 cycles: 50691669 heartbeat IPC: 0.595048 cumulative IPC: 0.515709 (Simulation time: 0 hr 18 min 28 sec) 
select_counter is 2690
Heartbeat CPU 0 instructions: 34000002 cycles: 56188645 heartbeat IPC: 0.181918 cumulative IPC: 0.479083 (Simulation time: 0 hr 19 min 2 sec) 
select_counter is 2495
Heartbeat CPU 0 instructions: 35000002 cycles: 59201812 heartbeat IPC: 0.331877 cumulative IPC: 0.470731 (Simulation time: 0 hr 19 min 37 sec) 
select_counter is 2412
Heartbeat CPU 0 instructions: 36000000 cycles: 60941314 heartbeat IPC: 0.574876 cumulative IPC: 0.474034 (Simulation time: 0 hr 20 min 11 sec) 
select_counter is 2398
Heartbeat CPU 0 instructions: 37000001 cycles: 62658124 heartbeat IPC: 0.582476 cumulative IPC: 0.477325 (Simulation time: 0 hr 20 min 43 sec) 
select_counter is 2384
Heartbeat CPU 0 instructions: 38000003 cycles: 64314068 heartbeat IPC: 0.603886 cumulative IPC: 0.480925 (Simulation time: 0 hr 21 min 18 sec) 
select_counter is 2367
Heartbeat CPU 0 instructions: 39000003 cycles: 66046943 heartbeat IPC: 0.577076 cumulative IPC: 0.483704 (Simulation time: 0 hr 21 min 53 sec) 
select_counter is 2345
Heartbeat CPU 0 instructions: 40000000 cycles: 67788871 heartbeat IPC: 0.574075 cumulative IPC: 0.486255 (Simulation time: 0 hr 22 min 30 sec) 
select_counter is 2316
Heartbeat CPU 0 instructions: 41000002 cycles: 69528383 heartbeat IPC: 0.574875 cumulative IPC: 0.488685 (Simulation time: 0 hr 23 min 7 sec) 
select_counter is 2308
Heartbeat CPU 0 instructions: 42000000 cycles: 71210910 heartbeat IPC: 0.594343 cumulative IPC: 0.491415 (Simulation time: 0 hr 23 min 39 sec) 
select_counter is 2299
Heartbeat CPU 0 instructions: 43000000 cycles: 72894998 heartbeat IPC: 0.593793 cumulative IPC: 0.493996 (Simulation time: 0 hr 24 min 15 sec) 
select_counter is 2310
Heartbeat CPU 0 instructions: 44000000 cycles: 74634695 heartbeat IPC: 0.574813 cumulative IPC: 0.496048 (Simulation time: 0 hr 24 min 53 sec) 
select_counter is 2314
Heartbeat CPU 0 instructions: 45000003 cycles: 76376156 heartbeat IPC: 0.574232 cumulative IPC: 0.497985 (Simulation time: 0 hr 25 min 25 sec) 
select_counter is 2326
Heartbeat CPU 0 instructions: 46000002 cycles: 78109974 heartbeat IPC: 0.576761 cumulative IPC: 0.499881 (Simulation time: 0 hr 26 min 0 sec) 
select_counter is 2365
Heartbeat CPU 0 instructions: 47000001 cycles: 82552656 heartbeat IPC: 0.225089 cumulative IPC: 0.483915 (Simulation time: 0 hr 26 min 41 sec) 
select_counter is 2208
Heartbeat CPU 0 instructions: 48000000 cycles: 86569081 heartbeat IPC: 0.248977 cumulative IPC: 0.472189 (Simulation time: 0 hr 27 min 18 sec) 
select_counter is 2078
Heartbeat CPU 0 instructions: 49000000 cycles: 88307601 heartbeat IPC: 0.575202 cumulative IPC: 0.474368 (Simulation time: 0 hr 27 min 55 sec) 
select_counter is 2089
Heartbeat CPU 0 instructions: 50000000 cycles: 90046749 heartbeat IPC: 0.574994 cumulative IPC: 0.476452 (Simulation time: 0 hr 28 min 30 sec) 
select_counter is 2094
Heartbeat CPU 0 instructions: 51000000 cycles: 91735117 heartbeat IPC: 0.592288 cumulative IPC: 0.478736 (Simulation time: 0 hr 29 min 4 sec) 
select_counter is 2083
Heartbeat CPU 0 instructions: 52000000 cycles: 93414701 heartbeat IPC: 0.595386 cumulative IPC: 0.48098 (Simulation time: 0 hr 29 min 40 sec) 
select_counter is 2077
Heartbeat CPU 0 instructions: 53000003 cycles: 95152446 heartbeat IPC: 0.57546 cumulative IPC: 0.482823 (Simulation time: 0 hr 30 min 15 sec) 
select_counter is 2072
Heartbeat CPU 0 instructions: 54000001 cycles: 96891201 heartbeat IPC: 0.575123 cumulative IPC: 0.484591 (Simulation time: 0 hr 30 min 45 sec) 
select_counter is 2084
Heartbeat CPU 0 instructions: 55000000 cycles: 98626263 heartbeat IPC: 0.576348 cumulative IPC: 0.486311 (Simulation time: 0 hr 31 min 20 sec) 
select_counter is 2085
Heartbeat CPU 0 instructions: 56000000 cycles: 100283728 heartbeat IPC: 0.603331 cumulative IPC: 0.48837 (Simulation time: 0 hr 31 min 57 sec) 
select_counter is 2117
Heartbeat CPU 0 instructions: 57000000 cycles: 101994127 heartbeat IPC: 0.584659 cumulative IPC: 0.490088 (Simulation time: 0 hr 32 min 32 sec) 
select_counter is 2125
Heartbeat CPU 0 instructions: 58000002 cycles: 103733865 heartbeat IPC: 0.5748 cumulative IPC: 0.491597 (Simulation time: 0 hr 33 min 6 sec) 
select_counter is 2151
Heartbeat CPU 0 instructions: 59000001 cycles: 105474391 heartbeat IPC: 0.574538 cumulative IPC: 0.49305 (Simulation time: 0 hr 33 min 37 sec) 
select_counter is 2181
Heartbeat CPU 0 instructions: 60000000 cycles: 108871431 heartbeat IPC: 0.294374 cumulative IPC: 0.486483 (Simulation time: 0 hr 34 min 10 sec) 
select_counter is 2117
Heartbeat CPU 0 instructions: 61000001 cycles: 113893429 heartbeat IPC: 0.199124 cumulative IPC: 0.473096 (Simulation time: 0 hr 34 min 46 sec) 
select_counter is 1998
Heartbeat CPU 0 instructions: 62000000 cycles: 115629343 heartbeat IPC: 0.576065 cumulative IPC: 0.474728 (Simulation time: 0 hr 35 min 18 sec) 
select_counter is 1991
Heartbeat CPU 0 instructions: 63000000 cycles: 117369025 heartbeat IPC: 0.574818 cumulative IPC: 0.476293 (Simulation time: 0 hr 35 min 53 sec) 
select_counter is 1978
Heartbeat CPU 0 instructions: 64000000 cycles: 119102315 heartbeat IPC: 0.576937 cumulative IPC: 0.477836 (Simulation time: 0 hr 36 min 26 sec) 
select_counter is 1970
Heartbeat CPU 0 instructions: 65000002 cycles: 120762732 heartbeat IPC: 0.60226 cumulative IPC: 0.479638 (Simulation time: 0 hr 37 min 0 sec) 
select_counter is 1975
Heartbeat CPU 0 instructions: 66000003 cycles: 122467980 heartbeat IPC: 0.586426 cumulative IPC: 0.481203 (Simulation time: 0 hr 37 min 32 sec) 
select_counter is 1962
Heartbeat CPU 0 instructions: 67000001 cycles: 124206698 heartbeat IPC: 0.575135 cumulative IPC: 0.482585 (Simulation time: 0 hr 38 min 4 sec) 
select_counter is 1978
Heartbeat CPU 0 instructions: 68000000 cycles: 125944653 heartbeat IPC: 0.575388 cumulative IPC: 0.483931 (Simulation time: 0 hr 38 min 34 sec) 
select_counter is 1987
Heartbeat CPU 0 instructions: 69000003 cycles: 127660202 heartbeat IPC: 0.582906 cumulative IPC: 0.485328 (Simulation time: 0 hr 39 min 5 sec) 
select_counter is 2008
Heartbeat CPU 0 instructions: 70000000 cycles: 129312132 heartbeat IPC: 0.605351 cumulative IPC: 0.486937 (Simulation time: 0 hr 39 min 40 sec) 
select_counter is 2018
Heartbeat CPU 0 instructions: 71000002 cycles: 131039147 heartbeat IPC: 0.579035 cumulative IPC: 0.48821 (Simulation time: 0 hr 40 min 13 sec) 
select_counter is 2037
Heartbeat CPU 0 instructions: 72000000 cycles: 132776554 heartbeat IPC: 0.575569 cumulative IPC: 0.489408 (Simulation time: 0 hr 40 min 46 sec) 
select_counter is 2056
Heartbeat CPU 0 instructions: 73000001 cycles: 135253961 heartbeat IPC: 0.403648 cumulative IPC: 0.487763 (Simulation time: 0 hr 41 min 24 sec) 
select_counter is 2033
Heartbeat CPU 0 instructions: 74000002 cycles: 141201789 heartbeat IPC: 0.168129 cumulative IPC: 0.473692 (Simulation time: 0 hr 42 min 4 sec) 
select_counter is 1874
Heartbeat CPU 0 instructions: 75000002 cycles: 142899549 heartbeat IPC: 0.589011 cumulative IPC: 0.475123 (Simulation time: 0 hr 42 min 41 sec) 
select_counter is 1872
Heartbeat CPU 0 instructions: 76000000 cycles: 144638913 heartbeat IPC: 0.574922 cumulative IPC: 0.476376 (Simulation time: 0 hr 43 min 11 sec) 
select_counter is 1857
Heartbeat CPU 0 instructions: 77000001 cycles: 146377938 heartbeat IPC: 0.575035 cumulative IPC: 0.477599 (Simulation time: 0 hr 43 min 44 sec) 
select_counter is 1846
Heartbeat CPU 0 instructions: 78000000 cycles: 148100420 heartbeat IPC: 0.580557 cumulative IPC: 0.478848 (Simulation time: 0 hr 44 min 19 sec) 
select_counter is 1834
Heartbeat CPU 0 instructions: 79000003 cycles: 149746999 heartbeat IPC: 0.607322 cumulative IPC: 0.48032 (Simulation time: 0 hr 44 min 48 sec) 
select_counter is 1827
Heartbeat CPU 0 instructions: 80000000 cycles: 151477469 heartbeat IPC: 0.577876 cumulative IPC: 0.481482 (Simulation time: 0 hr 45 min 18 sec) 
select_counter is 1836
Heartbeat CPU 0 instructions: 81000002 cycles: 153216169 heartbeat IPC: 0.575144 cumulative IPC: 0.482588 (Simulation time: 0 hr 45 min 46 sec) 
select_counter is 1819
Heartbeat CPU 0 instructions: 82000000 cycles: 154954527 heartbeat IPC: 0.575254 cumulative IPC: 0.483671 (Simulation time: 0 hr 46 min 13 sec) 
select_counter is 1835
Heartbeat CPU 0 instructions: 83000000 cycles: 156641222 heartbeat IPC: 0.592875 cumulative IPC: 0.484894 (Simulation time: 0 hr 46 min 35 sec) 
select_counter is 1839
Heartbeat CPU 0 instructions: 84000000 cycles: 158315676 heartbeat IPC: 0.59721 cumulative IPC: 0.48613 (Simulation time: 0 hr 46 min 55 sec) 
select_counter is 1846
Heartbeat CPU 0 instructions: 85000003 cycles: 160076434 heartbeat IPC: 0.567939 cumulative IPC: 0.487065 (Simulation time: 0 hr 47 min 20 sec) 
select_counter is 1861
Heartbeat CPU 0 instructions: 86000000 cycles: 161814697 heartbeat IPC: 0.575285 cumulative IPC: 0.48805 (Simulation time: 0 hr 47 min 40 sec) 
select_counter is 1887
Heartbeat CPU 0 instructions: 87000001 cycles: 168570096 heartbeat IPC: 0.14803 cumulative IPC: 0.473913 (Simulation time: 0 hr 48 min 2 sec) 
select_counter is 1921
Heartbeat CPU 0 instructions: 88000000 cycles: 170214750 heartbeat IPC: 0.60803 cumulative IPC: 0.475257 (Simulation time: 0 hr 48 min 20 sec) 
select_counter is 1931
Heartbeat CPU 0 instructions: 89000002 cycles: 171942718 heartbeat IPC: 0.578716 cumulative IPC: 0.476335 (Simulation time: 0 hr 48 min 36 sec) 
select_counter is 1912
Heartbeat CPU 0 instructions: 90000001 cycles: 173708008 heartbeat IPC: 0.566479 cumulative IPC: 0.477284 (Simulation time: 0 hr 48 min 53 sec) 
select_counter is 1906
Heartbeat CPU 0 instructions: 91000002 cycles: 175446803 heartbeat IPC: 0.575112 cumulative IPC: 0.478288 (Simulation time: 0 hr 49 min 10 sec) 
select_counter is 1892
Heartbeat CPU 0 instructions: 92000000 cycles: 177140455 heartbeat IPC: 0.590439 cumulative IPC: 0.479399 (Simulation time: 0 hr 49 min 27 sec) 
select_counter is 1890
Heartbeat CPU 0 instructions: 93000002 cycles: 178811106 heartbeat IPC: 0.59857 cumulative IPC: 0.480552 (Simulation time: 0 hr 49 min 43 sec) 
select_counter is 1881
Heartbeat CPU 0 instructions: 94000002 cycles: 180545546 heartbeat IPC: 0.576555 cumulative IPC: 0.481506 (Simulation time: 0 hr 49 min 58 sec) 
select_counter is 1880
Heartbeat CPU 0 instructions: 95000003 cycles: 182285483 heartbeat IPC: 0.574734 cumulative IPC: 0.482427 (Simulation time: 0 hr 50 min 13 sec) 
select_counter is 1885
Heartbeat CPU 0 instructions: 96000000 cycles: 184018960 heartbeat IPC: 0.576874 cumulative IPC: 0.483347 (Simulation time: 0 hr 50 min 28 sec) 
select_counter is 1885
Heartbeat CPU 0 instructions: 97000003 cycles: 185679532 heartbeat IPC: 0.602204 cumulative IPC: 0.484446 (Simulation time: 0 hr 50 min 43 sec) 
select_counter is 1900
Heartbeat CPU 0 instructions: 98000003 cycles: 187379894 heartbeat IPC: 0.58811 cumulative IPC: 0.485418 (Simulation time: 0 hr 50 min 56 sec) 
select_counter is 1911
Heartbeat CPU 0 instructions: 99000000 cycles: 189116113 heartbeat IPC: 0.575962 cumulative IPC: 0.486277 (Simulation time: 0 hr 51 min 10 sec) 
select_counter is 1925
Heartbeat CPU 0 instructions: 100000000 cycles: 195882620 heartbeat IPC: 0.147787 cumulative IPC: 0.474209 (Simulation time: 0 hr 51 min 27 sec) 
select_counter is 1965
Heartbeat CPU 0 instructions: 101000000 cycles: 197580587 heartbeat IPC: 0.58894 cumulative IPC: 0.475226 (Simulation time: 0 hr 51 min 40 sec) 
select_counter is 1964
Heartbeat CPU 0 instructions: 102000003 cycles: 199248419 heartbeat IPC: 0.599583 cumulative IPC: 0.4763 (Simulation time: 0 hr 51 min 52 sec) 
select_counter is 1948
Heartbeat CPU 0 instructions: 103000000 cycles: 200982587 heartbeat IPC: 0.576644 cumulative IPC: 0.477193 (Simulation time: 0 hr 52 min 3 sec) 
select_counter is 1936
Heartbeat CPU 0 instructions: 104000000 cycles: 202721979 heartbeat IPC: 0.574914 cumulative IPC: 0.478057 (Simulation time: 0 hr 52 min 14 sec) 
select_counter is 1911
Heartbeat CPU 0 instructions: 105000001 cycles: 204456596 heartbeat IPC: 0.576497 cumulative IPC: 0.478918 (Simulation time: 0 hr 52 min 25 sec) 
select_counter is 1902
Heartbeat CPU 0 instructions: 106000000 cycles: 206124554 heartbeat IPC: 0.599535 cumulative IPC: 0.479924 (Simulation time: 0 hr 52 min 34 sec) 
select_counter is 1900
Heartbeat CPU 0 instructions: 107000001 cycles: 207819946 heartbeat IPC: 0.589835 cumulative IPC: 0.480848 (Simulation time: 0 hr 52 min 43 sec) 
select_counter is 1892
Heartbeat CPU 0 instructions: 108000000 cycles: 209558012 heartbeat IPC: 0.575352 cumulative IPC: 0.481655 (Simulation time: 0 hr 52 min 53 sec) 
select_counter is 1891
Heartbeat CPU 0 instructions: 109000002 cycles: 211296297 heartbeat IPC: 0.575281 cumulative IPC: 0.482448 (Simulation time: 0 hr 53 min 0 sec) 
select_counter is 1902
Heartbeat CPU 0 instructions: 110000001 cycles: 213019704 heartbeat IPC: 0.580245 cumulative IPC: 0.483263 (Simulation time: 0 hr 53 min 7 sec) 
select_counter is 1907
Finished CPU 0 instructions: 100000003 cycles: 206926806 cummulative IPC: 0.483263 (Simulation time: 0 hr 53 min 7 sec) 

ChampSim completed all CPUs

Region of Interest Statistics

CPU 0 cummulative IPC: 0.483263 instructions: 100000003 cycles: 206926806
LLC TOTAL     ACCESS:    1110639  HIT:     317181  MISS:     793458
LLC LOAD      ACCESS:      26182  HIT:       2677  MISS:      23505
LLC RFO       ACCESS:     245174  HIT:      31065  MISS:     214109
LLC PREFETCH  ACCESS:     593774  HIT:     170344  MISS:     423430
LLC WRITEBACK ACCESS:     245509  HIT:     113095  MISS:     132414
Ship samples: 
16, 39, 78, 101, 148, 179, 196, 255, 286, 302, 348, 374, 393, 447, 448, 501, 534, 553, 576, 626, 648, 680, 731, 747, 786, 826, 832, 877, 903, 931, 988, 994, 1043, 1072, 1088, 1143, 1182, 1206, 1220, 1270, 1290, 1318, 1346, 1396, 1439, 1457, 1487, 1518, 1567, 1589, 1601, 1640, 1676, 1721, 1729, 1768, 1792, 1846, 1857, 1900, 1921, 1980, 1994, 2031, 
Lime duel samples: 
9, 59, 70, 103, 140, 164, 202, 229, 284, 290, 349, 375, 414, 438, 473, 495, 539, 571, 606, 629, 644, 700, 717, 740, 797, 808, 847, 881, 905, 940, 967, 1016, 1042, 1067, 1107, 1122, 1161, 1184, 1241, 1250, 1303, 1329, 1354, 1395, 1417, 1463, 1499, 1523, 1538, 1598, 1631, 1644, 1695, 1727, 1745, 1775, 1803, 1838, 1858, 1898, 1920, 1981, 2000, 2034, 
Lime samples: 
9, 140, 284, 414, 539, 644, 797, 905, 1042, 1161, 1303, 1417, 1538, 1695, 1803, 1920, 
Insertion Distribution: 
	LOAD 4 0 0 0 0 0 883 9658 
	RFO 2677 0 0 0 0 0 7769 80626 
	PREF 0 4384 0 0 0 0 27276 169766 
	WRITEBACK 0 0 0 0 0 0 0 80681 
Total Prefetch Downgrades: 1251
