
*** ChampSim Multicore Out-of-Order Simulator ***

Warmup Instructions: 10000000
Simulation Instructions: 100000000
Configuration: 2
Number of CPUs: 1
LLC sets: 2048
LLC ways: 16
Off-chip DRAM Channels: 1 Width: 64-bit Data Rate: 1600 MT/s

CPU 0 runs /datasets/cs240c-wi22-a00-public/data/Assignment2-gz/zeusmp_300B.trace.gz
CPU 0 L1D next line prefetcher
CPU 0 L2C IP-based stride prefetcher
Heartbeat CPU 0 instructions: 1000003 cycles: 509548 heartbeat IPC: 1.96253 cumulative IPC: 1.96253 (Simulation time: 0 hr 0 min 30 sec) 
select_counter is 2046
Heartbeat CPU 0 instructions: 2000003 cycles: 1061751 heartbeat IPC: 1.81093 cumulative IPC: 1.88368 (Simulation time: 0 hr 0 min 53 sec) 
select_counter is 1999
Heartbeat CPU 0 instructions: 3000002 cycles: 1605669 heartbeat IPC: 1.83851 cumulative IPC: 1.86838 (Simulation time: 0 hr 1 min 16 sec) 
select_counter is 2009
Heartbeat CPU 0 instructions: 4000000 cycles: 2092457 heartbeat IPC: 2.05428 cumulative IPC: 1.91163 (Simulation time: 0 hr 1 min 44 sec) 
select_counter is 1996
Heartbeat CPU 0 instructions: 5000001 cycles: 2575143 heartbeat IPC: 2.07174 cumulative IPC: 1.94164 (Simulation time: 0 hr 2 min 6 sec) 
select_counter is 1978
Heartbeat CPU 0 instructions: 6000000 cycles: 3061843 heartbeat IPC: 2.05465 cumulative IPC: 1.9596 (Simulation time: 0 hr 2 min 27 sec) 
select_counter is 1961
Heartbeat CPU 0 instructions: 7000001 cycles: 3589975 heartbeat IPC: 1.89347 cumulative IPC: 1.94987 (Simulation time: 0 hr 2 min 48 sec) 
select_counter is 1939
Heartbeat CPU 0 instructions: 8000000 cycles: 4143919 heartbeat IPC: 1.80523 cumulative IPC: 1.93054 (Simulation time: 0 hr 3 min 8 sec) 
select_counter is 1942
Heartbeat CPU 0 instructions: 9000000 cycles: 4671804 heartbeat IPC: 1.89435 cumulative IPC: 1.92645 (Simulation time: 0 hr 3 min 35 sec) 
select_counter is 1949
Heartbeat CPU 0 instructions: 10000002 cycles: 5158131 heartbeat IPC: 2.05623 cumulative IPC: 1.93869 (Simulation time: 0 hr 3 min 59 sec) 
select_counter is 1929

Warmup complete CPU 0 instructions: 10000002 cycles: 5158131 (Simulation time: 0 hr 3 min 59 sec) 

Heartbeat CPU 0 instructions: 11000003 cycles: 5866731 heartbeat IPC: 1.41123 cumulative IPC: 1.41123 (Simulation time: 0 hr 4 min 26 sec) 
select_counter is 1932
Heartbeat CPU 0 instructions: 12000000 cycles: 6570929 heartbeat IPC: 1.42005 cumulative IPC: 1.41563 (Simulation time: 0 hr 4 min 53 sec) 
select_counter is 1950
Heartbeat CPU 0 instructions: 13000000 cycles: 7378762 heartbeat IPC: 1.23788 cumulative IPC: 1.35097 (Simulation time: 0 hr 5 min 22 sec) 
select_counter is 1965
Heartbeat CPU 0 instructions: 14000000 cycles: 8191171 heartbeat IPC: 1.23091 cumulative IPC: 1.31881 (Simulation time: 0 hr 5 min 50 sec) 
select_counter is 1968
Heartbeat CPU 0 instructions: 15000002 cycles: 8931984 heartbeat IPC: 1.34987 cumulative IPC: 1.32491 (Simulation time: 0 hr 6 min 13 sec) 
select_counter is 1989
Heartbeat CPU 0 instructions: 16000000 cycles: 9636825 heartbeat IPC: 1.41876 cumulative IPC: 1.33968 (Simulation time: 0 hr 6 min 42 sec) 
select_counter is 1991
Heartbeat CPU 0 instructions: 17000003 cycles: 10346314 heartbeat IPC: 1.40947 cumulative IPC: 1.34922 (Simulation time: 0 hr 7 min 4 sec) 
select_counter is 1999
Heartbeat CPU 0 instructions: 18000000 cycles: 11070019 heartbeat IPC: 1.38177 cumulative IPC: 1.35321 (Simulation time: 0 hr 7 min 29 sec) 
select_counter is 2013
Heartbeat CPU 0 instructions: 19000003 cycles: 11887337 heartbeat IPC: 1.22352 cumulative IPC: 1.33745 (Simulation time: 0 hr 7 min 55 sec) 
select_counter is 2018
Heartbeat CPU 0 instructions: 20000000 cycles: 12698729 heartbeat IPC: 1.23245 cumulative IPC: 1.32615 (Simulation time: 0 hr 8 min 21 sec) 
select_counter is 2020
Heartbeat CPU 0 instructions: 21000001 cycles: 13411577 heartbeat IPC: 1.40282 cumulative IPC: 1.33278 (Simulation time: 0 hr 8 min 42 sec) 
select_counter is 2018
Heartbeat CPU 0 instructions: 22000000 cycles: 14119537 heartbeat IPC: 1.41251 cumulative IPC: 1.33908 (Simulation time: 0 hr 9 min 6 sec) 
select_counter is 2024
Heartbeat CPU 0 instructions: 23000001 cycles: 14826774 heartbeat IPC: 1.41395 cumulative IPC: 1.34455 (Simulation time: 0 hr 9 min 30 sec) 
select_counter is 2055
Heartbeat CPU 0 instructions: 24000000 cycles: 15580022 heartbeat IPC: 1.32758 cumulative IPC: 1.34333 (Simulation time: 0 hr 9 min 54 sec) 
select_counter is 2060
Heartbeat CPU 0 instructions: 25000000 cycles: 16391042 heartbeat IPC: 1.23302 cumulative IPC: 1.33536 (Simulation time: 0 hr 10 min 18 sec) 
select_counter is 2075
Heartbeat CPU 0 instructions: 26000000 cycles: 17193799 heartbeat IPC: 1.24571 cumulative IPC: 1.32938 (Simulation time: 0 hr 10 min 44 sec) 
select_counter is 2065
Heartbeat CPU 0 instructions: 27000002 cycles: 17896328 heartbeat IPC: 1.42343 cumulative IPC: 1.33457 (Simulation time: 0 hr 11 min 11 sec) 
select_counter is 2059
Heartbeat CPU 0 instructions: 28000000 cycles: 18600496 heartbeat IPC: 1.42011 cumulative IPC: 1.33905 (Simulation time: 0 hr 11 min 35 sec) 
select_counter is 2067
Heartbeat CPU 0 instructions: 29000003 cycles: 19302927 heartbeat IPC: 1.42363 cumulative IPC: 1.34325 (Simulation time: 0 hr 12 min 2 sec) 
select_counter is 2079
Heartbeat CPU 0 instructions: 30000002 cycles: 20073360 heartbeat IPC: 1.29797 cumulative IPC: 1.34091 (Simulation time: 0 hr 12 min 30 sec) 
select_counter is 2114
Heartbeat CPU 0 instructions: 31000001 cycles: 20888788 heartbeat IPC: 1.22635 cumulative IPC: 1.33497 (Simulation time: 0 hr 12 min 56 sec) 
select_counter is 2122
Heartbeat CPU 0 instructions: 32000000 cycles: 21662780 heartbeat IPC: 1.292 cumulative IPC: 1.33296 (Simulation time: 0 hr 13 min 22 sec) 
select_counter is 2124
Heartbeat CPU 0 instructions: 33000000 cycles: 22362682 heartbeat IPC: 1.42877 cumulative IPC: 1.33686 (Simulation time: 0 hr 13 min 46 sec) 
select_counter is 2126
Heartbeat CPU 0 instructions: 34000000 cycles: 23070430 heartbeat IPC: 1.41293 cumulative IPC: 1.33986 (Simulation time: 0 hr 14 min 15 sec) 
select_counter is 2146
Heartbeat CPU 0 instructions: 35000000 cycles: 23770106 heartbeat IPC: 1.42923 cumulative IPC: 1.34322 (Simulation time: 0 hr 14 min 39 sec) 
select_counter is 2168
Heartbeat CPU 0 instructions: 36000000 cycles: 24565372 heartbeat IPC: 1.25744 cumulative IPC: 1.33971 (Simulation time: 0 hr 15 min 8 sec) 
select_counter is 2218
Heartbeat CPU 0 instructions: 37000003 cycles: 25380191 heartbeat IPC: 1.22727 cumulative IPC: 1.33518 (Simulation time: 0 hr 15 min 36 sec) 
select_counter is 2209
Heartbeat CPU 0 instructions: 38000001 cycles: 26131999 heartbeat IPC: 1.33012 cumulative IPC: 1.33499 (Simulation time: 0 hr 16 min 1 sec) 
select_counter is 2186
Heartbeat CPU 0 instructions: 39000002 cycles: 26832529 heartbeat IPC: 1.42749 cumulative IPC: 1.33798 (Simulation time: 0 hr 16 min 27 sec) 
select_counter is 2184
Heartbeat CPU 0 instructions: 40000000 cycles: 27540096 heartbeat IPC: 1.41329 cumulative IPC: 1.34036 (Simulation time: 0 hr 16 min 55 sec) 
select_counter is 2203
Heartbeat CPU 0 instructions: 41000001 cycles: 28239894 heartbeat IPC: 1.42899 cumulative IPC: 1.34305 (Simulation time: 0 hr 17 min 24 sec) 
select_counter is 2217
Heartbeat CPU 0 instructions: 42000001 cycles: 29064980 heartbeat IPC: 1.21199 cumulative IPC: 1.33853 (Simulation time: 0 hr 17 min 49 sec) 
select_counter is 2233
Heartbeat CPU 0 instructions: 43000000 cycles: 29874706 heartbeat IPC: 1.23498 cumulative IPC: 1.33514 (Simulation time: 0 hr 18 min 15 sec) 
select_counter is 2231
Heartbeat CPU 0 instructions: 44000000 cycles: 30597207 heartbeat IPC: 1.38408 cumulative IPC: 1.33653 (Simulation time: 0 hr 18 min 37 sec) 
select_counter is 2219
Heartbeat CPU 0 instructions: 45000002 cycles: 31302477 heartbeat IPC: 1.4179 cumulative IPC: 1.33872 (Simulation time: 0 hr 19 min 1 sec) 
select_counter is 2212
Heartbeat CPU 0 instructions: 46000002 cycles: 32006853 heartbeat IPC: 1.4197 cumulative IPC: 1.34085 (Simulation time: 0 hr 19 min 25 sec) 
select_counter is 2214
Heartbeat CPU 0 instructions: 47000001 cycles: 32743914 heartbeat IPC: 1.35674 cumulative IPC: 1.34127 (Simulation time: 0 hr 19 min 50 sec) 
select_counter is 2223
Heartbeat CPU 0 instructions: 48000000 cycles: 33554410 heartbeat IPC: 1.23381 cumulative IPC: 1.3382 (Simulation time: 0 hr 20 min 17 sec) 
select_counter is 2232
Heartbeat CPU 0 instructions: 49000003 cycles: 34360972 heartbeat IPC: 1.23983 cumulative IPC: 1.33549 (Simulation time: 0 hr 20 min 45 sec) 
select_counter is 2235
Heartbeat CPU 0 instructions: 50000001 cycles: 35062985 heartbeat IPC: 1.42447 cumulative IPC: 1.33758 (Simulation time: 0 hr 21 min 9 sec) 
select_counter is 2234
Heartbeat CPU 0 instructions: 51000002 cycles: 35767826 heartbeat IPC: 1.41876 cumulative IPC: 1.33944 (Simulation time: 0 hr 21 min 34 sec) 
select_counter is 2253
Heartbeat CPU 0 instructions: 52000000 cycles: 36474338 heartbeat IPC: 1.4154 cumulative IPC: 1.34116 (Simulation time: 0 hr 21 min 58 sec) 
select_counter is 2281
Heartbeat CPU 0 instructions: 53000000 cycles: 37238384 heartbeat IPC: 1.30882 cumulative IPC: 1.34039 (Simulation time: 0 hr 22 min 21 sec) 
select_counter is 2319
Heartbeat CPU 0 instructions: 54000002 cycles: 38048129 heartbeat IPC: 1.23496 cumulative IPC: 1.33779 (Simulation time: 0 hr 22 min 45 sec) 
select_counter is 2345
Heartbeat CPU 0 instructions: 55000001 cycles: 38829434 heartbeat IPC: 1.27991 cumulative IPC: 1.33645 (Simulation time: 0 hr 23 min 11 sec) 
select_counter is 2344
Heartbeat CPU 0 instructions: 56000000 cycles: 39531733 heartbeat IPC: 1.42389 cumulative IPC: 1.33824 (Simulation time: 0 hr 23 min 37 sec) 
select_counter is 2340
Heartbeat CPU 0 instructions: 57000000 cycles: 40237447 heartbeat IPC: 1.417 cumulative IPC: 1.33982 (Simulation time: 0 hr 24 min 5 sec) 
select_counter is 2341
Heartbeat CPU 0 instructions: 58000000 cycles: 40944412 heartbeat IPC: 1.4145 cumulative IPC: 1.3413 (Simulation time: 0 hr 24 min 32 sec) 
select_counter is 2352
Heartbeat CPU 0 instructions: 59000003 cycles: 41731318 heartbeat IPC: 1.2708 cumulative IPC: 1.33978 (Simulation time: 0 hr 25 min 1 sec) 
select_counter is 2354
Heartbeat CPU 0 instructions: 60000000 cycles: 42542573 heartbeat IPC: 1.23265 cumulative IPC: 1.33745 (Simulation time: 0 hr 25 min 28 sec) 
select_counter is 2340
Heartbeat CPU 0 instructions: 61000000 cycles: 43300575 heartbeat IPC: 1.31926 cumulative IPC: 1.33709 (Simulation time: 0 hr 25 min 52 sec) 
select_counter is 2319
Heartbeat CPU 0 instructions: 62000002 cycles: 44004825 heartbeat IPC: 1.41995 cumulative IPC: 1.3386 (Simulation time: 0 hr 26 min 19 sec) 
select_counter is 2284
Heartbeat CPU 0 instructions: 63000003 cycles: 44710387 heartbeat IPC: 1.41731 cumulative IPC: 1.34 (Simulation time: 0 hr 26 min 50 sec) 
select_counter is 2271
Heartbeat CPU 0 instructions: 64000000 cycles: 45412354 heartbeat IPC: 1.42456 cumulative IPC: 1.34147 (Simulation time: 0 hr 27 min 18 sec) 
select_counter is 2263
Heartbeat CPU 0 instructions: 65000003 cycles: 46226801 heartbeat IPC: 1.22783 cumulative IPC: 1.33922 (Simulation time: 0 hr 27 min 45 sec) 
select_counter is 2295
Heartbeat CPU 0 instructions: 66000003 cycles: 47038492 heartbeat IPC: 1.232 cumulative IPC: 1.33714 (Simulation time: 0 hr 28 min 9 sec) 
select_counter is 2289
Heartbeat CPU 0 instructions: 67000002 cycles: 47770933 heartbeat IPC: 1.3653 cumulative IPC: 1.33763 (Simulation time: 0 hr 28 min 31 sec) 
select_counter is 2295
Heartbeat CPU 0 instructions: 68000000 cycles: 48474702 heartbeat IPC: 1.42092 cumulative IPC: 1.33898 (Simulation time: 0 hr 28 min 55 sec) 
select_counter is 2291
Heartbeat CPU 0 instructions: 69000000 cycles: 49181481 heartbeat IPC: 1.41487 cumulative IPC: 1.3402 (Simulation time: 0 hr 29 min 24 sec) 
select_counter is 2266
Heartbeat CPU 0 instructions: 70000001 cycles: 49916320 heartbeat IPC: 1.36084 cumulative IPC: 1.34054 (Simulation time: 0 hr 29 min 54 sec) 
select_counter is 2254
Heartbeat CPU 0 instructions: 71000001 cycles: 50724234 heartbeat IPC: 1.23776 cumulative IPC: 1.33871 (Simulation time: 0 hr 30 min 23 sec) 
select_counter is 2260
Heartbeat CPU 0 instructions: 72000000 cycles: 51534520 heartbeat IPC: 1.23413 cumulative IPC: 1.33689 (Simulation time: 0 hr 30 min 46 sec) 
select_counter is 2258
Heartbeat CPU 0 instructions: 73000003 cycles: 52244280 heartbeat IPC: 1.40893 cumulative IPC: 1.33797 (Simulation time: 0 hr 31 min 8 sec) 
select_counter is 2249
Heartbeat CPU 0 instructions: 74000001 cycles: 52951385 heartbeat IPC: 1.41421 cumulative IPC: 1.3391 (Simulation time: 0 hr 31 min 35 sec) 
select_counter is 2240
Heartbeat CPU 0 instructions: 75000003 cycles: 53657953 heartbeat IPC: 1.41529 cumulative IPC: 1.34021 (Simulation time: 0 hr 32 min 0 sec) 
select_counter is 2231
Heartbeat CPU 0 instructions: 76000000 cycles: 54416731 heartbeat IPC: 1.3179 cumulative IPC: 1.33987 (Simulation time: 0 hr 32 min 23 sec) 
select_counter is 2202
Heartbeat CPU 0 instructions: 77000001 cycles: 55227409 heartbeat IPC: 1.23354 cumulative IPC: 1.33815 (Simulation time: 0 hr 32 min 52 sec) 
select_counter is 2197
Heartbeat CPU 0 instructions: 78000003 cycles: 56016516 heartbeat IPC: 1.26726 cumulative IPC: 1.33705 (Simulation time: 0 hr 33 min 17 sec) 
select_counter is 2205
Heartbeat CPU 0 instructions: 79000001 cycles: 56720655 heartbeat IPC: 1.42017 cumulative IPC: 1.33818 (Simulation time: 0 hr 33 min 42 sec) 
select_counter is 2172
Heartbeat CPU 0 instructions: 80000000 cycles: 57428120 heartbeat IPC: 1.4135 cumulative IPC: 1.3392 (Simulation time: 0 hr 34 min 9 sec) 
select_counter is 2120
Heartbeat CPU 0 instructions: 81000000 cycles: 58133025 heartbeat IPC: 1.41863 cumulative IPC: 1.34026 (Simulation time: 0 hr 34 min 39 sec) 
select_counter is 2100
Heartbeat CPU 0 instructions: 82000002 cycles: 58914647 heartbeat IPC: 1.27939 cumulative IPC: 1.33937 (Simulation time: 0 hr 35 min 3 sec) 
select_counter is 2086
Heartbeat CPU 0 instructions: 83000001 cycles: 59724610 heartbeat IPC: 1.23462 cumulative IPC: 1.33782 (Simulation time: 0 hr 35 min 27 sec) 
select_counter is 2098
Heartbeat CPU 0 instructions: 84000000 cycles: 60487921 heartbeat IPC: 1.31008 cumulative IPC: 1.33744 (Simulation time: 0 hr 35 min 53 sec) 
select_counter is 2110
Heartbeat CPU 0 instructions: 85000001 cycles: 61191437 heartbeat IPC: 1.42143 cumulative IPC: 1.33849 (Simulation time: 0 hr 36 min 19 sec) 
select_counter is 2107
Heartbeat CPU 0 instructions: 86000002 cycles: 61900297 heartbeat IPC: 1.41072 cumulative IPC: 1.33939 (Simulation time: 0 hr 36 min 44 sec) 
select_counter is 2090
Heartbeat CPU 0 instructions: 87000000 cycles: 62606295 heartbeat IPC: 1.41643 cumulative IPC: 1.34034 (Simulation time: 0 hr 37 min 6 sec) 
select_counter is 2084
Heartbeat CPU 0 instructions: 88000000 cycles: 63412384 heartbeat IPC: 1.24056 cumulative IPC: 1.33896 (Simulation time: 0 hr 37 min 30 sec) 
select_counter is 2047
Heartbeat CPU 0 instructions: 89000000 cycles: 64224026 heartbeat IPC: 1.23207 cumulative IPC: 1.33749 (Simulation time: 0 hr 37 min 55 sec) 
select_counter is 2050
Heartbeat CPU 0 instructions: 90000002 cycles: 64965499 heartbeat IPC: 1.34867 cumulative IPC: 1.33763 (Simulation time: 0 hr 38 min 19 sec) 
select_counter is 2031
Heartbeat CPU 0 instructions: 91000002 cycles: 65670669 heartbeat IPC: 1.4181 cumulative IPC: 1.33857 (Simulation time: 0 hr 38 min 41 sec) 
select_counter is 2019
Heartbeat CPU 0 instructions: 92000000 cycles: 66379087 heartbeat IPC: 1.41159 cumulative IPC: 1.33941 (Simulation time: 0 hr 39 min 7 sec) 
select_counter is 2007
Heartbeat CPU 0 instructions: 93000001 cycles: 67083038 heartbeat IPC: 1.42055 cumulative IPC: 1.34033 (Simulation time: 0 hr 39 min 31 sec) 
select_counter is 1995
Heartbeat CPU 0 instructions: 94000000 cycles: 67912526 heartbeat IPC: 1.20556 cumulative IPC: 1.33855 (Simulation time: 0 hr 39 min 58 sec) 
select_counter is 1990
Heartbeat CPU 0 instructions: 95000003 cycles: 68723798 heartbeat IPC: 1.23264 cumulative IPC: 1.3372 (Simulation time: 0 hr 40 min 22 sec) 
select_counter is 1987
Heartbeat CPU 0 instructions: 96000000 cycles: 69443201 heartbeat IPC: 1.39004 cumulative IPC: 1.33779 (Simulation time: 0 hr 40 min 45 sec) 
select_counter is 1986
Heartbeat CPU 0 instructions: 97000001 cycles: 70151809 heartbeat IPC: 1.41122 cumulative IPC: 1.33859 (Simulation time: 0 hr 41 min 8 sec) 
select_counter is 1974
Heartbeat CPU 0 instructions: 98000000 cycles: 70860949 heartbeat IPC: 1.41016 cumulative IPC: 1.33936 (Simulation time: 0 hr 41 min 31 sec) 
select_counter is 1980
Heartbeat CPU 0 instructions: 99000001 cycles: 71608478 heartbeat IPC: 1.33774 cumulative IPC: 1.33935 (Simulation time: 0 hr 41 min 55 sec) 
select_counter is 1974
Heartbeat CPU 0 instructions: 100000000 cycles: 72420729 heartbeat IPC: 1.23115 cumulative IPC: 1.33804 (Simulation time: 0 hr 42 min 18 sec) 
select_counter is 1978
Heartbeat CPU 0 instructions: 101000001 cycles: 73224286 heartbeat IPC: 1.24447 cumulative IPC: 1.33693 (Simulation time: 0 hr 42 min 43 sec) 
select_counter is 1967
Heartbeat CPU 0 instructions: 102000003 cycles: 73928996 heartbeat IPC: 1.41903 cumulative IPC: 1.33778 (Simulation time: 0 hr 43 min 4 sec) 
select_counter is 1946
Heartbeat CPU 0 instructions: 103000003 cycles: 74637119 heartbeat IPC: 1.41218 cumulative IPC: 1.33853 (Simulation time: 0 hr 43 min 29 sec) 
select_counter is 1917
Heartbeat CPU 0 instructions: 104000000 cycles: 75342910 heartbeat IPC: 1.41685 cumulative IPC: 1.33932 (Simulation time: 0 hr 43 min 51 sec) 
select_counter is 1861
Heartbeat CPU 0 instructions: 105000001 cycles: 76118982 heartbeat IPC: 1.28854 cumulative IPC: 1.33877 (Simulation time: 0 hr 44 min 16 sec) 
select_counter is 1845
Heartbeat CPU 0 instructions: 106000002 cycles: 76926521 heartbeat IPC: 1.23833 cumulative IPC: 1.33764 (Simulation time: 0 hr 44 min 41 sec) 
select_counter is 1848
Heartbeat CPU 0 instructions: 107000003 cycles: 77703403 heartbeat IPC: 1.2872 cumulative IPC: 1.3371 (Simulation time: 0 hr 45 min 4 sec) 
select_counter is 1828
Heartbeat CPU 0 instructions: 108000000 cycles: 78408328 heartbeat IPC: 1.41859 cumulative IPC: 1.33788 (Simulation time: 0 hr 45 min 23 sec) 
select_counter is 1793
Heartbeat CPU 0 instructions: 109000001 cycles: 79115743 heartbeat IPC: 1.4136 cumulative IPC: 1.3386 (Simulation time: 0 hr 45 min 46 sec) 
select_counter is 1772
Heartbeat CPU 0 instructions: 110000000 cycles: 79821863 heartbeat IPC: 1.41619 cumulative IPC: 1.33934 (Simulation time: 0 hr 46 min 8 sec) 
select_counter is 1768
Finished CPU 0 instructions: 100000002 cycles: 74663733 cummulative IPC: 1.33934 (Simulation time: 0 hr 46 min 8 sec) 

ChampSim completed all CPUs

Region of Interest Statistics

CPU 0 cummulative IPC: 1.33934 instructions: 100000002 cycles: 74663733
LLC TOTAL     ACCESS:     631668  HIT:     266507  MISS:     365161
LLC LOAD      ACCESS:      35185  HIT:       7489  MISS:      27696
LLC RFO       ACCESS:     152069  HIT:      74897  MISS:      77172
LLC PREFETCH  ACCESS:     288611  HIT:      72332  MISS:     216279
LLC WRITEBACK ACCESS:     155803  HIT:     111789  MISS:      44014
Ship samples: 
17, 59, 78, 105, 147, 177, 211, 252, 259, 303, 351, 355, 392, 433, 468, 505, 522, 559, 587, 637, 651, 692, 722, 744, 793, 806, 859, 877, 925, 957, 985, 996, 1029, 1079, 1114, 1128, 1162, 1211, 1230, 1268, 1304, 1313, 1369, 1407, 1410, 1464, 1492, 1516, 1563, 1579, 1618, 1658, 1679, 1703, 1737, 1785, 1806, 1838, 1881, 1909, 1942, 1969, 2001, 2043, 
Lime duel samples: 
0, 47, 74, 118, 133, 179, 214, 227, 266, 296, 336, 356, 405, 436, 473, 507, 517, 565, 600, 632, 670, 687, 734, 753, 790, 823, 856, 873, 900, 958, 977, 1014, 1035, 1084, 1117, 1141, 1161, 1190, 1243, 1265, 1285, 1324, 1345, 1381, 1431, 1456, 1479, 1508, 1553, 1578, 1616, 1652, 1689, 1717, 1729, 1773, 1813, 1850, 1875, 1893, 1930, 1965, 1994, 2045, 
Lime samples: 
0, 133, 266, 405, 517, 670, 790, 900, 1035, 1161, 1285, 1431, 1553, 1689, 1813, 1930, 
Insertion Distribution: 
	LOAD 732 0 0 0 0 0 2086 8380 
	RFO 592 0 0 0 0 0 8317 29893 
	PREF 0 4061 0 0 0 0 30664 63184 
	WRITEBACK 0 0 0 0 0 0 0 24192 
Total Prefetch Downgrades: 2359
