
*** ChampSim Multicore Out-of-Order Simulator ***

Warmup Instructions: 10000000
Simulation Instructions: 100000000
Configuration: 2
Number of CPUs: 1
LLC sets: 2048
LLC ways: 16
Off-chip DRAM Channels: 1 Width: 64-bit Data Rate: 1600 MT/s

CPU 0 runs /datasets/cs240c-wi22-a00-public/data/Assignment2-gz/leslie3d_1116B.trace.gz
CPU 0 L1D next line prefetcher
CPU 0 L2C IP-based stride prefetcher
Heartbeat CPU 0 instructions: 1000003 cycles: 535311 heartbeat IPC: 1.86808 cumulative IPC: 1.86808 (Simulation time: 0 hr 0 min 23 sec) 
select_counter is 2062
Heartbeat CPU 0 instructions: 2000003 cycles: 1071188 heartbeat IPC: 1.8661 cumulative IPC: 1.86709 (Simulation time: 0 hr 0 min 51 sec) 
select_counter is 2070
Heartbeat CPU 0 instructions: 3000003 cycles: 1607882 heartbeat IPC: 1.86326 cumulative IPC: 1.86581 (Simulation time: 0 hr 1 min 21 sec) 
select_counter is 2130
Heartbeat CPU 0 instructions: 4000000 cycles: 2143232 heartbeat IPC: 1.86793 cumulative IPC: 1.86634 (Simulation time: 0 hr 1 min 50 sec) 
select_counter is 2164
Heartbeat CPU 0 instructions: 5000001 cycles: 2678283 heartbeat IPC: 1.86898 cumulative IPC: 1.86687 (Simulation time: 0 hr 2 min 15 sec) 
select_counter is 2059
Heartbeat CPU 0 instructions: 6000001 cycles: 3213681 heartbeat IPC: 1.86777 cumulative IPC: 1.86702 (Simulation time: 0 hr 2 min 47 sec) 
select_counter is 2003
Heartbeat CPU 0 instructions: 7000001 cycles: 3749654 heartbeat IPC: 1.86577 cumulative IPC: 1.86684 (Simulation time: 0 hr 3 min 14 sec) 
select_counter is 2007
Heartbeat CPU 0 instructions: 8000000 cycles: 4285652 heartbeat IPC: 1.86568 cumulative IPC: 1.86669 (Simulation time: 0 hr 3 min 45 sec) 
select_counter is 1945
Heartbeat CPU 0 instructions: 9000003 cycles: 4820720 heartbeat IPC: 1.86893 cumulative IPC: 1.86694 (Simulation time: 0 hr 4 min 14 sec) 
select_counter is 1854
Heartbeat CPU 0 instructions: 10000002 cycles: 5355668 heartbeat IPC: 1.86934 cumulative IPC: 1.86718 (Simulation time: 0 hr 4 min 41 sec) 
select_counter is 1846

Warmup complete CPU 0 instructions: 10000002 cycles: 5355668 (Simulation time: 0 hr 4 min 41 sec) 

Heartbeat CPU 0 instructions: 11000001 cycles: 6461650 heartbeat IPC: 0.904173 cumulative IPC: 0.904173 (Simulation time: 0 hr 5 min 11 sec) 
select_counter is 1821
Heartbeat CPU 0 instructions: 12000000 cycles: 7536994 heartbeat IPC: 0.929934 cumulative IPC: 0.916873 (Simulation time: 0 hr 5 min 42 sec) 
select_counter is 1708
Heartbeat CPU 0 instructions: 13000002 cycles: 8620217 heartbeat IPC: 0.923173 cumulative IPC: 0.918963 (Simulation time: 0 hr 6 min 16 sec) 
select_counter is 1631
Heartbeat CPU 0 instructions: 14000003 cycles: 9708588 heartbeat IPC: 0.918805 cumulative IPC: 0.918924 (Simulation time: 0 hr 6 min 47 sec) 
select_counter is 1569
Heartbeat CPU 0 instructions: 15000000 cycles: 10809209 heartbeat IPC: 0.908575 cumulative IPC: 0.916835 (Simulation time: 0 hr 7 min 16 sec) 
select_counter is 1503
Heartbeat CPU 0 instructions: 16000000 cycles: 11908700 heartbeat IPC: 0.909512 cumulative IPC: 0.915606 (Simulation time: 0 hr 7 min 48 sec) 
select_counter is 1447
Heartbeat CPU 0 instructions: 17000003 cycles: 12997685 heartbeat IPC: 0.918289 cumulative IPC: 0.915989 (Simulation time: 0 hr 8 min 18 sec) 
select_counter is 1350
Heartbeat CPU 0 instructions: 18000001 cycles: 14110723 heartbeat IPC: 0.89844 cumulative IPC: 0.913758 (Simulation time: 0 hr 8 min 48 sec) 
select_counter is 1269
Heartbeat CPU 0 instructions: 19000001 cycles: 15218037 heartbeat IPC: 0.903086 cumulative IPC: 0.91256 (Simulation time: 0 hr 9 min 16 sec) 
select_counter is 1221
Heartbeat CPU 0 instructions: 20000000 cycles: 16309557 heartbeat IPC: 0.916153 cumulative IPC: 0.912918 (Simulation time: 0 hr 9 min 45 sec) 
select_counter is 1162
Heartbeat CPU 0 instructions: 21000000 cycles: 17422630 heartbeat IPC: 0.898414 cumulative IPC: 0.91158 (Simulation time: 0 hr 10 min 16 sec) 
select_counter is 1115
Heartbeat CPU 0 instructions: 22000000 cycles: 18527264 heartbeat IPC: 0.905277 cumulative IPC: 0.911051 (Simulation time: 0 hr 10 min 45 sec) 
select_counter is 1085
Heartbeat CPU 0 instructions: 23000003 cycles: 19630192 heartbeat IPC: 0.90668 cumulative IPC: 0.910713 (Simulation time: 0 hr 11 min 13 sec) 
select_counter is 1041
Heartbeat CPU 0 instructions: 24000000 cycles: 20722747 heartbeat IPC: 0.915283 cumulative IPC: 0.911038 (Simulation time: 0 hr 11 min 41 sec) 
select_counter is 1014
Heartbeat CPU 0 instructions: 25000001 cycles: 21819362 heartbeat IPC: 0.911898 cumulative IPC: 0.911096 (Simulation time: 0 hr 12 min 12 sec) 
select_counter is 976
Heartbeat CPU 0 instructions: 26000002 cycles: 22945107 heartbeat IPC: 0.888302 cumulative IPC: 0.909637 (Simulation time: 0 hr 12 min 43 sec) 
select_counter is 940
Heartbeat CPU 0 instructions: 27000001 cycles: 24051727 heartbeat IPC: 0.903652 cumulative IPC: 0.909283 (Simulation time: 0 hr 13 min 12 sec) 
select_counter is 904
Heartbeat CPU 0 instructions: 28000000 cycles: 25146345 heartbeat IPC: 0.91356 cumulative IPC: 0.909519 (Simulation time: 0 hr 13 min 42 sec) 
select_counter is 879
Heartbeat CPU 0 instructions: 29000003 cycles: 26244730 heartbeat IPC: 0.91043 cumulative IPC: 0.909567 (Simulation time: 0 hr 14 min 12 sec) 
select_counter is 856
Heartbeat CPU 0 instructions: 30000002 cycles: 27378999 heartbeat IPC: 0.881624 cumulative IPC: 0.908128 (Simulation time: 0 hr 14 min 39 sec) 
select_counter is 837
Heartbeat CPU 0 instructions: 31000001 cycles: 28481436 heartbeat IPC: 0.90708 cumulative IPC: 0.908078 (Simulation time: 0 hr 15 min 8 sec) 
select_counter is 817
Heartbeat CPU 0 instructions: 32000000 cycles: 29593068 heartbeat IPC: 0.899577 cumulative IPC: 0.907688 (Simulation time: 0 hr 15 min 36 sec) 
select_counter is 809
Heartbeat CPU 0 instructions: 33000002 cycles: 30701785 heartbeat IPC: 0.901945 cumulative IPC: 0.907437 (Simulation time: 0 hr 16 min 5 sec) 
select_counter is 805
Heartbeat CPU 0 instructions: 34000002 cycles: 31826175 heartbeat IPC: 0.889371 cumulative IPC: 0.906669 (Simulation time: 0 hr 16 min 32 sec) 
select_counter is 795
Heartbeat CPU 0 instructions: 35000000 cycles: 32945536 heartbeat IPC: 0.893365 cumulative IPC: 0.90613 (Simulation time: 0 hr 17 min 3 sec) 
select_counter is 786
Heartbeat CPU 0 instructions: 36000000 cycles: 34052372 heartbeat IPC: 0.903476 cumulative IPC: 0.906027 (Simulation time: 0 hr 17 min 34 sec) 
select_counter is 778
Heartbeat CPU 0 instructions: 37000003 cycles: 35513722 heartbeat IPC: 0.684301 cumulative IPC: 0.895283 (Simulation time: 0 hr 18 min 7 sec) 
select_counter is 1035
Heartbeat CPU 0 instructions: 38000003 cycles: 36999635 heartbeat IPC: 0.672987 cumulative IPC: 0.884845 (Simulation time: 0 hr 18 min 34 sec) 
select_counter is 1296
Heartbeat CPU 0 instructions: 39000003 cycles: 38485340 heartbeat IPC: 0.673081 cumulative IPC: 0.875348 (Simulation time: 0 hr 19 min 0 sec) 
select_counter is 1638
Heartbeat CPU 0 instructions: 40000000 cycles: 39985499 heartbeat IPC: 0.666594 cumulative IPC: 0.866305 (Simulation time: 0 hr 19 min 35 sec) 
select_counter is 2000
Heartbeat CPU 0 instructions: 41000002 cycles: 41446429 heartbeat IPC: 0.684497 cumulative IPC: 0.858946 (Simulation time: 0 hr 20 min 6 sec) 
select_counter is 2414
Heartbeat CPU 0 instructions: 42000001 cycles: 43017195 heartbeat IPC: 0.636631 cumulative IPC: 0.849673 (Simulation time: 0 hr 20 min 40 sec) 
select_counter is 2864
Heartbeat CPU 0 instructions: 43000003 cycles: 44556583 heartbeat IPC: 0.64961 cumulative IPC: 0.841817 (Simulation time: 0 hr 21 min 15 sec) 
select_counter is 3276
Heartbeat CPU 0 instructions: 44000000 cycles: 46041444 heartbeat IPC: 0.673462 cumulative IPC: 0.835673 (Simulation time: 0 hr 21 min 45 sec) 
select_counter is 3281
Heartbeat CPU 0 instructions: 45000002 cycles: 47501888 heartbeat IPC: 0.684725 cumulative IPC: 0.830442 (Simulation time: 0 hr 22 min 13 sec) 
select_counter is 3300
Heartbeat CPU 0 instructions: 46000002 cycles: 48967485 heartbeat IPC: 0.682316 cumulative IPC: 0.825464 (Simulation time: 0 hr 22 min 44 sec) 
select_counter is 3288
Heartbeat CPU 0 instructions: 47000001 cycles: 50440171 heartbeat IPC: 0.679031 cumulative IPC: 0.820681 (Simulation time: 0 hr 23 min 17 sec) 
select_counter is 3295
Heartbeat CPU 0 instructions: 48000000 cycles: 51894689 heartbeat IPC: 0.687512 cumulative IPC: 0.816519 (Simulation time: 0 hr 23 min 51 sec) 
select_counter is 3292
Heartbeat CPU 0 instructions: 49000002 cycles: 54075652 heartbeat IPC: 0.458514 cumulative IPC: 0.800493 (Simulation time: 0 hr 24 min 31 sec) 
select_counter is 3384
Heartbeat CPU 0 instructions: 50000000 cycles: 56582022 heartbeat IPC: 0.398983 cumulative IPC: 0.780848 (Simulation time: 0 hr 25 min 10 sec) 
select_counter is 3891
Heartbeat CPU 0 instructions: 51000003 cycles: 59051010 heartbeat IPC: 0.405025 cumulative IPC: 0.763567 (Simulation time: 0 hr 25 min 48 sec) 
select_counter is 4095
Heartbeat CPU 0 instructions: 52000000 cycles: 61537319 heartbeat IPC: 0.402201 cumulative IPC: 0.747575 (Simulation time: 0 hr 26 min 26 sec) 
select_counter is 4090
Heartbeat CPU 0 instructions: 53000003 cycles: 64032257 heartbeat IPC: 0.400813 cumulative IPC: 0.732831 (Simulation time: 0 hr 27 min 10 sec) 
select_counter is 4061
Heartbeat CPU 0 instructions: 54000000 cycles: 66386846 heartbeat IPC: 0.424701 cumulative IPC: 0.720943 (Simulation time: 0 hr 27 min 51 sec) 
select_counter is 4092
Heartbeat CPU 0 instructions: 55000002 cycles: 68725306 heartbeat IPC: 0.427633 cumulative IPC: 0.710119 (Simulation time: 0 hr 28 min 31 sec) 
select_counter is 4092
Heartbeat CPU 0 instructions: 56000000 cycles: 71117643 heartbeat IPC: 0.418 cumulative IPC: 0.699492 (Simulation time: 0 hr 29 min 15 sec) 
select_counter is 4089
Heartbeat CPU 0 instructions: 57000001 cycles: 73459607 heartbeat IPC: 0.426992 cumulative IPC: 0.690122 (Simulation time: 0 hr 30 min 1 sec) 
select_counter is 4078
Heartbeat CPU 0 instructions: 58000001 cycles: 75722299 heartbeat IPC: 0.441951 cumulative IPC: 0.682141 (Simulation time: 0 hr 30 min 38 sec) 
select_counter is 4038
Heartbeat CPU 0 instructions: 59000000 cycles: 77029745 heartbeat IPC: 0.764849 cumulative IPC: 0.68365 (Simulation time: 0 hr 31 min 12 sec) 
select_counter is 4019
Heartbeat CPU 0 instructions: 60000000 cycles: 78337988 heartbeat IPC: 0.764384 cumulative IPC: 0.685097 (Simulation time: 0 hr 31 min 45 sec) 
select_counter is 4061
Heartbeat CPU 0 instructions: 61000000 cycles: 79708034 heartbeat IPC: 0.729903 cumulative IPC: 0.685923 (Simulation time: 0 hr 32 min 16 sec) 
select_counter is 4092
Heartbeat CPU 0 instructions: 62000002 cycles: 81100794 heartbeat IPC: 0.718 cumulative IPC: 0.686513 (Simulation time: 0 hr 32 min 49 sec) 
select_counter is 4069
Heartbeat CPU 0 instructions: 63000003 cycles: 82348303 heartbeat IPC: 0.801598 cumulative IPC: 0.688378 (Simulation time: 0 hr 33 min 21 sec) 
select_counter is 4078
Heartbeat CPU 0 instructions: 64000000 cycles: 83610241 heartbeat IPC: 0.79243 cumulative IPC: 0.690055 (Simulation time: 0 hr 33 min 54 sec) 
select_counter is 4091
Heartbeat CPU 0 instructions: 65000001 cycles: 85072824 heartbeat IPC: 0.683723 cumulative IPC: 0.689939 (Simulation time: 0 hr 34 min 26 sec) 
select_counter is 4080
Heartbeat CPU 0 instructions: 66000000 cycles: 86295232 heartbeat IPC: 0.818057 cumulative IPC: 0.691874 (Simulation time: 0 hr 34 min 56 sec) 
select_counter is 4052
Heartbeat CPU 0 instructions: 67000001 cycles: 87531218 heartbeat IPC: 0.809071 cumulative IPC: 0.693637 (Simulation time: 0 hr 35 min 28 sec) 
select_counter is 4044
Heartbeat CPU 0 instructions: 68000000 cycles: 88941202 heartbeat IPC: 0.709227 cumulative IPC: 0.6939 (Simulation time: 0 hr 35 min 55 sec) 
select_counter is 4093
Heartbeat CPU 0 instructions: 69000002 cycles: 90219174 heartbeat IPC: 0.782491 cumulative IPC: 0.695234 (Simulation time: 0 hr 36 min 30 sec) 
select_counter is 4072
Heartbeat CPU 0 instructions: 70000000 cycles: 91428608 heartbeat IPC: 0.826831 cumulative IPC: 0.697083 (Simulation time: 0 hr 37 min 5 sec) 
select_counter is 4052
Heartbeat CPU 0 instructions: 71000002 cycles: 92657011 heartbeat IPC: 0.814067 cumulative IPC: 0.698729 (Simulation time: 0 hr 37 min 40 sec) 
select_counter is 4043
Heartbeat CPU 0 instructions: 72000000 cycles: 94063365 heartbeat IPC: 0.711057 cumulative IPC: 0.698925 (Simulation time: 0 hr 38 min 9 sec) 
select_counter is 4030
Heartbeat CPU 0 instructions: 73000000 cycles: 95287288 heartbeat IPC: 0.817045 cumulative IPC: 0.700532 (Simulation time: 0 hr 38 min 39 sec) 
select_counter is 4009
Heartbeat CPU 0 instructions: 74000000 cycles: 96503828 heartbeat IPC: 0.822003 cumulative IPC: 0.702154 (Simulation time: 0 hr 39 min 14 sec) 
select_counter is 3998
Heartbeat CPU 0 instructions: 75000002 cycles: 97922397 heartbeat IPC: 0.704937 cumulative IPC: 0.702196 (Simulation time: 0 hr 39 min 49 sec) 
select_counter is 3962
Heartbeat CPU 0 instructions: 76000000 cycles: 99135715 heartbeat IPC: 0.824185 cumulative IPC: 0.703774 (Simulation time: 0 hr 40 min 19 sec) 
select_counter is 3938
Heartbeat CPU 0 instructions: 77000001 cycles: 100338122 heartbeat IPC: 0.831666 cumulative IPC: 0.705393 (Simulation time: 0 hr 40 min 50 sec) 
select_counter is 3925
Heartbeat CPU 0 instructions: 78000000 cycles: 101639183 heartbeat IPC: 0.768603 cumulative IPC: 0.706248 (Simulation time: 0 hr 41 min 23 sec) 
select_counter is 3883
Heartbeat CPU 0 instructions: 79000001 cycles: 102953786 heartbeat IPC: 0.760687 cumulative IPC: 0.706981 (Simulation time: 0 hr 41 min 58 sec) 
select_counter is 3856
Heartbeat CPU 0 instructions: 80000000 cycles: 104168277 heartbeat IPC: 0.823389 cumulative IPC: 0.708412 (Simulation time: 0 hr 42 min 29 sec) 
select_counter is 3835
Heartbeat CPU 0 instructions: 81000003 cycles: 105374861 heartbeat IPC: 0.828789 cumulative IPC: 0.709864 (Simulation time: 0 hr 43 min 1 sec) 
select_counter is 3850
Heartbeat CPU 0 instructions: 82000000 cycles: 106775275 heartbeat IPC: 0.714072 cumulative IPC: 0.709922 (Simulation time: 0 hr 43 min 28 sec) 
select_counter is 3817
Heartbeat CPU 0 instructions: 83000001 cycles: 107979560 heartbeat IPC: 0.830369 cumulative IPC: 0.711335 (Simulation time: 0 hr 44 min 3 sec) 
select_counter is 3793
Heartbeat CPU 0 instructions: 84000000 cycles: 109192344 heartbeat IPC: 0.824548 cumulative IPC: 0.712658 (Simulation time: 0 hr 44 min 33 sec) 
select_counter is 3774
Heartbeat CPU 0 instructions: 85000003 cycles: 110576965 heartbeat IPC: 0.722221 cumulative IPC: 0.712783 (Simulation time: 0 hr 45 min 1 sec) 
select_counter is 3752
Heartbeat CPU 0 instructions: 86000002 cycles: 111796911 heartbeat IPC: 0.819708 cumulative IPC: 0.714009 (Simulation time: 0 hr 45 min 28 sec) 
select_counter is 3749
Heartbeat CPU 0 instructions: 87000001 cycles: 113002293 heartbeat IPC: 0.829612 cumulative IPC: 0.715303 (Simulation time: 0 hr 45 min 53 sec) 
select_counter is 3737
Heartbeat CPU 0 instructions: 88000000 cycles: 114229746 heartbeat IPC: 0.814694 cumulative IPC: 0.716424 (Simulation time: 0 hr 46 min 18 sec) 
select_counter is 3735
Heartbeat CPU 0 instructions: 89000001 cycles: 115611854 heartbeat IPC: 0.723533 cumulative IPC: 0.716513 (Simulation time: 0 hr 46 min 42 sec) 
select_counter is 3697
Heartbeat CPU 0 instructions: 90000003 cycles: 116818286 heartbeat IPC: 0.828892 cumulative IPC: 0.717729 (Simulation time: 0 hr 47 min 2 sec) 
select_counter is 3685
Heartbeat CPU 0 instructions: 91000000 cycles: 118038028 heartbeat IPC: 0.819843 cumulative IPC: 0.718835 (Simulation time: 0 hr 47 min 23 sec) 
select_counter is 3677
Heartbeat CPU 0 instructions: 92000000 cycles: 119451151 heartbeat IPC: 0.707653 cumulative IPC: 0.718696 (Simulation time: 0 hr 47 min 44 sec) 
select_counter is 3644
Heartbeat CPU 0 instructions: 93000002 cycles: 120665446 heartbeat IPC: 0.823525 cumulative IPC: 0.7198 (Simulation time: 0 hr 48 min 2 sec) 
select_counter is 3608
Heartbeat CPU 0 instructions: 94000000 cycles: 121885489 heartbeat IPC: 0.819642 cumulative IPC: 0.720846 (Simulation time: 0 hr 48 min 18 sec) 
select_counter is 3587
Heartbeat CPU 0 instructions: 95000003 cycles: 123220266 heartbeat IPC: 0.749191 cumulative IPC: 0.721166 (Simulation time: 0 hr 48 min 33 sec) 
select_counter is 3564
Heartbeat CPU 0 instructions: 96000000 cycles: 124537491 heartbeat IPC: 0.759169 cumulative IPC: 0.721587 (Simulation time: 0 hr 48 min 48 sec) 
select_counter is 3523
Heartbeat CPU 0 instructions: 97000000 cycles: 125742786 heartbeat IPC: 0.829672 cumulative IPC: 0.722669 (Simulation time: 0 hr 49 min 3 sec) 
select_counter is 3497
Heartbeat CPU 0 instructions: 98000000 cycles: 126975035 heartbeat IPC: 0.811524 cumulative IPC: 0.723569 (Simulation time: 0 hr 49 min 19 sec) 
select_counter is 3477
Heartbeat CPU 0 instructions: 99000003 cycles: 128398268 heartbeat IPC: 0.702628 cumulative IPC: 0.723327 (Simulation time: 0 hr 49 min 33 sec) 
select_counter is 3471
Heartbeat CPU 0 instructions: 100000000 cycles: 129625976 heartbeat IPC: 0.814523 cumulative IPC: 0.724228 (Simulation time: 0 hr 49 min 47 sec) 
select_counter is 3445
Heartbeat CPU 0 instructions: 101000001 cycles: 130853212 heartbeat IPC: 0.81484 cumulative IPC: 0.725114 (Simulation time: 0 hr 50 min 1 sec) 
select_counter is 3432
Heartbeat CPU 0 instructions: 102000003 cycles: 132273960 heartbeat IPC: 0.703856 cumulative IPC: 0.724876 (Simulation time: 0 hr 50 min 16 sec) 
select_counter is 3424
Heartbeat CPU 0 instructions: 103000002 cycles: 133501903 heartbeat IPC: 0.814369 cumulative IPC: 0.725733 (Simulation time: 0 hr 50 min 29 sec) 
select_counter is 3384
Heartbeat CPU 0 instructions: 104000000 cycles: 134736171 heartbeat IPC: 0.810195 cumulative IPC: 0.726539 (Simulation time: 0 hr 50 min 42 sec) 
select_counter is 3375
Heartbeat CPU 0 instructions: 105000000 cycles: 135993270 heartbeat IPC: 0.795482 cumulative IPC: 0.727203 (Simulation time: 0 hr 50 min 55 sec) 
select_counter is 3338
Heartbeat CPU 0 instructions: 106000003 cycles: 137878777 heartbeat IPC: 0.530363 cumulative IPC: 0.724402 (Simulation time: 0 hr 51 min 8 sec) 
select_counter is 3285
Heartbeat CPU 0 instructions: 107000002 cycles: 139896730 heartbeat IPC: 0.495551 cumulative IPC: 0.720969 (Simulation time: 0 hr 51 min 23 sec) 
select_counter is 3592
Heartbeat CPU 0 instructions: 108000000 cycles: 141988916 heartbeat IPC: 0.477968 cumulative IPC: 0.717249 (Simulation time: 0 hr 51 min 38 sec) 
select_counter is 3992
Heartbeat CPU 0 instructions: 109000003 cycles: 144040294 heartbeat IPC: 0.487479 cumulative IPC: 0.71385 (Simulation time: 0 hr 51 min 50 sec) 
select_counter is 4062
Heartbeat CPU 0 instructions: 110000003 cycles: 146009138 heartbeat IPC: 0.507912 cumulative IPC: 0.710967 (Simulation time: 0 hr 52 min 2 sec) 
select_counter is 3993
Finished CPU 0 instructions: 100000001 cycles: 140653470 cummulative IPC: 0.710967 (Simulation time: 0 hr 52 min 2 sec) 

ChampSim completed all CPUs

Region of Interest Statistics

CPU 0 cummulative IPC: 0.710967 instructions: 100000001 cycles: 140653470
LLC TOTAL     ACCESS:    3584202  HIT:     676202  MISS:    2908000
LLC LOAD      ACCESS:     299190  HIT:      42406  MISS:     256784
LLC RFO       ACCESS:     622460  HIT:     116848  MISS:     505612
LLC PREFETCH  ACCESS:    1899369  HIT:     132648  MISS:    1766721
LLC WRITEBACK ACCESS:     763183  HIT:     384300  MISS:     378883
Ship samples: 
14, 63, 93, 98, 154, 172, 195, 255, 287, 319, 342, 364, 410, 444, 458, 501, 528, 571, 595, 620, 651, 694, 721, 764, 776, 801, 838, 870, 917, 956, 976, 1015, 1030, 1069, 1104, 1127, 1169, 1194, 1234, 1268, 1282, 1337, 1346, 1385, 1409, 1462, 1495, 1522, 1536, 1591, 1625, 1645, 1691, 1710, 1758, 1768, 1815, 1832, 1856, 1904, 1943, 1971, 2003, 2028, 
Lime duel samples: 
26, 34, 67, 126, 159, 174, 200, 249, 269, 306, 336, 363, 391, 424, 475, 494, 536, 565, 589, 637, 653, 696, 718, 757, 785, 827, 862, 877, 897, 930, 991, 1009, 1024, 1075, 1113, 1145, 1180, 1213, 1219, 1254, 1306, 1333, 1352, 1407, 1431, 1445, 1490, 1517, 1565, 1568, 1617, 1662, 1675, 1719, 1741, 1762, 1792, 1825, 1881, 1906, 1921, 1958, 1998, 2022, 
Lime samples: 
26, 159, 269, 391, 536, 653, 785, 897, 1024, 1180, 1306, 1431, 1565, 1675, 1792, 1921, 
Insertion Distribution: 
	LOAD 956 0 0 0 0 0 3069 43310 
	RFO 0 0 0 0 0 0 12272 143002 
	PREF 0 387 0 0 0 0 35159 443120 
	WRITEBACK 0 0 0 0 0 0 0 128181 
Total Prefetch Downgrades: 635
