
*** ChampSim Multicore Out-of-Order Simulator ***

Warmup Instructions: 50000000
Simulation Instructions: 100000000
Configuration: 2
Number of CPUs: 1
LLC sets: 2048
LLC ways: 16
Off-chip DRAM Channels: 1 Width: 64-bit Data Rate: 1600 MT/s

CPU 0 runs /datasets/cs240c-wi22-a00-public/data/Assignment2-gz/bzip2_183B.trace.gz
CPU 0 L1D next line prefetcher
CPU 0 L2C IP-based stride prefetcher
Heartbeat CPU 0 instructions: 1000000 cycles: 447984 heartbeat IPC: 2.23222 cumulative IPC: 2.23222 (Simulation time: 0 hr 0 min 36 sec) 
Heartbeat CPU 0 instructions: 2000001 cycles: 951255 heartbeat IPC: 1.987 cumulative IPC: 2.10249 (Simulation time: 0 hr 1 min 17 sec) 
Heartbeat CPU 0 instructions: 3000001 cycles: 1457938 heartbeat IPC: 1.97362 cumulative IPC: 2.0577 (Simulation time: 0 hr 1 min 59 sec) 
Heartbeat CPU 0 instructions: 4000000 cycles: 1928584 heartbeat IPC: 2.12474 cumulative IPC: 2.07406 (Simulation time: 0 hr 2 min 38 sec) 
Heartbeat CPU 0 instructions: 5000000 cycles: 2425906 heartbeat IPC: 2.01077 cumulative IPC: 2.06109 (Simulation time: 0 hr 3 min 19 sec) 
Heartbeat CPU 0 instructions: 6000001 cycles: 2887530 heartbeat IPC: 2.16627 cumulative IPC: 2.0779 (Simulation time: 0 hr 3 min 58 sec) 
Heartbeat CPU 0 instructions: 7000002 cycles: 3343383 heartbeat IPC: 2.19369 cumulative IPC: 2.09369 (Simulation time: 0 hr 4 min 36 sec) 
Heartbeat CPU 0 instructions: 8000000 cycles: 3812974 heartbeat IPC: 2.12951 cumulative IPC: 2.0981 (Simulation time: 0 hr 5 min 15 sec) 
Heartbeat CPU 0 instructions: 9000003 cycles: 4278202 heartbeat IPC: 2.14949 cumulative IPC: 2.10369 (Simulation time: 0 hr 5 min 52 sec) 
Heartbeat CPU 0 instructions: 10000000 cycles: 4746590 heartbeat IPC: 2.13498 cumulative IPC: 2.10678 (Simulation time: 0 hr 6 min 32 sec) 
Heartbeat CPU 0 instructions: 11000000 cycles: 5209291 heartbeat IPC: 2.16122 cumulative IPC: 2.11161 (Simulation time: 0 hr 7 min 8 sec) 
Heartbeat CPU 0 instructions: 12000000 cycles: 5684905 heartbeat IPC: 2.10255 cumulative IPC: 2.11085 (Simulation time: 0 hr 7 min 44 sec) 
Heartbeat CPU 0 instructions: 13000003 cycles: 6152067 heartbeat IPC: 2.14059 cumulative IPC: 2.11311 (Simulation time: 0 hr 8 min 23 sec) 
Heartbeat CPU 0 instructions: 14000003 cycles: 6651424 heartbeat IPC: 2.00258 cumulative IPC: 2.10481 (Simulation time: 0 hr 9 min 3 sec) 
Heartbeat CPU 0 instructions: 15000002 cycles: 7120507 heartbeat IPC: 2.13182 cumulative IPC: 2.10659 (Simulation time: 0 hr 9 min 41 sec) 
Heartbeat CPU 0 instructions: 16000000 cycles: 7634581 heartbeat IPC: 1.94524 cumulative IPC: 2.09573 (Simulation time: 0 hr 10 min 22 sec) 
Heartbeat CPU 0 instructions: 17000000 cycles: 8128582 heartbeat IPC: 2.02429 cumulative IPC: 2.09139 (Simulation time: 0 hr 11 min 1 sec) 
Heartbeat CPU 0 instructions: 18000001 cycles: 8692788 heartbeat IPC: 1.7724 cumulative IPC: 2.07068 (Simulation time: 0 hr 11 min 42 sec) 
Heartbeat CPU 0 instructions: 19000000 cycles: 9204353 heartbeat IPC: 1.95478 cumulative IPC: 2.06424 (Simulation time: 0 hr 12 min 24 sec) 
Heartbeat CPU 0 instructions: 20000000 cycles: 9694340 heartbeat IPC: 2.04087 cumulative IPC: 2.06306 (Simulation time: 0 hr 13 min 2 sec) 
Heartbeat CPU 0 instructions: 21000003 cycles: 10143104 heartbeat IPC: 2.22835 cumulative IPC: 2.07037 (Simulation time: 0 hr 13 min 40 sec) 
Heartbeat CPU 0 instructions: 22000003 cycles: 10608085 heartbeat IPC: 2.15063 cumulative IPC: 2.07389 (Simulation time: 0 hr 14 min 19 sec) 
Heartbeat CPU 0 instructions: 23000002 cycles: 11089268 heartbeat IPC: 2.07821 cumulative IPC: 2.07408 (Simulation time: 0 hr 14 min 56 sec) 
Heartbeat CPU 0 instructions: 24000000 cycles: 11585662 heartbeat IPC: 2.01452 cumulative IPC: 2.07153 (Simulation time: 0 hr 15 min 36 sec) 
Heartbeat CPU 0 instructions: 25000001 cycles: 12038297 heartbeat IPC: 2.20929 cumulative IPC: 2.07671 (Simulation time: 0 hr 16 min 13 sec) 
Heartbeat CPU 0 instructions: 26000003 cycles: 12530761 heartbeat IPC: 2.03061 cumulative IPC: 2.07489 (Simulation time: 0 hr 16 min 54 sec) 
Heartbeat CPU 0 instructions: 27000000 cycles: 13047818 heartbeat IPC: 1.93402 cumulative IPC: 2.06931 (Simulation time: 0 hr 17 min 36 sec) 
Heartbeat CPU 0 instructions: 28000000 cycles: 13507370 heartbeat IPC: 2.17603 cumulative IPC: 2.07294 (Simulation time: 0 hr 18 min 12 sec) 
Heartbeat CPU 0 instructions: 29000000 cycles: 13996209 heartbeat IPC: 2.04566 cumulative IPC: 2.07199 (Simulation time: 0 hr 18 min 50 sec) 
Heartbeat CPU 0 instructions: 30000000 cycles: 14449493 heartbeat IPC: 2.20612 cumulative IPC: 2.0762 (Simulation time: 0 hr 19 min 27 sec) 
Heartbeat CPU 0 instructions: 31000002 cycles: 14908482 heartbeat IPC: 2.17871 cumulative IPC: 2.07935 (Simulation time: 0 hr 20 min 5 sec) 
Heartbeat CPU 0 instructions: 32000000 cycles: 15367207 heartbeat IPC: 2.17995 cumulative IPC: 2.08236 (Simulation time: 0 hr 20 min 43 sec) 
Heartbeat CPU 0 instructions: 33000001 cycles: 15838074 heartbeat IPC: 2.12374 cumulative IPC: 2.08359 (Simulation time: 0 hr 21 min 23 sec) 
Heartbeat CPU 0 instructions: 34000001 cycles: 16347982 heartbeat IPC: 1.96114 cumulative IPC: 2.07977 (Simulation time: 0 hr 22 min 3 sec) 
Heartbeat CPU 0 instructions: 35000002 cycles: 16856837 heartbeat IPC: 1.9652 cumulative IPC: 2.07631 (Simulation time: 0 hr 22 min 42 sec) 
Heartbeat CPU 0 instructions: 36000000 cycles: 17329443 heartbeat IPC: 2.11592 cumulative IPC: 2.07739 (Simulation time: 0 hr 23 min 19 sec) 
Heartbeat CPU 0 instructions: 37000002 cycles: 17805756 heartbeat IPC: 2.09946 cumulative IPC: 2.07798 (Simulation time: 0 hr 23 min 56 sec) 
Heartbeat CPU 0 instructions: 38000001 cycles: 18248828 heartbeat IPC: 2.25697 cumulative IPC: 2.08233 (Simulation time: 0 hr 24 min 32 sec) 
Heartbeat CPU 0 instructions: 39000001 cycles: 18713608 heartbeat IPC: 2.15156 cumulative IPC: 2.08404 (Simulation time: 0 hr 25 min 9 sec) 
Heartbeat CPU 0 instructions: 40000000 cycles: 19223561 heartbeat IPC: 1.96096 cumulative IPC: 2.08078 (Simulation time: 0 hr 25 min 50 sec) 
Heartbeat CPU 0 instructions: 41000000 cycles: 19682753 heartbeat IPC: 2.17774 cumulative IPC: 2.08304 (Simulation time: 0 hr 26 min 28 sec) 
Heartbeat CPU 0 instructions: 42000000 cycles: 20162851 heartbeat IPC: 2.08291 cumulative IPC: 2.08304 (Simulation time: 0 hr 27 min 7 sec) 
Heartbeat CPU 0 instructions: 43000001 cycles: 20622315 heartbeat IPC: 2.17645 cumulative IPC: 2.08512 (Simulation time: 0 hr 27 min 45 sec) 
Heartbeat CPU 0 instructions: 44000000 cycles: 21113353 heartbeat IPC: 2.0365 cumulative IPC: 2.08399 (Simulation time: 0 hr 28 min 24 sec) 
Heartbeat CPU 0 instructions: 45000000 cycles: 21572188 heartbeat IPC: 2.17943 cumulative IPC: 2.08602 (Simulation time: 0 hr 29 min 1 sec) 
Heartbeat CPU 0 instructions: 46000000 cycles: 22064016 heartbeat IPC: 2.03323 cumulative IPC: 2.08484 (Simulation time: 0 hr 29 min 38 sec) 
Heartbeat CPU 0 instructions: 47000002 cycles: 22565968 heartbeat IPC: 1.99223 cumulative IPC: 2.08278 (Simulation time: 0 hr 30 min 15 sec) 
Heartbeat CPU 0 instructions: 48000000 cycles: 22998567 heartbeat IPC: 2.3116 cumulative IPC: 2.08709 (Simulation time: 0 hr 30 min 52 sec) 
Heartbeat CPU 0 instructions: 49000003 cycles: 23456890 heartbeat IPC: 2.18187 cumulative IPC: 2.08894 (Simulation time: 0 hr 31 min 31 sec) 
Heartbeat CPU 0 instructions: 50000001 cycles: 23888277 heartbeat IPC: 2.3181 cumulative IPC: 2.09308 (Simulation time: 0 hr 32 min 7 sec) 

Warmup complete CPU 0 instructions: 50000001 cycles: 23888277 (Simulation time: 0 hr 32 min 7 sec) 

Heartbeat CPU 0 instructions: 51000000 cycles: 24920316 heartbeat IPC: 0.968955 cumulative IPC: 0.968955 (Simulation time: 0 hr 32 min 44 sec) 
Heartbeat CPU 0 instructions: 52000000 cycles: 25945074 heartbeat IPC: 0.97584 cumulative IPC: 0.972385 (Simulation time: 0 hr 33 min 17 sec) 
Heartbeat CPU 0 instructions: 53000001 cycles: 26937308 heartbeat IPC: 1.00783 cumulative IPC: 0.983919 (Simulation time: 0 hr 33 min 53 sec) 
Heartbeat CPU 0 instructions: 54000001 cycles: 27954591 heartbeat IPC: 0.983011 cumulative IPC: 0.983692 (Simulation time: 0 hr 34 min 27 sec) 
Heartbeat CPU 0 instructions: 55000001 cycles: 29198913 heartbeat IPC: 0.80365 cumulative IPC: 0.941507 (Simulation time: 0 hr 35 min 3 sec) 
Heartbeat CPU 0 instructions: 56000000 cycles: 30399125 heartbeat IPC: 0.833185 cumulative IPC: 0.921539 (Simulation time: 0 hr 35 min 38 sec) 
Heartbeat CPU 0 instructions: 57000003 cycles: 31800663 heartbeat IPC: 0.713504 cumulative IPC: 0.884689 (Simulation time: 0 hr 36 min 15 sec) 
Heartbeat CPU 0 instructions: 58000001 cycles: 33396607 heartbeat IPC: 0.626587 cumulative IPC: 0.841368 (Simulation time: 0 hr 36 min 48 sec) 
Heartbeat CPU 0 instructions: 59000003 cycles: 34715594 heartbeat IPC: 0.758159 cumulative IPC: 0.831231 (Simulation time: 0 hr 37 min 21 sec) 
Heartbeat CPU 0 instructions: 60000000 cycles: 36326066 heartbeat IPC: 0.620934 cumulative IPC: 0.804001 (Simulation time: 0 hr 37 min 58 sec) 
Heartbeat CPU 0 instructions: 61000003 cycles: 38074902 heartbeat IPC: 0.571811 cumulative IPC: 0.775378 (Simulation time: 0 hr 38 min 30 sec) 
Heartbeat CPU 0 instructions: 62000002 cycles: 39631390 heartbeat IPC: 0.642471 cumulative IPC: 0.762238 (Simulation time: 0 hr 39 min 3 sec) 
Heartbeat CPU 0 instructions: 63000003 cycles: 41034073 heartbeat IPC: 0.71292 cumulative IPC: 0.758203 (Simulation time: 0 hr 39 min 40 sec) 
Heartbeat CPU 0 instructions: 64000000 cycles: 42613484 heartbeat IPC: 0.633146 cumulative IPC: 0.747655 (Simulation time: 0 hr 40 min 15 sec) 
Heartbeat CPU 0 instructions: 65000003 cycles: 43874916 heartbeat IPC: 0.792752 cumulative IPC: 0.750501 (Simulation time: 0 hr 40 min 47 sec) 
Heartbeat CPU 0 instructions: 66000000 cycles: 45216141 heartbeat IPC: 0.745585 cumulative IPC: 0.750192 (Simulation time: 0 hr 41 min 24 sec) 
Heartbeat CPU 0 instructions: 67000000 cycles: 46169984 heartbeat IPC: 1.04839 cumulative IPC: 0.762958 (Simulation time: 0 hr 41 min 59 sec) 
Heartbeat CPU 0 instructions: 68000000 cycles: 47577015 heartbeat IPC: 0.710716 cumulative IPC: 0.759855 (Simulation time: 0 hr 42 min 33 sec) 
Heartbeat CPU 0 instructions: 69000000 cycles: 49156104 heartbeat IPC: 0.633277 cumulative IPC: 0.751944 (Simulation time: 0 hr 43 min 8 sec) 
Heartbeat CPU 0 instructions: 70000002 cycles: 50642564 heartbeat IPC: 0.672741 cumulative IPC: 0.747544 (Simulation time: 0 hr 43 min 45 sec) 
Heartbeat CPU 0 instructions: 71000000 cycles: 52224054 heartbeat IPC: 0.632314 cumulative IPC: 0.741113 (Simulation time: 0 hr 44 min 18 sec) 
Heartbeat CPU 0 instructions: 72000000 cycles: 53593950 heartbeat IPC: 0.729982 cumulative IPC: 0.740599 (Simulation time: 0 hr 44 min 51 sec) 
Heartbeat CPU 0 instructions: 73000001 cycles: 54889385 heartbeat IPC: 0.771942 cumulative IPC: 0.741909 (Simulation time: 0 hr 45 min 25 sec) 
Heartbeat CPU 0 instructions: 74000000 cycles: 56064241 heartbeat IPC: 0.851167 cumulative IPC: 0.745898 (Simulation time: 0 hr 46 min 4 sec) 
Heartbeat CPU 0 instructions: 75000001 cycles: 57485193 heartbeat IPC: 0.703754 cumulative IPC: 0.744116 (Simulation time: 0 hr 46 min 37 sec) 
Heartbeat CPU 0 instructions: 76000000 cycles: 58626983 heartbeat IPC: 0.875817 cumulative IPC: 0.748445 (Simulation time: 0 hr 47 min 11 sec) 
Heartbeat CPU 0 instructions: 77000003 cycles: 59809807 heartbeat IPC: 0.845437 cumulative IPC: 0.751638 (Simulation time: 0 hr 47 min 45 sec) 
Heartbeat CPU 0 instructions: 78000000 cycles: 61154686 heartbeat IPC: 0.743559 cumulative IPC: 0.751347 (Simulation time: 0 hr 48 min 17 sec) 
Heartbeat CPU 0 instructions: 79000000 cycles: 62502955 heartbeat IPC: 0.741692 cumulative IPC: 0.75101 (Simulation time: 0 hr 48 min 54 sec) 
Heartbeat CPU 0 instructions: 80000000 cycles: 63895254 heartbeat IPC: 0.718237 cumulative IPC: 0.749869 (Simulation time: 0 hr 49 min 26 sec) 
Heartbeat CPU 0 instructions: 81000000 cycles: 65599366 heartbeat IPC: 0.586816 cumulative IPC: 0.743208 (Simulation time: 0 hr 49 min 59 sec) 
Heartbeat CPU 0 instructions: 82000002 cycles: 67155785 heartbeat IPC: 0.642502 cumulative IPC: 0.739585 (Simulation time: 0 hr 50 min 31 sec) 
Heartbeat CPU 0 instructions: 83000000 cycles: 68314727 heartbeat IPC: 0.862854 cumulative IPC: 0.742801 (Simulation time: 0 hr 51 min 8 sec) 
Heartbeat CPU 0 instructions: 84000000 cycles: 69265861 heartbeat IPC: 1.05138 cumulative IPC: 0.749269 (Simulation time: 0 hr 51 min 43 sec) 
Heartbeat CPU 0 instructions: 85000002 cycles: 70309358 heartbeat IPC: 0.958318 cumulative IPC: 0.753968 (Simulation time: 0 hr 52 min 18 sec) 
Heartbeat CPU 0 instructions: 86000002 cycles: 71287798 heartbeat IPC: 1.02204 cumulative IPC: 0.759501 (Simulation time: 0 hr 52 min 51 sec) 
Heartbeat CPU 0 instructions: 87000001 cycles: 72308273 heartbeat IPC: 0.979935 cumulative IPC: 0.764147 (Simulation time: 0 hr 53 min 29 sec) 
Heartbeat CPU 0 instructions: 88000000 cycles: 73605891 heartbeat IPC: 0.770642 cumulative IPC: 0.764317 (Simulation time: 0 hr 54 min 2 sec) 
Heartbeat CPU 0 instructions: 89000000 cycles: 75121180 heartbeat IPC: 0.65994 cumulative IPC: 0.76123 (Simulation time: 0 hr 54 min 41 sec) 
Heartbeat CPU 0 instructions: 90000002 cycles: 76622613 heartbeat IPC: 0.666032 cumulative IPC: 0.758519 (Simulation time: 0 hr 55 min 15 sec) 
Heartbeat CPU 0 instructions: 91000000 cycles: 78331043 heartbeat IPC: 0.585332 cumulative IPC: 0.753084 (Simulation time: 0 hr 55 min 48 sec) 
Heartbeat CPU 0 instructions: 92000000 cycles: 79829812 heartbeat IPC: 0.667214 cumulative IPC: 0.750784 (Simulation time: 0 hr 56 min 24 sec) 
Heartbeat CPU 0 instructions: 93000001 cycles: 81094897 heartbeat IPC: 0.790462 cumulative IPC: 0.751661 (Simulation time: 0 hr 57 min 3 sec) 
Heartbeat CPU 0 instructions: 94000000 cycles: 82856975 heartbeat IPC: 0.567511 cumulative IPC: 0.746159 (Simulation time: 0 hr 57 min 37 sec) 
Heartbeat CPU 0 instructions: 95000002 cycles: 84469375 heartbeat IPC: 0.620195 cumulative IPC: 0.742806 (Simulation time: 0 hr 58 min 11 sec) 
Heartbeat CPU 0 instructions: 96000000 cycles: 86079174 heartbeat IPC: 0.621194 cumulative IPC: 0.739658 (Simulation time: 0 hr 58 min 43 sec) 
Heartbeat CPU 0 instructions: 97000000 cycles: 87497450 heartbeat IPC: 0.705081 cumulative IPC: 0.738887 (Simulation time: 0 hr 59 min 17 sec) 
Heartbeat CPU 0 instructions: 98000000 cycles: 88778463 heartbeat IPC: 0.780632 cumulative IPC: 0.739711 (Simulation time: 0 hr 59 min 51 sec) 
Heartbeat CPU 0 instructions: 99000003 cycles: 89912286 heartbeat IPC: 0.881975 cumulative IPC: 0.742154 (Simulation time: 1 hr 0 min 29 sec) 
Heartbeat CPU 0 instructions: 100000000 cycles: 91420241 heartbeat IPC: 0.663148 cumulative IPC: 0.74039 (Simulation time: 1 hr 1 min 4 sec) 
Heartbeat CPU 0 instructions: 101000000 cycles: 92932361 heartbeat IPC: 0.661323 cumulative IPC: 0.738658 (Simulation time: 1 hr 1 min 37 sec) 
Heartbeat CPU 0 instructions: 102000001 cycles: 94632884 heartbeat IPC: 0.588055 cumulative IPC: 0.735038 (Simulation time: 1 hr 2 min 9 sec) 
Heartbeat CPU 0 instructions: 103000002 cycles: 95958027 heartbeat IPC: 0.754636 cumulative IPC: 0.735399 (Simulation time: 1 hr 2 min 48 sec) 
Heartbeat CPU 0 instructions: 104000000 cycles: 97683354 heartbeat IPC: 0.579599 cumulative IPC: 0.731756 (Simulation time: 1 hr 3 min 24 sec) 
Heartbeat CPU 0 instructions: 105000002 cycles: 98655455 heartbeat IPC: 1.0287 cumulative IPC: 0.735617 (Simulation time: 1 hr 3 min 58 sec) 
Heartbeat CPU 0 instructions: 106000000 cycles: 100193016 heartbeat IPC: 0.650379 cumulative IPC: 0.733899 (Simulation time: 1 hr 4 min 32 sec) 
Heartbeat CPU 0 instructions: 107000002 cycles: 101762712 heartbeat IPC: 0.637067 cumulative IPC: 0.731948 (Simulation time: 1 hr 5 min 4 sec) 
Heartbeat CPU 0 instructions: 108000000 cycles: 103095625 heartbeat IPC: 0.750235 cumulative IPC: 0.732255 (Simulation time: 1 hr 5 min 43 sec) 
Heartbeat CPU 0 instructions: 109000002 cycles: 104805833 heartbeat IPC: 0.584725 cumulative IPC: 0.729137 (Simulation time: 1 hr 6 min 17 sec) 
Heartbeat CPU 0 instructions: 110000000 cycles: 106037413 heartbeat IPC: 0.811963 cumulative IPC: 0.730379 (Simulation time: 1 hr 6 min 52 sec) 
Heartbeat CPU 0 instructions: 111000001 cycles: 107514305 heartbeat IPC: 0.677098 cumulative IPC: 0.729438 (Simulation time: 1 hr 7 min 31 sec) 
Heartbeat CPU 0 instructions: 112000000 cycles: 108620323 heartbeat IPC: 0.904144 cumulative IPC: 0.731718 (Simulation time: 1 hr 8 min 7 sec) 
Heartbeat CPU 0 instructions: 113000001 cycles: 109630746 heartbeat IPC: 0.989686 cumulative IPC: 0.734758 (Simulation time: 1 hr 8 min 41 sec) 
Heartbeat CPU 0 instructions: 114000001 cycles: 110536331 heartbeat IPC: 1.10426 cumulative IPC: 0.73862 (Simulation time: 1 hr 9 min 16 sec) 
Heartbeat CPU 0 instructions: 115000002 cycles: 111463764 heartbeat IPC: 1.07825 cumulative IPC: 0.742217 (Simulation time: 1 hr 9 min 51 sec) 
Heartbeat CPU 0 instructions: 116000000 cycles: 112587866 heartbeat IPC: 0.889597 cumulative IPC: 0.744085 (Simulation time: 1 hr 10 min 32 sec) 
Heartbeat CPU 0 instructions: 117000003 cycles: 114196256 heartbeat IPC: 0.621742 cumulative IPC: 0.741906 (Simulation time: 1 hr 11 min 7 sec) 
Heartbeat CPU 0 instructions: 118000003 cycles: 115543820 heartbeat IPC: 0.74208 cumulative IPC: 0.741908 (Simulation time: 1 hr 11 min 41 sec) 
Heartbeat CPU 0 instructions: 119000000 cycles: 116537876 heartbeat IPC: 1.00598 cumulative IPC: 0.744741 (Simulation time: 1 hr 12 min 15 sec) 
Heartbeat CPU 0 instructions: 120000000 cycles: 117603700 heartbeat IPC: 0.938241 cumulative IPC: 0.746942 (Simulation time: 1 hr 12 min 50 sec) 
Heartbeat CPU 0 instructions: 121000001 cycles: 119160400 heartbeat IPC: 0.642385 cumulative IPC: 0.745234 (Simulation time: 1 hr 13 min 24 sec) 
Heartbeat CPU 0 instructions: 122000002 cycles: 120423272 heartbeat IPC: 0.791847 cumulative IPC: 0.745844 (Simulation time: 1 hr 14 min 4 sec) 
Heartbeat CPU 0 instructions: 123000000 cycles: 122073598 heartbeat IPC: 0.60594 cumulative IPC: 0.743492 (Simulation time: 1 hr 14 min 40 sec) 
Heartbeat CPU 0 instructions: 124000000 cycles: 123499449 heartbeat IPC: 0.701336 cumulative IPC: 0.742889 (Simulation time: 1 hr 15 min 16 sec) 
Heartbeat CPU 0 instructions: 125000003 cycles: 124850212 heartbeat IPC: 0.740325 cumulative IPC: 0.742854 (Simulation time: 1 hr 15 min 49 sec) 
Heartbeat CPU 0 instructions: 126000000 cycles: 125889234 heartbeat IPC: 0.962441 cumulative IPC: 0.745091 (Simulation time: 1 hr 16 min 28 sec) 
Heartbeat CPU 0 instructions: 127000001 cycles: 127538858 heartbeat IPC: 0.606199 cumulative IPC: 0.742881 (Simulation time: 1 hr 17 min 1 sec) 
Heartbeat CPU 0 instructions: 128000000 cycles: 129180590 heartbeat IPC: 0.609112 cumulative IPC: 0.740795 (Simulation time: 1 hr 17 min 33 sec) 
Heartbeat CPU 0 instructions: 129000000 cycles: 130858203 heartbeat IPC: 0.596085 cumulative IPC: 0.738525 (Simulation time: 1 hr 18 min 4 sec) 
Heartbeat CPU 0 instructions: 130000002 cycles: 132138399 heartbeat IPC: 0.781132 cumulative IPC: 0.739029 (Simulation time: 1 hr 18 min 44 sec) 
Heartbeat CPU 0 instructions: 131000000 cycles: 133099547 heartbeat IPC: 1.04042 cumulative IPC: 0.741682 (Simulation time: 1 hr 19 min 23 sec) 
Heartbeat CPU 0 instructions: 132000000 cycles: 134395636 heartbeat IPC: 0.771552 cumulative IPC: 0.742032 (Simulation time: 1 hr 20 min 2 sec) 
Heartbeat CPU 0 instructions: 133000001 cycles: 135317705 heartbeat IPC: 1.08452 cumulative IPC: 0.744866 (Simulation time: 1 hr 20 min 34 sec) 
Heartbeat CPU 0 instructions: 134000000 cycles: 136227082 heartbeat IPC: 1.09965 cumulative IPC: 0.747738 (Simulation time: 1 hr 21 min 5 sec) 
Heartbeat CPU 0 instructions: 135000002 cycles: 137132405 heartbeat IPC: 1.10458 cumulative IPC: 0.750591 (Simulation time: 1 hr 21 min 35 sec) 
Heartbeat CPU 0 instructions: 136000000 cycles: 138038996 heartbeat IPC: 1.10303 cumulative IPC: 0.75339 (Simulation time: 1 hr 22 min 5 sec) 
Heartbeat CPU 0 instructions: 137000000 cycles: 138928405 heartbeat IPC: 1.12434 cumulative IPC: 0.756258 (Simulation time: 1 hr 22 min 36 sec) 
Heartbeat CPU 0 instructions: 138000000 cycles: 139693373 heartbeat IPC: 1.30724 cumulative IPC: 0.759897 (Simulation time: 1 hr 23 min 2 sec) 
Heartbeat CPU 0 instructions: 139000002 cycles: 140465903 heartbeat IPC: 1.29445 cumulative IPC: 0.76344 (Simulation time: 1 hr 23 min 30 sec) 
Heartbeat CPU 0 instructions: 140000000 cycles: 141222770 heartbeat IPC: 1.32123 cumulative IPC: 0.767038 (Simulation time: 1 hr 23 min 58 sec) 
Heartbeat CPU 0 instructions: 141000003 cycles: 142019655 heartbeat IPC: 1.25489 cumulative IPC: 0.770329 (Simulation time: 1 hr 24 min 23 sec) 
Heartbeat CPU 0 instructions: 142000003 cycles: 142814516 heartbeat IPC: 1.25808 cumulative IPC: 0.773589 (Simulation time: 1 hr 24 min 48 sec) 
Heartbeat CPU 0 instructions: 143000002 cycles: 143605149 heartbeat IPC: 1.26481 cumulative IPC: 0.776833 (Simulation time: 1 hr 25 min 12 sec) 
Heartbeat CPU 0 instructions: 144000000 cycles: 144374421 heartbeat IPC: 1.29993 cumulative IPC: 0.780173 (Simulation time: 1 hr 25 min 34 sec) 
Heartbeat CPU 0 instructions: 145000002 cycles: 145096325 heartbeat IPC: 1.38523 cumulative IPC: 0.783776 (Simulation time: 1 hr 25 min 58 sec) 
Heartbeat CPU 0 instructions: 146000002 cycles: 145823553 heartbeat IPC: 1.37508 cumulative IPC: 0.787303 (Simulation time: 1 hr 26 min 20 sec) 
Heartbeat CPU 0 instructions: 147000003 cycles: 146550327 heartbeat IPC: 1.37594 cumulative IPC: 0.790791 (Simulation time: 1 hr 26 min 41 sec) 
Heartbeat CPU 0 instructions: 148000000 cycles: 147286656 heartbeat IPC: 1.35808 cumulative IPC: 0.794176 (Simulation time: 1 hr 27 min 2 sec) 
Heartbeat CPU 0 instructions: 149000003 cycles: 148040757 heartbeat IPC: 1.32609 cumulative IPC: 0.797407 (Simulation time: 1 hr 27 min 23 sec) 
Heartbeat CPU 0 instructions: 150000000 cycles: 148867420 heartbeat IPC: 1.20968 cumulative IPC: 0.800134 (Simulation time: 1 hr 27 min 45 sec) 
Finished CPU 0 instructions: 100000003 cycles: 124979145 cummulative IPC: 0.800134 (Simulation time: 1 hr 27 min 45 sec) 

ChampSim completed all CPUs

Region of Interest Statistics

CPU 0 cummulative IPC: 0.800134 instructions: 100000003 cycles: 124979145
LLC TOTAL     ACCESS:    1934036  HIT:    1690178  MISS:     243858
LLC LOAD      ACCESS:     554533  HIT:     525896  MISS:      28637
LLC RFO       ACCESS:     322488  HIT:     271748  MISS:      50740
LLC PREFETCH  ACCESS:     708693  HIT:     570772  MISS:     137921
LLC WRITEBACK ACCESS:     348322  HIT:     321762  MISS:      26560
