
*** ChampSim Multicore Out-of-Order Simulator ***

Warmup Instructions: 50000000
Simulation Instructions: 100000000
Configuration: 2
Number of CPUs: 1
LLC sets: 2048
LLC ways: 16
Off-chip DRAM Channels: 1 Width: 64-bit Data Rate: 1600 MT/s

CPU 0 runs /datasets/cs240c-wi22-a00-public/data/Assignment2-gz/perlbench_105B.trace.gz
CPU 0 L1D next line prefetcher
CPU 0 L2C IP-based stride prefetcher
Heartbeat CPU 0 instructions: 1000000 cycles: 578016 heartbeat IPC: 1.73006 cumulative IPC: 1.73006 (Simulation time: 0 hr 0 min 40 sec) 
Heartbeat CPU 0 instructions: 2000001 cycles: 1164321 heartbeat IPC: 1.7056 cumulative IPC: 1.71774 (Simulation time: 0 hr 1 min 18 sec) 
Heartbeat CPU 0 instructions: 3000001 cycles: 1726557 heartbeat IPC: 1.77861 cumulative IPC: 1.73756 (Simulation time: 0 hr 1 min 55 sec) 
Heartbeat CPU 0 instructions: 4000000 cycles: 2305993 heartbeat IPC: 1.72581 cumulative IPC: 1.73461 (Simulation time: 0 hr 2 min 32 sec) 
Heartbeat CPU 0 instructions: 5000003 cycles: 2884260 heartbeat IPC: 1.72931 cumulative IPC: 1.73355 (Simulation time: 0 hr 3 min 14 sec) 
Heartbeat CPU 0 instructions: 6000003 cycles: 3447519 heartbeat IPC: 1.77538 cumulative IPC: 1.74038 (Simulation time: 0 hr 3 min 53 sec) 
Heartbeat CPU 0 instructions: 7000000 cycles: 4019987 heartbeat IPC: 1.74682 cumulative IPC: 1.7413 (Simulation time: 0 hr 4 min 33 sec) 
Heartbeat CPU 0 instructions: 8000000 cycles: 4598049 heartbeat IPC: 1.72992 cumulative IPC: 1.73987 (Simulation time: 0 hr 5 min 16 sec) 
Heartbeat CPU 0 instructions: 9000000 cycles: 5176571 heartbeat IPC: 1.72854 cumulative IPC: 1.7386 (Simulation time: 0 hr 5 min 56 sec) 
Heartbeat CPU 0 instructions: 10000002 cycles: 5745489 heartbeat IPC: 1.75773 cumulative IPC: 1.7405 (Simulation time: 0 hr 6 min 37 sec) 
Heartbeat CPU 0 instructions: 11000002 cycles: 6325420 heartbeat IPC: 1.72434 cumulative IPC: 1.73902 (Simulation time: 0 hr 7 min 18 sec) 
Heartbeat CPU 0 instructions: 12000000 cycles: 6904640 heartbeat IPC: 1.72646 cumulative IPC: 1.73796 (Simulation time: 0 hr 7 min 59 sec) 
Heartbeat CPU 0 instructions: 13000000 cycles: 7466406 heartbeat IPC: 1.7801 cumulative IPC: 1.74113 (Simulation time: 0 hr 8 min 39 sec) 
Heartbeat CPU 0 instructions: 14000000 cycles: 8041757 heartbeat IPC: 1.73807 cumulative IPC: 1.74091 (Simulation time: 0 hr 9 min 20 sec) 
Heartbeat CPU 0 instructions: 15000000 cycles: 8620508 heartbeat IPC: 1.72786 cumulative IPC: 1.74004 (Simulation time: 0 hr 10 min 2 sec) 
Heartbeat CPU 0 instructions: 16000000 cycles: 9184059 heartbeat IPC: 1.77446 cumulative IPC: 1.74215 (Simulation time: 0 hr 10 min 42 sec) 
Heartbeat CPU 0 instructions: 17000003 cycles: 9766692 heartbeat IPC: 1.71635 cumulative IPC: 1.74061 (Simulation time: 0 hr 11 min 23 sec) 
Heartbeat CPU 0 instructions: 18000001 cycles: 10370637 heartbeat IPC: 1.65578 cumulative IPC: 1.73567 (Simulation time: 0 hr 12 min 5 sec) 
Heartbeat CPU 0 instructions: 19000000 cycles: 10920618 heartbeat IPC: 1.81824 cumulative IPC: 1.73983 (Simulation time: 0 hr 12 min 45 sec) 
Heartbeat CPU 0 instructions: 20000000 cycles: 11470881 heartbeat IPC: 1.81731 cumulative IPC: 1.74355 (Simulation time: 0 hr 13 min 25 sec) 
Heartbeat CPU 0 instructions: 21000000 cycles: 12021676 heartbeat IPC: 1.81556 cumulative IPC: 1.74684 (Simulation time: 0 hr 14 min 2 sec) 
Heartbeat CPU 0 instructions: 22000001 cycles: 12572889 heartbeat IPC: 1.81418 cumulative IPC: 1.7498 (Simulation time: 0 hr 14 min 41 sec) 
Heartbeat CPU 0 instructions: 23000000 cycles: 13124776 heartbeat IPC: 1.81196 cumulative IPC: 1.75241 (Simulation time: 0 hr 15 min 20 sec) 
Heartbeat CPU 0 instructions: 24000000 cycles: 13678280 heartbeat IPC: 1.80667 cumulative IPC: 1.75461 (Simulation time: 0 hr 16 min 0 sec) 
Heartbeat CPU 0 instructions: 25000001 cycles: 14234470 heartbeat IPC: 1.79795 cumulative IPC: 1.7563 (Simulation time: 0 hr 16 min 41 sec) 
Heartbeat CPU 0 instructions: 26000001 cycles: 14838190 heartbeat IPC: 1.6564 cumulative IPC: 1.75224 (Simulation time: 0 hr 17 min 24 sec) 
Heartbeat CPU 0 instructions: 27000003 cycles: 15391842 heartbeat IPC: 1.80619 cumulative IPC: 1.75418 (Simulation time: 0 hr 18 min 3 sec) 
Heartbeat CPU 0 instructions: 28000000 cycles: 15942079 heartbeat IPC: 1.81739 cumulative IPC: 1.75636 (Simulation time: 0 hr 18 min 43 sec) 
Heartbeat CPU 0 instructions: 29000001 cycles: 16492470 heartbeat IPC: 1.81689 cumulative IPC: 1.75838 (Simulation time: 0 hr 19 min 22 sec) 
Heartbeat CPU 0 instructions: 30000001 cycles: 17043379 heartbeat IPC: 1.81518 cumulative IPC: 1.76021 (Simulation time: 0 hr 20 min 1 sec) 
Heartbeat CPU 0 instructions: 31000000 cycles: 17595215 heartbeat IPC: 1.81213 cumulative IPC: 1.76184 (Simulation time: 0 hr 20 min 42 sec) 
Heartbeat CPU 0 instructions: 32000000 cycles: 18147816 heartbeat IPC: 1.80962 cumulative IPC: 1.7633 (Simulation time: 0 hr 21 min 21 sec) 
Heartbeat CPU 0 instructions: 33000001 cycles: 18703042 heartbeat IPC: 1.80107 cumulative IPC: 1.76442 (Simulation time: 0 hr 22 min 1 sec) 
Heartbeat CPU 0 instructions: 34000002 cycles: 19267468 heartbeat IPC: 1.77171 cumulative IPC: 1.76463 (Simulation time: 0 hr 22 min 43 sec) 
Heartbeat CPU 0 instructions: 35000002 cycles: 19833113 heartbeat IPC: 1.76789 cumulative IPC: 1.76473 (Simulation time: 0 hr 23 min 24 sec) 
Heartbeat CPU 0 instructions: 36000000 cycles: 20373374 heartbeat IPC: 1.85095 cumulative IPC: 1.76701 (Simulation time: 0 hr 24 min 5 sec) 
Heartbeat CPU 0 instructions: 37000001 cycles: 21094659 heartbeat IPC: 1.38642 cumulative IPC: 1.754 (Simulation time: 0 hr 24 min 54 sec) 
Heartbeat CPU 0 instructions: 38000000 cycles: 21678295 heartbeat IPC: 1.71339 cumulative IPC: 1.75291 (Simulation time: 0 hr 25 min 37 sec) 
Heartbeat CPU 0 instructions: 39000001 cycles: 22326081 heartbeat IPC: 1.54372 cumulative IPC: 1.74684 (Simulation time: 0 hr 26 min 25 sec) 
Heartbeat CPU 0 instructions: 40000000 cycles: 22965053 heartbeat IPC: 1.56501 cumulative IPC: 1.74178 (Simulation time: 0 hr 27 min 9 sec) 
Heartbeat CPU 0 instructions: 41000000 cycles: 23602021 heartbeat IPC: 1.56994 cumulative IPC: 1.73714 (Simulation time: 0 hr 27 min 52 sec) 
Heartbeat CPU 0 instructions: 42000001 cycles: 24240635 heartbeat IPC: 1.56589 cumulative IPC: 1.73263 (Simulation time: 0 hr 28 min 36 sec) 
Heartbeat CPU 0 instructions: 43000000 cycles: 24878552 heartbeat IPC: 1.5676 cumulative IPC: 1.7284 (Simulation time: 0 hr 29 min 20 sec) 
Heartbeat CPU 0 instructions: 44000000 cycles: 25513845 heartbeat IPC: 1.57408 cumulative IPC: 1.72455 (Simulation time: 0 hr 30 min 5 sec) 
Heartbeat CPU 0 instructions: 45000001 cycles: 26155755 heartbeat IPC: 1.55785 cumulative IPC: 1.72046 (Simulation time: 0 hr 30 min 51 sec) 
Heartbeat CPU 0 instructions: 46000002 cycles: 26793011 heartbeat IPC: 1.56923 cumulative IPC: 1.71687 (Simulation time: 0 hr 31 min 34 sec) 
Heartbeat CPU 0 instructions: 47000002 cycles: 27427721 heartbeat IPC: 1.57552 cumulative IPC: 1.71359 (Simulation time: 0 hr 32 min 19 sec) 
Heartbeat CPU 0 instructions: 48000000 cycles: 28061848 heartbeat IPC: 1.57697 cumulative IPC: 1.71051 (Simulation time: 0 hr 33 min 4 sec) 
Heartbeat CPU 0 instructions: 49000001 cycles: 28697248 heartbeat IPC: 1.57381 cumulative IPC: 1.70748 (Simulation time: 0 hr 33 min 47 sec) 
Heartbeat CPU 0 instructions: 50000002 cycles: 29331200 heartbeat IPC: 1.57741 cumulative IPC: 1.70467 (Simulation time: 0 hr 34 min 32 sec) 

Warmup complete CPU 0 instructions: 50000002 cycles: 29331200 (Simulation time: 0 hr 34 min 32 sec) 

Heartbeat CPU 0 instructions: 51000003 cycles: 31970094 heartbeat IPC: 0.378947 cumulative IPC: 0.378947 (Simulation time: 0 hr 35 min 26 sec) 
Heartbeat CPU 0 instructions: 52000000 cycles: 34586339 heartbeat IPC: 0.382226 cumulative IPC: 0.380579 (Simulation time: 0 hr 36 min 17 sec) 
Heartbeat CPU 0 instructions: 53000000 cycles: 37190520 heartbeat IPC: 0.383998 cumulative IPC: 0.381712 (Simulation time: 0 hr 37 min 7 sec) 
Heartbeat CPU 0 instructions: 54000000 cycles: 39835239 heartbeat IPC: 0.378112 cumulative IPC: 0.380806 (Simulation time: 0 hr 37 min 59 sec) 
Heartbeat CPU 0 instructions: 55000003 cycles: 42418327 heartbeat IPC: 0.387135 cumulative IPC: 0.382055 (Simulation time: 0 hr 38 min 48 sec) 
Heartbeat CPU 0 instructions: 56000000 cycles: 44802383 heartbeat IPC: 0.419452 cumulative IPC: 0.387818 (Simulation time: 0 hr 39 min 43 sec) 
Heartbeat CPU 0 instructions: 57000002 cycles: 47077722 heartbeat IPC: 0.439496 cumulative IPC: 0.394443 (Simulation time: 0 hr 40 min 36 sec) 
Heartbeat CPU 0 instructions: 58000001 cycles: 48404872 heartbeat IPC: 0.753494 cumulative IPC: 0.419426 (Simulation time: 0 hr 41 min 17 sec) 
Heartbeat CPU 0 instructions: 59000002 cycles: 50650169 heartbeat IPC: 0.445376 cumulative IPC: 0.422159 (Simulation time: 0 hr 42 min 10 sec) 
Heartbeat CPU 0 instructions: 60000000 cycles: 52998920 heartbeat IPC: 0.425757 cumulative IPC: 0.422516 (Simulation time: 0 hr 43 min 7 sec) 
Heartbeat CPU 0 instructions: 61000002 cycles: 55448410 heartbeat IPC: 0.408249 cumulative IPC: 0.421178 (Simulation time: 0 hr 44 min 5 sec) 
Heartbeat CPU 0 instructions: 62000000 cycles: 57814883 heartbeat IPC: 0.422569 cumulative IPC: 0.421294 (Simulation time: 0 hr 45 min 1 sec) 
Heartbeat CPU 0 instructions: 63000000 cycles: 60177585 heartbeat IPC: 0.423244 cumulative IPC: 0.421443 (Simulation time: 0 hr 45 min 56 sec) 
Heartbeat CPU 0 instructions: 64000000 cycles: 62597079 heartbeat IPC: 0.41331 cumulative IPC: 0.420852 (Simulation time: 0 hr 46 min 53 sec) 
Heartbeat CPU 0 instructions: 65000003 cycles: 64921475 heartbeat IPC: 0.430221 cumulative IPC: 0.421463 (Simulation time: 0 hr 47 min 47 sec) 
Heartbeat CPU 0 instructions: 66000002 cycles: 67265064 heartbeat IPC: 0.426696 cumulative IPC: 0.421787 (Simulation time: 0 hr 48 min 44 sec) 
Heartbeat CPU 0 instructions: 67000001 cycles: 69620649 heartbeat IPC: 0.424523 cumulative IPC: 0.421947 (Simulation time: 0 hr 49 min 43 sec) 
Heartbeat CPU 0 instructions: 68000000 cycles: 72068840 heartbeat IPC: 0.408464 cumulative IPC: 0.421174 (Simulation time: 0 hr 50 min 43 sec) 
Heartbeat CPU 0 instructions: 69000001 cycles: 74421307 heartbeat IPC: 0.425086 cumulative IPC: 0.421378 (Simulation time: 0 hr 51 min 40 sec) 
Heartbeat CPU 0 instructions: 70000000 cycles: 76837145 heartbeat IPC: 0.413935 cumulative IPC: 0.421 (Simulation time: 0 hr 52 min 37 sec) 
Heartbeat CPU 0 instructions: 71000000 cycles: 79223620 heartbeat IPC: 0.419028 cumulative IPC: 0.420906 (Simulation time: 0 hr 53 min 31 sec) 
Heartbeat CPU 0 instructions: 72000000 cycles: 81552627 heartbeat IPC: 0.429368 cumulative IPC: 0.421283 (Simulation time: 0 hr 54 min 27 sec) 
Heartbeat CPU 0 instructions: 73000000 cycles: 83885664 heartbeat IPC: 0.428626 cumulative IPC: 0.421597 (Simulation time: 0 hr 55 min 17 sec) 
Heartbeat CPU 0 instructions: 74000002 cycles: 86271173 heartbeat IPC: 0.419199 cumulative IPC: 0.421497 (Simulation time: 0 hr 56 min 8 sec) 
Heartbeat CPU 0 instructions: 75000000 cycles: 88694622 heartbeat IPC: 0.412634 cumulative IPC: 0.421135 (Simulation time: 0 hr 57 min 0 sec) 
Heartbeat CPU 0 instructions: 76000000 cycles: 91054030 heartbeat IPC: 0.423835 cumulative IPC: 0.421238 (Simulation time: 0 hr 57 min 51 sec) 
Heartbeat CPU 0 instructions: 77000000 cycles: 93488525 heartbeat IPC: 0.410763 cumulative IPC: 0.42084 (Simulation time: 0 hr 58 min 48 sec) 
Heartbeat CPU 0 instructions: 78000002 cycles: 95853444 heartbeat IPC: 0.422848 cumulative IPC: 0.420912 (Simulation time: 0 hr 59 min 44 sec) 
Heartbeat CPU 0 instructions: 79000001 cycles: 98190044 heartbeat IPC: 0.427972 cumulative IPC: 0.421151 (Simulation time: 1 hr 0 min 39 sec) 
Heartbeat CPU 0 instructions: 80000000 cycles: 100521400 heartbeat IPC: 0.428934 cumulative IPC: 0.421406 (Simulation time: 1 hr 1 min 34 sec) 
Heartbeat CPU 0 instructions: 81000000 cycles: 102945084 heartbeat IPC: 0.412595 cumulative IPC: 0.421116 (Simulation time: 1 hr 2 min 31 sec) 
Heartbeat CPU 0 instructions: 82000000 cycles: 105308307 heartbeat IPC: 0.423151 cumulative IPC: 0.421179 (Simulation time: 1 hr 3 min 25 sec) 
Heartbeat CPU 0 instructions: 83000002 cycles: 107629192 heartbeat IPC: 0.430871 cumulative IPC: 0.421467 (Simulation time: 1 hr 4 min 19 sec) 
Heartbeat CPU 0 instructions: 84000000 cycles: 110051744 heartbeat IPC: 0.412787 cumulative IPC: 0.421206 (Simulation time: 1 hr 5 min 14 sec) 
Heartbeat CPU 0 instructions: 85000000 cycles: 112426440 heartbeat IPC: 0.421107 cumulative IPC: 0.421203 (Simulation time: 1 hr 6 min 11 sec) 
Heartbeat CPU 0 instructions: 86000000 cycles: 114776279 heartbeat IPC: 0.425561 cumulative IPC: 0.421323 (Simulation time: 1 hr 7 min 4 sec) 
Heartbeat CPU 0 instructions: 87000001 cycles: 117222598 heartbeat IPC: 0.408778 cumulative IPC: 0.420974 (Simulation time: 1 hr 7 min 57 sec) 
Heartbeat CPU 0 instructions: 88000000 cycles: 119588252 heartbeat IPC: 0.422716 cumulative IPC: 0.42102 (Simulation time: 1 hr 8 min 49 sec) 
Heartbeat CPU 0 instructions: 89000002 cycles: 121913770 heartbeat IPC: 0.430013 cumulative IPC: 0.421246 (Simulation time: 1 hr 9 min 39 sec) 
Heartbeat CPU 0 instructions: 90000002 cycles: 124277606 heartbeat IPC: 0.423041 cumulative IPC: 0.42129 (Simulation time: 1 hr 10 min 28 sec) 
Heartbeat CPU 0 instructions: 91000003 cycles: 126694169 heartbeat IPC: 0.413811 cumulative IPC: 0.421105 (Simulation time: 1 hr 11 min 20 sec) 
Heartbeat CPU 0 instructions: 92000000 cycles: 129053035 heartbeat IPC: 0.423931 cumulative IPC: 0.421172 (Simulation time: 1 hr 12 min 8 sec) 
Heartbeat CPU 0 instructions: 93000001 cycles: 131399918 heartbeat IPC: 0.426098 cumulative IPC: 0.421285 (Simulation time: 1 hr 12 min 57 sec) 
Heartbeat CPU 0 instructions: 94000002 cycles: 133852380 heartbeat IPC: 0.407754 cumulative IPC: 0.420967 (Simulation time: 1 hr 13 min 44 sec) 
Heartbeat CPU 0 instructions: 95000000 cycles: 136213397 heartbeat IPC: 0.423545 cumulative IPC: 0.421024 (Simulation time: 1 hr 14 min 35 sec) 
Heartbeat CPU 0 instructions: 96000000 cycles: 138536688 heartbeat IPC: 0.430424 cumulative IPC: 0.421224 (Simulation time: 1 hr 15 min 22 sec) 
Heartbeat CPU 0 instructions: 97000000 cycles: 140923519 heartbeat IPC: 0.418966 cumulative IPC: 0.421176 (Simulation time: 1 hr 16 min 17 sec) 
Heartbeat CPU 0 instructions: 98000001 cycles: 143323532 heartbeat IPC: 0.416665 cumulative IPC: 0.421081 (Simulation time: 1 hr 17 min 11 sec) 
Heartbeat CPU 0 instructions: 99000002 cycles: 145682415 heartbeat IPC: 0.42393 cumulative IPC: 0.421139 (Simulation time: 1 hr 18 min 4 sec) 
Heartbeat CPU 0 instructions: 100000000 cycles: 148035023 heartbeat IPC: 0.425059 cumulative IPC: 0.421216 (Simulation time: 1 hr 18 min 55 sec) 
Heartbeat CPU 0 instructions: 101000000 cycles: 150450660 heartbeat IPC: 0.413969 cumulative IPC: 0.421072 (Simulation time: 1 hr 19 min 46 sec) 
Heartbeat CPU 0 instructions: 102000000 cycles: 152683456 heartbeat IPC: 0.447869 cumulative IPC: 0.421557 (Simulation time: 1 hr 20 min 36 sec) 
Heartbeat CPU 0 instructions: 103000001 cycles: 155188056 heartbeat IPC: 0.399266 cumulative IPC: 0.421113 (Simulation time: 1 hr 21 min 28 sec) 
Heartbeat CPU 0 instructions: 104000000 cycles: 157690576 heartbeat IPC: 0.399597 cumulative IPC: 0.420694 (Simulation time: 1 hr 22 min 17 sec) 
Heartbeat CPU 0 instructions: 105000000 cycles: 160190449 heartbeat IPC: 0.40002 cumulative IPC: 0.420299 (Simulation time: 1 hr 23 min 7 sec) 
Heartbeat CPU 0 instructions: 106000000 cycles: 162686654 heartbeat IPC: 0.400608 cumulative IPC: 0.41993 (Simulation time: 1 hr 23 min 56 sec) 
Heartbeat CPU 0 instructions: 107000001 cycles: 165177246 heartbeat IPC: 0.401511 cumulative IPC: 0.419593 (Simulation time: 1 hr 24 min 45 sec) 
Heartbeat CPU 0 instructions: 108000000 cycles: 167657652 heartbeat IPC: 0.403159 cumulative IPC: 0.419298 (Simulation time: 1 hr 25 min 32 sec) 
Heartbeat CPU 0 instructions: 109000002 cycles: 170113801 heartbeat IPC: 0.407142 cumulative IPC: 0.419086 (Simulation time: 1 hr 26 min 15 sec) 
Heartbeat CPU 0 instructions: 110000000 cycles: 172433391 heartbeat IPC: 0.43111 cumulative IPC: 0.419281 (Simulation time: 1 hr 26 min 54 sec) 
Heartbeat CPU 0 instructions: 111000001 cycles: 174866992 heartbeat IPC: 0.410914 cumulative IPC: 0.419141 (Simulation time: 1 hr 27 min 36 sec) 
Heartbeat CPU 0 instructions: 112000000 cycles: 177235173 heartbeat IPC: 0.422265 cumulative IPC: 0.419191 (Simulation time: 1 hr 28 min 11 sec) 
Heartbeat CPU 0 instructions: 113000002 cycles: 179567889 heartbeat IPC: 0.428686 cumulative IPC: 0.419338 (Simulation time: 1 hr 28 min 48 sec) 
Heartbeat CPU 0 instructions: 114000003 cycles: 181905556 heartbeat IPC: 0.427777 cumulative IPC: 0.419468 (Simulation time: 1 hr 29 min 22 sec) 
Heartbeat CPU 0 instructions: 115000000 cycles: 184320773 heartbeat IPC: 0.41404 cumulative IPC: 0.419383 (Simulation time: 1 hr 29 min 58 sec) 
Heartbeat CPU 0 instructions: 116000000 cycles: 186710612 heartbeat IPC: 0.418438 cumulative IPC: 0.419369 (Simulation time: 1 hr 30 min 32 sec) 
Heartbeat CPU 0 instructions: 117000000 cycles: 189062992 heartbeat IPC: 0.425101 cumulative IPC: 0.419453 (Simulation time: 1 hr 31 min 6 sec) 
Heartbeat CPU 0 instructions: 118000002 cycles: 191505001 heartbeat IPC: 0.4095 cumulative IPC: 0.419303 (Simulation time: 1 hr 31 min 39 sec) 
Heartbeat CPU 0 instructions: 119000001 cycles: 193843606 heartbeat IPC: 0.427605 cumulative IPC: 0.419421 (Simulation time: 1 hr 32 min 11 sec) 
Heartbeat CPU 0 instructions: 120000000 cycles: 196171051 heartbeat IPC: 0.429655 cumulative IPC: 0.419564 (Simulation time: 1 hr 32 min 42 sec) 
Heartbeat CPU 0 instructions: 121000000 cycles: 198528006 heartbeat IPC: 0.424276 cumulative IPC: 0.41963 (Simulation time: 1 hr 33 min 15 sec) 
Heartbeat CPU 0 instructions: 122000003 cycles: 200941180 heartbeat IPC: 0.414393 cumulative IPC: 0.419556 (Simulation time: 1 hr 33 min 47 sec) 
Heartbeat CPU 0 instructions: 123000003 cycles: 203311988 heartbeat IPC: 0.421797 cumulative IPC: 0.419587 (Simulation time: 1 hr 34 min 19 sec) 
Heartbeat CPU 0 instructions: 124000000 cycles: 205660514 heartbeat IPC: 0.425798 cumulative IPC: 0.419669 (Simulation time: 1 hr 34 min 48 sec) 
Heartbeat CPU 0 instructions: 125000000 cycles: 208110207 heartbeat IPC: 0.408214 cumulative IPC: 0.419512 (Simulation time: 1 hr 35 min 16 sec) 
Heartbeat CPU 0 instructions: 126000000 cycles: 210464085 heartbeat IPC: 0.424831 cumulative IPC: 0.419581 (Simulation time: 1 hr 35 min 43 sec) 
Heartbeat CPU 0 instructions: 127000002 cycles: 212778527 heartbeat IPC: 0.43207 cumulative IPC: 0.419739 (Simulation time: 1 hr 36 min 9 sec) 
Heartbeat CPU 0 instructions: 128000000 cycles: 215153670 heartbeat IPC: 0.421026 cumulative IPC: 0.419755 (Simulation time: 1 hr 36 min 35 sec) 
Heartbeat CPU 0 instructions: 129000002 cycles: 217543881 heartbeat IPC: 0.418374 cumulative IPC: 0.419738 (Simulation time: 1 hr 37 min 0 sec) 
Heartbeat CPU 0 instructions: 130000000 cycles: 219888291 heartbeat IPC: 0.426546 cumulative IPC: 0.419822 (Simulation time: 1 hr 37 min 25 sec) 
Heartbeat CPU 0 instructions: 131000002 cycles: 222238055 heartbeat IPC: 0.425575 cumulative IPC: 0.419892 (Simulation time: 1 hr 37 min 48 sec) 
Heartbeat CPU 0 instructions: 132000000 cycles: 224680281 heartbeat IPC: 0.409462 cumulative IPC: 0.419761 (Simulation time: 1 hr 38 min 12 sec) 
Heartbeat CPU 0 instructions: 133000001 cycles: 227047495 heartbeat IPC: 0.422438 cumulative IPC: 0.419793 (Simulation time: 1 hr 38 min 35 sec) 
Heartbeat CPU 0 instructions: 134000001 cycles: 229393971 heartbeat IPC: 0.426171 cumulative IPC: 0.419868 (Simulation time: 1 hr 38 min 56 sec) 
Heartbeat CPU 0 instructions: 135000000 cycles: 231813663 heartbeat IPC: 0.413275 cumulative IPC: 0.419789 (Simulation time: 1 hr 39 min 16 sec) 
Heartbeat CPU 0 instructions: 136000000 cycles: 234145337 heartbeat IPC: 0.428876 cumulative IPC: 0.419893 (Simulation time: 1 hr 39 min 35 sec) 
Heartbeat CPU 0 instructions: 137000003 cycles: 236486029 heartbeat IPC: 0.427225 cumulative IPC: 0.419976 (Simulation time: 1 hr 39 min 54 sec) 
Heartbeat CPU 0 instructions: 138000002 cycles: 238830967 heartbeat IPC: 0.42645 cumulative IPC: 0.420048 (Simulation time: 1 hr 40 min 11 sec) 
Heartbeat CPU 0 instructions: 139000001 cycles: 241282361 heartbeat IPC: 0.407931 cumulative IPC: 0.419908 (Simulation time: 1 hr 40 min 29 sec) 
Heartbeat CPU 0 instructions: 140000000 cycles: 243641540 heartbeat IPC: 0.423876 cumulative IPC: 0.419952 (Simulation time: 1 hr 40 min 45 sec) 
Heartbeat CPU 0 instructions: 141000002 cycles: 246017690 heartbeat IPC: 0.42085 cumulative IPC: 0.419962 (Simulation time: 1 hr 41 min 0 sec) 
Heartbeat CPU 0 instructions: 142000000 cycles: 248427641 heartbeat IPC: 0.414945 cumulative IPC: 0.419906 (Simulation time: 1 hr 41 min 15 sec) 
Heartbeat CPU 0 instructions: 143000002 cycles: 250767950 heartbeat IPC: 0.427295 cumulative IPC: 0.419984 (Simulation time: 1 hr 41 min 31 sec) 
Heartbeat CPU 0 instructions: 144000000 cycles: 253083940 heartbeat IPC: 0.43178 cumulative IPC: 0.420107 (Simulation time: 1 hr 41 min 44 sec) 
Heartbeat CPU 0 instructions: 145000000 cycles: 255450058 heartbeat IPC: 0.422633 cumulative IPC: 0.420133 (Simulation time: 1 hr 41 min 54 sec) 
Heartbeat CPU 0 instructions: 146000002 cycles: 257886686 heartbeat IPC: 0.410404 cumulative IPC: 0.420029 (Simulation time: 1 hr 42 min 4 sec) 
Heartbeat CPU 0 instructions: 147000000 cycles: 260239195 heartbeat IPC: 0.425077 cumulative IPC: 0.420081 (Simulation time: 1 hr 42 min 14 sec) 
Heartbeat CPU 0 instructions: 148000000 cycles: 262661060 heartbeat IPC: 0.412905 cumulative IPC: 0.420006 (Simulation time: 1 hr 42 min 23 sec) 
Heartbeat CPU 0 instructions: 149000001 cycles: 265031031 heartbeat IPC: 0.421947 cumulative IPC: 0.420026 (Simulation time: 1 hr 42 min 32 sec) 
Heartbeat CPU 0 instructions: 150000002 cycles: 267362851 heartbeat IPC: 0.42885 cumulative IPC: 0.420112 (Simulation time: 1 hr 42 min 41 sec) 
Finished CPU 0 instructions: 100000000 cycles: 238031651 cummulative IPC: 0.420112 (Simulation time: 1 hr 42 min 41 sec) 

ChampSim completed all CPUs

Region of Interest Statistics

CPU 0 cummulative IPC: 0.420112 instructions: 100000000 cycles: 238031651
LLC TOTAL     ACCESS:      45228  HIT:      32183  MISS:      13045
LLC LOAD      ACCESS:      21125  HIT:      20360  MISS:        765
LLC RFO       ACCESS:       2813  HIT:       1775  MISS:       1038
LLC PREFETCH  ACCESS:      14815  HIT:       3819  MISS:      10996
LLC WRITEBACK ACCESS:       6475  HIT:       6229  MISS:        246
