
*** ChampSim Multicore Out-of-Order Simulator ***

Warmup Instructions: 50000000
Simulation Instructions: 100000000
Configuration: 2
Number of CPUs: 1
LLC sets: 2048
LLC ways: 16
Off-chip DRAM Channels: 1 Width: 64-bit Data Rate: 1600 MT/s

CPU 0 runs /datasets/cs240c-wi22-a00-public/data/Assignment2-gz/astar_313B.trace.gz
CPU 0 L1D next line prefetcher
CPU 0 L2C IP-based stride prefetcher
Heartbeat CPU 0 instructions: 1000001 cycles: 676287 heartbeat IPC: 1.47866 cumulative IPC: 1.47866 (Simulation time: 0 hr 0 min 56 sec) 
Heartbeat CPU 0 instructions: 2000003 cycles: 1263800 heartbeat IPC: 1.70209 cumulative IPC: 1.58253 (Simulation time: 0 hr 1 min 44 sec) 
Heartbeat CPU 0 instructions: 3000003 cycles: 1938831 heartbeat IPC: 1.48141 cumulative IPC: 1.54733 (Simulation time: 0 hr 2 min 34 sec) 
Heartbeat CPU 0 instructions: 4000000 cycles: 2613496 heartbeat IPC: 1.48221 cumulative IPC: 1.53052 (Simulation time: 0 hr 3 min 22 sec) 
Heartbeat CPU 0 instructions: 5000002 cycles: 3288733 heartbeat IPC: 1.48096 cumulative IPC: 1.52034 (Simulation time: 0 hr 4 min 10 sec) 
Heartbeat CPU 0 instructions: 6000001 cycles: 3874994 heartbeat IPC: 1.70572 cumulative IPC: 1.54839 (Simulation time: 0 hr 4 min 58 sec) 
Heartbeat CPU 0 instructions: 7000001 cycles: 4443441 heartbeat IPC: 1.75918 cumulative IPC: 1.57536 (Simulation time: 0 hr 5 min 45 sec) 
Heartbeat CPU 0 instructions: 8000000 cycles: 4995184 heartbeat IPC: 1.81244 cumulative IPC: 1.60154 (Simulation time: 0 hr 6 min 31 sec) 
Heartbeat CPU 0 instructions: 9000001 cycles: 5556780 heartbeat IPC: 1.78064 cumulative IPC: 1.61964 (Simulation time: 0 hr 7 min 18 sec) 
Heartbeat CPU 0 instructions: 10000002 cycles: 6231703 heartbeat IPC: 1.48165 cumulative IPC: 1.6047 (Simulation time: 0 hr 8 min 7 sec) 
Heartbeat CPU 0 instructions: 11000000 cycles: 6907252 heartbeat IPC: 1.48027 cumulative IPC: 1.59253 (Simulation time: 0 hr 8 min 56 sec) 
Heartbeat CPU 0 instructions: 12000000 cycles: 7576692 heartbeat IPC: 1.49379 cumulative IPC: 1.5838 (Simulation time: 0 hr 9 min 42 sec) 
Heartbeat CPU 0 instructions: 13000003 cycles: 8168584 heartbeat IPC: 1.6895 cumulative IPC: 1.59146 (Simulation time: 0 hr 10 min 29 sec) 
Heartbeat CPU 0 instructions: 14000002 cycles: 8840427 heartbeat IPC: 1.48844 cumulative IPC: 1.58363 (Simulation time: 0 hr 11 min 17 sec) 
Heartbeat CPU 0 instructions: 15000000 cycles: 9514054 heartbeat IPC: 1.4845 cumulative IPC: 1.57661 (Simulation time: 0 hr 12 min 4 sec) 
Heartbeat CPU 0 instructions: 16000000 cycles: 10186865 heartbeat IPC: 1.4863 cumulative IPC: 1.57065 (Simulation time: 0 hr 12 min 51 sec) 
Heartbeat CPU 0 instructions: 17000001 cycles: 10859901 heartbeat IPC: 1.48581 cumulative IPC: 1.56539 (Simulation time: 0 hr 13 min 43 sec) 
Heartbeat CPU 0 instructions: 18000000 cycles: 11445238 heartbeat IPC: 1.70842 cumulative IPC: 1.57271 (Simulation time: 0 hr 14 min 36 sec) 
Heartbeat CPU 0 instructions: 19000000 cycles: 12118790 heartbeat IPC: 1.48467 cumulative IPC: 1.56781 (Simulation time: 0 hr 15 min 29 sec) 
Heartbeat CPU 0 instructions: 20000000 cycles: 12792350 heartbeat IPC: 1.48465 cumulative IPC: 1.56343 (Simulation time: 0 hr 16 min 20 sec) 
Heartbeat CPU 0 instructions: 21000001 cycles: 13418542 heartbeat IPC: 1.59696 cumulative IPC: 1.565 (Simulation time: 0 hr 17 min 8 sec) 
Heartbeat CPU 0 instructions: 22000001 cycles: 14053581 heartbeat IPC: 1.57471 cumulative IPC: 1.56544 (Simulation time: 0 hr 17 min 55 sec) 
Heartbeat CPU 0 instructions: 23000001 cycles: 14726760 heartbeat IPC: 1.48549 cumulative IPC: 1.56178 (Simulation time: 0 hr 18 min 45 sec) 
Heartbeat CPU 0 instructions: 24000000 cycles: 15382819 heartbeat IPC: 1.52425 cumulative IPC: 1.56018 (Simulation time: 0 hr 19 min 36 sec) 
Heartbeat CPU 0 instructions: 25000001 cycles: 15987855 heartbeat IPC: 1.6528 cumulative IPC: 1.56369 (Simulation time: 0 hr 20 min 29 sec) 
Heartbeat CPU 0 instructions: 26000002 cycles: 16663114 heartbeat IPC: 1.48091 cumulative IPC: 1.56033 (Simulation time: 0 hr 21 min 21 sec) 
Heartbeat CPU 0 instructions: 27000002 cycles: 17253342 heartbeat IPC: 1.69426 cumulative IPC: 1.56491 (Simulation time: 0 hr 22 min 12 sec) 
Heartbeat CPU 0 instructions: 28000000 cycles: 17927110 heartbeat IPC: 1.48419 cumulative IPC: 1.56188 (Simulation time: 0 hr 23 min 6 sec) 
Heartbeat CPU 0 instructions: 29000001 cycles: 18515663 heartbeat IPC: 1.69908 cumulative IPC: 1.56624 (Simulation time: 0 hr 24 min 2 sec) 
Heartbeat CPU 0 instructions: 30000002 cycles: 19190255 heartbeat IPC: 1.48238 cumulative IPC: 1.56329 (Simulation time: 0 hr 24 min 54 sec) 
Heartbeat CPU 0 instructions: 31000002 cycles: 19865784 heartbeat IPC: 1.48032 cumulative IPC: 1.56047 (Simulation time: 0 hr 25 min 48 sec) 
Heartbeat CPU 0 instructions: 32000000 cycles: 20540701 heartbeat IPC: 1.48166 cumulative IPC: 1.55788 (Simulation time: 0 hr 26 min 39 sec) 
Heartbeat CPU 0 instructions: 33000003 cycles: 21215605 heartbeat IPC: 1.4817 cumulative IPC: 1.55546 (Simulation time: 0 hr 27 min 29 sec) 
Heartbeat CPU 0 instructions: 34000000 cycles: 21801517 heartbeat IPC: 1.70674 cumulative IPC: 1.55952 (Simulation time: 0 hr 28 min 19 sec) 
Heartbeat CPU 0 instructions: 35000000 cycles: 22474984 heartbeat IPC: 1.48485 cumulative IPC: 1.55729 (Simulation time: 0 hr 29 min 10 sec) 
Heartbeat CPU 0 instructions: 36000000 cycles: 23149967 heartbeat IPC: 1.48152 cumulative IPC: 1.55508 (Simulation time: 0 hr 30 min 2 sec) 
Heartbeat CPU 0 instructions: 37000002 cycles: 23738737 heartbeat IPC: 1.69846 cumulative IPC: 1.55863 (Simulation time: 0 hr 30 min 51 sec) 
Heartbeat CPU 0 instructions: 38000000 cycles: 24412218 heartbeat IPC: 1.48482 cumulative IPC: 1.5566 (Simulation time: 0 hr 31 min 42 sec) 
Heartbeat CPU 0 instructions: 39000003 cycles: 25000985 heartbeat IPC: 1.69847 cumulative IPC: 1.55994 (Simulation time: 0 hr 32 min 33 sec) 
Heartbeat CPU 0 instructions: 40000000 cycles: 25589349 heartbeat IPC: 1.69962 cumulative IPC: 1.56315 (Simulation time: 0 hr 33 min 24 sec) 
Heartbeat CPU 0 instructions: 41000001 cycles: 26263135 heartbeat IPC: 1.48415 cumulative IPC: 1.56112 (Simulation time: 0 hr 34 min 13 sec) 
Heartbeat CPU 0 instructions: 42000003 cycles: 26939818 heartbeat IPC: 1.4778 cumulative IPC: 1.55903 (Simulation time: 0 hr 35 min 4 sec) 
Heartbeat CPU 0 instructions: 43000003 cycles: 27533031 heartbeat IPC: 1.68574 cumulative IPC: 1.56176 (Simulation time: 0 hr 35 min 54 sec) 
Heartbeat CPU 0 instructions: 44000000 cycles: 28201516 heartbeat IPC: 1.49592 cumulative IPC: 1.5602 (Simulation time: 0 hr 36 min 41 sec) 
Heartbeat CPU 0 instructions: 45000002 cycles: 28875879 heartbeat IPC: 1.48288 cumulative IPC: 1.55839 (Simulation time: 0 hr 37 min 29 sec) 
Heartbeat CPU 0 instructions: 46000002 cycles: 29550877 heartbeat IPC: 1.48149 cumulative IPC: 1.55664 (Simulation time: 0 hr 38 min 19 sec) 
Heartbeat CPU 0 instructions: 47000002 cycles: 30223493 heartbeat IPC: 1.48673 cumulative IPC: 1.55508 (Simulation time: 0 hr 39 min 9 sec) 
Heartbeat CPU 0 instructions: 48000000 cycles: 30811953 heartbeat IPC: 1.69935 cumulative IPC: 1.55784 (Simulation time: 0 hr 39 min 57 sec) 
Heartbeat CPU 0 instructions: 49000000 cycles: 31485000 heartbeat IPC: 1.48578 cumulative IPC: 1.5563 (Simulation time: 0 hr 40 min 47 sec) 
Heartbeat CPU 0 instructions: 50000000 cycles: 32159557 heartbeat IPC: 1.48245 cumulative IPC: 1.55475 (Simulation time: 0 hr 41 min 37 sec) 

Warmup complete CPU 0 instructions: 50000001 cycles: 32159558 (Simulation time: 0 hr 41 min 37 sec) 

Heartbeat CPU 0 instructions: 51000000 cycles: 38832991 heartbeat IPC: 0.149848 cumulative IPC: 0.149848 (Simulation time: 0 hr 42 min 34 sec) 
Heartbeat CPU 0 instructions: 52000000 cycles: 46607640 heartbeat IPC: 0.128623 cumulative IPC: 0.138427 (Simulation time: 0 hr 43 min 33 sec) 
Heartbeat CPU 0 instructions: 53000000 cycles: 52850643 heartbeat IPC: 0.160179 cumulative IPC: 0.14499 (Simulation time: 0 hr 44 min 24 sec) 
Heartbeat CPU 0 instructions: 54000000 cycles: 60227969 heartbeat IPC: 0.13555 cumulative IPC: 0.142509 (Simulation time: 0 hr 45 min 18 sec) 
Heartbeat CPU 0 instructions: 55000001 cycles: 68203022 heartbeat IPC: 0.125391 cumulative IPC: 0.138721 (Simulation time: 0 hr 46 min 13 sec) 
Heartbeat CPU 0 instructions: 56000000 cycles: 77831772 heartbeat IPC: 0.103856 cumulative IPC: 0.131371 (Simulation time: 0 hr 47 min 16 sec) 
Heartbeat CPU 0 instructions: 57000000 cycles: 83651174 heartbeat IPC: 0.171839 cumulative IPC: 0.135944 (Simulation time: 0 hr 48 min 6 sec) 
Heartbeat CPU 0 instructions: 58000001 cycles: 89871223 heartbeat IPC: 0.160771 cumulative IPC: 0.13862 (Simulation time: 0 hr 48 min 56 sec) 
Heartbeat CPU 0 instructions: 59000002 cycles: 97914218 heartbeat IPC: 0.124332 cumulative IPC: 0.136872 (Simulation time: 0 hr 49 min 49 sec) 
Heartbeat CPU 0 instructions: 60000000 cycles: 105041014 heartbeat IPC: 0.140315 cumulative IPC: 0.137209 (Simulation time: 0 hr 50 min 48 sec) 
Heartbeat CPU 0 instructions: 61000001 cycles: 111085430 heartbeat IPC: 0.165442 cumulative IPC: 0.139371 (Simulation time: 0 hr 51 min 44 sec) 
Heartbeat CPU 0 instructions: 62000001 cycles: 117243354 heartbeat IPC: 0.162392 cumulative IPC: 0.141037 (Simulation time: 0 hr 52 min 34 sec) 
Heartbeat CPU 0 instructions: 63000000 cycles: 123528482 heartbeat IPC: 0.159106 cumulative IPC: 0.14228 (Simulation time: 0 hr 53 min 25 sec) 
Heartbeat CPU 0 instructions: 64000000 cycles: 131976702 heartbeat IPC: 0.118368 cumulative IPC: 0.140256 (Simulation time: 0 hr 54 min 18 sec) 
Heartbeat CPU 0 instructions: 65000000 cycles: 138459971 heartbeat IPC: 0.154243 cumulative IPC: 0.14111 (Simulation time: 0 hr 55 min 12 sec) 
Heartbeat CPU 0 instructions: 66000001 cycles: 144573359 heartbeat IPC: 0.163576 cumulative IPC: 0.142331 (Simulation time: 0 hr 55 min 59 sec) 
Heartbeat CPU 0 instructions: 67000000 cycles: 151195587 heartbeat IPC: 0.151006 cumulative IPC: 0.142814 (Simulation time: 0 hr 56 min 48 sec) 
Heartbeat CPU 0 instructions: 68000000 cycles: 158202825 heartbeat IPC: 0.14271 cumulative IPC: 0.142808 (Simulation time: 0 hr 57 min 37 sec) 
Heartbeat CPU 0 instructions: 69000000 cycles: 169810828 heartbeat IPC: 0.0861475 cumulative IPC: 0.13803 (Simulation time: 0 hr 58 min 47 sec) 
Heartbeat CPU 0 instructions: 70000000 cycles: 176069677 heartbeat IPC: 0.159774 cumulative IPC: 0.138976 (Simulation time: 0 hr 59 min 39 sec) 
Heartbeat CPU 0 instructions: 71000002 cycles: 182467391 heartbeat IPC: 0.156306 cumulative IPC: 0.139713 (Simulation time: 1 hr 0 min 31 sec) 
Heartbeat CPU 0 instructions: 72000000 cycles: 189068024 heartbeat IPC: 0.1515 cumulative IPC: 0.140209 (Simulation time: 1 hr 1 min 23 sec) 
Heartbeat CPU 0 instructions: 73000003 cycles: 195906645 heartbeat IPC: 0.146229 cumulative IPC: 0.140461 (Simulation time: 1 hr 2 min 16 sec) 
Heartbeat CPU 0 instructions: 74000003 cycles: 204539281 heartbeat IPC: 0.115839 cumulative IPC: 0.139228 (Simulation time: 1 hr 3 min 13 sec) 
Heartbeat CPU 0 instructions: 75000000 cycles: 211119829 heartbeat IPC: 0.151963 cumulative IPC: 0.139696 (Simulation time: 1 hr 4 min 12 sec) 
Heartbeat CPU 0 instructions: 76000000 cycles: 216842995 heartbeat IPC: 0.174728 cumulative IPC: 0.140781 (Simulation time: 1 hr 5 min 3 sec) 
Heartbeat CPU 0 instructions: 77000000 cycles: 222710647 heartbeat IPC: 0.170426 cumulative IPC: 0.141694 (Simulation time: 1 hr 5 min 59 sec) 
Heartbeat CPU 0 instructions: 78000001 cycles: 228625525 heartbeat IPC: 0.169065 cumulative IPC: 0.142518 (Simulation time: 1 hr 6 min 52 sec) 
Heartbeat CPU 0 instructions: 79000000 cycles: 237104713 heartbeat IPC: 0.117936 cumulative IPC: 0.141501 (Simulation time: 1 hr 7 min 49 sec) 
Heartbeat CPU 0 instructions: 80000000 cycles: 242578773 heartbeat IPC: 0.18268 cumulative IPC: 0.142573 (Simulation time: 1 hr 8 min 36 sec) 
Heartbeat CPU 0 instructions: 81000001 cycles: 249744714 heartbeat IPC: 0.139549 cumulative IPC: 0.142473 (Simulation time: 1 hr 9 min 27 sec) 
Heartbeat CPU 0 instructions: 82000001 cycles: 257043517 heartbeat IPC: 0.137009 cumulative IPC: 0.142296 (Simulation time: 1 hr 10 min 19 sec) 
Heartbeat CPU 0 instructions: 83000002 cycles: 262753889 heartbeat IPC: 0.17512 cumulative IPC: 0.143108 (Simulation time: 1 hr 11 min 7 sec) 
Heartbeat CPU 0 instructions: 84000000 cycles: 268738497 heartbeat IPC: 0.167095 cumulative IPC: 0.143715 (Simulation time: 1 hr 11 min 54 sec) 
Heartbeat CPU 0 instructions: 85000000 cycles: 275456778 heartbeat IPC: 0.148848 cumulative IPC: 0.143857 (Simulation time: 1 hr 12 min 43 sec) 
Heartbeat CPU 0 instructions: 86000001 cycles: 283529825 heartbeat IPC: 0.123869 cumulative IPC: 0.143215 (Simulation time: 1 hr 13 min 39 sec) 
Heartbeat CPU 0 instructions: 87000000 cycles: 289041213 heartbeat IPC: 0.181442 cumulative IPC: 0.144035 (Simulation time: 1 hr 14 min 26 sec) 
Heartbeat CPU 0 instructions: 88000000 cycles: 294796127 heartbeat IPC: 0.173765 cumulative IPC: 0.144687 (Simulation time: 1 hr 15 min 16 sec) 
Heartbeat CPU 0 instructions: 89000002 cycles: 300929272 heartbeat IPC: 0.163049 cumulative IPC: 0.145106 (Simulation time: 1 hr 16 min 8 sec) 
Heartbeat CPU 0 instructions: 90000002 cycles: 307208682 heartbeat IPC: 0.159251 cumulative IPC: 0.145429 (Simulation time: 1 hr 16 min 58 sec) 
Heartbeat CPU 0 instructions: 91000001 cycles: 316010055 heartbeat IPC: 0.113619 cumulative IPC: 0.144442 (Simulation time: 1 hr 17 min 54 sec) 
Heartbeat CPU 0 instructions: 92000000 cycles: 322531333 heartbeat IPC: 0.153344 cumulative IPC: 0.144642 (Simulation time: 1 hr 18 min 42 sec) 
Heartbeat CPU 0 instructions: 93000003 cycles: 329546340 heartbeat IPC: 0.142552 cumulative IPC: 0.144593 (Simulation time: 1 hr 19 min 29 sec) 
Heartbeat CPU 0 instructions: 94000000 cycles: 337013608 heartbeat IPC: 0.133917 cumulative IPC: 0.144331 (Simulation time: 1 hr 20 min 18 sec) 
Heartbeat CPU 0 instructions: 95000000 cycles: 343458116 heartbeat IPC: 0.155171 cumulative IPC: 0.144556 (Simulation time: 1 hr 21 min 7 sec) 
Heartbeat CPU 0 instructions: 96000000 cycles: 352220096 heartbeat IPC: 0.114129 cumulative IPC: 0.143723 (Simulation time: 1 hr 22 min 0 sec) 
Heartbeat CPU 0 instructions: 97000000 cycles: 358506294 heartbeat IPC: 0.159079 cumulative IPC: 0.144019 (Simulation time: 1 hr 22 min 43 sec) 
Heartbeat CPU 0 instructions: 98000003 cycles: 365587584 heartbeat IPC: 0.141218 cumulative IPC: 0.143959 (Simulation time: 1 hr 23 min 31 sec) 
Heartbeat CPU 0 instructions: 99000001 cycles: 373119941 heartbeat IPC: 0.13276 cumulative IPC: 0.143712 (Simulation time: 1 hr 24 min 17 sec) 
Heartbeat CPU 0 instructions: 100000000 cycles: 380525171 heartbeat IPC: 0.13504 cumulative IPC: 0.143527 (Simulation time: 1 hr 25 min 1 sec) 
Heartbeat CPU 0 instructions: 101000000 cycles: 389461873 heartbeat IPC: 0.111898 cumulative IPC: 0.142736 (Simulation time: 1 hr 25 min 47 sec) 
Heartbeat CPU 0 instructions: 102000001 cycles: 395476090 heartbeat IPC: 0.166273 cumulative IPC: 0.143126 (Simulation time: 1 hr 26 min 25 sec) 
Heartbeat CPU 0 instructions: 103000001 cycles: 401561567 heartbeat IPC: 0.164326 cumulative IPC: 0.143475 (Simulation time: 1 hr 27 min 2 sec) 
Heartbeat CPU 0 instructions: 104000000 cycles: 407471537 heartbeat IPC: 0.169205 cumulative IPC: 0.14388 (Simulation time: 1 hr 27 min 39 sec) 
Heartbeat CPU 0 instructions: 105000000 cycles: 412851842 heartbeat IPC: 0.185863 cumulative IPC: 0.144474 (Simulation time: 1 hr 28 min 14 sec) 
Heartbeat CPU 0 instructions: 106000000 cycles: 421381002 heartbeat IPC: 0.117245 cumulative IPC: 0.143877 (Simulation time: 1 hr 28 min 51 sec) 
Heartbeat CPU 0 instructions: 107000002 cycles: 427526630 heartbeat IPC: 0.162718 cumulative IPC: 0.14417 (Simulation time: 1 hr 29 min 22 sec) 
Heartbeat CPU 0 instructions: 108000000 cycles: 436163676 heartbeat IPC: 0.11578 cumulative IPC: 0.143563 (Simulation time: 1 hr 29 min 57 sec) 
Heartbeat CPU 0 instructions: 109000003 cycles: 442121128 heartbeat IPC: 0.167857 cumulative IPC: 0.143916 (Simulation time: 1 hr 30 min 29 sec) 
Heartbeat CPU 0 instructions: 110000003 cycles: 448102609 heartbeat IPC: 0.167183 cumulative IPC: 0.144251 (Simulation time: 1 hr 30 min 58 sec) 
Heartbeat CPU 0 instructions: 111000001 cycles: 454026949 heartbeat IPC: 0.168795 cumulative IPC: 0.144595 (Simulation time: 1 hr 31 min 27 sec) 
Heartbeat CPU 0 instructions: 112000000 cycles: 461902744 heartbeat IPC: 0.126971 cumulative IPC: 0.144272 (Simulation time: 1 hr 31 min 59 sec) 
Heartbeat CPU 0 instructions: 113000000 cycles: 468695960 heartbeat IPC: 0.147206 cumulative IPC: 0.144318 (Simulation time: 1 hr 32 min 28 sec) 
Heartbeat CPU 0 instructions: 114000001 cycles: 475663419 heartbeat IPC: 0.143524 cumulative IPC: 0.144305 (Simulation time: 1 hr 32 min 56 sec) 
Heartbeat CPU 0 instructions: 115000001 cycles: 483473790 heartbeat IPC: 0.128035 cumulative IPC: 0.144024 (Simulation time: 1 hr 33 min 27 sec) 
Heartbeat CPU 0 instructions: 116000000 cycles: 489570577 heartbeat IPC: 0.164021 cumulative IPC: 0.14429 (Simulation time: 1 hr 33 min 55 sec) 
Heartbeat CPU 0 instructions: 117000001 cycles: 495958997 heartbeat IPC: 0.156533 cumulative IPC: 0.144459 (Simulation time: 1 hr 34 min 22 sec) 
Heartbeat CPU 0 instructions: 118000003 cycles: 504745728 heartbeat IPC: 0.113808 cumulative IPC: 0.143889 (Simulation time: 1 hr 34 min 51 sec) 
Heartbeat CPU 0 instructions: 119000000 cycles: 510829270 heartbeat IPC: 0.164377 cumulative IPC: 0.144149 (Simulation time: 1 hr 35 min 15 sec) 
Heartbeat CPU 0 instructions: 120000000 cycles: 517130373 heartbeat IPC: 0.158702 cumulative IPC: 0.144339 (Simulation time: 1 hr 35 min 39 sec) 
Heartbeat CPU 0 instructions: 121000001 cycles: 523468653 heartbeat IPC: 0.157772 cumulative IPC: 0.144512 (Simulation time: 1 hr 36 min 3 sec) 
Heartbeat CPU 0 instructions: 122000001 cycles: 530188343 heartbeat IPC: 0.148816 cumulative IPC: 0.14457 (Simulation time: 1 hr 36 min 28 sec) 
Heartbeat CPU 0 instructions: 123000001 cycles: 539392804 heartbeat IPC: 0.108643 cumulative IPC: 0.143918 (Simulation time: 1 hr 36 min 54 sec) 
Heartbeat CPU 0 instructions: 124000000 cycles: 545458270 heartbeat IPC: 0.164868 cumulative IPC: 0.144166 (Simulation time: 1 hr 37 min 15 sec) 
Heartbeat CPU 0 instructions: 125000000 cycles: 551461700 heartbeat IPC: 0.166571 cumulative IPC: 0.144425 (Simulation time: 1 hr 37 min 36 sec) 
Heartbeat CPU 0 instructions: 126000003 cycles: 557966289 heartbeat IPC: 0.153738 cumulative IPC: 0.14454 (Simulation time: 1 hr 37 min 56 sec) 
Heartbeat CPU 0 instructions: 127000003 cycles: 567011288 heartbeat IPC: 0.110558 cumulative IPC: 0.143965 (Simulation time: 1 hr 38 min 20 sec) 
Heartbeat CPU 0 instructions: 128000000 cycles: 573153362 heartbeat IPC: 0.162811 cumulative IPC: 0.144179 (Simulation time: 1 hr 38 min 39 sec) 
Heartbeat CPU 0 instructions: 129000001 cycles: 581764687 heartbeat IPC: 0.116126 cumulative IPC: 0.14374 (Simulation time: 1 hr 39 min 1 sec) 
Heartbeat CPU 0 instructions: 130000002 cycles: 587530814 heartbeat IPC: 0.173427 cumulative IPC: 0.144048 (Simulation time: 1 hr 39 min 19 sec) 
Heartbeat CPU 0 instructions: 131000003 cycles: 593483061 heartbeat IPC: 0.168004 cumulative IPC: 0.144302 (Simulation time: 1 hr 39 min 36 sec) 
Heartbeat CPU 0 instructions: 132000000 cycles: 604428811 heartbeat IPC: 0.0913594 cumulative IPC: 0.143289 (Simulation time: 1 hr 39 min 57 sec) 
Heartbeat CPU 0 instructions: 133000000 cycles: 613628887 heartbeat IPC: 0.108695 cumulative IPC: 0.142742 (Simulation time: 1 hr 40 min 17 sec) 
Heartbeat CPU 0 instructions: 134000000 cycles: 619680020 heartbeat IPC: 0.165258 cumulative IPC: 0.142974 (Simulation time: 1 hr 40 min 32 sec) 
Heartbeat CPU 0 instructions: 135000002 cycles: 626791810 heartbeat IPC: 0.140612 cumulative IPC: 0.142945 (Simulation time: 1 hr 40 min 46 sec) 
Heartbeat CPU 0 instructions: 136000000 cycles: 635642968 heartbeat IPC: 0.112979 cumulative IPC: 0.142506 (Simulation time: 1 hr 41 min 1 sec) 
Heartbeat CPU 0 instructions: 137000001 cycles: 642983903 heartbeat IPC: 0.136223 cumulative IPC: 0.14243 (Simulation time: 1 hr 41 min 16 sec) 
Heartbeat CPU 0 instructions: 138000002 cycles: 649103722 heartbeat IPC: 0.163404 cumulative IPC: 0.142639 (Simulation time: 1 hr 41 min 29 sec) 
Heartbeat CPU 0 instructions: 139000001 cycles: 655315175 heartbeat IPC: 0.160993 cumulative IPC: 0.142821 (Simulation time: 1 hr 41 min 40 sec) 
Heartbeat CPU 0 instructions: 140000000 cycles: 664141501 heartbeat IPC: 0.113297 cumulative IPC: 0.142409 (Simulation time: 1 hr 41 min 52 sec) 
Heartbeat CPU 0 instructions: 141000001 cycles: 669783477 heartbeat IPC: 0.177243 cumulative IPC: 0.142717 (Simulation time: 1 hr 42 min 0 sec) 
Heartbeat CPU 0 instructions: 142000000 cycles: 675462172 heartbeat IPC: 0.176097 cumulative IPC: 0.143012 (Simulation time: 1 hr 42 min 8 sec) 
Heartbeat CPU 0 instructions: 143000001 cycles: 681389275 heartbeat IPC: 0.168717 cumulative IPC: 0.143247 (Simulation time: 1 hr 42 min 16 sec) 
Heartbeat CPU 0 instructions: 144000000 cycles: 690506415 heartbeat IPC: 0.109683 cumulative IPC: 0.142782 (Simulation time: 1 hr 42 min 26 sec) 
Heartbeat CPU 0 instructions: 145000000 cycles: 696976374 heartbeat IPC: 0.15456 cumulative IPC: 0.142897 (Simulation time: 1 hr 42 min 35 sec) 
Heartbeat CPU 0 instructions: 146000000 cycles: 702996291 heartbeat IPC: 0.166115 cumulative IPC: 0.143105 (Simulation time: 1 hr 42 min 43 sec) 
Heartbeat CPU 0 instructions: 147000000 cycles: 711831516 heartbeat IPC: 0.113183 cumulative IPC: 0.142716 (Simulation time: 1 hr 42 min 51 sec) 
Heartbeat CPU 0 instructions: 148000000 cycles: 717722819 heartbeat IPC: 0.169742 cumulative IPC: 0.142948 (Simulation time: 1 hr 42 min 58 sec) 
Heartbeat CPU 0 instructions: 149000000 cycles: 726214715 heartbeat IPC: 0.117759 cumulative IPC: 0.14264 (Simulation time: 1 hr 43 min 5 sec) 
Heartbeat CPU 0 instructions: 150000001 cycles: 732505833 heartbeat IPC: 0.158954 cumulative IPC: 0.142787 (Simulation time: 1 hr 43 min 11 sec) 
Finished CPU 0 instructions: 100000000 cycles: 700346275 cummulative IPC: 0.142787 (Simulation time: 1 hr 43 min 11 sec) 

ChampSim completed all CPUs

Region of Interest Statistics

CPU 0 cummulative IPC: 0.142787 instructions: 100000000 cycles: 700346275
LLC TOTAL     ACCESS:    9034999  HIT:    3134070  MISS:    5900929
LLC LOAD      ACCESS:    1896995  HIT:     654054  MISS:    1242941
LLC RFO       ACCESS:    1963556  HIT:     823790  MISS:    1139766
LLC PREFETCH  ACCESS:    2283335  HIT:      69929  MISS:    2213406
LLC WRITEBACK ACCESS:    2891113  HIT:    1586297  MISS:    1304816
