
*** ChampSim Multicore Out-of-Order Simulator ***

Warmup Instructions: 50000000
Simulation Instructions: 100000000
Configuration: 2
Number of CPUs: 1
LLC sets: 2048
LLC ways: 16
Off-chip DRAM Channels: 1 Width: 64-bit Data Rate: 1600 MT/s

CPU 0 runs /datasets/cs240c-wi22-a00-public/data/Assignment2-gz/GemsFDTD_109B.trace.gz
CPU 0 L1D next line prefetcher
CPU 0 L2C IP-based stride prefetcher
Heartbeat CPU 0 instructions: 1000002 cycles: 579772 heartbeat IPC: 1.72482 cumulative IPC: 1.72482 (Simulation time: 0 hr 0 min 46 sec) 
Heartbeat CPU 0 instructions: 2000001 cycles: 1159546 heartbeat IPC: 1.72481 cumulative IPC: 1.72481 (Simulation time: 0 hr 1 min 36 sec) 
Heartbeat CPU 0 instructions: 3000000 cycles: 1738734 heartbeat IPC: 1.72655 cumulative IPC: 1.72539 (Simulation time: 0 hr 2 min 28 sec) 
Heartbeat CPU 0 instructions: 4000000 cycles: 2317739 heartbeat IPC: 1.7271 cumulative IPC: 1.72582 (Simulation time: 0 hr 3 min 22 sec) 
Heartbeat CPU 0 instructions: 5000000 cycles: 2897590 heartbeat IPC: 1.72458 cumulative IPC: 1.72557 (Simulation time: 0 hr 4 min 12 sec) 
Heartbeat CPU 0 instructions: 6000002 cycles: 3478306 heartbeat IPC: 1.72202 cumulative IPC: 1.72498 (Simulation time: 0 hr 4 min 59 sec) 
Heartbeat CPU 0 instructions: 7000001 cycles: 4058971 heartbeat IPC: 1.72216 cumulative IPC: 1.72458 (Simulation time: 0 hr 5 min 48 sec) 
Heartbeat CPU 0 instructions: 8000000 cycles: 4639158 heartbeat IPC: 1.72358 cumulative IPC: 1.72445 (Simulation time: 0 hr 6 min 35 sec) 
Heartbeat CPU 0 instructions: 9000002 cycles: 5219313 heartbeat IPC: 1.72368 cumulative IPC: 1.72437 (Simulation time: 0 hr 7 min 21 sec) 
Heartbeat CPU 0 instructions: 10000001 cycles: 5799492 heartbeat IPC: 1.7236 cumulative IPC: 1.72429 (Simulation time: 0 hr 8 min 8 sec) 
Heartbeat CPU 0 instructions: 11000000 cycles: 6379337 heartbeat IPC: 1.7246 cumulative IPC: 1.72432 (Simulation time: 0 hr 8 min 56 sec) 
Heartbeat CPU 0 instructions: 12000000 cycles: 6959218 heartbeat IPC: 1.72449 cumulative IPC: 1.72433 (Simulation time: 0 hr 9 min 42 sec) 
Heartbeat CPU 0 instructions: 13000001 cycles: 7539276 heartbeat IPC: 1.72397 cumulative IPC: 1.7243 (Simulation time: 0 hr 10 min 30 sec) 
Heartbeat CPU 0 instructions: 14000003 cycles: 8119180 heartbeat IPC: 1.72443 cumulative IPC: 1.72431 (Simulation time: 0 hr 11 min 19 sec) 
Heartbeat CPU 0 instructions: 15000000 cycles: 8699291 heartbeat IPC: 1.7238 cumulative IPC: 1.72428 (Simulation time: 0 hr 12 min 10 sec) 
Heartbeat CPU 0 instructions: 16000000 cycles: 9279457 heartbeat IPC: 1.72364 cumulative IPC: 1.72424 (Simulation time: 0 hr 13 min 0 sec) 
Heartbeat CPU 0 instructions: 17000002 cycles: 9859680 heartbeat IPC: 1.72348 cumulative IPC: 1.72419 (Simulation time: 0 hr 13 min 49 sec) 
Heartbeat CPU 0 instructions: 18000003 cycles: 10439514 heartbeat IPC: 1.72463 cumulative IPC: 1.72422 (Simulation time: 0 hr 14 min 37 sec) 
Heartbeat CPU 0 instructions: 19000000 cycles: 11019355 heartbeat IPC: 1.72461 cumulative IPC: 1.72424 (Simulation time: 0 hr 15 min 23 sec) 
Heartbeat CPU 0 instructions: 20000000 cycles: 11596278 heartbeat IPC: 1.73333 cumulative IPC: 1.72469 (Simulation time: 0 hr 16 min 3 sec) 
Heartbeat CPU 0 instructions: 21000000 cycles: 12041395 heartbeat IPC: 2.2466 cumulative IPC: 1.74398 (Simulation time: 0 hr 16 min 39 sec) 
Heartbeat CPU 0 instructions: 22000000 cycles: 12573661 heartbeat IPC: 1.87876 cumulative IPC: 1.74969 (Simulation time: 0 hr 17 min 15 sec) 
Heartbeat CPU 0 instructions: 23000000 cycles: 13023105 heartbeat IPC: 2.22497 cumulative IPC: 1.76609 (Simulation time: 0 hr 17 min 52 sec) 
Heartbeat CPU 0 instructions: 24000000 cycles: 13564993 heartbeat IPC: 1.8454 cumulative IPC: 1.76926 (Simulation time: 0 hr 18 min 30 sec) 
Heartbeat CPU 0 instructions: 25000001 cycles: 14024076 heartbeat IPC: 2.17826 cumulative IPC: 1.78265 (Simulation time: 0 hr 19 min 8 sec) 
Heartbeat CPU 0 instructions: 26000000 cycles: 14554374 heartbeat IPC: 1.88573 cumulative IPC: 1.7864 (Simulation time: 0 hr 19 min 48 sec) 
Heartbeat CPU 0 instructions: 27000000 cycles: 15030346 heartbeat IPC: 2.10096 cumulative IPC: 1.79637 (Simulation time: 0 hr 20 min 26 sec) 
Heartbeat CPU 0 instructions: 28000000 cycles: 15533379 heartbeat IPC: 1.98794 cumulative IPC: 1.80257 (Simulation time: 0 hr 21 min 7 sec) 
Heartbeat CPU 0 instructions: 29000000 cycles: 16006351 heartbeat IPC: 2.11429 cumulative IPC: 1.81178 (Simulation time: 0 hr 21 min 42 sec) 
Heartbeat CPU 0 instructions: 30000001 cycles: 16526298 heartbeat IPC: 1.92327 cumulative IPC: 1.81529 (Simulation time: 0 hr 22 min 18 sec) 
Heartbeat CPU 0 instructions: 31000001 cycles: 17027027 heartbeat IPC: 1.99709 cumulative IPC: 1.82063 (Simulation time: 0 hr 22 min 55 sec) 
Heartbeat CPU 0 instructions: 32000000 cycles: 17509228 heartbeat IPC: 2.07382 cumulative IPC: 1.82761 (Simulation time: 0 hr 23 min 31 sec) 
Heartbeat CPU 0 instructions: 33000003 cycles: 18012229 heartbeat IPC: 1.98807 cumulative IPC: 1.83209 (Simulation time: 0 hr 24 min 6 sec) 
Heartbeat CPU 0 instructions: 34000002 cycles: 18492111 heartbeat IPC: 2.08384 cumulative IPC: 1.83862 (Simulation time: 0 hr 24 min 42 sec) 
Heartbeat CPU 0 instructions: 35000002 cycles: 18994824 heartbeat IPC: 1.98921 cumulative IPC: 1.84261 (Simulation time: 0 hr 25 min 16 sec) 
Heartbeat CPU 0 instructions: 36000000 cycles: 19486971 heartbeat IPC: 2.03191 cumulative IPC: 1.84739 (Simulation time: 0 hr 25 min 51 sec) 
Heartbeat CPU 0 instructions: 37000000 cycles: 19902018 heartbeat IPC: 2.40937 cumulative IPC: 1.85911 (Simulation time: 0 hr 26 min 27 sec) 
Heartbeat CPU 0 instructions: 38000001 cycles: 20317063 heartbeat IPC: 2.40938 cumulative IPC: 1.87035 (Simulation time: 0 hr 27 min 4 sec) 
Heartbeat CPU 0 instructions: 39000000 cycles: 20732049 heartbeat IPC: 2.40972 cumulative IPC: 1.88115 (Simulation time: 0 hr 27 min 39 sec) 
Heartbeat CPU 0 instructions: 40000000 cycles: 21147058 heartbeat IPC: 2.40959 cumulative IPC: 1.89152 (Simulation time: 0 hr 28 min 15 sec) 
Heartbeat CPU 0 instructions: 41000000 cycles: 21657802 heartbeat IPC: 1.95793 cumulative IPC: 1.89308 (Simulation time: 0 hr 28 min 49 sec) 
Heartbeat CPU 0 instructions: 42000000 cycles: 22072819 heartbeat IPC: 2.40954 cumulative IPC: 1.90279 (Simulation time: 0 hr 29 min 26 sec) 
Heartbeat CPU 0 instructions: 43000000 cycles: 22487872 heartbeat IPC: 2.40933 cumulative IPC: 1.91214 (Simulation time: 0 hr 30 min 3 sec) 
Heartbeat CPU 0 instructions: 44000000 cycles: 22902824 heartbeat IPC: 2.40992 cumulative IPC: 1.92116 (Simulation time: 0 hr 30 min 39 sec) 
Heartbeat CPU 0 instructions: 45000000 cycles: 23317833 heartbeat IPC: 2.40959 cumulative IPC: 1.92985 (Simulation time: 0 hr 31 min 16 sec) 
Heartbeat CPU 0 instructions: 46000003 cycles: 23728294 heartbeat IPC: 2.43629 cumulative IPC: 1.93861 (Simulation time: 0 hr 31 min 51 sec) 
Heartbeat CPU 0 instructions: 47000001 cycles: 24362170 heartbeat IPC: 1.57759 cumulative IPC: 1.92922 (Simulation time: 0 hr 32 min 24 sec) 
Heartbeat CPU 0 instructions: 48000000 cycles: 24962970 heartbeat IPC: 1.66445 cumulative IPC: 1.92285 (Simulation time: 0 hr 32 min 59 sec) 
Heartbeat CPU 0 instructions: 49000003 cycles: 25556835 heartbeat IPC: 1.68389 cumulative IPC: 1.9173 (Simulation time: 0 hr 34 min 0 sec) 
Heartbeat CPU 0 instructions: 50000001 cycles: 26223078 heartbeat IPC: 1.50095 cumulative IPC: 1.90672 (Simulation time: 0 hr 34 min 47 sec) 

Warmup complete CPU 0 instructions: 50000001 cycles: 26223078 (Simulation time: 0 hr 34 min 47 sec) 

Heartbeat CPU 0 instructions: 51000003 cycles: 27851992 heartbeat IPC: 0.613907 cumulative IPC: 0.613907 (Simulation time: 0 hr 35 min 40 sec) 
Heartbeat CPU 0 instructions: 52000000 cycles: 29486848 heartbeat IPC: 0.611673 cumulative IPC: 0.612788 (Simulation time: 0 hr 36 min 34 sec) 
Heartbeat CPU 0 instructions: 53000000 cycles: 31111219 heartbeat IPC: 0.615623 cumulative IPC: 0.61373 (Simulation time: 0 hr 37 min 26 sec) 
Heartbeat CPU 0 instructions: 54000000 cycles: 32724177 heartbeat IPC: 0.619979 cumulative IPC: 0.61528 (Simulation time: 0 hr 38 min 20 sec) 
Heartbeat CPU 0 instructions: 55000000 cycles: 34318340 heartbeat IPC: 0.627288 cumulative IPC: 0.617645 (Simulation time: 0 hr 39 min 14 sec) 
Heartbeat CPU 0 instructions: 56000000 cycles: 35920266 heartbeat IPC: 0.624249 cumulative IPC: 0.618736 (Simulation time: 0 hr 40 min 5 sec) 
Heartbeat CPU 0 instructions: 57000003 cycles: 37552943 heartbeat IPC: 0.612493 cumulative IPC: 0.617836 (Simulation time: 0 hr 40 min 59 sec) 
Heartbeat CPU 0 instructions: 58000002 cycles: 39165256 heartbeat IPC: 0.620226 cumulative IPC: 0.618134 (Simulation time: 0 hr 41 min 51 sec) 
Heartbeat CPU 0 instructions: 59000003 cycles: 40778900 heartbeat IPC: 0.619716 cumulative IPC: 0.618309 (Simulation time: 0 hr 42 min 41 sec) 
Heartbeat CPU 0 instructions: 60000000 cycles: 42390614 heartbeat IPC: 0.620456 cumulative IPC: 0.618523 (Simulation time: 0 hr 43 min 31 sec) 
Heartbeat CPU 0 instructions: 61000000 cycles: 43981413 heartbeat IPC: 0.628615 cumulative IPC: 0.619427 (Simulation time: 0 hr 44 min 22 sec) 
Heartbeat CPU 0 instructions: 62000003 cycles: 45555418 heartbeat IPC: 0.635324 cumulative IPC: 0.620722 (Simulation time: 0 hr 45 min 14 sec) 
Heartbeat CPU 0 instructions: 63000001 cycles: 47156983 heartbeat IPC: 0.624388 cumulative IPC: 0.621002 (Simulation time: 0 hr 46 min 7 sec) 
Heartbeat CPU 0 instructions: 64000000 cycles: 48776563 heartbeat IPC: 0.617443 cumulative IPC: 0.620747 (Simulation time: 0 hr 47 min 1 sec) 
Heartbeat CPU 0 instructions: 65000003 cycles: 50410427 heartbeat IPC: 0.612048 cumulative IPC: 0.620159 (Simulation time: 0 hr 47 min 51 sec) 
Heartbeat CPU 0 instructions: 66000001 cycles: 52047960 heartbeat IPC: 0.610673 cumulative IPC: 0.619557 (Simulation time: 0 hr 48 min 42 sec) 
Heartbeat CPU 0 instructions: 67000000 cycles: 53657126 heartbeat IPC: 0.621439 cumulative IPC: 0.619668 (Simulation time: 0 hr 49 min 34 sec) 
Heartbeat CPU 0 instructions: 68000000 cycles: 55273323 heartbeat IPC: 0.618736 cumulative IPC: 0.619616 (Simulation time: 0 hr 50 min 27 sec) 
Heartbeat CPU 0 instructions: 69000000 cycles: 56889945 heartbeat IPC: 0.618574 cumulative IPC: 0.619561 (Simulation time: 0 hr 51 min 19 sec) 
Heartbeat CPU 0 instructions: 70000003 cycles: 58473035 heartbeat IPC: 0.631678 cumulative IPC: 0.620156 (Simulation time: 0 hr 52 min 13 sec) 
Heartbeat CPU 0 instructions: 71000003 cycles: 60090005 heartbeat IPC: 0.618441 cumulative IPC: 0.620074 (Simulation time: 0 hr 53 min 10 sec) 
Heartbeat CPU 0 instructions: 72000000 cycles: 61677240 heartbeat IPC: 0.630025 cumulative IPC: 0.62052 (Simulation time: 0 hr 54 min 3 sec) 
Heartbeat CPU 0 instructions: 73000002 cycles: 63302336 heartbeat IPC: 0.615349 cumulative IPC: 0.620293 (Simulation time: 0 hr 54 min 59 sec) 
Heartbeat CPU 0 instructions: 74000000 cycles: 64928743 heartbeat IPC: 0.614851 cumulative IPC: 0.620064 (Simulation time: 0 hr 55 min 56 sec) 
Heartbeat CPU 0 instructions: 75000000 cycles: 66554195 heartbeat IPC: 0.615214 cumulative IPC: 0.619869 (Simulation time: 0 hr 56 min 51 sec) 
Heartbeat CPU 0 instructions: 76000000 cycles: 68141948 heartbeat IPC: 0.629821 cumulative IPC: 0.620246 (Simulation time: 0 hr 57 min 45 sec) 
Heartbeat CPU 0 instructions: 77000003 cycles: 69777586 heartbeat IPC: 0.611384 cumulative IPC: 0.619913 (Simulation time: 0 hr 58 min 37 sec) 
Heartbeat CPU 0 instructions: 78000001 cycles: 71381735 heartbeat IPC: 0.623382 cumulative IPC: 0.620036 (Simulation time: 0 hr 59 min 29 sec) 
Heartbeat CPU 0 instructions: 79000001 cycles: 72972960 heartbeat IPC: 0.628447 cumulative IPC: 0.620322 (Simulation time: 1 hr 0 min 22 sec) 
Heartbeat CPU 0 instructions: 80000000 cycles: 74576969 heartbeat IPC: 0.623437 cumulative IPC: 0.620426 (Simulation time: 1 hr 1 min 16 sec) 
Heartbeat CPU 0 instructions: 81000001 cycles: 76183232 heartbeat IPC: 0.622564 cumulative IPC: 0.620494 (Simulation time: 1 hr 2 min 8 sec) 
Heartbeat CPU 0 instructions: 82000000 cycles: 77784853 heartbeat IPC: 0.624367 cumulative IPC: 0.620615 (Simulation time: 1 hr 3 min 1 sec) 
Heartbeat CPU 0 instructions: 83000003 cycles: 79379074 heartbeat IPC: 0.627267 cumulative IPC: 0.620814 (Simulation time: 1 hr 3 min 54 sec) 
Heartbeat CPU 0 instructions: 84000000 cycles: 80973888 heartbeat IPC: 0.62703 cumulative IPC: 0.620995 (Simulation time: 1 hr 4 min 49 sec) 
Heartbeat CPU 0 instructions: 85000001 cycles: 82594869 heartbeat IPC: 0.616911 cumulative IPC: 0.620878 (Simulation time: 1 hr 5 min 45 sec) 
Heartbeat CPU 0 instructions: 86000001 cycles: 84209441 heartbeat IPC: 0.619359 cumulative IPC: 0.620836 (Simulation time: 1 hr 6 min 38 sec) 
Heartbeat CPU 0 instructions: 87000000 cycles: 85817111 heartbeat IPC: 0.622018 cumulative IPC: 0.620867 (Simulation time: 1 hr 7 min 30 sec) 
Heartbeat CPU 0 instructions: 88000000 cycles: 87440770 heartbeat IPC: 0.615893 cumulative IPC: 0.620736 (Simulation time: 1 hr 8 min 23 sec) 
Heartbeat CPU 0 instructions: 89000003 cycles: 89081150 heartbeat IPC: 0.609617 cumulative IPC: 0.620445 (Simulation time: 1 hr 9 min 14 sec) 
Heartbeat CPU 0 instructions: 90000000 cycles: 90721864 heartbeat IPC: 0.609489 cumulative IPC: 0.620167 (Simulation time: 1 hr 10 min 5 sec) 
Heartbeat CPU 0 instructions: 91000003 cycles: 92355412 heartbeat IPC: 0.612166 cumulative IPC: 0.619969 (Simulation time: 1 hr 10 min 57 sec) 
Heartbeat CPU 0 instructions: 92000000 cycles: 93971860 heartbeat IPC: 0.618639 cumulative IPC: 0.619937 (Simulation time: 1 hr 11 min 47 sec) 
Heartbeat CPU 0 instructions: 93000001 cycles: 95594677 heartbeat IPC: 0.616213 cumulative IPC: 0.61985 (Simulation time: 1 hr 12 min 38 sec) 
Heartbeat CPU 0 instructions: 94000003 cycles: 97199468 heartbeat IPC: 0.623135 cumulative IPC: 0.619924 (Simulation time: 1 hr 13 min 25 sec) 
Heartbeat CPU 0 instructions: 95000001 cycles: 98788539 heartbeat IPC: 0.629297 cumulative IPC: 0.62013 (Simulation time: 1 hr 14 min 16 sec) 
Heartbeat CPU 0 instructions: 96000000 cycles: 100399383 heartbeat IPC: 0.620792 cumulative IPC: 0.620144 (Simulation time: 1 hr 15 min 6 sec) 
Heartbeat CPU 0 instructions: 97000002 cycles: 102008894 heartbeat IPC: 0.621308 cumulative IPC: 0.620169 (Simulation time: 1 hr 15 min 56 sec) 
Heartbeat CPU 0 instructions: 98000000 cycles: 103638893 heartbeat IPC: 0.613496 cumulative IPC: 0.620028 (Simulation time: 1 hr 16 min 46 sec) 
Heartbeat CPU 0 instructions: 99000000 cycles: 105219507 heartbeat IPC: 0.632666 cumulative IPC: 0.620281 (Simulation time: 1 hr 17 min 35 sec) 
Heartbeat CPU 0 instructions: 100000000 cycles: 106842899 heartbeat IPC: 0.615994 cumulative IPC: 0.620195 (Simulation time: 1 hr 18 min 24 sec) 
Heartbeat CPU 0 instructions: 101000001 cycles: 108467440 heartbeat IPC: 0.615559 cumulative IPC: 0.620103 (Simulation time: 1 hr 19 min 13 sec) 
Heartbeat CPU 0 instructions: 102000000 cycles: 110083995 heartbeat IPC: 0.618599 cumulative IPC: 0.620074 (Simulation time: 1 hr 19 min 59 sec) 
Heartbeat CPU 0 instructions: 103000000 cycles: 111681178 heartbeat IPC: 0.626102 cumulative IPC: 0.620187 (Simulation time: 1 hr 20 min 45 sec) 
Heartbeat CPU 0 instructions: 104000000 cycles: 113299290 heartbeat IPC: 0.618004 cumulative IPC: 0.620146 (Simulation time: 1 hr 21 min 31 sec) 
Heartbeat CPU 0 instructions: 105000000 cycles: 114935950 heartbeat IPC: 0.611 cumulative IPC: 0.619978 (Simulation time: 1 hr 22 min 17 sec) 
Heartbeat CPU 0 instructions: 106000001 cycles: 116554920 heartbeat IPC: 0.617677 cumulative IPC: 0.619936 (Simulation time: 1 hr 23 min 3 sec) 
Heartbeat CPU 0 instructions: 107000001 cycles: 118173815 heartbeat IPC: 0.617705 cumulative IPC: 0.619897 (Simulation time: 1 hr 23 min 48 sec) 
Heartbeat CPU 0 instructions: 108000000 cycles: 119796291 heartbeat IPC: 0.616341 cumulative IPC: 0.619835 (Simulation time: 1 hr 24 min 33 sec) 
Heartbeat CPU 0 instructions: 109000003 cycles: 121383499 heartbeat IPC: 0.630039 cumulative IPC: 0.620006 (Simulation time: 1 hr 25 min 16 sec) 
Heartbeat CPU 0 instructions: 110000002 cycles: 122997373 heartbeat IPC: 0.619626 cumulative IPC: 0.619999 (Simulation time: 1 hr 25 min 54 sec) 
Heartbeat CPU 0 instructions: 111000000 cycles: 124581465 heartbeat IPC: 0.631275 cumulative IPC: 0.620181 (Simulation time: 1 hr 26 min 29 sec) 
Heartbeat CPU 0 instructions: 112000000 cycles: 126179230 heartbeat IPC: 0.625874 cumulative IPC: 0.620272 (Simulation time: 1 hr 27 min 4 sec) 
Heartbeat CPU 0 instructions: 113000001 cycles: 127756537 heartbeat IPC: 0.633993 cumulative IPC: 0.620485 (Simulation time: 1 hr 27 min 40 sec) 
Heartbeat CPU 0 instructions: 114000000 cycles: 129348784 heartbeat IPC: 0.628043 cumulative IPC: 0.620602 (Simulation time: 1 hr 28 min 12 sec) 
Heartbeat CPU 0 instructions: 115000001 cycles: 130963881 heartbeat IPC: 0.619159 cumulative IPC: 0.62058 (Simulation time: 1 hr 28 min 44 sec) 
Heartbeat CPU 0 instructions: 116000000 cycles: 132553848 heartbeat IPC: 0.628943 cumulative IPC: 0.620705 (Simulation time: 1 hr 29 min 15 sec) 
Heartbeat CPU 0 instructions: 117000002 cycles: 134155385 heartbeat IPC: 0.624401 cumulative IPC: 0.620759 (Simulation time: 1 hr 29 min 45 sec) 
Heartbeat CPU 0 instructions: 118000003 cycles: 135764177 heartbeat IPC: 0.621585 cumulative IPC: 0.620772 (Simulation time: 1 hr 30 min 14 sec) 
Heartbeat CPU 0 instructions: 119000000 cycles: 137375820 heartbeat IPC: 0.620483 cumulative IPC: 0.620767 (Simulation time: 1 hr 30 min 44 sec) 
Heartbeat CPU 0 instructions: 120000000 cycles: 139017667 heartbeat IPC: 0.60907 cumulative IPC: 0.620597 (Simulation time: 1 hr 31 min 14 sec) 
Heartbeat CPU 0 instructions: 121000003 cycles: 140611605 heartbeat IPC: 0.627379 cumulative IPC: 0.620692 (Simulation time: 1 hr 31 min 45 sec) 
Heartbeat CPU 0 instructions: 122000002 cycles: 142230794 heartbeat IPC: 0.617593 cumulative IPC: 0.620648 (Simulation time: 1 hr 32 min 13 sec) 
Heartbeat CPU 0 instructions: 123000000 cycles: 143872147 heartbeat IPC: 0.609252 cumulative IPC: 0.620489 (Simulation time: 1 hr 32 min 41 sec) 
Heartbeat CPU 0 instructions: 124000000 cycles: 145484536 heartbeat IPC: 0.620198 cumulative IPC: 0.620485 (Simulation time: 1 hr 33 min 10 sec) 
Heartbeat CPU 0 instructions: 125000000 cycles: 147080509 heartbeat IPC: 0.626577 cumulative IPC: 0.620566 (Simulation time: 1 hr 33 min 37 sec) 
Heartbeat CPU 0 instructions: 126000000 cycles: 148672518 heartbeat IPC: 0.628137 cumulative IPC: 0.620664 (Simulation time: 1 hr 34 min 5 sec) 
Heartbeat CPU 0 instructions: 127000003 cycles: 150292695 heartbeat IPC: 0.617218 cumulative IPC: 0.620619 (Simulation time: 1 hr 34 min 32 sec) 
Heartbeat CPU 0 instructions: 128000000 cycles: 151922282 heartbeat IPC: 0.613651 cumulative IPC: 0.620529 (Simulation time: 1 hr 34 min 55 sec) 
Heartbeat CPU 0 instructions: 129000002 cycles: 153496864 heartbeat IPC: 0.63509 cumulative IPC: 0.620709 (Simulation time: 1 hr 35 min 19 sec) 
Heartbeat CPU 0 instructions: 130000000 cycles: 155106783 heartbeat IPC: 0.621148 cumulative IPC: 0.620715 (Simulation time: 1 hr 35 min 43 sec) 
Heartbeat CPU 0 instructions: 131000001 cycles: 156693306 heartbeat IPC: 0.63031 cumulative IPC: 0.620831 (Simulation time: 1 hr 36 min 7 sec) 
Heartbeat CPU 0 instructions: 132000000 cycles: 158307962 heartbeat IPC: 0.619326 cumulative IPC: 0.620813 (Simulation time: 1 hr 36 min 31 sec) 
Heartbeat CPU 0 instructions: 133000001 cycles: 159940152 heartbeat IPC: 0.612674 cumulative IPC: 0.620714 (Simulation time: 1 hr 36 min 53 sec) 
Heartbeat CPU 0 instructions: 134000003 cycles: 161568208 heartbeat IPC: 0.614231 cumulative IPC: 0.620636 (Simulation time: 1 hr 37 min 14 sec) 
Heartbeat CPU 0 instructions: 135000002 cycles: 163187918 heartbeat IPC: 0.617394 cumulative IPC: 0.620597 (Simulation time: 1 hr 37 min 36 sec) 
Heartbeat CPU 0 instructions: 136000000 cycles: 164789790 heartbeat IPC: 0.624268 cumulative IPC: 0.62064 (Simulation time: 1 hr 37 min 56 sec) 
Heartbeat CPU 0 instructions: 137000002 cycles: 166410904 heartbeat IPC: 0.616861 cumulative IPC: 0.620596 (Simulation time: 1 hr 38 min 17 sec) 
Heartbeat CPU 0 instructions: 138000002 cycles: 168005940 heartbeat IPC: 0.626945 cumulative IPC: 0.620667 (Simulation time: 1 hr 38 min 37 sec) 
Heartbeat CPU 0 instructions: 139000000 cycles: 169602475 heartbeat IPC: 0.626355 cumulative IPC: 0.620731 (Simulation time: 1 hr 38 min 55 sec) 
Heartbeat CPU 0 instructions: 140000000 cycles: 171221899 heartbeat IPC: 0.617504 cumulative IPC: 0.620695 (Simulation time: 1 hr 39 min 14 sec) 
Heartbeat CPU 0 instructions: 141000003 cycles: 172805822 heartbeat IPC: 0.631346 cumulative IPC: 0.62081 (Simulation time: 1 hr 39 min 31 sec) 
Heartbeat CPU 0 instructions: 142000001 cycles: 174413550 heartbeat IPC: 0.621994 cumulative IPC: 0.620823 (Simulation time: 1 hr 39 min 49 sec) 
Heartbeat CPU 0 instructions: 143000001 cycles: 176012043 heartbeat IPC: 0.625589 cumulative IPC: 0.620874 (Simulation time: 1 hr 40 min 5 sec) 
Heartbeat CPU 0 instructions: 144000000 cycles: 177602423 heartbeat IPC: 0.62878 cumulative IPC: 0.620957 (Simulation time: 1 hr 40 min 20 sec) 
Heartbeat CPU 0 instructions: 145000003 cycles: 179207774 heartbeat IPC: 0.622919 cumulative IPC: 0.620977 (Simulation time: 1 hr 40 min 35 sec) 
Heartbeat CPU 0 instructions: 146000000 cycles: 180801102 heartbeat IPC: 0.627615 cumulative IPC: 0.621046 (Simulation time: 1 hr 40 min 49 sec) 
Heartbeat CPU 0 instructions: 147000002 cycles: 182438086 heartbeat IPC: 0.610881 cumulative IPC: 0.620939 (Simulation time: 1 hr 41 min 3 sec) 
Heartbeat CPU 0 instructions: 148000000 cycles: 184041923 heartbeat IPC: 0.623504 cumulative IPC: 0.620965 (Simulation time: 1 hr 41 min 17 sec) 
Heartbeat CPU 0 instructions: 149000002 cycles: 185661110 heartbeat IPC: 0.617595 cumulative IPC: 0.620931 (Simulation time: 1 hr 41 min 30 sec) 
Heartbeat CPU 0 instructions: 150000003 cycles: 187293918 heartbeat IPC: 0.612442 cumulative IPC: 0.620845 (Simulation time: 1 hr 41 min 43 sec) 
Finished CPU 0 instructions: 100000002 cycles: 161070840 cummulative IPC: 0.620845 (Simulation time: 1 hr 41 min 43 sec) 

ChampSim completed all CPUs

Region of Interest Statistics

CPU 0 cummulative IPC: 0.620845 instructions: 100000002 cycles: 161070840
LLC TOTAL     ACCESS:    5406456  HIT:      66580  MISS:    5339876
LLC LOAD      ACCESS:     223280  HIT:      46185  MISS:     177095
LLC RFO       ACCESS:          0  HIT:          0  MISS:          0
LLC PREFETCH  ACCESS:    3748138  HIT:       5290  MISS:    3742848
LLC WRITEBACK ACCESS:    1435038  HIT:      15105  MISS:    1419933
