
*** ChampSim Multicore Out-of-Order Simulator ***

Warmup Instructions: 50000000
Simulation Instructions: 100000000
Configuration: 2
Number of CPUs: 1
LLC sets: 2048
LLC ways: 16
Off-chip DRAM Channels: 1 Width: 64-bit Data Rate: 1600 MT/s

CPU 0 runs /datasets/cs240c-wi22-a00-public/data/Assignment2-gz/GemsFDTD_712B.trace.gz
CPU 0 L1D next line prefetcher
CPU 0 L2C IP-based stride prefetcher
Heartbeat CPU 0 instructions: 1000003 cycles: 634341 heartbeat IPC: 1.57644 cumulative IPC: 1.57644 (Simulation time: 0 hr 0 min 46 sec) 
Heartbeat CPU 0 instructions: 2000000 cycles: 1268306 heartbeat IPC: 1.57737 cumulative IPC: 1.57691 (Simulation time: 0 hr 1 min 31 sec) 
Heartbeat CPU 0 instructions: 3000000 cycles: 1902372 heartbeat IPC: 1.57712 cumulative IPC: 1.57698 (Simulation time: 0 hr 2 min 13 sec) 
Heartbeat CPU 0 instructions: 4000000 cycles: 2536149 heartbeat IPC: 1.57784 cumulative IPC: 1.57719 (Simulation time: 0 hr 2 min 59 sec) 
Heartbeat CPU 0 instructions: 5000003 cycles: 3170316 heartbeat IPC: 1.57688 cumulative IPC: 1.57713 (Simulation time: 0 hr 3 min 42 sec) 
Heartbeat CPU 0 instructions: 6000002 cycles: 3804231 heartbeat IPC: 1.5775 cumulative IPC: 1.57719 (Simulation time: 0 hr 4 min 26 sec) 
Heartbeat CPU 0 instructions: 7000001 cycles: 4438406 heartbeat IPC: 1.57685 cumulative IPC: 1.57714 (Simulation time: 0 hr 5 min 11 sec) 
Heartbeat CPU 0 instructions: 8000000 cycles: 5072268 heartbeat IPC: 1.57763 cumulative IPC: 1.5772 (Simulation time: 0 hr 5 min 55 sec) 
Heartbeat CPU 0 instructions: 9000001 cycles: 5706391 heartbeat IPC: 1.57698 cumulative IPC: 1.57718 (Simulation time: 0 hr 6 min 41 sec) 
Heartbeat CPU 0 instructions: 10000002 cycles: 6340177 heartbeat IPC: 1.57782 cumulative IPC: 1.57724 (Simulation time: 0 hr 7 min 28 sec) 
Heartbeat CPU 0 instructions: 11000002 cycles: 6973971 heartbeat IPC: 1.5778 cumulative IPC: 1.57729 (Simulation time: 0 hr 8 min 13 sec) 
Heartbeat CPU 0 instructions: 12000000 cycles: 7607960 heartbeat IPC: 1.57731 cumulative IPC: 1.5773 (Simulation time: 0 hr 8 min 58 sec) 
Heartbeat CPU 0 instructions: 13000000 cycles: 8242008 heartbeat IPC: 1.57717 cumulative IPC: 1.57729 (Simulation time: 0 hr 9 min 42 sec) 
Heartbeat CPU 0 instructions: 14000001 cycles: 8876161 heartbeat IPC: 1.57691 cumulative IPC: 1.57726 (Simulation time: 0 hr 10 min 26 sec) 
Heartbeat CPU 0 instructions: 15000001 cycles: 9510253 heartbeat IPC: 1.57706 cumulative IPC: 1.57725 (Simulation time: 0 hr 11 min 11 sec) 
Heartbeat CPU 0 instructions: 16000000 cycles: 10144065 heartbeat IPC: 1.57775 cumulative IPC: 1.57728 (Simulation time: 0 hr 11 min 55 sec) 
Heartbeat CPU 0 instructions: 17000000 cycles: 10778063 heartbeat IPC: 1.57729 cumulative IPC: 1.57728 (Simulation time: 0 hr 12 min 38 sec) 
Heartbeat CPU 0 instructions: 18000003 cycles: 11411921 heartbeat IPC: 1.57765 cumulative IPC: 1.5773 (Simulation time: 0 hr 13 min 21 sec) 
Heartbeat CPU 0 instructions: 19000000 cycles: 12045958 heartbeat IPC: 1.57719 cumulative IPC: 1.57729 (Simulation time: 0 hr 14 min 3 sec) 
Heartbeat CPU 0 instructions: 20000000 cycles: 12680008 heartbeat IPC: 1.57716 cumulative IPC: 1.57729 (Simulation time: 0 hr 14 min 47 sec) 
Heartbeat CPU 0 instructions: 21000002 cycles: 13314178 heartbeat IPC: 1.57687 cumulative IPC: 1.57727 (Simulation time: 0 hr 15 min 32 sec) 
Heartbeat CPU 0 instructions: 22000000 cycles: 13948008 heartbeat IPC: 1.57771 cumulative IPC: 1.57729 (Simulation time: 0 hr 16 min 16 sec) 
Heartbeat CPU 0 instructions: 23000002 cycles: 14581945 heartbeat IPC: 1.57745 cumulative IPC: 1.57729 (Simulation time: 0 hr 17 min 1 sec) 
Heartbeat CPU 0 instructions: 24000000 cycles: 15215853 heartbeat IPC: 1.57751 cumulative IPC: 1.5773 (Simulation time: 0 hr 17 min 47 sec) 
Heartbeat CPU 0 instructions: 25000000 cycles: 15849923 heartbeat IPC: 1.57711 cumulative IPC: 1.57729 (Simulation time: 0 hr 18 min 32 sec) 
Heartbeat CPU 0 instructions: 26000002 cycles: 16484037 heartbeat IPC: 1.57701 cumulative IPC: 1.57728 (Simulation time: 0 hr 19 min 19 sec) 
Heartbeat CPU 0 instructions: 27000002 cycles: 17118118 heartbeat IPC: 1.57709 cumulative IPC: 1.57728 (Simulation time: 0 hr 20 min 5 sec) 
Heartbeat CPU 0 instructions: 28000000 cycles: 17752030 heartbeat IPC: 1.5775 cumulative IPC: 1.57728 (Simulation time: 0 hr 20 min 52 sec) 
Heartbeat CPU 0 instructions: 29000001 cycles: 18386053 heartbeat IPC: 1.57723 cumulative IPC: 1.57728 (Simulation time: 0 hr 21 min 38 sec) 
Heartbeat CPU 0 instructions: 30000000 cycles: 19019886 heartbeat IPC: 1.5777 cumulative IPC: 1.5773 (Simulation time: 0 hr 22 min 25 sec) 
Heartbeat CPU 0 instructions: 31000001 cycles: 19653813 heartbeat IPC: 1.57747 cumulative IPC: 1.5773 (Simulation time: 0 hr 23 min 10 sec) 
Heartbeat CPU 0 instructions: 32000000 cycles: 20287843 heartbeat IPC: 1.57721 cumulative IPC: 1.5773 (Simulation time: 0 hr 23 min 55 sec) 
Heartbeat CPU 0 instructions: 33000003 cycles: 20922056 heartbeat IPC: 1.57676 cumulative IPC: 1.57728 (Simulation time: 0 hr 24 min 39 sec) 
Heartbeat CPU 0 instructions: 34000001 cycles: 21555986 heartbeat IPC: 1.57746 cumulative IPC: 1.57729 (Simulation time: 0 hr 25 min 26 sec) 
Heartbeat CPU 0 instructions: 35000002 cycles: 22189962 heartbeat IPC: 1.57735 cumulative IPC: 1.57729 (Simulation time: 0 hr 26 min 13 sec) 
Heartbeat CPU 0 instructions: 36000000 cycles: 22823723 heartbeat IPC: 1.57788 cumulative IPC: 1.57731 (Simulation time: 0 hr 27 min 0 sec) 
Heartbeat CPU 0 instructions: 37000000 cycles: 23457729 heartbeat IPC: 1.57727 cumulative IPC: 1.57731 (Simulation time: 0 hr 27 min 45 sec) 
Heartbeat CPU 0 instructions: 38000003 cycles: 24091659 heartbeat IPC: 1.57747 cumulative IPC: 1.57731 (Simulation time: 0 hr 28 min 31 sec) 
Heartbeat CPU 0 instructions: 39000001 cycles: 24725864 heartbeat IPC: 1.57677 cumulative IPC: 1.5773 (Simulation time: 0 hr 29 min 16 sec) 
Heartbeat CPU 0 instructions: 40000000 cycles: 25359945 heartbeat IPC: 1.57708 cumulative IPC: 1.57729 (Simulation time: 0 hr 30 min 0 sec) 
Heartbeat CPU 0 instructions: 41000003 cycles: 25994083 heartbeat IPC: 1.57695 cumulative IPC: 1.57728 (Simulation time: 0 hr 30 min 46 sec) 
Heartbeat CPU 0 instructions: 42000000 cycles: 26627898 heartbeat IPC: 1.57774 cumulative IPC: 1.57729 (Simulation time: 0 hr 31 min 31 sec) 
Heartbeat CPU 0 instructions: 43000002 cycles: 27261806 heartbeat IPC: 1.57752 cumulative IPC: 1.5773 (Simulation time: 0 hr 32 min 16 sec) 
Heartbeat CPU 0 instructions: 44000000 cycles: 27895758 heartbeat IPC: 1.5774 cumulative IPC: 1.5773 (Simulation time: 0 hr 33 min 2 sec) 
Heartbeat CPU 0 instructions: 45000003 cycles: 28529919 heartbeat IPC: 1.57689 cumulative IPC: 1.57729 (Simulation time: 0 hr 33 min 50 sec) 
Heartbeat CPU 0 instructions: 46000002 cycles: 29163899 heartbeat IPC: 1.57734 cumulative IPC: 1.57729 (Simulation time: 0 hr 34 min 35 sec) 
Heartbeat CPU 0 instructions: 47000001 cycles: 29798039 heartbeat IPC: 1.57694 cumulative IPC: 1.57729 (Simulation time: 0 hr 35 min 23 sec) 
Heartbeat CPU 0 instructions: 48000000 cycles: 30431747 heartbeat IPC: 1.57801 cumulative IPC: 1.5773 (Simulation time: 0 hr 36 min 7 sec) 
Heartbeat CPU 0 instructions: 49000001 cycles: 31065801 heartbeat IPC: 1.57715 cumulative IPC: 1.5773 (Simulation time: 0 hr 36 min 53 sec) 
Heartbeat CPU 0 instructions: 50000000 cycles: 31699632 heartbeat IPC: 1.57771 cumulative IPC: 1.57731 (Simulation time: 0 hr 37 min 37 sec) 

Warmup complete CPU 0 instructions: 50000004 cycles: 31699633 (Simulation time: 0 hr 37 min 37 sec) 

Heartbeat CPU 0 instructions: 51000002 cycles: 33318119 heartbeat IPC: 0.617862 cumulative IPC: 0.61786 (Simulation time: 0 hr 38 min 28 sec) 
Heartbeat CPU 0 instructions: 52000000 cycles: 34930167 heartbeat IPC: 0.620328 cumulative IPC: 0.619091 (Simulation time: 0 hr 39 min 18 sec) 
Heartbeat CPU 0 instructions: 53000000 cycles: 36565724 heartbeat IPC: 0.611413 cumulative IPC: 0.61651 (Simulation time: 0 hr 40 min 11 sec) 
Heartbeat CPU 0 instructions: 54000000 cycles: 38154399 heartbeat IPC: 0.629455 cumulative IPC: 0.619696 (Simulation time: 0 hr 41 min 1 sec) 
Heartbeat CPU 0 instructions: 55000003 cycles: 39734175 heartbeat IPC: 0.633003 cumulative IPC: 0.622313 (Simulation time: 0 hr 41 min 52 sec) 
Heartbeat CPU 0 instructions: 56000000 cycles: 41343516 heartbeat IPC: 0.62137 cumulative IPC: 0.622156 (Simulation time: 0 hr 42 min 47 sec) 
Heartbeat CPU 0 instructions: 57000000 cycles: 42994882 heartbeat IPC: 0.605559 cumulative IPC: 0.619729 (Simulation time: 0 hr 43 min 39 sec) 
Heartbeat CPU 0 instructions: 58000001 cycles: 44605502 heartbeat IPC: 0.62088 cumulative IPC: 0.619873 (Simulation time: 0 hr 44 min 40 sec) 
Heartbeat CPU 0 instructions: 59000001 cycles: 46223308 heartbeat IPC: 0.618121 cumulative IPC: 0.619678 (Simulation time: 0 hr 45 min 40 sec) 
Heartbeat CPU 0 instructions: 60000000 cycles: 47848567 heartbeat IPC: 0.615286 cumulative IPC: 0.619236 (Simulation time: 0 hr 46 min 41 sec) 
Heartbeat CPU 0 instructions: 61000001 cycles: 49429836 heartbeat IPC: 0.632404 cumulative IPC: 0.62041 (Simulation time: 0 hr 47 min 37 sec) 
Heartbeat CPU 0 instructions: 62000000 cycles: 51018824 heartbeat IPC: 0.629331 cumulative IPC: 0.621144 (Simulation time: 0 hr 48 min 37 sec) 
Heartbeat CPU 0 instructions: 63000002 cycles: 52625565 heartbeat IPC: 0.622379 cumulative IPC: 0.621239 (Simulation time: 0 hr 49 min 38 sec) 
Heartbeat CPU 0 instructions: 64000000 cycles: 54245441 heartbeat IPC: 0.61733 cumulative IPC: 0.620958 (Simulation time: 0 hr 50 min 39 sec) 
Heartbeat CPU 0 instructions: 65000003 cycles: 55875624 heartbeat IPC: 0.61343 cumulative IPC: 0.62045 (Simulation time: 0 hr 51 min 39 sec) 
Heartbeat CPU 0 instructions: 66000000 cycles: 57466157 heartbeat IPC: 0.628718 cumulative IPC: 0.620961 (Simulation time: 0 hr 52 min 42 sec) 
Heartbeat CPU 0 instructions: 67000000 cycles: 59064624 heartbeat IPC: 0.625599 cumulative IPC: 0.621232 (Simulation time: 0 hr 53 min 41 sec) 
Heartbeat CPU 0 instructions: 68000000 cycles: 60655791 heartbeat IPC: 0.62847 cumulative IPC: 0.621629 (Simulation time: 0 hr 54 min 43 sec) 
Heartbeat CPU 0 instructions: 69000001 cycles: 62241453 heartbeat IPC: 0.630652 cumulative IPC: 0.622098 (Simulation time: 0 hr 55 min 44 sec) 
Heartbeat CPU 0 instructions: 70000002 cycles: 63870799 heartbeat IPC: 0.613744 cumulative IPC: 0.621675 (Simulation time: 0 hr 56 min 41 sec) 
Heartbeat CPU 0 instructions: 71000002 cycles: 65528242 heartbeat IPC: 0.603339 cumulative IPC: 0.620776 (Simulation time: 0 hr 57 min 44 sec) 
Heartbeat CPU 0 instructions: 72000000 cycles: 67282617 heartbeat IPC: 0.570002 cumulative IPC: 0.618273 (Simulation time: 0 hr 58 min 49 sec) 
Heartbeat CPU 0 instructions: 73000000 cycles: 69004510 heartbeat IPC: 0.580756 cumulative IPC: 0.616541 (Simulation time: 0 hr 59 min 53 sec) 
Heartbeat CPU 0 instructions: 74000001 cycles: 70749420 heartbeat IPC: 0.573096 cumulative IPC: 0.6146 (Simulation time: 1 hr 0 min 59 sec) 
Heartbeat CPU 0 instructions: 75000003 cycles: 72480038 heartbeat IPC: 0.577829 cumulative IPC: 0.613039 (Simulation time: 1 hr 2 min 4 sec) 
Heartbeat CPU 0 instructions: 76000000 cycles: 74210848 heartbeat IPC: 0.577762 cumulative IPC: 0.611603 (Simulation time: 1 hr 3 min 5 sec) 
Heartbeat CPU 0 instructions: 77000000 cycles: 75952723 heartbeat IPC: 0.574094 cumulative IPC: 0.610127 (Simulation time: 1 hr 4 min 12 sec) 
Heartbeat CPU 0 instructions: 78000001 cycles: 77682885 heartbeat IPC: 0.577981 cumulative IPC: 0.608917 (Simulation time: 1 hr 5 min 18 sec) 
Heartbeat CPU 0 instructions: 79000003 cycles: 79434498 heartbeat IPC: 0.570903 cumulative IPC: 0.607522 (Simulation time: 1 hr 6 min 26 sec) 
Heartbeat CPU 0 instructions: 80000000 cycles: 81187508 heartbeat IPC: 0.570446 cumulative IPC: 0.606209 (Simulation time: 1 hr 7 min 33 sec) 
Heartbeat CPU 0 instructions: 81000001 cycles: 82940001 heartbeat IPC: 0.570616 cumulative IPC: 0.604992 (Simulation time: 1 hr 8 min 42 sec) 
Heartbeat CPU 0 instructions: 82000000 cycles: 84686849 heartbeat IPC: 0.572459 cumulative IPC: 0.603919 (Simulation time: 1 hr 9 min 47 sec) 
Heartbeat CPU 0 instructions: 83000001 cycles: 86434253 heartbeat IPC: 0.572278 cumulative IPC: 0.602909 (Simulation time: 1 hr 10 min 54 sec) 
Heartbeat CPU 0 instructions: 84000000 cycles: 88185664 heartbeat IPC: 0.570968 cumulative IPC: 0.601919 (Simulation time: 1 hr 12 min 0 sec) 
Heartbeat CPU 0 instructions: 85000000 cycles: 89927939 heartbeat IPC: 0.573962 cumulative IPC: 0.601082 (Simulation time: 1 hr 13 min 5 sec) 
Heartbeat CPU 0 instructions: 86000000 cycles: 91659936 heartbeat IPC: 0.577368 cumulative IPC: 0.600397 (Simulation time: 1 hr 14 min 14 sec) 
Heartbeat CPU 0 instructions: 87000001 cycles: 93399150 heartbeat IPC: 0.574973 cumulative IPC: 0.59968 (Simulation time: 1 hr 15 min 21 sec) 
Heartbeat CPU 0 instructions: 88000000 cycles: 95127468 heartbeat IPC: 0.578597 cumulative IPC: 0.599106 (Simulation time: 1 hr 16 min 26 sec) 
Heartbeat CPU 0 instructions: 89000003 cycles: 96872661 heartbeat IPC: 0.573004 cumulative IPC: 0.598407 (Simulation time: 1 hr 17 min 30 sec) 
Heartbeat CPU 0 instructions: 90000000 cycles: 98611383 heartbeat IPC: 0.575133 cumulative IPC: 0.597802 (Simulation time: 1 hr 18 min 36 sec) 
Heartbeat CPU 0 instructions: 91000001 cycles: 100343134 heartbeat IPC: 0.577451 cumulative IPC: 0.597289 (Simulation time: 1 hr 19 min 40 sec) 
Heartbeat CPU 0 instructions: 92000000 cycles: 102090622 heartbeat IPC: 0.572249 cumulative IPC: 0.596667 (Simulation time: 1 hr 20 min 38 sec) 
Heartbeat CPU 0 instructions: 93000003 cycles: 103821598 heartbeat IPC: 0.577711 cumulative IPC: 0.596212 (Simulation time: 1 hr 21 min 39 sec) 
Heartbeat CPU 0 instructions: 94000002 cycles: 105551443 heartbeat IPC: 0.578086 cumulative IPC: 0.595788 (Simulation time: 1 hr 22 min 37 sec) 
Heartbeat CPU 0 instructions: 95000001 cycles: 107290454 heartbeat IPC: 0.575039 cumulative IPC: 0.59531 (Simulation time: 1 hr 23 min 34 sec) 
Heartbeat CPU 0 instructions: 96000000 cycles: 109025450 heartbeat IPC: 0.57637 cumulative IPC: 0.594885 (Simulation time: 1 hr 24 min 35 sec) 
Heartbeat CPU 0 instructions: 97000003 cycles: 110764927 heartbeat IPC: 0.574887 cumulative IPC: 0.594445 (Simulation time: 1 hr 25 min 33 sec) 
Heartbeat CPU 0 instructions: 98000000 cycles: 112502424 heartbeat IPC: 0.575539 cumulative IPC: 0.594039 (Simulation time: 1 hr 26 min 29 sec) 
Heartbeat CPU 0 instructions: 99000001 cycles: 114241317 heartbeat IPC: 0.575079 cumulative IPC: 0.593639 (Simulation time: 1 hr 27 min 19 sec) 
Heartbeat CPU 0 instructions: 100000000 cycles: 115985539 heartbeat IPC: 0.573321 cumulative IPC: 0.593219 (Simulation time: 1 hr 28 min 7 sec) 
Heartbeat CPU 0 instructions: 101000001 cycles: 117715596 heartbeat IPC: 0.578016 cumulative IPC: 0.592913 (Simulation time: 1 hr 28 min 49 sec) 
Heartbeat CPU 0 instructions: 102000002 cycles: 119451215 heartbeat IPC: 0.576164 cumulative IPC: 0.592582 (Simulation time: 1 hr 29 min 33 sec) 
Heartbeat CPU 0 instructions: 103000000 cycles: 121189303 heartbeat IPC: 0.575344 cumulative IPC: 0.592247 (Simulation time: 1 hr 30 min 16 sec) 
Heartbeat CPU 0 instructions: 104000000 cycles: 122926739 heartbeat IPC: 0.575561 cumulative IPC: 0.591929 (Simulation time: 1 hr 30 min 56 sec) 
Heartbeat CPU 0 instructions: 105000000 cycles: 124664167 heartbeat IPC: 0.575563 cumulative IPC: 0.591623 (Simulation time: 1 hr 31 min 33 sec) 
Heartbeat CPU 0 instructions: 106000002 cycles: 126393061 heartbeat IPC: 0.578406 cumulative IPC: 0.591382 (Simulation time: 1 hr 32 min 10 sec) 
Heartbeat CPU 0 instructions: 107000000 cycles: 128137765 heartbeat IPC: 0.573162 cumulative IPC: 0.591052 (Simulation time: 1 hr 32 min 49 sec) 
Heartbeat CPU 0 instructions: 108000000 cycles: 129872172 heartbeat IPC: 0.576566 cumulative IPC: 0.590797 (Simulation time: 1 hr 33 min 26 sec) 
Heartbeat CPU 0 instructions: 109000003 cycles: 131625135 heartbeat IPC: 0.570464 cumulative IPC: 0.59044 (Simulation time: 1 hr 34 min 4 sec) 
Heartbeat CPU 0 instructions: 110000000 cycles: 133363145 heartbeat IPC: 0.575369 cumulative IPC: 0.590182 (Simulation time: 1 hr 34 min 42 sec) 
Heartbeat CPU 0 instructions: 111000001 cycles: 135089947 heartbeat IPC: 0.579106 cumulative IPC: 0.589997 (Simulation time: 1 hr 35 min 16 sec) 
Heartbeat CPU 0 instructions: 112000000 cycles: 136829605 heartbeat IPC: 0.574825 cumulative IPC: 0.589746 (Simulation time: 1 hr 35 min 47 sec) 
Heartbeat CPU 0 instructions: 113000002 cycles: 138564461 heartbeat IPC: 0.576418 cumulative IPC: 0.58953 (Simulation time: 1 hr 36 min 17 sec) 
Heartbeat CPU 0 instructions: 114000002 cycles: 140303419 heartbeat IPC: 0.575057 cumulative IPC: 0.589298 (Simulation time: 1 hr 36 min 46 sec) 
Heartbeat CPU 0 instructions: 115000002 cycles: 142046501 heartbeat IPC: 0.573696 cumulative IPC: 0.589052 (Simulation time: 1 hr 37 min 14 sec) 
Heartbeat CPU 0 instructions: 116000000 cycles: 143796088 heartbeat IPC: 0.571562 cumulative IPC: 0.588779 (Simulation time: 1 hr 37 min 41 sec) 
Heartbeat CPU 0 instructions: 117000001 cycles: 145536072 heartbeat IPC: 0.574718 cumulative IPC: 0.588564 (Simulation time: 1 hr 38 min 7 sec) 
Heartbeat CPU 0 instructions: 118000002 cycles: 147279869 heartbeat IPC: 0.573462 cumulative IPC: 0.588336 (Simulation time: 1 hr 38 min 35 sec) 
Heartbeat CPU 0 instructions: 119000001 cycles: 149022555 heartbeat IPC: 0.573826 cumulative IPC: 0.58812 (Simulation time: 1 hr 39 min 2 sec) 
Heartbeat CPU 0 instructions: 120000000 cycles: 151275166 heartbeat IPC: 0.443929 cumulative IPC: 0.585404 (Simulation time: 1 hr 39 min 27 sec) 
Heartbeat CPU 0 instructions: 121000000 cycles: 160041233 heartbeat IPC: 0.114076 cumulative IPC: 0.553211 (Simulation time: 1 hr 40 min 6 sec) 
Heartbeat CPU 0 instructions: 122000002 cycles: 168927800 heartbeat IPC: 0.11253 cumulative IPC: 0.524674 (Simulation time: 1 hr 40 min 43 sec) 
Heartbeat CPU 0 instructions: 123000002 cycles: 177785583 heartbeat IPC: 0.112895 cumulative IPC: 0.499706 (Simulation time: 1 hr 41 min 15 sec) 
Heartbeat CPU 0 instructions: 124000000 cycles: 186674442 heartbeat IPC: 0.1125 cumulative IPC: 0.477497 (Simulation time: 1 hr 41 min 44 sec) 
Heartbeat CPU 0 instructions: 125000001 cycles: 189356219 heartbeat IPC: 0.372887 cumulative IPC: 0.475718 (Simulation time: 1 hr 41 min 57 sec) 
Heartbeat CPU 0 instructions: 126000003 cycles: 191016173 heartbeat IPC: 0.602428 cumulative IPC: 0.477038 (Simulation time: 1 hr 42 min 8 sec) 
Heartbeat CPU 0 instructions: 127000000 cycles: 192674229 heartbeat IPC: 0.603114 cumulative IPC: 0.478336 (Simulation time: 1 hr 42 min 19 sec) 
Heartbeat CPU 0 instructions: 128000000 cycles: 194336719 heartbeat IPC: 0.601507 cumulative IPC: 0.479595 (Simulation time: 1 hr 42 min 29 sec) 
Heartbeat CPU 0 instructions: 129000001 cycles: 196003499 heartbeat IPC: 0.59996 cumulative IPC: 0.480816 (Simulation time: 1 hr 42 min 39 sec) 
Heartbeat CPU 0 instructions: 130000003 cycles: 197669693 heartbeat IPC: 0.600171 cumulative IPC: 0.482015 (Simulation time: 1 hr 42 min 48 sec) 
Heartbeat CPU 0 instructions: 131000001 cycles: 199334616 heartbeat IPC: 0.600627 cumulative IPC: 0.483193 (Simulation time: 1 hr 42 min 56 sec) 
Heartbeat CPU 0 instructions: 132000000 cycles: 200991019 heartbeat IPC: 0.603717 cumulative IPC: 0.484372 (Simulation time: 1 hr 43 min 3 sec) 
Heartbeat CPU 0 instructions: 133000002 cycles: 202647823 heartbeat IPC: 0.603573 cumulative IPC: 0.485527 (Simulation time: 1 hr 43 min 10 sec) 
Heartbeat CPU 0 instructions: 134000000 cycles: 204304384 heartbeat IPC: 0.603659 cumulative IPC: 0.486661 (Simulation time: 1 hr 43 min 16 sec) 
Heartbeat CPU 0 instructions: 135000003 cycles: 205962031 heartbeat IPC: 0.603267 cumulative IPC: 0.48777 (Simulation time: 1 hr 43 min 22 sec) 
Heartbeat CPU 0 instructions: 136000000 cycles: 207625323 heartbeat IPC: 0.601216 cumulative IPC: 0.488843 (Simulation time: 1 hr 43 min 27 sec) 
Heartbeat CPU 0 instructions: 137000003 cycles: 209284558 heartbeat IPC: 0.602689 cumulative IPC: 0.489906 (Simulation time: 1 hr 43 min 33 sec) 
Heartbeat CPU 0 instructions: 138000000 cycles: 210944524 heartbeat IPC: 0.60242 cumulative IPC: 0.490948 (Simulation time: 1 hr 43 min 39 sec) 
Heartbeat CPU 0 instructions: 139000002 cycles: 212605421 heartbeat IPC: 0.602085 cumulative IPC: 0.491969 (Simulation time: 1 hr 43 min 44 sec) 
Heartbeat CPU 0 instructions: 140000000 cycles: 214257800 heartbeat IPC: 0.605187 cumulative IPC: 0.492994 (Simulation time: 1 hr 43 min 50 sec) 
Heartbeat CPU 0 instructions: 141000000 cycles: 215923300 heartbeat IPC: 0.60042 cumulative IPC: 0.493965 (Simulation time: 1 hr 43 min 55 sec) 
Heartbeat CPU 0 instructions: 142000001 cycles: 217579310 heartbeat IPC: 0.603862 cumulative IPC: 0.494944 (Simulation time: 1 hr 44 min 1 sec) 
Heartbeat CPU 0 instructions: 143000001 cycles: 219229084 heartbeat IPC: 0.606144 cumulative IPC: 0.495922 (Simulation time: 1 hr 44 min 7 sec) 
Heartbeat CPU 0 instructions: 144000000 cycles: 220882998 heartbeat IPC: 0.604626 cumulative IPC: 0.496872 (Simulation time: 1 hr 44 min 12 sec) 
Heartbeat CPU 0 instructions: 145000000 cycles: 222535678 heartbeat IPC: 0.605078 cumulative IPC: 0.497809 (Simulation time: 1 hr 44 min 18 sec) 
Heartbeat CPU 0 instructions: 146000002 cycles: 224187489 heartbeat IPC: 0.605397 cumulative IPC: 0.498733 (Simulation time: 1 hr 44 min 24 sec) 
Heartbeat CPU 0 instructions: 147000002 cycles: 225838789 heartbeat IPC: 0.605583 cumulative IPC: 0.499642 (Simulation time: 1 hr 44 min 29 sec) 
Heartbeat CPU 0 instructions: 148000000 cycles: 227490388 heartbeat IPC: 0.605473 cumulative IPC: 0.500534 (Simulation time: 1 hr 44 min 35 sec) 
Heartbeat CPU 0 instructions: 149000000 cycles: 229145295 heartbeat IPC: 0.604264 cumulative IPC: 0.501404 (Simulation time: 1 hr 44 min 40 sec) 
Heartbeat CPU 0 instructions: 150000002 cycles: 230796363 heartbeat IPC: 0.60567 cumulative IPC: 0.502268 (Simulation time: 1 hr 44 min 46 sec) 
Finished CPU 0 instructions: 100000002 cycles: 199096731 cummulative IPC: 0.502268 (Simulation time: 1 hr 44 min 46 sec) 

ChampSim completed all CPUs

Region of Interest Statistics

CPU 0 cummulative IPC: 0.502268 instructions: 100000002 cycles: 199096731
LLC TOTAL     ACCESS:    5912285  HIT:     463388  MISS:    5448897
LLC LOAD      ACCESS:    1304693  HIT:     176681  MISS:    1128012
LLC RFO       ACCESS:         26  HIT:          1  MISS:         25
LLC PREFETCH  ACCESS:    3065613  HIT:      11963  MISS:    3053650
LLC WRITEBACK ACCESS:    1541953  HIT:     274743  MISS:    1267210
