
*** ChampSim Multicore Out-of-Order Simulator ***

Warmup Instructions: 50000000
Simulation Instructions: 100000000
Configuration: 2
Number of CPUs: 1
LLC sets: 2048
LLC ways: 16
Off-chip DRAM Channels: 1 Width: 64-bit Data Rate: 1600 MT/s

CPU 0 runs /datasets/cs240c-wi22-a00-public/data/Assignment2-gz/bzip2_259B.trace.gz
CPU 0 L1D next line prefetcher
CPU 0 L2C IP-based stride prefetcher
Heartbeat CPU 0 instructions: 1000002 cycles: 428875 heartbeat IPC: 2.33169 cumulative IPC: 2.33169 (Simulation time: 0 hr 0 min 37 sec) 
Heartbeat CPU 0 instructions: 2000003 cycles: 861057 heartbeat IPC: 2.31384 cumulative IPC: 2.32273 (Simulation time: 0 hr 1 min 15 sec) 
Heartbeat CPU 0 instructions: 3000001 cycles: 1286790 heartbeat IPC: 2.34889 cumulative IPC: 2.33138 (Simulation time: 0 hr 1 min 54 sec) 
Heartbeat CPU 0 instructions: 4000000 cycles: 1685064 heartbeat IPC: 2.51083 cumulative IPC: 2.3738 (Simulation time: 0 hr 2 min 25 sec) 
Heartbeat CPU 0 instructions: 5000001 cycles: 2103497 heartbeat IPC: 2.38987 cumulative IPC: 2.37699 (Simulation time: 0 hr 3 min 1 sec) 
Heartbeat CPU 0 instructions: 6000001 cycles: 2532860 heartbeat IPC: 2.32903 cumulative IPC: 2.36886 (Simulation time: 0 hr 3 min 38 sec) 
Heartbeat CPU 0 instructions: 7000003 cycles: 2961908 heartbeat IPC: 2.33075 cumulative IPC: 2.36334 (Simulation time: 0 hr 4 min 13 sec) 
Heartbeat CPU 0 instructions: 8000000 cycles: 3391721 heartbeat IPC: 2.32659 cumulative IPC: 2.35868 (Simulation time: 0 hr 4 min 49 sec) 
Heartbeat CPU 0 instructions: 9000000 cycles: 3819847 heartbeat IPC: 2.33576 cumulative IPC: 2.35612 (Simulation time: 0 hr 5 min 25 sec) 
Heartbeat CPU 0 instructions: 10000002 cycles: 4193920 heartbeat IPC: 2.67328 cumulative IPC: 2.3844 (Simulation time: 0 hr 5 min 53 sec) 
Heartbeat CPU 0 instructions: 11000003 cycles: 4560319 heartbeat IPC: 2.72927 cumulative IPC: 2.41211 (Simulation time: 0 hr 6 min 20 sec) 
Heartbeat CPU 0 instructions: 12000000 cycles: 5001195 heartbeat IPC: 2.2682 cumulative IPC: 2.39943 (Simulation time: 0 hr 6 min 53 sec) 
Heartbeat CPU 0 instructions: 13000003 cycles: 5458029 heartbeat IPC: 2.18899 cumulative IPC: 2.38181 (Simulation time: 0 hr 7 min 28 sec) 
Heartbeat CPU 0 instructions: 14000002 cycles: 5909703 heartbeat IPC: 2.21398 cumulative IPC: 2.36899 (Simulation time: 0 hr 8 min 2 sec) 
Heartbeat CPU 0 instructions: 15000003 cycles: 6349539 heartbeat IPC: 2.27358 cumulative IPC: 2.36238 (Simulation time: 0 hr 8 min 36 sec) 
Heartbeat CPU 0 instructions: 16000000 cycles: 6790852 heartbeat IPC: 2.26596 cumulative IPC: 2.35611 (Simulation time: 0 hr 9 min 10 sec) 
Heartbeat CPU 0 instructions: 17000003 cycles: 7220661 heartbeat IPC: 2.32662 cumulative IPC: 2.35436 (Simulation time: 0 hr 9 min 43 sec) 
Heartbeat CPU 0 instructions: 18000000 cycles: 7664171 heartbeat IPC: 2.25473 cumulative IPC: 2.34859 (Simulation time: 0 hr 10 min 14 sec) 
Heartbeat CPU 0 instructions: 19000002 cycles: 8145689 heartbeat IPC: 2.07677 cumulative IPC: 2.33252 (Simulation time: 0 hr 10 min 40 sec) 
Heartbeat CPU 0 instructions: 20000000 cycles: 8639967 heartbeat IPC: 2.02315 cumulative IPC: 2.31482 (Simulation time: 0 hr 11 min 5 sec) 
Heartbeat CPU 0 instructions: 21000001 cycles: 9132043 heartbeat IPC: 2.03221 cumulative IPC: 2.2996 (Simulation time: 0 hr 11 min 30 sec) 
Heartbeat CPU 0 instructions: 22000002 cycles: 9615428 heartbeat IPC: 2.06875 cumulative IPC: 2.28799 (Simulation time: 0 hr 11 min 54 sec) 
Heartbeat CPU 0 instructions: 23000003 cycles: 10100852 heartbeat IPC: 2.06006 cumulative IPC: 2.27704 (Simulation time: 0 hr 12 min 21 sec) 
Heartbeat CPU 0 instructions: 24000000 cycles: 10584616 heartbeat IPC: 2.06712 cumulative IPC: 2.26744 (Simulation time: 0 hr 12 min 47 sec) 
Heartbeat CPU 0 instructions: 25000000 cycles: 11070170 heartbeat IPC: 2.0595 cumulative IPC: 2.25832 (Simulation time: 0 hr 13 min 12 sec) 
Heartbeat CPU 0 instructions: 26000003 cycles: 11571541 heartbeat IPC: 1.99454 cumulative IPC: 2.24689 (Simulation time: 0 hr 13 min 37 sec) 
Heartbeat CPU 0 instructions: 27000000 cycles: 12063753 heartbeat IPC: 2.03164 cumulative IPC: 2.23811 (Simulation time: 0 hr 14 min 2 sec) 
Heartbeat CPU 0 instructions: 28000000 cycles: 12552013 heartbeat IPC: 2.04809 cumulative IPC: 2.23072 (Simulation time: 0 hr 14 min 28 sec) 
Heartbeat CPU 0 instructions: 29000000 cycles: 13041327 heartbeat IPC: 2.04368 cumulative IPC: 2.2237 (Simulation time: 0 hr 14 min 55 sec) 
Heartbeat CPU 0 instructions: 30000000 cycles: 13543338 heartbeat IPC: 1.99199 cumulative IPC: 2.21511 (Simulation time: 0 hr 15 min 20 sec) 
Heartbeat CPU 0 instructions: 31000000 cycles: 14106857 heartbeat IPC: 1.77456 cumulative IPC: 2.19751 (Simulation time: 0 hr 15 min 45 sec) 
Heartbeat CPU 0 instructions: 32000000 cycles: 14699706 heartbeat IPC: 1.68677 cumulative IPC: 2.17691 (Simulation time: 0 hr 16 min 12 sec) 
Heartbeat CPU 0 instructions: 33000003 cycles: 15221864 heartbeat IPC: 1.91513 cumulative IPC: 2.16793 (Simulation time: 0 hr 16 min 38 sec) 
Heartbeat CPU 0 instructions: 34000002 cycles: 15622087 heartbeat IPC: 2.4986 cumulative IPC: 2.17641 (Simulation time: 0 hr 17 min 3 sec) 
Heartbeat CPU 0 instructions: 35000003 cycles: 16020331 heartbeat IPC: 2.51103 cumulative IPC: 2.18472 (Simulation time: 0 hr 17 min 29 sec) 
Heartbeat CPU 0 instructions: 36000000 cycles: 16461232 heartbeat IPC: 2.26808 cumulative IPC: 2.18696 (Simulation time: 0 hr 17 min 59 sec) 
Heartbeat CPU 0 instructions: 37000000 cycles: 16852630 heartbeat IPC: 2.55494 cumulative IPC: 2.1955 (Simulation time: 0 hr 18 min 28 sec) 
Heartbeat CPU 0 instructions: 38000000 cycles: 17275042 heartbeat IPC: 2.36736 cumulative IPC: 2.19971 (Simulation time: 0 hr 19 min 2 sec) 
Heartbeat CPU 0 instructions: 39000000 cycles: 17706402 heartbeat IPC: 2.31825 cumulative IPC: 2.20259 (Simulation time: 0 hr 19 min 37 sec) 
Heartbeat CPU 0 instructions: 40000000 cycles: 18128118 heartbeat IPC: 2.37126 cumulative IPC: 2.20652 (Simulation time: 0 hr 20 min 13 sec) 
Heartbeat CPU 0 instructions: 41000001 cycles: 18552651 heartbeat IPC: 2.35553 cumulative IPC: 2.20993 (Simulation time: 0 hr 20 min 47 sec) 
Heartbeat CPU 0 instructions: 42000000 cycles: 18990353 heartbeat IPC: 2.28466 cumulative IPC: 2.21165 (Simulation time: 0 hr 21 min 24 sec) 
Heartbeat CPU 0 instructions: 43000003 cycles: 19423306 heartbeat IPC: 2.30973 cumulative IPC: 2.21384 (Simulation time: 0 hr 22 min 2 sec) 
Heartbeat CPU 0 instructions: 44000000 cycles: 19855284 heartbeat IPC: 2.31493 cumulative IPC: 2.21603 (Simulation time: 0 hr 22 min 39 sec) 
Heartbeat CPU 0 instructions: 45000002 cycles: 20286277 heartbeat IPC: 2.32023 cumulative IPC: 2.21825 (Simulation time: 0 hr 23 min 13 sec) 
Heartbeat CPU 0 instructions: 46000001 cycles: 20717689 heartbeat IPC: 2.31797 cumulative IPC: 2.22032 (Simulation time: 0 hr 23 min 46 sec) 
Heartbeat CPU 0 instructions: 47000003 cycles: 21149049 heartbeat IPC: 2.31825 cumulative IPC: 2.22232 (Simulation time: 0 hr 24 min 21 sec) 
Heartbeat CPU 0 instructions: 48000000 cycles: 21582550 heartbeat IPC: 2.30679 cumulative IPC: 2.22402 (Simulation time: 0 hr 24 min 55 sec) 
Heartbeat CPU 0 instructions: 49000003 cycles: 22020654 heartbeat IPC: 2.28257 cumulative IPC: 2.22518 (Simulation time: 0 hr 25 min 27 sec) 
Heartbeat CPU 0 instructions: 50000003 cycles: 22438454 heartbeat IPC: 2.39349 cumulative IPC: 2.22832 (Simulation time: 0 hr 26 min 1 sec) 

Warmup complete CPU 0 instructions: 50000003 cycles: 22438454 (Simulation time: 0 hr 26 min 1 sec) 

Heartbeat CPU 0 instructions: 51000002 cycles: 23601852 heartbeat IPC: 0.85955 cumulative IPC: 0.85955 (Simulation time: 0 hr 26 min 32 sec) 
Heartbeat CPU 0 instructions: 52000000 cycles: 24720016 heartbeat IPC: 0.894321 cumulative IPC: 0.876591 (Simulation time: 0 hr 27 min 2 sec) 
Heartbeat CPU 0 instructions: 53000001 cycles: 25914979 heartbeat IPC: 0.836847 cumulative IPC: 0.86293 (Simulation time: 0 hr 27 min 36 sec) 
Heartbeat CPU 0 instructions: 54000000 cycles: 27139492 heartbeat IPC: 0.81665 cumulative IPC: 0.850875 (Simulation time: 0 hr 28 min 9 sec) 
Heartbeat CPU 0 instructions: 55000000 cycles: 28291293 heartbeat IPC: 0.868206 cumulative IPC: 0.854286 (Simulation time: 0 hr 28 min 42 sec) 
Heartbeat CPU 0 instructions: 56000000 cycles: 29514910 heartbeat IPC: 0.817249 cumulative IPC: 0.847882 (Simulation time: 0 hr 29 min 14 sec) 
Heartbeat CPU 0 instructions: 57000000 cycles: 30735967 heartbeat IPC: 0.818963 cumulative IPC: 0.843626 (Simulation time: 0 hr 29 min 49 sec) 
Heartbeat CPU 0 instructions: 58000002 cycles: 31766497 heartbeat IPC: 0.970376 cumulative IPC: 0.857629 (Simulation time: 0 hr 30 min 21 sec) 
Heartbeat CPU 0 instructions: 59000000 cycles: 32868182 heartbeat IPC: 0.907699 cumulative IPC: 0.862918 (Simulation time: 0 hr 30 min 55 sec) 
Heartbeat CPU 0 instructions: 60000000 cycles: 34046901 heartbeat IPC: 0.848379 cumulative IPC: 0.861441 (Simulation time: 0 hr 31 min 30 sec) 
Heartbeat CPU 0 instructions: 61000000 cycles: 35191416 heartbeat IPC: 0.873733 cumulative IPC: 0.862544 (Simulation time: 0 hr 32 min 3 sec) 
Heartbeat CPU 0 instructions: 62000002 cycles: 36034868 heartbeat IPC: 1.18561 cumulative IPC: 0.882586 (Simulation time: 0 hr 32 min 39 sec) 
Heartbeat CPU 0 instructions: 63000003 cycles: 36930761 heartbeat IPC: 1.11621 cumulative IPC: 0.897028 (Simulation time: 0 hr 33 min 18 sec) 
Heartbeat CPU 0 instructions: 64000000 cycles: 37979170 heartbeat IPC: 0.953823 cumulative IPC: 0.900859 (Simulation time: 0 hr 34 min 1 sec) 
Heartbeat CPU 0 instructions: 65000003 cycles: 38949391 heartbeat IPC: 1.0307 cumulative IPC: 0.908489 (Simulation time: 0 hr 34 min 44 sec) 
Heartbeat CPU 0 instructions: 66000003 cycles: 39894508 heartbeat IPC: 1.05807 cumulative IPC: 0.916587 (Simulation time: 0 hr 35 min 26 sec) 
Heartbeat CPU 0 instructions: 67000003 cycles: 40933465 heartbeat IPC: 0.962504 cumulative IPC: 0.919167 (Simulation time: 0 hr 36 min 10 sec) 
Heartbeat CPU 0 instructions: 68000000 cycles: 41986984 heartbeat IPC: 0.949197 cumulative IPC: 0.920785 (Simulation time: 0 hr 36 min 51 sec) 
Heartbeat CPU 0 instructions: 69000003 cycles: 43090245 heartbeat IPC: 0.906407 cumulative IPC: 0.920017 (Simulation time: 0 hr 37 min 35 sec) 
Heartbeat CPU 0 instructions: 70000003 cycles: 44351914 heartbeat IPC: 0.792601 cumulative IPC: 0.912681 (Simulation time: 0 hr 38 min 18 sec) 
Heartbeat CPU 0 instructions: 71000000 cycles: 45793562 heartbeat IPC: 0.693649 cumulative IPC: 0.899161 (Simulation time: 0 hr 39 min 0 sec) 
Heartbeat CPU 0 instructions: 72000000 cycles: 46993263 heartbeat IPC: 0.833541 cumulative IPC: 0.895955 (Simulation time: 0 hr 39 min 39 sec) 
Heartbeat CPU 0 instructions: 73000003 cycles: 48290552 heartbeat IPC: 0.770841 cumulative IPC: 0.889676 (Simulation time: 0 hr 40 min 20 sec) 
Heartbeat CPU 0 instructions: 74000001 cycles: 49542267 heartbeat IPC: 0.798902 cumulative IPC: 0.885484 (Simulation time: 0 hr 41 min 2 sec) 
Heartbeat CPU 0 instructions: 75000000 cycles: 50707009 heartbeat IPC: 0.858558 cumulative IPC: 0.884375 (Simulation time: 0 hr 41 min 42 sec) 
Heartbeat CPU 0 instructions: 76000000 cycles: 51811611 heartbeat IPC: 0.905303 cumulative IPC: 0.885162 (Simulation time: 0 hr 42 min 22 sec) 
Heartbeat CPU 0 instructions: 77000003 cycles: 52780049 heartbeat IPC: 1.03259 cumulative IPC: 0.889868 (Simulation time: 0 hr 43 min 0 sec) 
Heartbeat CPU 0 instructions: 78000000 cycles: 53736880 heartbeat IPC: 1.04511 cumulative IPC: 0.894614 (Simulation time: 0 hr 43 min 35 sec) 
Heartbeat CPU 0 instructions: 79000003 cycles: 54790185 heartbeat IPC: 0.949395 cumulative IPC: 0.896397 (Simulation time: 0 hr 44 min 9 sec) 
Heartbeat CPU 0 instructions: 80000000 cycles: 56015764 heartbeat IPC: 0.815938 cumulative IPC: 0.89346 (Simulation time: 0 hr 44 min 45 sec) 
Heartbeat CPU 0 instructions: 81000001 cycles: 57195091 heartbeat IPC: 0.847942 cumulative IPC: 0.891916 (Simulation time: 0 hr 45 min 22 sec) 
Heartbeat CPU 0 instructions: 82000000 cycles: 58325897 heartbeat IPC: 0.884324 cumulative IPC: 0.891677 (Simulation time: 0 hr 45 min 59 sec) 
Heartbeat CPU 0 instructions: 83000002 cycles: 59386792 heartbeat IPC: 0.942602 cumulative IPC: 0.893139 (Simulation time: 0 hr 46 min 34 sec) 
Heartbeat CPU 0 instructions: 84000000 cycles: 60333314 heartbeat IPC: 1.0565 cumulative IPC: 0.897219 (Simulation time: 0 hr 47 min 8 sec) 
Heartbeat CPU 0 instructions: 85000003 cycles: 61280585 heartbeat IPC: 1.05567 cumulative IPC: 0.901083 (Simulation time: 0 hr 47 min 42 sec) 
Heartbeat CPU 0 instructions: 86000003 cycles: 62324324 heartbeat IPC: 0.958094 cumulative IPC: 0.902575 (Simulation time: 0 hr 48 min 13 sec) 
Heartbeat CPU 0 instructions: 87000002 cycles: 63397978 heartbeat IPC: 0.931398 cumulative IPC: 0.903331 (Simulation time: 0 hr 48 min 48 sec) 
Heartbeat CPU 0 instructions: 88000000 cycles: 64499317 heartbeat IPC: 0.907984 cumulative IPC: 0.903453 (Simulation time: 0 hr 49 min 18 sec) 
Heartbeat CPU 0 instructions: 89000002 cycles: 65505689 heartbeat IPC: 0.99367 cumulative IPC: 0.905561 (Simulation time: 0 hr 49 min 47 sec) 
Heartbeat CPU 0 instructions: 90000001 cycles: 66628750 heartbeat IPC: 0.890423 cumulative IPC: 0.905176 (Simulation time: 0 hr 50 min 19 sec) 
Heartbeat CPU 0 instructions: 91000002 cycles: 67741799 heartbeat IPC: 0.898434 cumulative IPC: 0.90501 (Simulation time: 0 hr 50 min 47 sec) 
Heartbeat CPU 0 instructions: 92000000 cycles: 68780686 heartbeat IPC: 0.962567 cumulative IPC: 0.906301 (Simulation time: 0 hr 51 min 17 sec) 
Heartbeat CPU 0 instructions: 93000000 cycles: 69968824 heartbeat IPC: 0.841653 cumulative IPC: 0.904685 (Simulation time: 0 hr 51 min 47 sec) 
Heartbeat CPU 0 instructions: 94000003 cycles: 71145019 heartbeat IPC: 0.850202 cumulative IPC: 0.903369 (Simulation time: 0 hr 52 min 19 sec) 
Heartbeat CPU 0 instructions: 95000002 cycles: 72330082 heartbeat IPC: 0.843836 cumulative IPC: 0.901955 (Simulation time: 0 hr 52 min 51 sec) 
Heartbeat CPU 0 instructions: 96000000 cycles: 73499064 heartbeat IPC: 0.855443 cumulative IPC: 0.90089 (Simulation time: 0 hr 53 min 24 sec) 
Heartbeat CPU 0 instructions: 97000002 cycles: 74716172 heartbeat IPC: 0.821621 cumulative IPC: 0.899045 (Simulation time: 0 hr 53 min 56 sec) 
Heartbeat CPU 0 instructions: 98000000 cycles: 75948085 heartbeat IPC: 0.811744 cumulative IPC: 0.897035 (Simulation time: 0 hr 54 min 28 sec) 
Heartbeat CPU 0 instructions: 99000000 cycles: 77187431 heartbeat IPC: 0.806877 cumulative IPC: 0.894994 (Simulation time: 0 hr 54 min 59 sec) 
Heartbeat CPU 0 instructions: 100000000 cycles: 78429492 heartbeat IPC: 0.805113 cumulative IPC: 0.893 (Simulation time: 0 hr 55 min 30 sec) 
Heartbeat CPU 0 instructions: 101000003 cycles: 79577387 heartbeat IPC: 0.871162 cumulative IPC: 0.892561 (Simulation time: 0 hr 56 min 1 sec) 
Heartbeat CPU 0 instructions: 102000000 cycles: 80696416 heartbeat IPC: 0.893629 cumulative IPC: 0.892582 (Simulation time: 0 hr 56 min 32 sec) 
Heartbeat CPU 0 instructions: 103000000 cycles: 81797770 heartbeat IPC: 0.907973 cumulative IPC: 0.892867 (Simulation time: 0 hr 57 min 4 sec) 
Heartbeat CPU 0 instructions: 104000000 cycles: 82950579 heartbeat IPC: 0.867446 cumulative IPC: 0.892383 (Simulation time: 0 hr 57 min 36 sec) 
Heartbeat CPU 0 instructions: 105000002 cycles: 84162192 heartbeat IPC: 0.825348 cumulative IPC: 0.891067 (Simulation time: 0 hr 58 min 8 sec) 
Heartbeat CPU 0 instructions: 106000001 cycles: 85295752 heartbeat IPC: 0.882176 cumulative IPC: 0.890907 (Simulation time: 0 hr 58 min 39 sec) 
Heartbeat CPU 0 instructions: 107000000 cycles: 86499043 heartbeat IPC: 0.831053 cumulative IPC: 0.889783 (Simulation time: 0 hr 59 min 9 sec) 
Heartbeat CPU 0 instructions: 108000000 cycles: 87697594 heartbeat IPC: 0.834341 cumulative IPC: 0.888764 (Simulation time: 0 hr 59 min 42 sec) 
Heartbeat CPU 0 instructions: 109000000 cycles: 88709943 heartbeat IPC: 0.987802 cumulative IPC: 0.890277 (Simulation time: 1 hr 0 min 13 sec) 
Heartbeat CPU 0 instructions: 110000000 cycles: 89870537 heartbeat IPC: 0.861628 cumulative IPC: 0.889784 (Simulation time: 1 hr 0 min 44 sec) 
Heartbeat CPU 0 instructions: 111000002 cycles: 90995593 heartbeat IPC: 0.888846 cumulative IPC: 0.889769 (Simulation time: 1 hr 1 min 14 sec) 
Heartbeat CPU 0 instructions: 112000000 cycles: 92141858 heartbeat IPC: 0.872397 cumulative IPC: 0.889483 (Simulation time: 1 hr 1 min 46 sec) 
Heartbeat CPU 0 instructions: 113000003 cycles: 93072374 heartbeat IPC: 1.07468 cumulative IPC: 0.891923 (Simulation time: 1 hr 2 min 17 sec) 
Heartbeat CPU 0 instructions: 114000001 cycles: 93812302 heartbeat IPC: 1.35148 cumulative IPC: 0.896687 (Simulation time: 1 hr 2 min 50 sec) 
Heartbeat CPU 0 instructions: 115000000 cycles: 94884371 heartbeat IPC: 0.932775 cumulative IPC: 0.897221 (Simulation time: 1 hr 3 min 34 sec) 
Heartbeat CPU 0 instructions: 116000000 cycles: 95812412 heartbeat IPC: 1.07754 cumulative IPC: 0.899502 (Simulation time: 1 hr 4 min 17 sec) 
Heartbeat CPU 0 instructions: 117000003 cycles: 96740455 heartbeat IPC: 1.07754 cumulative IPC: 0.901725 (Simulation time: 1 hr 4 min 55 sec) 
Heartbeat CPU 0 instructions: 118000001 cycles: 97666591 heartbeat IPC: 1.07975 cumulative IPC: 0.903917 (Simulation time: 1 hr 5 min 33 sec) 
Heartbeat CPU 0 instructions: 119000001 cycles: 98691929 heartbeat IPC: 0.975288 cumulative IPC: 0.904877 (Simulation time: 1 hr 6 min 16 sec) 
Heartbeat CPU 0 instructions: 120000000 cycles: 99798752 heartbeat IPC: 0.903486 cumulative IPC: 0.904857 (Simulation time: 1 hr 6 min 58 sec) 
Heartbeat CPU 0 instructions: 121000002 cycles: 100924800 heartbeat IPC: 0.888063 cumulative IPC: 0.904616 (Simulation time: 1 hr 7 min 41 sec) 
Heartbeat CPU 0 instructions: 122000000 cycles: 102430722 heartbeat IPC: 0.664044 cumulative IPC: 0.900087 (Simulation time: 1 hr 8 min 23 sec) 
Heartbeat CPU 0 instructions: 123000000 cycles: 103836387 heartbeat IPC: 0.711407 cumulative IPC: 0.896829 (Simulation time: 1 hr 9 min 3 sec) 
Heartbeat CPU 0 instructions: 124000000 cycles: 105139381 heartbeat IPC: 0.767463 cumulative IPC: 0.89479 (Simulation time: 1 hr 9 min 43 sec) 
Heartbeat CPU 0 instructions: 125000001 cycles: 106330939 heartbeat IPC: 0.839238 cumulative IPC: 0.894001 (Simulation time: 1 hr 10 min 21 sec) 
Heartbeat CPU 0 instructions: 126000002 cycles: 107328479 heartbeat IPC: 1.00247 cumulative IPC: 0.895276 (Simulation time: 1 hr 10 min 56 sec) 
Heartbeat CPU 0 instructions: 127000001 cycles: 108332773 heartbeat IPC: 0.995723 cumulative IPC: 0.89645 (Simulation time: 1 hr 11 min 32 sec) 
Heartbeat CPU 0 instructions: 128000000 cycles: 109453661 heartbeat IPC: 0.892149 cumulative IPC: 0.896395 (Simulation time: 1 hr 12 min 8 sec) 
Heartbeat CPU 0 instructions: 129000001 cycles: 110607199 heartbeat IPC: 0.866899 cumulative IPC: 0.896009 (Simulation time: 1 hr 12 min 47 sec) 
Heartbeat CPU 0 instructions: 130000001 cycles: 111916153 heartbeat IPC: 0.763969 cumulative IPC: 0.894077 (Simulation time: 1 hr 13 min 27 sec) 
Heartbeat CPU 0 instructions: 131000003 cycles: 113183694 heartbeat IPC: 0.788931 cumulative IPC: 0.892609 (Simulation time: 1 hr 14 min 6 sec) 
Heartbeat CPU 0 instructions: 132000000 cycles: 114215281 heartbeat IPC: 0.969377 cumulative IPC: 0.893472 (Simulation time: 1 hr 14 min 41 sec) 
Heartbeat CPU 0 instructions: 133000001 cycles: 115185492 heartbeat IPC: 1.0307 cumulative IPC: 0.894907 (Simulation time: 1 hr 15 min 18 sec) 
Heartbeat CPU 0 instructions: 134000002 cycles: 116128987 heartbeat IPC: 1.05989 cumulative IPC: 0.896569 (Simulation time: 1 hr 15 min 53 sec) 
Heartbeat CPU 0 instructions: 135000000 cycles: 117099677 heartbeat IPC: 1.03019 cumulative IPC: 0.897939 (Simulation time: 1 hr 16 min 26 sec) 
Heartbeat CPU 0 instructions: 136000000 cycles: 118006596 heartbeat IPC: 1.10263 cumulative IPC: 0.899881 (Simulation time: 1 hr 16 min 58 sec) 
Heartbeat CPU 0 instructions: 137000000 cycles: 118914006 heartbeat IPC: 1.10204 cumulative IPC: 0.901783 (Simulation time: 1 hr 17 min 28 sec) 
Heartbeat CPU 0 instructions: 138000003 cycles: 119816380 heartbeat IPC: 1.10819 cumulative IPC: 0.903696 (Simulation time: 1 hr 18 min 0 sec) 
Heartbeat CPU 0 instructions: 139000001 cycles: 120868431 heartbeat IPC: 0.950522 cumulative IPC: 0.904196 (Simulation time: 1 hr 18 min 31 sec) 
Heartbeat CPU 0 instructions: 140000000 cycles: 121891462 heartbeat IPC: 0.977486 cumulative IPC: 0.90495 (Simulation time: 1 hr 19 min 0 sec) 
Heartbeat CPU 0 instructions: 141000000 cycles: 122965006 heartbeat IPC: 0.931494 cumulative IPC: 0.905233 (Simulation time: 1 hr 19 min 29 sec) 
Heartbeat CPU 0 instructions: 142000000 cycles: 123883234 heartbeat IPC: 1.08905 cumulative IPC: 0.906897 (Simulation time: 1 hr 19 min 59 sec) 
Heartbeat CPU 0 instructions: 143000001 cycles: 124677752 heartbeat IPC: 1.25863 cumulative IPC: 0.909631 (Simulation time: 1 hr 20 min 31 sec) 
Heartbeat CPU 0 instructions: 144000000 cycles: 125501150 heartbeat IPC: 1.21448 cumulative IPC: 0.912066 (Simulation time: 1 hr 21 min 2 sec) 
Heartbeat CPU 0 instructions: 145000001 cycles: 126498122 heartbeat IPC: 1.00304 cumulative IPC: 0.912938 (Simulation time: 1 hr 21 min 30 sec) 
Heartbeat CPU 0 instructions: 146000000 cycles: 127451390 heartbeat IPC: 1.04902 cumulative IPC: 0.914173 (Simulation time: 1 hr 21 min 58 sec) 
Heartbeat CPU 0 instructions: 147000001 cycles: 128456116 heartbeat IPC: 0.995297 cumulative IPC: 0.914942 (Simulation time: 1 hr 22 min 27 sec) 
Heartbeat CPU 0 instructions: 148000000 cycles: 129433875 heartbeat IPC: 1.02275 cumulative IPC: 0.915927 (Simulation time: 1 hr 22 min 56 sec) 
Heartbeat CPU 0 instructions: 149000003 cycles: 130426845 heartbeat IPC: 1.00708 cumulative IPC: 0.916765 (Simulation time: 1 hr 23 min 24 sec) 
Heartbeat CPU 0 instructions: 150000003 cycles: 131439278 heartbeat IPC: 0.98772 cumulative IPC: 0.917424 (Simulation time: 1 hr 23 min 54 sec) 
Finished CPU 0 instructions: 100000000 cycles: 109000824 cummulative IPC: 0.917424 (Simulation time: 1 hr 23 min 54 sec) 

ChampSim completed all CPUs

Region of Interest Statistics

CPU 0 cummulative IPC: 0.917424 instructions: 100000000 cycles: 109000824
LLC TOTAL     ACCESS:    1666332  HIT:    1289310  MISS:     377022
LLC LOAD      ACCESS:     531440  HIT:     461345  MISS:      70095
LLC RFO       ACCESS:     108420  HIT:      49683  MISS:      58737
LLC PREFETCH  ACCESS:     824373  HIT:     644833  MISS:     179540
LLC WRITEBACK ACCESS:     202099  HIT:     133449  MISS:      68650
