
*** ChampSim Multicore Out-of-Order Simulator ***

Warmup Instructions: 50000000
Simulation Instructions: 100000000
Configuration: 2
Number of CPUs: 1
LLC sets: 2048
LLC ways: 16
Off-chip DRAM Channels: 1 Width: 64-bit Data Rate: 1600 MT/s

CPU 0 runs /datasets/cs240c-wi22-a00-public/data/Assignment2-gz/mcf_46B.trace.gz
CPU 0 L1D next line prefetcher
CPU 0 L2C IP-based stride prefetcher
Heartbeat CPU 0 instructions: 1000002 cycles: 492207 heartbeat IPC: 2.03167 cumulative IPC: 2.03167 (Simulation time: 0 hr 0 min 49 sec) 
Heartbeat CPU 0 instructions: 2000002 cycles: 987416 heartbeat IPC: 2.01935 cumulative IPC: 2.02549 (Simulation time: 0 hr 1 min 44 sec) 
Heartbeat CPU 0 instructions: 3000003 cycles: 1516226 heartbeat IPC: 1.89104 cumulative IPC: 1.9786 (Simulation time: 0 hr 2 min 37 sec) 
Heartbeat CPU 0 instructions: 4000000 cycles: 2040797 heartbeat IPC: 1.90631 cumulative IPC: 1.96002 (Simulation time: 0 hr 3 min 31 sec) 
Heartbeat CPU 0 instructions: 5000000 cycles: 2534566 heartbeat IPC: 2.02524 cumulative IPC: 1.97272 (Simulation time: 0 hr 4 min 19 sec) 
Heartbeat CPU 0 instructions: 6000002 cycles: 3037599 heartbeat IPC: 1.98795 cumulative IPC: 1.97524 (Simulation time: 0 hr 5 min 8 sec) 
Heartbeat CPU 0 instructions: 7000001 cycles: 3580023 heartbeat IPC: 1.84357 cumulative IPC: 1.95529 (Simulation time: 0 hr 6 min 1 sec) 
Heartbeat CPU 0 instructions: 8000000 cycles: 4070294 heartbeat IPC: 2.03969 cumulative IPC: 1.96546 (Simulation time: 0 hr 6 min 52 sec) 
Heartbeat CPU 0 instructions: 9000001 cycles: 4553642 heartbeat IPC: 2.0689 cumulative IPC: 1.97644 (Simulation time: 0 hr 7 min 40 sec) 
Heartbeat CPU 0 instructions: 10000001 cycles: 5088878 heartbeat IPC: 1.86833 cumulative IPC: 1.96507 (Simulation time: 0 hr 8 min 30 sec) 
Heartbeat CPU 0 instructions: 11000002 cycles: 5637381 heartbeat IPC: 1.82315 cumulative IPC: 1.95126 (Simulation time: 0 hr 9 min 21 sec) 
Heartbeat CPU 0 instructions: 12000000 cycles: 6116013 heartbeat IPC: 2.08928 cumulative IPC: 1.96206 (Simulation time: 0 hr 10 min 9 sec) 
Heartbeat CPU 0 instructions: 13000000 cycles: 6610857 heartbeat IPC: 2.02084 cumulative IPC: 1.96646 (Simulation time: 0 hr 10 min 59 sec) 
Heartbeat CPU 0 instructions: 14000003 cycles: 7155937 heartbeat IPC: 1.8346 cumulative IPC: 1.95642 (Simulation time: 0 hr 11 min 50 sec) 
Heartbeat CPU 0 instructions: 15000000 cycles: 7632693 heartbeat IPC: 2.0975 cumulative IPC: 1.96523 (Simulation time: 0 hr 12 min 37 sec) 
Heartbeat CPU 0 instructions: 16000000 cycles: 8109618 heartbeat IPC: 2.09677 cumulative IPC: 1.97297 (Simulation time: 0 hr 13 min 22 sec) 
Heartbeat CPU 0 instructions: 17000002 cycles: 8652981 heartbeat IPC: 1.84039 cumulative IPC: 1.96464 (Simulation time: 0 hr 14 min 14 sec) 
Heartbeat CPU 0 instructions: 18000000 cycles: 9139754 heartbeat IPC: 2.05434 cumulative IPC: 1.96942 (Simulation time: 0 hr 15 min 2 sec) 
Heartbeat CPU 0 instructions: 19000002 cycles: 9627180 heartbeat IPC: 2.0516 cumulative IPC: 1.97358 (Simulation time: 0 hr 15 min 50 sec) 
Heartbeat CPU 0 instructions: 20000000 cycles: 10206473 heartbeat IPC: 1.72624 cumulative IPC: 1.95954 (Simulation time: 0 hr 16 min 42 sec) 
Heartbeat CPU 0 instructions: 21000001 cycles: 10752557 heartbeat IPC: 1.83122 cumulative IPC: 1.95302 (Simulation time: 0 hr 17 min 34 sec) 
Heartbeat CPU 0 instructions: 22000002 cycles: 11231072 heartbeat IPC: 2.0898 cumulative IPC: 1.95885 (Simulation time: 0 hr 18 min 23 sec) 
Heartbeat CPU 0 instructions: 23000001 cycles: 11710787 heartbeat IPC: 2.08457 cumulative IPC: 1.964 (Simulation time: 0 hr 19 min 13 sec) 
Heartbeat CPU 0 instructions: 24000000 cycles: 12241795 heartbeat IPC: 1.88321 cumulative IPC: 1.9605 (Simulation time: 0 hr 20 min 5 sec) 
Heartbeat CPU 0 instructions: 25000002 cycles: 12742528 heartbeat IPC: 1.99708 cumulative IPC: 1.96193 (Simulation time: 0 hr 20 min 55 sec) 
Heartbeat CPU 0 instructions: 26000000 cycles: 13223251 heartbeat IPC: 2.0802 cumulative IPC: 1.96623 (Simulation time: 0 hr 21 min 42 sec) 
Heartbeat CPU 0 instructions: 27000002 cycles: 13734171 heartbeat IPC: 1.95726 cumulative IPC: 1.9659 (Simulation time: 0 hr 22 min 33 sec) 
Heartbeat CPU 0 instructions: 28000000 cycles: 14252100 heartbeat IPC: 1.93076 cumulative IPC: 1.96462 (Simulation time: 0 hr 23 min 22 sec) 
Heartbeat CPU 0 instructions: 29000001 cycles: 14730278 heartbeat IPC: 2.09127 cumulative IPC: 1.96873 (Simulation time: 0 hr 24 min 7 sec) 
Heartbeat CPU 0 instructions: 30000000 cycles: 15225788 heartbeat IPC: 2.01812 cumulative IPC: 1.97034 (Simulation time: 0 hr 24 min 52 sec) 
Heartbeat CPU 0 instructions: 31000002 cycles: 15759591 heartbeat IPC: 1.87335 cumulative IPC: 1.96706 (Simulation time: 0 hr 25 min 42 sec) 
Heartbeat CPU 0 instructions: 32000000 cycles: 16238645 heartbeat IPC: 2.08744 cumulative IPC: 1.97061 (Simulation time: 0 hr 26 min 31 sec) 
Heartbeat CPU 0 instructions: 33000000 cycles: 16741704 heartbeat IPC: 1.98784 cumulative IPC: 1.97113 (Simulation time: 0 hr 27 min 20 sec) 
Heartbeat CPU 0 instructions: 34000000 cycles: 17282599 heartbeat IPC: 1.84879 cumulative IPC: 1.9673 (Simulation time: 0 hr 28 min 10 sec) 
Heartbeat CPU 0 instructions: 35000001 cycles: 17771784 heartbeat IPC: 2.04422 cumulative IPC: 1.96941 (Simulation time: 0 hr 28 min 58 sec) 
Heartbeat CPU 0 instructions: 36000000 cycles: 18276984 heartbeat IPC: 1.97941 cumulative IPC: 1.96969 (Simulation time: 0 hr 29 min 48 sec) 
Heartbeat CPU 0 instructions: 37000002 cycles: 18791324 heartbeat IPC: 1.94424 cumulative IPC: 1.96899 (Simulation time: 0 hr 30 min 38 sec) 
Heartbeat CPU 0 instructions: 38000001 cycles: 19306337 heartbeat IPC: 1.9417 cumulative IPC: 1.96827 (Simulation time: 0 hr 31 min 27 sec) 
Heartbeat CPU 0 instructions: 39000000 cycles: 19783244 heartbeat IPC: 2.09684 cumulative IPC: 1.97137 (Simulation time: 0 hr 32 min 14 sec) 
Heartbeat CPU 0 instructions: 40000000 cycles: 20271114 heartbeat IPC: 2.04973 cumulative IPC: 1.97325 (Simulation time: 0 hr 33 min 0 sec) 
Heartbeat CPU 0 instructions: 41000000 cycles: 20810783 heartbeat IPC: 1.85299 cumulative IPC: 1.97013 (Simulation time: 0 hr 33 min 49 sec) 
Heartbeat CPU 0 instructions: 42000001 cycles: 21293904 heartbeat IPC: 2.06988 cumulative IPC: 1.9724 (Simulation time: 0 hr 34 min 35 sec) 
Heartbeat CPU 0 instructions: 43000000 cycles: 21771334 heartbeat IPC: 2.09455 cumulative IPC: 1.97507 (Simulation time: 0 hr 35 min 24 sec) 
Heartbeat CPU 0 instructions: 44000000 cycles: 22302586 heartbeat IPC: 1.88235 cumulative IPC: 1.97287 (Simulation time: 0 hr 36 min 13 sec) 
Heartbeat CPU 0 instructions: 45000001 cycles: 22797386 heartbeat IPC: 2.02102 cumulative IPC: 1.97391 (Simulation time: 0 hr 37 min 1 sec) 
Heartbeat CPU 0 instructions: 46000001 cycles: 23277093 heartbeat IPC: 2.08461 cumulative IPC: 1.97619 (Simulation time: 0 hr 37 min 50 sec) 
Heartbeat CPU 0 instructions: 47000002 cycles: 23787309 heartbeat IPC: 1.95996 cumulative IPC: 1.97584 (Simulation time: 0 hr 38 min 38 sec) 
Heartbeat CPU 0 instructions: 48000000 cycles: 24307745 heartbeat IPC: 1.92146 cumulative IPC: 1.97468 (Simulation time: 0 hr 39 min 26 sec) 
Heartbeat CPU 0 instructions: 49000000 cycles: 24790519 heartbeat IPC: 2.07136 cumulative IPC: 1.97656 (Simulation time: 0 hr 40 min 13 sec) 
Heartbeat CPU 0 instructions: 50000000 cycles: 25280527 heartbeat IPC: 2.04078 cumulative IPC: 1.97781 (Simulation time: 0 hr 40 min 59 sec) 

Warmup complete CPU 0 instructions: 50000004 cycles: 25280528 (Simulation time: 0 hr 40 min 59 sec) 

Heartbeat CPU 0 instructions: 51000001 cycles: 39527812 heartbeat IPC: 0.0701889 cumulative IPC: 0.0701886 (Simulation time: 0 hr 42 min 35 sec) 
Heartbeat CPU 0 instructions: 52000000 cycles: 44666274 heartbeat IPC: 0.194611 cumulative IPC: 0.103168 (Simulation time: 0 hr 43 min 42 sec) 
Heartbeat CPU 0 instructions: 53000000 cycles: 49394420 heartbeat IPC: 0.211499 cumulative IPC: 0.124409 (Simulation time: 0 hr 44 min 46 sec) 
Heartbeat CPU 0 instructions: 54000002 cycles: 64709633 heartbeat IPC: 0.0652947 cumulative IPC: 0.101448 (Simulation time: 0 hr 46 min 24 sec) 
Heartbeat CPU 0 instructions: 55000002 cycles: 70312321 heartbeat IPC: 0.178486 cumulative IPC: 0.111033 (Simulation time: 0 hr 47 min 31 sec) 
Heartbeat CPU 0 instructions: 56000000 cycles: 75153743 heartbeat IPC: 0.20655 cumulative IPC: 0.120305 (Simulation time: 0 hr 48 min 33 sec) 
Heartbeat CPU 0 instructions: 57000000 cycles: 88351380 heartbeat IPC: 0.0757711 cumulative IPC: 0.110986 (Simulation time: 0 hr 50 min 2 sec) 
Heartbeat CPU 0 instructions: 58000000 cycles: 96081057 heartbeat IPC: 0.129372 cumulative IPC: 0.112993 (Simulation time: 0 hr 51 min 19 sec) 
Heartbeat CPU 0 instructions: 59000002 cycles: 100833886 heartbeat IPC: 0.210401 cumulative IPC: 0.119121 (Simulation time: 0 hr 52 min 18 sec) 
Heartbeat CPU 0 instructions: 60000000 cycles: 112301635 heartbeat IPC: 0.0872009 cumulative IPC: 0.114915 (Simulation time: 0 hr 53 min 42 sec) 
Heartbeat CPU 0 instructions: 61000002 cycles: 121858329 heartbeat IPC: 0.104639 cumulative IPC: 0.113898 (Simulation time: 0 hr 54 min 53 sec) 
Heartbeat CPU 0 instructions: 62000001 cycles: 126643406 heartbeat IPC: 0.208983 cumulative IPC: 0.118387 (Simulation time: 0 hr 55 min 50 sec) 
Heartbeat CPU 0 instructions: 63000001 cycles: 136628065 heartbeat IPC: 0.100154 cumulative IPC: 0.116752 (Simulation time: 0 hr 57 min 4 sec) 
Heartbeat CPU 0 instructions: 64000000 cycles: 147841366 heartbeat IPC: 0.0891797 cumulative IPC: 0.114229 (Simulation time: 0 hr 58 min 23 sec) 
Heartbeat CPU 0 instructions: 65000000 cycles: 153382171 heartbeat IPC: 0.180479 cumulative IPC: 0.117094 (Simulation time: 0 hr 59 min 26 sec) 
Heartbeat CPU 0 instructions: 66000000 cycles: 159866623 heartbeat IPC: 0.154215 cumulative IPC: 0.118883 (Simulation time: 1 hr 0 min 32 sec) 
Heartbeat CPU 0 instructions: 67000002 cycles: 175287959 heartbeat IPC: 0.0648454 cumulative IPC: 0.113328 (Simulation time: 1 hr 2 min 10 sec) 
Heartbeat CPU 0 instructions: 68000000 cycles: 180243844 heartbeat IPC: 0.20178 cumulative IPC: 0.116156 (Simulation time: 1 hr 3 min 11 sec) 
Heartbeat CPU 0 instructions: 69000000 cycles: 184840681 heartbeat IPC: 0.217541 cumulative IPC: 0.119077 (Simulation time: 1 hr 4 min 10 sec) 
Heartbeat CPU 0 instructions: 70000001 cycles: 198746126 heartbeat IPC: 0.0719143 cumulative IPC: 0.115297 (Simulation time: 1 hr 5 min 37 sec) 
Heartbeat CPU 0 instructions: 71000002 cycles: 207303267 heartbeat IPC: 0.116862 cumulative IPC: 0.11537 (Simulation time: 1 hr 6 min 50 sec) 
Heartbeat CPU 0 instructions: 72000000 cycles: 212477986 heartbeat IPC: 0.193247 cumulative IPC: 0.117523 (Simulation time: 1 hr 7 min 47 sec) 
Heartbeat CPU 0 instructions: 73000002 cycles: 221585023 heartbeat IPC: 0.109805 cumulative IPC: 0.117165 (Simulation time: 1 hr 9 min 0 sec) 
Heartbeat CPU 0 instructions: 74000001 cycles: 233349545 heartbeat IPC: 0.0850012 cumulative IPC: 0.115346 (Simulation time: 1 hr 10 min 23 sec) 
Heartbeat CPU 0 instructions: 75000001 cycles: 238345894 heartbeat IPC: 0.200146 cumulative IPC: 0.117335 (Simulation time: 1 hr 11 min 24 sec) 
Heartbeat CPU 0 instructions: 76000000 cycles: 244710293 heartbeat IPC: 0.157124 cumulative IPC: 0.118489 (Simulation time: 1 hr 12 min 28 sec) 
Heartbeat CPU 0 instructions: 77000001 cycles: 260221835 heartbeat IPC: 0.0644682 cumulative IPC: 0.114922 (Simulation time: 1 hr 14 min 1 sec) 
Heartbeat CPU 0 instructions: 78000002 cycles: 265485871 heartbeat IPC: 0.189968 cumulative IPC: 0.116567 (Simulation time: 1 hr 15 min 5 sec) 
Heartbeat CPU 0 instructions: 79000001 cycles: 270277879 heartbeat IPC: 0.208681 cumulative IPC: 0.118369 (Simulation time: 1 hr 16 min 7 sec) 
Heartbeat CPU 0 instructions: 80000000 cycles: 283180873 heartbeat IPC: 0.0775013 cumulative IPC: 0.116324 (Simulation time: 1 hr 17 min 32 sec) 
Heartbeat CPU 0 instructions: 81000000 cycles: 290859999 heartbeat IPC: 0.130223 cumulative IPC: 0.116726 (Simulation time: 1 hr 18 min 42 sec) 
Heartbeat CPU 0 instructions: 82000000 cycles: 296112263 heartbeat IPC: 0.190394 cumulative IPC: 0.118155 (Simulation time: 1 hr 19 min 41 sec) 
Heartbeat CPU 0 instructions: 83000001 cycles: 305749993 heartbeat IPC: 0.103759 cumulative IPC: 0.11766 (Simulation time: 1 hr 20 min 53 sec) 
Heartbeat CPU 0 instructions: 84000000 cycles: 317091620 heartbeat IPC: 0.0881707 cumulative IPC: 0.116514 (Simulation time: 1 hr 22 min 5 sec) 
Heartbeat CPU 0 instructions: 85000001 cycles: 321955595 heartbeat IPC: 0.205593 cumulative IPC: 0.117974 (Simulation time: 1 hr 23 min 0 sec) 
Heartbeat CPU 0 instructions: 86000000 cycles: 330059522 heartbeat IPC: 0.123397 cumulative IPC: 0.118118 (Simulation time: 1 hr 24 min 0 sec) 
Heartbeat CPU 0 instructions: 87000000 cycles: 344322431 heartbeat IPC: 0.0701119 cumulative IPC: 0.115972 (Simulation time: 1 hr 25 min 15 sec) 
Heartbeat CPU 0 instructions: 88000000 cycles: 350939168 heartbeat IPC: 0.151132 cumulative IPC: 0.116687 (Simulation time: 1 hr 26 min 6 sec) 
Heartbeat CPU 0 instructions: 89000000 cycles: 355762460 heartbeat IPC: 0.207327 cumulative IPC: 0.118009 (Simulation time: 1 hr 26 min 48 sec) 
Heartbeat CPU 0 instructions: 90000003 cycles: 367544777 heartbeat IPC: 0.0848732 cumulative IPC: 0.116869 (Simulation time: 1 hr 27 min 43 sec) 
Heartbeat CPU 0 instructions: 91000000 cycles: 376702035 heartbeat IPC: 0.109203 cumulative IPC: 0.116669 (Simulation time: 1 hr 28 min 30 sec) 
Heartbeat CPU 0 instructions: 92000000 cycles: 381433751 heartbeat IPC: 0.21134 cumulative IPC: 0.117927 (Simulation time: 1 hr 29 min 7 sec) 
Heartbeat CPU 0 instructions: 93000002 cycles: 390502262 heartbeat IPC: 0.110272 cumulative IPC: 0.117737 (Simulation time: 1 hr 29 min 50 sec) 
Heartbeat CPU 0 instructions: 94000002 cycles: 401893218 heartbeat IPC: 0.0877889 cumulative IPC: 0.116831 (Simulation time: 1 hr 30 min 39 sec) 
Heartbeat CPU 0 instructions: 95000001 cycles: 408030545 heartbeat IPC: 0.162937 cumulative IPC: 0.11757 (Simulation time: 1 hr 31 min 17 sec) 
Heartbeat CPU 0 instructions: 96000000 cycles: 413979256 heartbeat IPC: 0.168103 cumulative IPC: 0.118344 (Simulation time: 1 hr 31 min 57 sec) 
Heartbeat CPU 0 instructions: 97000000 cycles: 428588037 heartbeat IPC: 0.068452 cumulative IPC: 0.116536 (Simulation time: 1 hr 32 min 47 sec) 
Heartbeat CPU 0 instructions: 98000002 cycles: 433555630 heartbeat IPC: 0.201305 cumulative IPC: 0.117568 (Simulation time: 1 hr 33 min 22 sec) 
Heartbeat CPU 0 instructions: 99000002 cycles: 438662806 heartbeat IPC: 0.195803 cumulative IPC: 0.118534 (Simulation time: 1 hr 33 min 57 sec) 
Heartbeat CPU 0 instructions: 100000000 cycles: 452372356 heartbeat IPC: 0.0729417 cumulative IPC: 0.117071 (Simulation time: 1 hr 34 min 44 sec) 
Heartbeat CPU 0 instructions: 101000000 cycles: 459442563 heartbeat IPC: 0.141439 cumulative IPC: 0.117468 (Simulation time: 1 hr 35 min 18 sec) 
Heartbeat CPU 0 instructions: 102000003 cycles: 464205715 heartbeat IPC: 0.209946 cumulative IPC: 0.118471 (Simulation time: 1 hr 35 min 47 sec) 
Heartbeat CPU 0 instructions: 103000003 cycles: 476057091 heartbeat IPC: 0.0843784 cumulative IPC: 0.117575 (Simulation time: 1 hr 36 min 26 sec) 
Heartbeat CPU 0 instructions: 104000000 cycles: 487835640 heartbeat IPC: 0.0848998 cumulative IPC: 0.116743 (Simulation time: 1 hr 37 min 2 sec) 
Heartbeat CPU 0 instructions: 105000000 cycles: 493244436 heartbeat IPC: 0.184884 cumulative IPC: 0.11753 (Simulation time: 1 hr 37 min 28 sec) 
Heartbeat CPU 0 instructions: 106000000 cycles: 498058096 heartbeat IPC: 0.207742 cumulative IPC: 0.118449 (Simulation time: 1 hr 37 min 54 sec) 
Heartbeat CPU 0 instructions: 107000002 cycles: 512963592 heartbeat IPC: 0.0670895 cumulative IPC: 0.116879 (Simulation time: 1 hr 38 min 31 sec) 
Heartbeat CPU 0 instructions: 108000000 cycles: 518696937 heartbeat IPC: 0.174418 cumulative IPC: 0.117548 (Simulation time: 1 hr 38 min 55 sec) 
Heartbeat CPU 0 instructions: 109000001 cycles: 523614659 heartbeat IPC: 0.203346 cumulative IPC: 0.118394 (Simulation time: 1 hr 39 min 18 sec) 
Heartbeat CPU 0 instructions: 110000002 cycles: 533438447 heartbeat IPC: 0.101794 cumulative IPC: 0.118074 (Simulation time: 1 hr 39 min 45 sec) 
Heartbeat CPU 0 instructions: 111000003 cycles: 544357164 heartbeat IPC: 0.0915859 cumulative IPC: 0.117516 (Simulation time: 1 hr 40 min 11 sec) 
Heartbeat CPU 0 instructions: 112000000 cycles: 548903823 heartbeat IPC: 0.219941 cumulative IPC: 0.118406 (Simulation time: 1 hr 40 min 30 sec) 
Heartbeat CPU 0 instructions: 113000000 cycles: 556732732 heartbeat IPC: 0.127732 cumulative IPC: 0.118543 (Simulation time: 1 hr 40 min 50 sec) 
Heartbeat CPU 0 instructions: 114000000 cycles: 570127545 heartbeat IPC: 0.0746558 cumulative IPC: 0.117464 (Simulation time: 1 hr 41 min 14 sec) 
Heartbeat CPU 0 instructions: 115000001 cycles: 578178448 heartbeat IPC: 0.12421 cumulative IPC: 0.117562 (Simulation time: 1 hr 41 min 35 sec) 
Heartbeat CPU 0 instructions: 116000000 cycles: 582789853 heartbeat IPC: 0.216853 cumulative IPC: 0.118384 (Simulation time: 1 hr 41 min 49 sec) 
Heartbeat CPU 0 instructions: 117000000 cycles: 593093583 heartbeat IPC: 0.0970522 cumulative IPC: 0.117997 (Simulation time: 1 hr 42 min 4 sec) 
Heartbeat CPU 0 instructions: 118000000 cycles: 603304750 heartbeat IPC: 0.097932 cumulative IPC: 0.117642 (Simulation time: 1 hr 42 min 19 sec) 
Heartbeat CPU 0 instructions: 119000000 cycles: 608028987 heartbeat IPC: 0.211674 cumulative IPC: 0.118404 (Simulation time: 1 hr 42 min 29 sec) 
Heartbeat CPU 0 instructions: 120000000 cycles: 614914987 heartbeat IPC: 0.145222 cumulative IPC: 0.118718 (Simulation time: 1 hr 42 min 41 sec) 
Heartbeat CPU 0 instructions: 121000000 cycles: 628612391 heartbeat IPC: 0.0730065 cumulative IPC: 0.11768 (Simulation time: 1 hr 42 min 54 sec) 
Heartbeat CPU 0 instructions: 122000001 cycles: 633219831 heartbeat IPC: 0.21704 cumulative IPC: 0.118433 (Simulation time: 1 hr 43 min 2 sec) 
Heartbeat CPU 0 instructions: 123000000 cycles: 637965706 heartbeat IPC: 0.210709 cumulative IPC: 0.119148 (Simulation time: 1 hr 43 min 9 sec) 
Heartbeat CPU 0 instructions: 124000000 cycles: 652416949 heartbeat IPC: 0.0691982 cumulative IPC: 0.117997 (Simulation time: 1 hr 43 min 20 sec) 
Heartbeat CPU 0 instructions: 125000000 cycles: 658527520 heartbeat IPC: 0.163651 cumulative IPC: 0.118437 (Simulation time: 1 hr 43 min 27 sec) 
Heartbeat CPU 0 instructions: 126000000 cycles: 663176318 heartbeat IPC: 0.215109 cumulative IPC: 0.119142 (Simulation time: 1 hr 43 min 34 sec) 
Heartbeat CPU 0 instructions: 127000002 cycles: 675158132 heartbeat IPC: 0.08346 cumulative IPC: 0.118484 (Simulation time: 1 hr 43 min 43 sec) 
Heartbeat CPU 0 instructions: 128000000 cycles: 683851181 heartbeat IPC: 0.115034 cumulative IPC: 0.118438 (Simulation time: 1 hr 43 min 51 sec) 
Heartbeat CPU 0 instructions: 129000000 cycles: 688484229 heartbeat IPC: 0.215841 cumulative IPC: 0.119119 (Simulation time: 1 hr 43 min 57 sec) 
Heartbeat CPU 0 instructions: 130000000 cycles: 697372692 heartbeat IPC: 0.112505 cumulative IPC: 0.119031 (Simulation time: 1 hr 44 min 5 sec) 
Heartbeat CPU 0 instructions: 131000000 cycles: 710075085 heartbeat IPC: 0.0787253 cumulative IPC: 0.118284 (Simulation time: 1 hr 44 min 14 sec) 
Heartbeat CPU 0 instructions: 132000000 cycles: 715628575 heartbeat IPC: 0.180067 cumulative IPC: 0.118781 (Simulation time: 1 hr 44 min 21 sec) 
Heartbeat CPU 0 instructions: 133000002 cycles: 720804790 heartbeat IPC: 0.193192 cumulative IPC: 0.119334 (Simulation time: 1 hr 44 min 27 sec) 
Heartbeat CPU 0 instructions: 134000001 cycles: 736258137 heartbeat IPC: 0.0647108 cumulative IPC: 0.118147 (Simulation time: 1 hr 44 min 37 sec) 
Heartbeat CPU 0 instructions: 135000001 cycles: 741043517 heartbeat IPC: 0.20897 cumulative IPC: 0.118754 (Simulation time: 1 hr 44 min 44 sec) 
Heartbeat CPU 0 instructions: 136000000 cycles: 749528247 heartbeat IPC: 0.117859 cumulative IPC: 0.118744 (Simulation time: 1 hr 44 min 51 sec) 
Heartbeat CPU 0 instructions: 137000000 cycles: 759806632 heartbeat IPC: 0.0972916 cumulative IPC: 0.118444 (Simulation time: 1 hr 44 min 59 sec) 
Heartbeat CPU 0 instructions: 138000001 cycles: 770621229 heartbeat IPC: 0.0924677 cumulative IPC: 0.118067 (Simulation time: 1 hr 45 min 8 sec) 
Heartbeat CPU 0 instructions: 139000002 cycles: 775423663 heartbeat IPC: 0.208228 cumulative IPC: 0.118644 (Simulation time: 1 hr 45 min 15 sec) 
Heartbeat CPU 0 instructions: 140000000 cycles: 782001661 heartbeat IPC: 0.152022 cumulative IPC: 0.118934 (Simulation time: 1 hr 45 min 22 sec) 
Heartbeat CPU 0 instructions: 141000002 cycles: 795905341 heartbeat IPC: 0.0719235 cumulative IPC: 0.118086 (Simulation time: 1 hr 45 min 32 sec) 
Heartbeat CPU 0 instructions: 142000002 cycles: 800348239 heartbeat IPC: 0.225078 cumulative IPC: 0.118699 (Simulation time: 1 hr 45 min 38 sec) 
Heartbeat CPU 0 instructions: 143000002 cycles: 804710145 heartbeat IPC: 0.229258 cumulative IPC: 0.119318 (Simulation time: 1 hr 45 min 45 sec) 
Heartbeat CPU 0 instructions: 144000000 cycles: 819554679 heartbeat IPC: 0.0673647 cumulative IPC: 0.118347 (Simulation time: 1 hr 45 min 55 sec) 
Heartbeat CPU 0 instructions: 145000001 cycles: 825023840 heartbeat IPC: 0.182844 cumulative IPC: 0.118788 (Simulation time: 1 hr 46 min 2 sec) 
Heartbeat CPU 0 instructions: 146000001 cycles: 829519958 heartbeat IPC: 0.222414 cumulative IPC: 0.119367 (Simulation time: 1 hr 46 min 8 sec) 
Heartbeat CPU 0 instructions: 147000000 cycles: 842307151 heartbeat IPC: 0.0782032 cumulative IPC: 0.118723 (Simulation time: 1 hr 46 min 18 sec) 
Heartbeat CPU 0 instructions: 148000000 cycles: 849766189 heartbeat IPC: 0.134066 cumulative IPC: 0.118862 (Simulation time: 1 hr 46 min 25 sec) 
Heartbeat CPU 0 instructions: 149000000 cycles: 854342993 heartbeat IPC: 0.218493 cumulative IPC: 0.119412 (Simulation time: 1 hr 46 min 32 sec) 
Heartbeat CPU 0 instructions: 150000000 cycles: 865117901 heartbeat IPC: 0.0928082 cumulative IPC: 0.119071 (Simulation time: 1 hr 46 min 40 sec) 
Finished CPU 0 instructions: 100000000 cycles: 839837591 cummulative IPC: 0.119071 (Simulation time: 1 hr 46 min 40 sec) 

ChampSim completed all CPUs

Region of Interest Statistics

CPU 0 cummulative IPC: 0.119071 instructions: 100000000 cycles: 839837591
LLC TOTAL     ACCESS:   18837713  HIT:    7387696  MISS:   11450017
LLC LOAD      ACCESS:    8519006  HIT:    3977498  MISS:    4541508
LLC RFO       ACCESS:     210399  HIT:     127959  MISS:      82440
LLC PREFETCH  ACCESS:    8012849  HIT:    1943169  MISS:    6069680
LLC WRITEBACK ACCESS:    2095459  HIT:    1339070  MISS:     756389
