
*** ChampSim Multicore Out-of-Order Simulator ***

Warmup Instructions: 50000000
Simulation Instructions: 100000000
Configuration: 2
Number of CPUs: 1
LLC sets: 2048
LLC ways: 16
Off-chip DRAM Channels: 1 Width: 64-bit Data Rate: 1600 MT/s

CPU 0 runs /datasets/cs240c-wi22-a00-public/data/Assignment2-gz/sphinx3_2520B.trace.gz
CPU 0 L1D next line prefetcher
CPU 0 L2C IP-based stride prefetcher
Heartbeat CPU 0 instructions: 1000003 cycles: 338965 heartbeat IPC: 2.95017 cumulative IPC: 2.95017 (Simulation time: 0 hr 0 min 32 sec) 
Heartbeat CPU 0 instructions: 2000000 cycles: 737250 heartbeat IPC: 2.51076 cumulative IPC: 2.71278 (Simulation time: 0 hr 1 min 5 sec) 
Heartbeat CPU 0 instructions: 3000003 cycles: 1185269 heartbeat IPC: 2.23205 cumulative IPC: 2.53107 (Simulation time: 0 hr 1 min 35 sec) 
Heartbeat CPU 0 instructions: 4000000 cycles: 1524301 heartbeat IPC: 2.94957 cumulative IPC: 2.62415 (Simulation time: 0 hr 2 min 2 sec) 
Heartbeat CPU 0 instructions: 5000001 cycles: 1902472 heartbeat IPC: 2.64431 cumulative IPC: 2.62816 (Simulation time: 0 hr 2 min 34 sec) 
Heartbeat CPU 0 instructions: 6000001 cycles: 2368257 heartbeat IPC: 2.14691 cumulative IPC: 2.53351 (Simulation time: 0 hr 3 min 7 sec) 
Heartbeat CPU 0 instructions: 7000001 cycles: 2707198 heartbeat IPC: 2.95037 cumulative IPC: 2.5857 (Simulation time: 0 hr 3 min 39 sec) 
Heartbeat CPU 0 instructions: 8000000 cycles: 3056212 heartbeat IPC: 2.86521 cumulative IPC: 2.61762 (Simulation time: 0 hr 4 min 11 sec) 
Heartbeat CPU 0 instructions: 9000000 cycles: 3509856 heartbeat IPC: 2.20437 cumulative IPC: 2.56421 (Simulation time: 0 hr 4 min 45 sec) 
Heartbeat CPU 0 instructions: 10000000 cycles: 3860017 heartbeat IPC: 2.85583 cumulative IPC: 2.59066 (Simulation time: 0 hr 5 min 17 sec) 
Heartbeat CPU 0 instructions: 11000003 cycles: 4204784 heartbeat IPC: 2.90052 cumulative IPC: 2.61607 (Simulation time: 0 hr 5 min 52 sec) 
Heartbeat CPU 0 instructions: 12000000 cycles: 4649536 heartbeat IPC: 2.24844 cumulative IPC: 2.5809 (Simulation time: 0 hr 6 min 27 sec) 
Heartbeat CPU 0 instructions: 13000000 cycles: 5009132 heartbeat IPC: 2.7809 cumulative IPC: 2.59526 (Simulation time: 0 hr 7 min 0 sec) 
Heartbeat CPU 0 instructions: 14000002 cycles: 5351848 heartbeat IPC: 2.91787 cumulative IPC: 2.61592 (Simulation time: 0 hr 7 min 32 sec) 
Heartbeat CPU 0 instructions: 15000003 cycles: 5791306 heartbeat IPC: 2.27553 cumulative IPC: 2.59009 (Simulation time: 0 hr 8 min 6 sec) 
Heartbeat CPU 0 instructions: 16000000 cycles: 6158163 heartbeat IPC: 2.72585 cumulative IPC: 2.59818 (Simulation time: 0 hr 8 min 37 sec) 
Heartbeat CPU 0 instructions: 17000000 cycles: 6499575 heartbeat IPC: 2.92901 cumulative IPC: 2.61556 (Simulation time: 0 hr 9 min 8 sec) 
Heartbeat CPU 0 instructions: 18000002 cycles: 6934002 heartbeat IPC: 2.30189 cumulative IPC: 2.5959 (Simulation time: 0 hr 9 min 42 sec) 
Heartbeat CPU 0 instructions: 19000000 cycles: 7305328 heartbeat IPC: 2.69305 cumulative IPC: 2.60084 (Simulation time: 0 hr 10 min 12 sec) 
Heartbeat CPU 0 instructions: 20000000 cycles: 7646515 heartbeat IPC: 2.93094 cumulative IPC: 2.61557 (Simulation time: 0 hr 10 min 44 sec) 
Heartbeat CPU 0 instructions: 21000001 cycles: 8090893 heartbeat IPC: 2.25034 cumulative IPC: 2.59551 (Simulation time: 0 hr 11 min 20 sec) 
Heartbeat CPU 0 instructions: 22000002 cycles: 8505018 heartbeat IPC: 2.41473 cumulative IPC: 2.58671 (Simulation time: 0 hr 11 min 55 sec) 
Heartbeat CPU 0 instructions: 23000001 cycles: 8944019 heartbeat IPC: 2.2779 cumulative IPC: 2.57155 (Simulation time: 0 hr 12 min 26 sec) 
Heartbeat CPU 0 instructions: 24000000 cycles: 9283044 heartbeat IPC: 2.94963 cumulative IPC: 2.58536 (Simulation time: 0 hr 12 min 57 sec) 
Heartbeat CPU 0 instructions: 25000003 cycles: 9669845 heartbeat IPC: 2.58532 cumulative IPC: 2.58536 (Simulation time: 0 hr 13 min 30 sec) 
Heartbeat CPU 0 instructions: 26000001 cycles: 10086691 heartbeat IPC: 2.39896 cumulative IPC: 2.57765 (Simulation time: 0 hr 14 min 1 sec) 
Heartbeat CPU 0 instructions: 27000003 cycles: 10425664 heartbeat IPC: 2.95009 cumulative IPC: 2.58976 (Simulation time: 0 hr 14 min 33 sec) 
Heartbeat CPU 0 instructions: 28000000 cycles: 10829026 heartbeat IPC: 2.47916 cumulative IPC: 2.58564 (Simulation time: 0 hr 15 min 6 sec) 
Heartbeat CPU 0 instructions: 29000002 cycles: 11229560 heartbeat IPC: 2.49667 cumulative IPC: 2.58247 (Simulation time: 0 hr 15 min 37 sec) 
Heartbeat CPU 0 instructions: 30000002 cycles: 11568500 heartbeat IPC: 2.95037 cumulative IPC: 2.59325 (Simulation time: 0 hr 16 min 9 sec) 
Heartbeat CPU 0 instructions: 31000000 cycles: 11989783 heartbeat IPC: 2.3737 cumulative IPC: 2.58553 (Simulation time: 0 hr 16 min 43 sec) 
Heartbeat CPU 0 instructions: 32000000 cycles: 12371128 heartbeat IPC: 2.6223 cumulative IPC: 2.58667 (Simulation time: 0 hr 17 min 14 sec) 
Heartbeat CPU 0 instructions: 33000002 cycles: 12711885 heartbeat IPC: 2.93465 cumulative IPC: 2.596 (Simulation time: 0 hr 17 min 48 sec) 
Heartbeat CPU 0 instructions: 34000000 cycles: 13151701 heartbeat IPC: 2.27367 cumulative IPC: 2.58522 (Simulation time: 0 hr 18 min 22 sec) 
Heartbeat CPU 0 instructions: 35000001 cycles: 13512972 heartbeat IPC: 2.76801 cumulative IPC: 2.5901 (Simulation time: 0 hr 18 min 55 sec) 
Heartbeat CPU 0 instructions: 36000000 cycles: 13855313 heartbeat IPC: 2.92106 cumulative IPC: 2.59828 (Simulation time: 0 hr 19 min 27 sec) 
Heartbeat CPU 0 instructions: 37000000 cycles: 14314853 heartbeat IPC: 2.17609 cumulative IPC: 2.58473 (Simulation time: 0 hr 19 min 58 sec) 
Heartbeat CPU 0 instructions: 38000000 cycles: 14655165 heartbeat IPC: 2.93848 cumulative IPC: 2.59294 (Simulation time: 0 hr 20 min 32 sec) 
Heartbeat CPU 0 instructions: 39000003 cycles: 15001512 heartbeat IPC: 2.88729 cumulative IPC: 2.59974 (Simulation time: 0 hr 21 min 6 sec) 
Heartbeat CPU 0 instructions: 40000000 cycles: 15460229 heartbeat IPC: 2.17999 cumulative IPC: 2.58728 (Simulation time: 0 hr 21 min 40 sec) 
Heartbeat CPU 0 instructions: 41000001 cycles: 15799266 heartbeat IPC: 2.94953 cumulative IPC: 2.59506 (Simulation time: 0 hr 22 min 11 sec) 
Heartbeat CPU 0 instructions: 42000003 cycles: 16147233 heartbeat IPC: 2.87384 cumulative IPC: 2.60106 (Simulation time: 0 hr 22 min 46 sec) 
Heartbeat CPU 0 instructions: 43000001 cycles: 16603458 heartbeat IPC: 2.1919 cumulative IPC: 2.58982 (Simulation time: 0 hr 23 min 18 sec) 
Heartbeat CPU 0 instructions: 44000000 cycles: 16942336 heartbeat IPC: 2.95091 cumulative IPC: 2.59704 (Simulation time: 0 hr 23 min 50 sec) 
Heartbeat CPU 0 instructions: 45000001 cycles: 17289446 heartbeat IPC: 2.88093 cumulative IPC: 2.60274 (Simulation time: 0 hr 24 min 22 sec) 
Heartbeat CPU 0 instructions: 46000000 cycles: 17747126 heartbeat IPC: 2.18493 cumulative IPC: 2.59197 (Simulation time: 0 hr 24 min 53 sec) 
Heartbeat CPU 0 instructions: 47000003 cycles: 18086110 heartbeat IPC: 2.95 cumulative IPC: 2.59868 (Simulation time: 0 hr 25 min 25 sec) 
Heartbeat CPU 0 instructions: 48000000 cycles: 18434645 heartbeat IPC: 2.86914 cumulative IPC: 2.60379 (Simulation time: 0 hr 25 min 57 sec) 
Heartbeat CPU 0 instructions: 49000002 cycles: 18889395 heartbeat IPC: 2.19901 cumulative IPC: 2.59405 (Simulation time: 0 hr 26 min 29 sec) 
Heartbeat CPU 0 instructions: 50000001 cycles: 19228379 heartbeat IPC: 2.94999 cumulative IPC: 2.60032 (Simulation time: 0 hr 27 min 3 sec) 

Warmup complete CPU 0 instructions: 50000001 cycles: 19228379 (Simulation time: 0 hr 27 min 3 sec) 

Heartbeat CPU 0 instructions: 51000001 cycles: 20113374 heartbeat IPC: 1.12995 cumulative IPC: 1.12995 (Simulation time: 0 hr 27 min 40 sec) 
Heartbeat CPU 0 instructions: 52000000 cycles: 20944433 heartbeat IPC: 1.20328 cumulative IPC: 1.16546 (Simulation time: 0 hr 28 min 17 sec) 
Heartbeat CPU 0 instructions: 53000001 cycles: 21799458 heartbeat IPC: 1.16956 cumulative IPC: 1.16683 (Simulation time: 0 hr 28 min 54 sec) 
Heartbeat CPU 0 instructions: 54000001 cycles: 22649718 heartbeat IPC: 1.17611 cumulative IPC: 1.16913 (Simulation time: 0 hr 29 min 30 sec) 
Heartbeat CPU 0 instructions: 55000000 cycles: 23457987 heartbeat IPC: 1.23721 cumulative IPC: 1.18214 (Simulation time: 0 hr 30 min 7 sec) 
Heartbeat CPU 0 instructions: 56000000 cycles: 24294687 heartbeat IPC: 1.19517 cumulative IPC: 1.18429 (Simulation time: 0 hr 30 min 45 sec) 
Heartbeat CPU 0 instructions: 57000000 cycles: 25231944 heartbeat IPC: 1.06694 cumulative IPC: 1.16597 (Simulation time: 0 hr 31 min 23 sec) 
Heartbeat CPU 0 instructions: 58000002 cycles: 26361408 heartbeat IPC: 0.885377 cumulative IPC: 1.12154 (Simulation time: 0 hr 32 min 0 sec) 
Heartbeat CPU 0 instructions: 59000001 cycles: 27205503 heartbeat IPC: 1.1847 cumulative IPC: 1.12823 (Simulation time: 0 hr 32 min 35 sec) 
Heartbeat CPU 0 instructions: 60000000 cycles: 28040361 heartbeat IPC: 1.19781 cumulative IPC: 1.13482 (Simulation time: 0 hr 33 min 13 sec) 
Heartbeat CPU 0 instructions: 61000001 cycles: 28871964 heartbeat IPC: 1.2025 cumulative IPC: 1.14065 (Simulation time: 0 hr 33 min 51 sec) 
Heartbeat CPU 0 instructions: 62000000 cycles: 29692653 heartbeat IPC: 1.21849 cumulative IPC: 1.14676 (Simulation time: 0 hr 34 min 27 sec) 
Heartbeat CPU 0 instructions: 63000002 cycles: 30517697 heartbeat IPC: 1.21206 cumulative IPC: 1.15153 (Simulation time: 0 hr 35 min 3 sec) 
Heartbeat CPU 0 instructions: 64000000 cycles: 31365816 heartbeat IPC: 1.17908 cumulative IPC: 1.15346 (Simulation time: 0 hr 35 min 41 sec) 
Heartbeat CPU 0 instructions: 65000001 cycles: 32176890 heartbeat IPC: 1.23293 cumulative IPC: 1.15843 (Simulation time: 0 hr 36 min 18 sec) 
Heartbeat CPU 0 instructions: 66000003 cycles: 33006042 heartbeat IPC: 1.20605 cumulative IPC: 1.1613 (Simulation time: 0 hr 36 min 56 sec) 
Heartbeat CPU 0 instructions: 67000003 cycles: 33883103 heartbeat IPC: 1.14017 cumulative IPC: 1.16004 (Simulation time: 0 hr 37 min 33 sec) 
Heartbeat CPU 0 instructions: 68000000 cycles: 34694156 heartbeat IPC: 1.23296 cumulative IPC: 1.16386 (Simulation time: 0 hr 38 min 11 sec) 
Heartbeat CPU 0 instructions: 69000003 cycles: 35523693 heartbeat IPC: 1.2055 cumulative IPC: 1.16598 (Simulation time: 0 hr 38 min 47 sec) 
Heartbeat CPU 0 instructions: 70000000 cycles: 36389293 heartbeat IPC: 1.15526 cumulative IPC: 1.16544 (Simulation time: 0 hr 39 min 24 sec) 
Heartbeat CPU 0 instructions: 71000002 cycles: 37204606 heartbeat IPC: 1.22653 cumulative IPC: 1.16821 (Simulation time: 0 hr 40 min 0 sec) 
Heartbeat CPU 0 instructions: 72000000 cycles: 38033273 heartbeat IPC: 1.20675 cumulative IPC: 1.16991 (Simulation time: 0 hr 40 min 36 sec) 
Heartbeat CPU 0 instructions: 73000003 cycles: 38882531 heartbeat IPC: 1.1775 cumulative IPC: 1.17024 (Simulation time: 0 hr 41 min 14 sec) 
Heartbeat CPU 0 instructions: 74000003 cycles: 39692684 heartbeat IPC: 1.23433 cumulative IPC: 1.17277 (Simulation time: 0 hr 41 min 51 sec) 
Heartbeat CPU 0 instructions: 75000002 cycles: 40528223 heartbeat IPC: 1.19683 cumulative IPC: 1.17372 (Simulation time: 0 hr 42 min 29 sec) 
Heartbeat CPU 0 instructions: 76000000 cycles: 41372692 heartbeat IPC: 1.18417 cumulative IPC: 1.17412 (Simulation time: 0 hr 43 min 6 sec) 
Heartbeat CPU 0 instructions: 77000003 cycles: 42207855 heartbeat IPC: 1.19737 cumulative IPC: 1.17496 (Simulation time: 0 hr 43 min 42 sec) 
Heartbeat CPU 0 instructions: 78000003 cycles: 43037512 heartbeat IPC: 1.20532 cumulative IPC: 1.17602 (Simulation time: 0 hr 44 min 18 sec) 
Heartbeat CPU 0 instructions: 79000003 cycles: 43879644 heartbeat IPC: 1.18746 cumulative IPC: 1.17641 (Simulation time: 0 hr 44 min 54 sec) 
Heartbeat CPU 0 instructions: 80000000 cycles: 44700156 heartbeat IPC: 1.21875 cumulative IPC: 1.17777 (Simulation time: 0 hr 45 min 31 sec) 
Heartbeat CPU 0 instructions: 81000001 cycles: 45529546 heartbeat IPC: 1.20571 cumulative IPC: 1.17865 (Simulation time: 0 hr 46 min 8 sec) 
Heartbeat CPU 0 instructions: 82000002 cycles: 46369604 heartbeat IPC: 1.1904 cumulative IPC: 1.17902 (Simulation time: 0 hr 46 min 43 sec) 
Heartbeat CPU 0 instructions: 83000003 cycles: 47203056 heartbeat IPC: 1.19983 cumulative IPC: 1.17964 (Simulation time: 0 hr 47 min 21 sec) 
Heartbeat CPU 0 instructions: 84000000 cycles: 48032224 heartbeat IPC: 1.20602 cumulative IPC: 1.1804 (Simulation time: 0 hr 47 min 58 sec) 
Heartbeat CPU 0 instructions: 85000001 cycles: 48866580 heartbeat IPC: 1.19853 cumulative IPC: 1.18091 (Simulation time: 0 hr 48 min 34 sec) 
Heartbeat CPU 0 instructions: 86000000 cycles: 49673420 heartbeat IPC: 1.2394 cumulative IPC: 1.18246 (Simulation time: 0 hr 49 min 11 sec) 
Heartbeat CPU 0 instructions: 87000003 cycles: 50505169 heartbeat IPC: 1.20229 cumulative IPC: 1.18299 (Simulation time: 0 hr 49 min 48 sec) 
Heartbeat CPU 0 instructions: 88000000 cycles: 51337023 heartbeat IPC: 1.20213 cumulative IPC: 1.18348 (Simulation time: 0 hr 50 min 25 sec) 
Heartbeat CPU 0 instructions: 89000000 cycles: 52140192 heartbeat IPC: 1.24507 cumulative IPC: 1.18498 (Simulation time: 0 hr 51 min 3 sec) 
Heartbeat CPU 0 instructions: 90000000 cycles: 52955099 heartbeat IPC: 1.22713 cumulative IPC: 1.186 (Simulation time: 0 hr 51 min 39 sec) 
Heartbeat CPU 0 instructions: 91000001 cycles: 53783598 heartbeat IPC: 1.207 cumulative IPC: 1.18651 (Simulation time: 0 hr 52 min 15 sec) 
Heartbeat CPU 0 instructions: 92000000 cycles: 54601117 heartbeat IPC: 1.22321 cumulative IPC: 1.18736 (Simulation time: 0 hr 52 min 50 sec) 
Heartbeat CPU 0 instructions: 93000002 cycles: 55398906 heartbeat IPC: 1.25347 cumulative IPC: 1.18881 (Simulation time: 0 hr 53 min 27 sec) 
Heartbeat CPU 0 instructions: 94000000 cycles: 56243230 heartbeat IPC: 1.18438 cumulative IPC: 1.18871 (Simulation time: 0 hr 54 min 2 sec) 
Heartbeat CPU 0 instructions: 95000000 cycles: 57057949 heartbeat IPC: 1.22742 cumulative IPC: 1.18955 (Simulation time: 0 hr 54 min 36 sec) 
Heartbeat CPU 0 instructions: 96000000 cycles: 57873268 heartbeat IPC: 1.22651 cumulative IPC: 1.19033 (Simulation time: 0 hr 55 min 14 sec) 
Heartbeat CPU 0 instructions: 97000002 cycles: 59050161 heartbeat IPC: 0.849697 cumulative IPC: 1.18026 (Simulation time: 0 hr 55 min 58 sec) 
Heartbeat CPU 0 instructions: 98000003 cycles: 60010576 heartbeat IPC: 1.04122 cumulative IPC: 1.17698 (Simulation time: 0 hr 56 min 42 sec) 
Heartbeat CPU 0 instructions: 99000000 cycles: 60841934 heartbeat IPC: 1.20285 cumulative IPC: 1.1775 (Simulation time: 0 hr 57 min 29 sec) 
Heartbeat CPU 0 instructions: 100000000 cycles: 61670159 heartbeat IPC: 1.2074 cumulative IPC: 1.17808 (Simulation time: 0 hr 58 min 11 sec) 
Heartbeat CPU 0 instructions: 101000001 cycles: 63027338 heartbeat IPC: 0.736823 cumulative IPC: 1.16441 (Simulation time: 0 hr 58 min 56 sec) 
Heartbeat CPU 0 instructions: 102000002 cycles: 63874584 heartbeat IPC: 1.1803 cumulative IPC: 1.16471 (Simulation time: 0 hr 59 min 39 sec) 
Heartbeat CPU 0 instructions: 103000001 cycles: 64717118 heartbeat IPC: 1.18689 cumulative IPC: 1.16512 (Simulation time: 1 hr 0 min 20 sec) 
Heartbeat CPU 0 instructions: 104000000 cycles: 65975713 heartbeat IPC: 0.794536 cumulative IPC: 1.15515 (Simulation time: 1 hr 1 min 7 sec) 
Heartbeat CPU 0 instructions: 105000002 cycles: 66828508 heartbeat IPC: 1.17262 cumulative IPC: 1.15546 (Simulation time: 1 hr 1 min 50 sec) 
Heartbeat CPU 0 instructions: 106000000 cycles: 67660703 heartbeat IPC: 1.20164 cumulative IPC: 1.15625 (Simulation time: 1 hr 2 min 34 sec) 
Heartbeat CPU 0 instructions: 107000000 cycles: 68761584 heartbeat IPC: 0.908363 cumulative IPC: 1.15074 (Simulation time: 1 hr 3 min 22 sec) 
Heartbeat CPU 0 instructions: 108000000 cycles: 69762154 heartbeat IPC: 0.99943 cumulative IPC: 1.14775 (Simulation time: 1 hr 4 min 3 sec) 
Heartbeat CPU 0 instructions: 109000003 cycles: 70596889 heartbeat IPC: 1.19799 cumulative IPC: 1.14856 (Simulation time: 1 hr 4 min 51 sec) 
Heartbeat CPU 0 instructions: 110000000 cycles: 71479960 heartbeat IPC: 1.13241 cumulative IPC: 1.14829 (Simulation time: 1 hr 5 min 37 sec) 
Heartbeat CPU 0 instructions: 111000001 cycles: 72677805 heartbeat IPC: 0.834833 cumulative IPC: 1.14127 (Simulation time: 1 hr 6 min 25 sec) 
Heartbeat CPU 0 instructions: 112000000 cycles: 73530690 heartbeat IPC: 1.17249 cumulative IPC: 1.14176 (Simulation time: 1 hr 7 min 10 sec) 
Heartbeat CPU 0 instructions: 113000000 cycles: 74367717 heartbeat IPC: 1.1947 cumulative IPC: 1.14256 (Simulation time: 1 hr 7 min 55 sec) 
Heartbeat CPU 0 instructions: 114000000 cycles: 75617263 heartbeat IPC: 0.800291 cumulative IPC: 1.13498 (Simulation time: 1 hr 8 min 38 sec) 
Heartbeat CPU 0 instructions: 115000000 cycles: 76464666 heartbeat IPC: 1.18008 cumulative IPC: 1.13564 (Simulation time: 1 hr 9 min 20 sec) 
Heartbeat CPU 0 instructions: 116000000 cycles: 77295693 heartbeat IPC: 1.20333 cumulative IPC: 1.13661 (Simulation time: 1 hr 10 min 0 sec) 
Heartbeat CPU 0 instructions: 117000001 cycles: 78389101 heartbeat IPC: 0.914573 cumulative IPC: 1.13251 (Simulation time: 1 hr 10 min 45 sec) 
Heartbeat CPU 0 instructions: 118000001 cycles: 79392663 heartbeat IPC: 0.996451 cumulative IPC: 1.13024 (Simulation time: 1 hr 11 min 27 sec) 
Heartbeat CPU 0 instructions: 119000003 cycles: 80225738 heartbeat IPC: 1.20037 cumulative IPC: 1.1312 (Simulation time: 1 hr 12 min 6 sec) 
Heartbeat CPU 0 instructions: 120000000 cycles: 81105822 heartbeat IPC: 1.13625 cumulative IPC: 1.13127 (Simulation time: 1 hr 12 min 44 sec) 
Heartbeat CPU 0 instructions: 121000003 cycles: 82290948 heartbeat IPC: 0.843795 cumulative IPC: 1.12587 (Simulation time: 1 hr 13 min 24 sec) 
Heartbeat CPU 0 instructions: 122000000 cycles: 83140532 heartbeat IPC: 1.17704 cumulative IPC: 1.12655 (Simulation time: 1 hr 14 min 1 sec) 
Heartbeat CPU 0 instructions: 123000003 cycles: 83964065 heartbeat IPC: 1.21428 cumulative IPC: 1.12766 (Simulation time: 1 hr 14 min 38 sec) 
Heartbeat CPU 0 instructions: 124000000 cycles: 85186268 heartbeat IPC: 0.818192 cumulative IPC: 1.12193 (Simulation time: 1 hr 15 min 16 sec) 
Heartbeat CPU 0 instructions: 125000000 cycles: 86079164 heartbeat IPC: 1.11995 cumulative IPC: 1.1219 (Simulation time: 1 hr 15 min 51 sec) 
Heartbeat CPU 0 instructions: 126000001 cycles: 86903787 heartbeat IPC: 1.21268 cumulative IPC: 1.12301 (Simulation time: 1 hr 16 min 27 sec) 
Heartbeat CPU 0 instructions: 127000000 cycles: 87968679 heartbeat IPC: 0.939061 cumulative IPC: 1.12016 (Simulation time: 1 hr 17 min 3 sec) 
Heartbeat CPU 0 instructions: 128000000 cycles: 89046547 heartbeat IPC: 0.927757 cumulative IPC: 1.11719 (Simulation time: 1 hr 17 min 39 sec) 
Heartbeat CPU 0 instructions: 129000000 cycles: 89866018 heartbeat IPC: 1.2203 cumulative IPC: 1.11838 (Simulation time: 1 hr 18 min 11 sec) 
Heartbeat CPU 0 instructions: 130000000 cycles: 90680909 heartbeat IPC: 1.22716 cumulative IPC: 1.11962 (Simulation time: 1 hr 18 min 44 sec) 
Heartbeat CPU 0 instructions: 131000002 cycles: 91957497 heartbeat IPC: 0.78334 cumulative IPC: 1.11372 (Simulation time: 1 hr 19 min 16 sec) 
Heartbeat CPU 0 instructions: 132000000 cycles: 92803720 heartbeat IPC: 1.18172 cumulative IPC: 1.1145 (Simulation time: 1 hr 19 min 45 sec) 
Heartbeat CPU 0 instructions: 133000000 cycles: 93626852 heartbeat IPC: 1.21487 cumulative IPC: 1.11561 (Simulation time: 1 hr 20 min 17 sec) 
Heartbeat CPU 0 instructions: 134000001 cycles: 94819663 heartbeat IPC: 0.838357 cumulative IPC: 1.11124 (Simulation time: 1 hr 20 min 51 sec) 
Heartbeat CPU 0 instructions: 135000002 cycles: 95737375 heartbeat IPC: 1.08967 cumulative IPC: 1.11098 (Simulation time: 1 hr 21 min 21 sec) 
Heartbeat CPU 0 instructions: 136000000 cycles: 96561251 heartbeat IPC: 1.21377 cumulative IPC: 1.11208 (Simulation time: 1 hr 21 min 51 sec) 
Heartbeat CPU 0 instructions: 137000002 cycles: 97527840 heartbeat IPC: 1.03457 cumulative IPC: 1.11112 (Simulation time: 1 hr 22 min 21 sec) 
Heartbeat CPU 0 instructions: 138000000 cycles: 98853168 heartbeat IPC: 0.754529 cumulative IPC: 1.10518 (Simulation time: 1 hr 22 min 54 sec) 
Heartbeat CPU 0 instructions: 139000000 cycles: 99950032 heartbeat IPC: 0.91169 cumulative IPC: 1.10255 (Simulation time: 1 hr 23 min 25 sec) 
Heartbeat CPU 0 instructions: 140000000 cycles: 100786500 heartbeat IPC: 1.1955 cumulative IPC: 1.10351 (Simulation time: 1 hr 23 min 54 sec) 
Heartbeat CPU 0 instructions: 141000003 cycles: 101616336 heartbeat IPC: 1.20506 cumulative IPC: 1.10453 (Simulation time: 1 hr 24 min 22 sec) 
Heartbeat CPU 0 instructions: 142000000 cycles: 102773691 heartbeat IPC: 0.864037 cumulative IPC: 1.1012 (Simulation time: 1 hr 24 min 52 sec) 
Heartbeat CPU 0 instructions: 143000003 cycles: 103745245 heartbeat IPC: 1.02928 cumulative IPC: 1.10037 (Simulation time: 1 hr 25 min 19 sec) 
Heartbeat CPU 0 instructions: 144000000 cycles: 104569804 heartbeat IPC: 1.21277 cumulative IPC: 1.10146 (Simulation time: 1 hr 25 min 45 sec) 
Heartbeat CPU 0 instructions: 145000000 cycles: 105483695 heartbeat IPC: 1.09422 cumulative IPC: 1.10138 (Simulation time: 1 hr 26 min 12 sec) 
Heartbeat CPU 0 instructions: 146000000 cycles: 106656430 heartbeat IPC: 0.852708 cumulative IPC: 1.09805 (Simulation time: 1 hr 26 min 38 sec) 
Heartbeat CPU 0 instructions: 147000003 cycles: 107493620 heartbeat IPC: 1.19448 cumulative IPC: 1.09896 (Simulation time: 1 hr 27 min 3 sec) 
Heartbeat CPU 0 instructions: 148000000 cycles: 108317830 heartbeat IPC: 1.21328 cumulative IPC: 1.10002 (Simulation time: 1 hr 27 min 28 sec) 
Heartbeat CPU 0 instructions: 149000003 cycles: 109602264 heartbeat IPC: 0.778555 cumulative IPC: 1.09545 (Simulation time: 1 hr 27 min 54 sec) 
Heartbeat CPU 0 instructions: 150000001 cycles: 110459789 heartbeat IPC: 1.16614 cumulative IPC: 1.09611 (Simulation time: 1 hr 28 min 16 sec) 
Finished CPU 0 instructions: 100000000 cycles: 91231410 cummulative IPC: 1.09611 (Simulation time: 1 hr 28 min 16 sec) 

ChampSim completed all CPUs

Region of Interest Statistics

CPU 0 cummulative IPC: 1.09611 instructions: 100000000 cycles: 91231410
LLC TOTAL     ACCESS:    1520613  HIT:     528346  MISS:     992267
LLC LOAD      ACCESS:     160721  HIT:     139061  MISS:      21660
LLC RFO       ACCESS:     118648  HIT:     118078  MISS:        570
LLC PREFETCH  ACCESS:    1108935  HIT:     139099  MISS:     969836
LLC WRITEBACK ACCESS:     132309  HIT:     132108  MISS:        201
