
*** ChampSim Multicore Out-of-Order Simulator ***

Warmup Instructions: 50000000
Simulation Instructions: 100000000
Configuration: 2
Number of CPUs: 1
LLC sets: 2048
LLC ways: 16
Off-chip DRAM Channels: 1 Width: 64-bit Data Rate: 1600 MT/s

CPU 0 runs /datasets/cs240c-wi22-a00-public/data/Assignment2-gz/zeusmp_100B.trace.gz
CPU 0 L1D next line prefetcher
CPU 0 L2C IP-based stride prefetcher
Heartbeat CPU 0 instructions: 1000002 cycles: 462677 heartbeat IPC: 2.16134 cumulative IPC: 2.16134 (Simulation time: 0 hr 0 min 33 sec) 
Heartbeat CPU 0 instructions: 2000001 cycles: 925467 heartbeat IPC: 2.16081 cumulative IPC: 2.16107 (Simulation time: 0 hr 1 min 4 sec) 
Heartbeat CPU 0 instructions: 3000003 cycles: 1388498 heartbeat IPC: 2.15969 cumulative IPC: 2.16061 (Simulation time: 0 hr 1 min 35 sec) 
Heartbeat CPU 0 instructions: 4000000 cycles: 1851228 heartbeat IPC: 2.16108 cumulative IPC: 2.16073 (Simulation time: 0 hr 2 min 7 sec) 
Heartbeat CPU 0 instructions: 5000003 cycles: 2314155 heartbeat IPC: 2.16017 cumulative IPC: 2.16062 (Simulation time: 0 hr 2 min 40 sec) 
Heartbeat CPU 0 instructions: 6000001 cycles: 2776976 heartbeat IPC: 2.16066 cumulative IPC: 2.16062 (Simulation time: 0 hr 3 min 13 sec) 
Heartbeat CPU 0 instructions: 7000001 cycles: 3239712 heartbeat IPC: 2.16106 cumulative IPC: 2.16069 (Simulation time: 0 hr 3 min 47 sec) 
Heartbeat CPU 0 instructions: 8000000 cycles: 3702616 heartbeat IPC: 2.16027 cumulative IPC: 2.16063 (Simulation time: 0 hr 4 min 21 sec) 
Heartbeat CPU 0 instructions: 9000003 cycles: 4165394 heartbeat IPC: 2.16087 cumulative IPC: 2.16066 (Simulation time: 0 hr 4 min 56 sec) 
Heartbeat CPU 0 instructions: 10000001 cycles: 4628718 heartbeat IPC: 2.15831 cumulative IPC: 2.16043 (Simulation time: 0 hr 5 min 29 sec) 
Heartbeat CPU 0 instructions: 11000000 cycles: 5092331 heartbeat IPC: 2.15697 cumulative IPC: 2.16011 (Simulation time: 0 hr 6 min 3 sec) 
Heartbeat CPU 0 instructions: 12000000 cycles: 5556012 heartbeat IPC: 2.15666 cumulative IPC: 2.15982 (Simulation time: 0 hr 6 min 37 sec) 
Heartbeat CPU 0 instructions: 13000001 cycles: 6019160 heartbeat IPC: 2.15914 cumulative IPC: 2.15977 (Simulation time: 0 hr 7 min 10 sec) 
Heartbeat CPU 0 instructions: 14000002 cycles: 6481975 heartbeat IPC: 2.16069 cumulative IPC: 2.15984 (Simulation time: 0 hr 7 min 45 sec) 
Heartbeat CPU 0 instructions: 15000002 cycles: 6944921 heartbeat IPC: 2.16008 cumulative IPC: 2.15985 (Simulation time: 0 hr 8 min 19 sec) 
Heartbeat CPU 0 instructions: 16000000 cycles: 7407581 heartbeat IPC: 2.16141 cumulative IPC: 2.15995 (Simulation time: 0 hr 8 min 52 sec) 
Heartbeat CPU 0 instructions: 17000000 cycles: 7838236 heartbeat IPC: 2.32204 cumulative IPC: 2.16886 (Simulation time: 0 hr 9 min 26 sec) 
Heartbeat CPU 0 instructions: 18000001 cycles: 8265917 heartbeat IPC: 2.33819 cumulative IPC: 2.17762 (Simulation time: 0 hr 9 min 58 sec) 
Heartbeat CPU 0 instructions: 19000002 cycles: 8693128 heartbeat IPC: 2.34077 cumulative IPC: 2.18563 (Simulation time: 0 hr 10 min 31 sec) 
Heartbeat CPU 0 instructions: 20000000 cycles: 9120534 heartbeat IPC: 2.33969 cumulative IPC: 2.19285 (Simulation time: 0 hr 11 min 6 sec) 
Heartbeat CPU 0 instructions: 21000001 cycles: 9547796 heartbeat IPC: 2.34049 cumulative IPC: 2.19946 (Simulation time: 0 hr 11 min 40 sec) 
Heartbeat CPU 0 instructions: 22000001 cycles: 9975230 heartbeat IPC: 2.33954 cumulative IPC: 2.20546 (Simulation time: 0 hr 12 min 12 sec) 
Heartbeat CPU 0 instructions: 23000000 cycles: 10403285 heartbeat IPC: 2.33615 cumulative IPC: 2.21084 (Simulation time: 0 hr 12 min 45 sec) 
Heartbeat CPU 0 instructions: 24000000 cycles: 10830601 heartbeat IPC: 2.34019 cumulative IPC: 2.21594 (Simulation time: 0 hr 13 min 18 sec) 
Heartbeat CPU 0 instructions: 25000002 cycles: 11257845 heartbeat IPC: 2.34059 cumulative IPC: 2.22067 (Simulation time: 0 hr 13 min 50 sec) 
Heartbeat CPU 0 instructions: 26000001 cycles: 11685278 heartbeat IPC: 2.33955 cumulative IPC: 2.22502 (Simulation time: 0 hr 14 min 24 sec) 
Heartbeat CPU 0 instructions: 27000002 cycles: 12113076 heartbeat IPC: 2.33755 cumulative IPC: 2.229 (Simulation time: 0 hr 14 min 57 sec) 
Heartbeat CPU 0 instructions: 28000000 cycles: 12540572 heartbeat IPC: 2.3392 cumulative IPC: 2.23275 (Simulation time: 0 hr 15 min 30 sec) 
Heartbeat CPU 0 instructions: 29000002 cycles: 12967742 heartbeat IPC: 2.34099 cumulative IPC: 2.23632 (Simulation time: 0 hr 16 min 4 sec) 
Heartbeat CPU 0 instructions: 30000003 cycles: 13395194 heartbeat IPC: 2.33945 cumulative IPC: 2.23961 (Simulation time: 0 hr 16 min 37 sec) 
Heartbeat CPU 0 instructions: 31000001 cycles: 13822891 heartbeat IPC: 2.3381 cumulative IPC: 2.24266 (Simulation time: 0 hr 17 min 11 sec) 
Heartbeat CPU 0 instructions: 32000000 cycles: 14250603 heartbeat IPC: 2.33802 cumulative IPC: 2.24552 (Simulation time: 0 hr 17 min 44 sec) 
Heartbeat CPU 0 instructions: 33000002 cycles: 14677603 heartbeat IPC: 2.34193 cumulative IPC: 2.24832 (Simulation time: 0 hr 18 min 17 sec) 
Heartbeat CPU 0 instructions: 34000001 cycles: 15104764 heartbeat IPC: 2.34104 cumulative IPC: 2.25095 (Simulation time: 0 hr 18 min 48 sec) 
Heartbeat CPU 0 instructions: 35000003 cycles: 15532225 heartbeat IPC: 2.3394 cumulative IPC: 2.25338 (Simulation time: 0 hr 19 min 21 sec) 
Heartbeat CPU 0 instructions: 36000000 cycles: 15959856 heartbeat IPC: 2.33846 cumulative IPC: 2.25566 (Simulation time: 0 hr 19 min 53 sec) 
Heartbeat CPU 0 instructions: 37000001 cycles: 16387295 heartbeat IPC: 2.33952 cumulative IPC: 2.25785 (Simulation time: 0 hr 20 min 26 sec) 
Heartbeat CPU 0 instructions: 38000003 cycles: 16814810 heartbeat IPC: 2.3391 cumulative IPC: 2.25991 (Simulation time: 0 hr 20 min 59 sec) 
Heartbeat CPU 0 instructions: 39000000 cycles: 17242414 heartbeat IPC: 2.33861 cumulative IPC: 2.26186 (Simulation time: 0 hr 21 min 30 sec) 
Heartbeat CPU 0 instructions: 40000000 cycles: 17669744 heartbeat IPC: 2.34011 cumulative IPC: 2.26376 (Simulation time: 0 hr 22 min 3 sec) 
Heartbeat CPU 0 instructions: 41000003 cycles: 18097653 heartbeat IPC: 2.33695 cumulative IPC: 2.26549 (Simulation time: 0 hr 22 min 41 sec) 
Heartbeat CPU 0 instructions: 42000000 cycles: 18524756 heartbeat IPC: 2.34135 cumulative IPC: 2.26724 (Simulation time: 0 hr 23 min 15 sec) 
Heartbeat CPU 0 instructions: 43000003 cycles: 18952187 heartbeat IPC: 2.33957 cumulative IPC: 2.26887 (Simulation time: 0 hr 23 min 48 sec) 
Heartbeat CPU 0 instructions: 44000000 cycles: 19379644 heartbeat IPC: 2.33941 cumulative IPC: 2.27042 (Simulation time: 0 hr 24 min 21 sec) 
Heartbeat CPU 0 instructions: 45000001 cycles: 19807254 heartbeat IPC: 2.33858 cumulative IPC: 2.27189 (Simulation time: 0 hr 24 min 53 sec) 
Heartbeat CPU 0 instructions: 46000000 cycles: 20234864 heartbeat IPC: 2.33858 cumulative IPC: 2.2733 (Simulation time: 0 hr 25 min 26 sec) 
Heartbeat CPU 0 instructions: 47000003 cycles: 20662121 heartbeat IPC: 2.34052 cumulative IPC: 2.27469 (Simulation time: 0 hr 25 min 59 sec) 
Heartbeat CPU 0 instructions: 48000000 cycles: 21089561 heartbeat IPC: 2.3395 cumulative IPC: 2.27601 (Simulation time: 0 hr 26 min 31 sec) 
Heartbeat CPU 0 instructions: 49000001 cycles: 21516654 heartbeat IPC: 2.34141 cumulative IPC: 2.27731 (Simulation time: 0 hr 27 min 3 sec) 
Heartbeat CPU 0 instructions: 50000000 cycles: 21944695 heartbeat IPC: 2.33622 cumulative IPC: 2.27846 (Simulation time: 0 hr 27 min 36 sec) 

Warmup complete CPU 0 instructions: 50000003 cycles: 21944696 (Simulation time: 0 hr 27 min 36 sec) 

Heartbeat CPU 0 instructions: 51000002 cycles: 22658618 heartbeat IPC: 1.40071 cumulative IPC: 1.40071 (Simulation time: 0 hr 28 min 13 sec) 
Heartbeat CPU 0 instructions: 52000000 cycles: 23360383 heartbeat IPC: 1.42498 cumulative IPC: 1.41274 (Simulation time: 0 hr 28 min 51 sec) 
Heartbeat CPU 0 instructions: 53000001 cycles: 24077193 heartbeat IPC: 1.39507 cumulative IPC: 1.4068 (Simulation time: 0 hr 29 min 29 sec) 
Heartbeat CPU 0 instructions: 54000003 cycles: 24780296 heartbeat IPC: 1.42227 cumulative IPC: 1.41064 (Simulation time: 0 hr 30 min 8 sec) 
Heartbeat CPU 0 instructions: 55000003 cycles: 25486616 heartbeat IPC: 1.41579 cumulative IPC: 1.41166 (Simulation time: 0 hr 30 min 45 sec) 
Heartbeat CPU 0 instructions: 56000000 cycles: 26198440 heartbeat IPC: 1.40484 cumulative IPC: 1.41052 (Simulation time: 0 hr 31 min 24 sec) 
Heartbeat CPU 0 instructions: 57000003 cycles: 26899137 heartbeat IPC: 1.42715 cumulative IPC: 1.41287 (Simulation time: 0 hr 32 min 2 sec) 
Heartbeat CPU 0 instructions: 58000003 cycles: 27612021 heartbeat IPC: 1.40275 cumulative IPC: 1.4116 (Simulation time: 0 hr 32 min 39 sec) 
Heartbeat CPU 0 instructions: 59000000 cycles: 28310893 heartbeat IPC: 1.43087 cumulative IPC: 1.41372 (Simulation time: 0 hr 33 min 17 sec) 
Heartbeat CPU 0 instructions: 60000000 cycles: 29027616 heartbeat IPC: 1.39524 cumulative IPC: 1.41185 (Simulation time: 0 hr 33 min 54 sec) 
Heartbeat CPU 0 instructions: 61000000 cycles: 29728263 heartbeat IPC: 1.42725 cumulative IPC: 1.41323 (Simulation time: 0 hr 34 min 29 sec) 
Heartbeat CPU 0 instructions: 62000001 cycles: 30441208 heartbeat IPC: 1.40263 cumulative IPC: 1.41234 (Simulation time: 0 hr 35 min 7 sec) 
Heartbeat CPU 0 instructions: 63000001 cycles: 31142827 heartbeat IPC: 1.42527 cumulative IPC: 1.41333 (Simulation time: 0 hr 35 min 45 sec) 
Heartbeat CPU 0 instructions: 64000000 cycles: 31859994 heartbeat IPC: 1.39437 cumulative IPC: 1.41196 (Simulation time: 0 hr 36 min 23 sec) 
Heartbeat CPU 0 instructions: 65000003 cycles: 32557862 heartbeat IPC: 1.43294 cumulative IPC: 1.41334 (Simulation time: 0 hr 37 min 1 sec) 
Heartbeat CPU 0 instructions: 66000003 cycles: 33269837 heartbeat IPC: 1.40454 cumulative IPC: 1.41279 (Simulation time: 0 hr 37 min 38 sec) 
Heartbeat CPU 0 instructions: 67000000 cycles: 33969064 heartbeat IPC: 1.43015 cumulative IPC: 1.4138 (Simulation time: 0 hr 38 min 16 sec) 
Heartbeat CPU 0 instructions: 68000000 cycles: 34673602 heartbeat IPC: 1.41937 cumulative IPC: 1.4141 (Simulation time: 0 hr 38 min 51 sec) 
Heartbeat CPU 0 instructions: 69000000 cycles: 35375386 heartbeat IPC: 1.42494 cumulative IPC: 1.41467 (Simulation time: 0 hr 39 min 29 sec) 
Heartbeat CPU 0 instructions: 70000003 cycles: 36072353 heartbeat IPC: 1.43479 cumulative IPC: 1.41566 (Simulation time: 0 hr 40 min 9 sec) 
Heartbeat CPU 0 instructions: 71000003 cycles: 36782791 heartbeat IPC: 1.40758 cumulative IPC: 1.41528 (Simulation time: 0 hr 40 min 46 sec) 
Heartbeat CPU 0 instructions: 72000000 cycles: 37484262 heartbeat IPC: 1.42557 cumulative IPC: 1.41574 (Simulation time: 0 hr 41 min 24 sec) 
Heartbeat CPU 0 instructions: 73000002 cycles: 38200215 heartbeat IPC: 1.39674 cumulative IPC: 1.4149 (Simulation time: 0 hr 42 min 1 sec) 
Heartbeat CPU 0 instructions: 74000003 cycles: 38897421 heartbeat IPC: 1.4343 cumulative IPC: 1.4157 (Simulation time: 0 hr 42 min 39 sec) 
Heartbeat CPU 0 instructions: 75000003 cycles: 39608304 heartbeat IPC: 1.4067 cumulative IPC: 1.41534 (Simulation time: 0 hr 43 min 16 sec) 
Heartbeat CPU 0 instructions: 76000000 cycles: 40310526 heartbeat IPC: 1.42405 cumulative IPC: 1.41567 (Simulation time: 0 hr 43 min 53 sec) 
Heartbeat CPU 0 instructions: 77000000 cycles: 41032675 heartbeat IPC: 1.38476 cumulative IPC: 1.4145 (Simulation time: 0 hr 44 min 30 sec) 
Heartbeat CPU 0 instructions: 78000002 cycles: 41735215 heartbeat IPC: 1.42341 cumulative IPC: 1.41482 (Simulation time: 0 hr 45 min 6 sec) 
Heartbeat CPU 0 instructions: 79000000 cycles: 42445714 heartbeat IPC: 1.40746 cumulative IPC: 1.41456 (Simulation time: 0 hr 45 min 40 sec) 
Heartbeat CPU 0 instructions: 80000000 cycles: 43139298 heartbeat IPC: 1.44179 cumulative IPC: 1.41545 (Simulation time: 0 hr 46 min 14 sec) 
Heartbeat CPU 0 instructions: 81000003 cycles: 43858855 heartbeat IPC: 1.38975 cumulative IPC: 1.41461 (Simulation time: 0 hr 46 min 50 sec) 
Heartbeat CPU 0 instructions: 82000000 cycles: 44561198 heartbeat IPC: 1.4238 cumulative IPC: 1.4149 (Simulation time: 0 hr 47 min 26 sec) 
Heartbeat CPU 0 instructions: 83000002 cycles: 45258761 heartbeat IPC: 1.43357 cumulative IPC: 1.41545 (Simulation time: 0 hr 48 min 0 sec) 
Heartbeat CPU 0 instructions: 84000000 cycles: 45971207 heartbeat IPC: 1.40361 cumulative IPC: 1.4151 (Simulation time: 0 hr 48 min 35 sec) 
Heartbeat CPU 0 instructions: 85000001 cycles: 46667694 heartbeat IPC: 1.43578 cumulative IPC: 1.41569 (Simulation time: 0 hr 49 min 12 sec) 
Heartbeat CPU 0 instructions: 86000001 cycles: 47379592 heartbeat IPC: 1.4047 cumulative IPC: 1.41538 (Simulation time: 0 hr 49 min 49 sec) 
Heartbeat CPU 0 instructions: 87000001 cycles: 48080498 heartbeat IPC: 1.42672 cumulative IPC: 1.41568 (Simulation time: 0 hr 50 min 24 sec) 
Heartbeat CPU 0 instructions: 88000000 cycles: 48792738 heartbeat IPC: 1.40402 cumulative IPC: 1.41537 (Simulation time: 0 hr 50 min 58 sec) 
Heartbeat CPU 0 instructions: 89000003 cycles: 49492510 heartbeat IPC: 1.42904 cumulative IPC: 1.41572 (Simulation time: 0 hr 51 min 33 sec) 
Heartbeat CPU 0 instructions: 90000001 cycles: 50203015 heartbeat IPC: 1.40745 cumulative IPC: 1.41551 (Simulation time: 0 hr 52 min 8 sec) 
Heartbeat CPU 0 instructions: 91000003 cycles: 50907086 heartbeat IPC: 1.42031 cumulative IPC: 1.41563 (Simulation time: 0 hr 52 min 45 sec) 
Heartbeat CPU 0 instructions: 92000000 cycles: 51623222 heartbeat IPC: 1.39638 cumulative IPC: 1.41516 (Simulation time: 0 hr 53 min 23 sec) 
Heartbeat CPU 0 instructions: 93000001 cycles: 52326879 heartbeat IPC: 1.42115 cumulative IPC: 1.4153 (Simulation time: 0 hr 54 min 0 sec) 
Heartbeat CPU 0 instructions: 94000003 cycles: 53040112 heartbeat IPC: 1.40207 cumulative IPC: 1.415 (Simulation time: 0 hr 54 min 37 sec) 
Heartbeat CPU 0 instructions: 95000003 cycles: 53745843 heartbeat IPC: 1.41697 cumulative IPC: 1.41504 (Simulation time: 0 hr 55 min 17 sec) 
Heartbeat CPU 0 instructions: 96000000 cycles: 54455049 heartbeat IPC: 1.41002 cumulative IPC: 1.41493 (Simulation time: 0 hr 55 min 55 sec) 
Heartbeat CPU 0 instructions: 97000000 cycles: 55167725 heartbeat IPC: 1.40316 cumulative IPC: 1.41468 (Simulation time: 0 hr 56 min 32 sec) 
Heartbeat CPU 0 instructions: 98000001 cycles: 55860957 heartbeat IPC: 1.44252 cumulative IPC: 1.41525 (Simulation time: 0 hr 57 min 13 sec) 
Heartbeat CPU 0 instructions: 99000001 cycles: 56587614 heartbeat IPC: 1.37617 cumulative IPC: 1.41443 (Simulation time: 0 hr 57 min 51 sec) 
Heartbeat CPU 0 instructions: 100000000 cycles: 57303231 heartbeat IPC: 1.39739 cumulative IPC: 1.41409 (Simulation time: 0 hr 58 min 27 sec) 
Heartbeat CPU 0 instructions: 101000002 cycles: 58034423 heartbeat IPC: 1.36763 cumulative IPC: 1.41314 (Simulation time: 0 hr 59 min 4 sec) 
Heartbeat CPU 0 instructions: 102000003 cycles: 58758244 heartbeat IPC: 1.38156 cumulative IPC: 1.41252 (Simulation time: 0 hr 59 min 42 sec) 
Heartbeat CPU 0 instructions: 103000001 cycles: 59504175 heartbeat IPC: 1.3406 cumulative IPC: 1.4111 (Simulation time: 1 hr 0 min 18 sec) 
Heartbeat CPU 0 instructions: 104000000 cycles: 60225587 heartbeat IPC: 1.38617 cumulative IPC: 1.41063 (Simulation time: 1 hr 0 min 55 sec) 
Heartbeat CPU 0 instructions: 105000003 cycles: 60956441 heartbeat IPC: 1.36827 cumulative IPC: 1.40983 (Simulation time: 1 hr 1 min 34 sec) 
Heartbeat CPU 0 instructions: 106000002 cycles: 61672515 heartbeat IPC: 1.3965 cumulative IPC: 1.40959 (Simulation time: 1 hr 2 min 12 sec) 
Heartbeat CPU 0 instructions: 107000000 cycles: 62393929 heartbeat IPC: 1.38616 cumulative IPC: 1.40917 (Simulation time: 1 hr 2 min 49 sec) 
Heartbeat CPU 0 instructions: 108000000 cycles: 63101561 heartbeat IPC: 1.41316 cumulative IPC: 1.40924 (Simulation time: 1 hr 3 min 29 sec) 
Heartbeat CPU 0 instructions: 109000002 cycles: 63799440 heartbeat IPC: 1.43292 cumulative IPC: 1.40964 (Simulation time: 1 hr 4 min 8 sec) 
Heartbeat CPU 0 instructions: 110000000 cycles: 64507063 heartbeat IPC: 1.41318 cumulative IPC: 1.4097 (Simulation time: 1 hr 4 min 44 sec) 
Heartbeat CPU 0 instructions: 111000002 cycles: 65203281 heartbeat IPC: 1.43633 cumulative IPC: 1.41012 (Simulation time: 1 hr 5 min 23 sec) 
Heartbeat CPU 0 instructions: 112000000 cycles: 65911626 heartbeat IPC: 1.41174 cumulative IPC: 1.41015 (Simulation time: 1 hr 6 min 1 sec) 
Heartbeat CPU 0 instructions: 113000001 cycles: 66609027 heartbeat IPC: 1.4339 cumulative IPC: 1.41052 (Simulation time: 1 hr 6 min 40 sec) 
Heartbeat CPU 0 instructions: 114000000 cycles: 67327930 heartbeat IPC: 1.39101 cumulative IPC: 1.41021 (Simulation time: 1 hr 7 min 19 sec) 
Heartbeat CPU 0 instructions: 115000000 cycles: 68032955 heartbeat IPC: 1.41839 cumulative IPC: 1.41034 (Simulation time: 1 hr 7 min 59 sec) 
Heartbeat CPU 0 instructions: 116000000 cycles: 68742844 heartbeat IPC: 1.40867 cumulative IPC: 1.41031 (Simulation time: 1 hr 8 min 35 sec) 
Heartbeat CPU 0 instructions: 117000003 cycles: 69442772 heartbeat IPC: 1.42872 cumulative IPC: 1.41058 (Simulation time: 1 hr 9 min 11 sec) 
Heartbeat CPU 0 instructions: 118000001 cycles: 70163867 heartbeat IPC: 1.38678 cumulative IPC: 1.41023 (Simulation time: 1 hr 9 min 52 sec) 
Heartbeat CPU 0 instructions: 119000003 cycles: 70871845 heartbeat IPC: 1.41248 cumulative IPC: 1.41026 (Simulation time: 1 hr 10 min 30 sec) 
Heartbeat CPU 0 instructions: 120000000 cycles: 71582100 heartbeat IPC: 1.40794 cumulative IPC: 1.41023 (Simulation time: 1 hr 11 min 8 sec) 
Heartbeat CPU 0 instructions: 121000000 cycles: 72277142 heartbeat IPC: 1.43876 cumulative IPC: 1.41062 (Simulation time: 1 hr 11 min 42 sec) 
Heartbeat CPU 0 instructions: 122000001 cycles: 72978210 heartbeat IPC: 1.4264 cumulative IPC: 1.41084 (Simulation time: 1 hr 12 min 19 sec) 
Heartbeat CPU 0 instructions: 123000001 cycles: 73686909 heartbeat IPC: 1.41104 cumulative IPC: 1.41084 (Simulation time: 1 hr 12 min 55 sec) 
Heartbeat CPU 0 instructions: 124000000 cycles: 74382015 heartbeat IPC: 1.43863 cumulative IPC: 1.41121 (Simulation time: 1 hr 13 min 33 sec) 
Heartbeat CPU 0 instructions: 125000002 cycles: 75090390 heartbeat IPC: 1.41168 cumulative IPC: 1.41121 (Simulation time: 1 hr 14 min 11 sec) 
Heartbeat CPU 0 instructions: 126000001 cycles: 75785151 heartbeat IPC: 1.43934 cumulative IPC: 1.41158 (Simulation time: 1 hr 14 min 48 sec) 
Heartbeat CPU 0 instructions: 127000002 cycles: 76492525 heartbeat IPC: 1.41368 cumulative IPC: 1.41161 (Simulation time: 1 hr 15 min 24 sec) 
Heartbeat CPU 0 instructions: 128000000 cycles: 77185771 heartbeat IPC: 1.44249 cumulative IPC: 1.41199 (Simulation time: 1 hr 16 min 2 sec) 
Heartbeat CPU 0 instructions: 129000001 cycles: 77894964 heartbeat IPC: 1.41005 cumulative IPC: 1.41197 (Simulation time: 1 hr 16 min 39 sec) 
Heartbeat CPU 0 instructions: 130000002 cycles: 78590314 heartbeat IPC: 1.43813 cumulative IPC: 1.41229 (Simulation time: 1 hr 17 min 16 sec) 
Heartbeat CPU 0 instructions: 131000000 cycles: 79300166 heartbeat IPC: 1.40874 cumulative IPC: 1.41225 (Simulation time: 1 hr 17 min 52 sec) 
Heartbeat CPU 0 instructions: 132000000 cycles: 79995467 heartbeat IPC: 1.43823 cumulative IPC: 1.41256 (Simulation time: 1 hr 18 min 25 sec) 
Heartbeat CPU 0 instructions: 133000001 cycles: 80705344 heartbeat IPC: 1.4087 cumulative IPC: 1.41251 (Simulation time: 1 hr 19 min 0 sec) 
Heartbeat CPU 0 instructions: 134000000 cycles: 81400007 heartbeat IPC: 1.43955 cumulative IPC: 1.41283 (Simulation time: 1 hr 19 min 33 sec) 
Heartbeat CPU 0 instructions: 135000001 cycles: 82107865 heartbeat IPC: 1.41271 cumulative IPC: 1.41282 (Simulation time: 1 hr 20 min 7 sec) 
Heartbeat CPU 0 instructions: 136000000 cycles: 82806147 heartbeat IPC: 1.43208 cumulative IPC: 1.41305 (Simulation time: 1 hr 20 min 41 sec) 
Heartbeat CPU 0 instructions: 137000001 cycles: 83503738 heartbeat IPC: 1.43351 cumulative IPC: 1.41328 (Simulation time: 1 hr 21 min 12 sec) 
Heartbeat CPU 0 instructions: 138000002 cycles: 84212628 heartbeat IPC: 1.41066 cumulative IPC: 1.41325 (Simulation time: 1 hr 21 min 46 sec) 
Heartbeat CPU 0 instructions: 139000002 cycles: 84908068 heartbeat IPC: 1.43794 cumulative IPC: 1.41352 (Simulation time: 1 hr 22 min 18 sec) 
Heartbeat CPU 0 instructions: 140000000 cycles: 85623047 heartbeat IPC: 1.39864 cumulative IPC: 1.41335 (Simulation time: 1 hr 22 min 48 sec) 
Heartbeat CPU 0 instructions: 141000001 cycles: 86316881 heartbeat IPC: 1.44127 cumulative IPC: 1.41365 (Simulation time: 1 hr 23 min 20 sec) 
Heartbeat CPU 0 instructions: 142000001 cycles: 87028330 heartbeat IPC: 1.40558 cumulative IPC: 1.41357 (Simulation time: 1 hr 23 min 52 sec) 
Heartbeat CPU 0 instructions: 143000000 cycles: 87725554 heartbeat IPC: 1.43426 cumulative IPC: 1.41379 (Simulation time: 1 hr 24 min 22 sec) 
Heartbeat CPU 0 instructions: 144000000 cycles: 88434227 heartbeat IPC: 1.41109 cumulative IPC: 1.41376 (Simulation time: 1 hr 24 min 54 sec) 
Heartbeat CPU 0 instructions: 145000001 cycles: 89131108 heartbeat IPC: 1.43497 cumulative IPC: 1.41398 (Simulation time: 1 hr 25 min 22 sec) 
Heartbeat CPU 0 instructions: 146000003 cycles: 89851520 heartbeat IPC: 1.3881 cumulative IPC: 1.4137 (Simulation time: 1 hr 25 min 50 sec) 
Heartbeat CPU 0 instructions: 147000002 cycles: 90551537 heartbeat IPC: 1.42854 cumulative IPC: 1.41385 (Simulation time: 1 hr 26 min 16 sec) 
Heartbeat CPU 0 instructions: 148000000 cycles: 91263149 heartbeat IPC: 1.40526 cumulative IPC: 1.41376 (Simulation time: 1 hr 26 min 42 sec) 
Heartbeat CPU 0 instructions: 149000001 cycles: 91968033 heartbeat IPC: 1.41867 cumulative IPC: 1.41381 (Simulation time: 1 hr 27 min 6 sec) 
Heartbeat CPU 0 instructions: 150000001 cycles: 92666753 heartbeat IPC: 1.43119 cumulative IPC: 1.41399 (Simulation time: 1 hr 27 min 31 sec) 
Finished CPU 0 instructions: 100000002 cycles: 70722058 cummulative IPC: 1.41399 (Simulation time: 1 hr 27 min 31 sec) 

ChampSim completed all CPUs

Region of Interest Statistics

CPU 0 cummulative IPC: 1.41399 instructions: 100000002 cycles: 70722058
LLC TOTAL     ACCESS:     823512  HIT:      54633  MISS:     768879
LLC LOAD      ACCESS:      17137  HIT:       3603  MISS:      13534
LLC RFO       ACCESS:     202142  HIT:       3624  MISS:     198518
LLC PREFETCH  ACCESS:     401654  HIT:       1731  MISS:     399923
LLC WRITEBACK ACCESS:     202579  HIT:      45675  MISS:     156904
