
*** ChampSim Multicore Out-of-Order Simulator ***

Warmup Instructions: 50000000
Simulation Instructions: 100000000
Configuration: 2
Number of CPUs: 1
LLC sets: 2048
LLC ways: 16
Off-chip DRAM Channels: 1 Width: 64-bit Data Rate: 1600 MT/s

CPU 0 runs /datasets/cs240c-wi22-a00-public/data/Assignment2-gz/leslie3d_1186B.trace.gz
CPU 0 L1D next line prefetcher
CPU 0 L2C IP-based stride prefetcher
Heartbeat CPU 0 instructions: 1000002 cycles: 564518 heartbeat IPC: 1.77143 cumulative IPC: 1.77143 (Simulation time: 0 hr 0 min 48 sec) 
Heartbeat CPU 0 instructions: 2000000 cycles: 1215884 heartbeat IPC: 1.53523 cumulative IPC: 1.64489 (Simulation time: 0 hr 1 min 37 sec) 
Heartbeat CPU 0 instructions: 3000000 cycles: 1867642 heartbeat IPC: 1.53431 cumulative IPC: 1.6063 (Simulation time: 0 hr 2 min 25 sec) 
Heartbeat CPU 0 instructions: 4000000 cycles: 2473228 heartbeat IPC: 1.65129 cumulative IPC: 1.61732 (Simulation time: 0 hr 3 min 12 sec) 
Heartbeat CPU 0 instructions: 5000000 cycles: 3083572 heartbeat IPC: 1.63842 cumulative IPC: 1.6215 (Simulation time: 0 hr 3 min 56 sec) 
Heartbeat CPU 0 instructions: 6000000 cycles: 3735296 heartbeat IPC: 1.53439 cumulative IPC: 1.6063 (Simulation time: 0 hr 4 min 42 sec) 
Heartbeat CPU 0 instructions: 7000001 cycles: 4386527 heartbeat IPC: 1.53556 cumulative IPC: 1.5958 (Simulation time: 0 hr 5 min 30 sec) 
Heartbeat CPU 0 instructions: 8000000 cycles: 4951107 heartbeat IPC: 1.77123 cumulative IPC: 1.6158 (Simulation time: 0 hr 6 min 16 sec) 
Heartbeat CPU 0 instructions: 9000003 cycles: 5602395 heartbeat IPC: 1.53542 cumulative IPC: 1.60646 (Simulation time: 0 hr 7 min 1 sec) 
Heartbeat CPU 0 instructions: 10000001 cycles: 6253550 heartbeat IPC: 1.53573 cumulative IPC: 1.59909 (Simulation time: 0 hr 7 min 45 sec) 
Heartbeat CPU 0 instructions: 11000000 cycles: 6820328 heartbeat IPC: 1.76436 cumulative IPC: 1.61283 (Simulation time: 0 hr 8 min 30 sec) 
Heartbeat CPU 0 instructions: 12000000 cycles: 7469399 heartbeat IPC: 1.54066 cumulative IPC: 1.60655 (Simulation time: 0 hr 9 min 17 sec) 
Heartbeat CPU 0 instructions: 13000002 cycles: 8120896 heartbeat IPC: 1.53493 cumulative IPC: 1.60081 (Simulation time: 0 hr 10 min 3 sec) 
Heartbeat CPU 0 instructions: 14000000 cycles: 8755307 heartbeat IPC: 1.57626 cumulative IPC: 1.59903 (Simulation time: 0 hr 10 min 47 sec) 
Heartbeat CPU 0 instructions: 15000000 cycles: 9336380 heartbeat IPC: 1.72095 cumulative IPC: 1.60662 (Simulation time: 0 hr 11 min 29 sec) 
Heartbeat CPU 0 instructions: 16000000 cycles: 9987951 heartbeat IPC: 1.53475 cumulative IPC: 1.60193 (Simulation time: 0 hr 12 min 13 sec) 
Heartbeat CPU 0 instructions: 17000000 cycles: 10639023 heartbeat IPC: 1.53593 cumulative IPC: 1.59789 (Simulation time: 0 hr 12 min 57 sec) 
Heartbeat CPU 0 instructions: 18000003 cycles: 11203502 heartbeat IPC: 1.77155 cumulative IPC: 1.60664 (Simulation time: 0 hr 13 min 38 sec) 
Heartbeat CPU 0 instructions: 19000003 cycles: 11854790 heartbeat IPC: 1.53542 cumulative IPC: 1.60273 (Simulation time: 0 hr 14 min 24 sec) 
Heartbeat CPU 0 instructions: 20000000 cycles: 12505945 heartbeat IPC: 1.53573 cumulative IPC: 1.59924 (Simulation time: 0 hr 15 min 9 sec) 
Heartbeat CPU 0 instructions: 21000001 cycles: 13101581 heartbeat IPC: 1.67888 cumulative IPC: 1.60286 (Simulation time: 0 hr 15 min 52 sec) 
Heartbeat CPU 0 instructions: 22000003 cycles: 13721533 heartbeat IPC: 1.61303 cumulative IPC: 1.60332 (Simulation time: 0 hr 16 min 37 sec) 
Heartbeat CPU 0 instructions: 23000001 cycles: 14372673 heartbeat IPC: 1.53576 cumulative IPC: 1.60026 (Simulation time: 0 hr 17 min 23 sec) 
Heartbeat CPU 0 instructions: 24000000 cycles: 15024282 heartbeat IPC: 1.53466 cumulative IPC: 1.59741 (Simulation time: 0 hr 18 min 10 sec) 
Heartbeat CPU 0 instructions: 25000000 cycles: 15588331 heartbeat IPC: 1.7729 cumulative IPC: 1.60376 (Simulation time: 0 hr 18 min 53 sec) 
Heartbeat CPU 0 instructions: 26000003 cycles: 16240283 heartbeat IPC: 1.53386 cumulative IPC: 1.60096 (Simulation time: 0 hr 19 min 40 sec) 
Heartbeat CPU 0 instructions: 27000000 cycles: 16891899 heartbeat IPC: 1.53464 cumulative IPC: 1.5984 (Simulation time: 0 hr 20 min 29 sec) 
Heartbeat CPU 0 instructions: 28000000 cycles: 17456016 heartbeat IPC: 1.77268 cumulative IPC: 1.60403 (Simulation time: 0 hr 21 min 12 sec) 
Heartbeat CPU 0 instructions: 29000002 cycles: 18107453 heartbeat IPC: 1.53507 cumulative IPC: 1.60155 (Simulation time: 0 hr 21 min 59 sec) 
Heartbeat CPU 0 instructions: 30000002 cycles: 18758806 heartbeat IPC: 1.53527 cumulative IPC: 1.59925 (Simulation time: 0 hr 22 min 48 sec) 
Heartbeat CPU 0 instructions: 31000002 cycles: 19382853 heartbeat IPC: 1.60244 cumulative IPC: 1.59935 (Simulation time: 0 hr 23 min 35 sec) 
Heartbeat CPU 0 instructions: 32000000 cycles: 19974339 heartbeat IPC: 1.69065 cumulative IPC: 1.60206 (Simulation time: 0 hr 24 min 19 sec) 
Heartbeat CPU 0 instructions: 33000000 cycles: 20625900 heartbeat IPC: 1.53478 cumulative IPC: 1.59993 (Simulation time: 0 hr 25 min 6 sec) 
Heartbeat CPU 0 instructions: 34000000 cycles: 21277918 heartbeat IPC: 1.5337 cumulative IPC: 1.5979 (Simulation time: 0 hr 25 min 52 sec) 
Heartbeat CPU 0 instructions: 35000000 cycles: 21842154 heartbeat IPC: 1.77231 cumulative IPC: 1.60241 (Simulation time: 0 hr 26 min 34 sec) 
Heartbeat CPU 0 instructions: 36000000 cycles: 22493717 heartbeat IPC: 1.53477 cumulative IPC: 1.60045 (Simulation time: 0 hr 27 min 20 sec) 
Heartbeat CPU 0 instructions: 37000003 cycles: 23145412 heartbeat IPC: 1.53446 cumulative IPC: 1.59859 (Simulation time: 0 hr 28 min 6 sec) 
Heartbeat CPU 0 instructions: 38000002 cycles: 23731096 heartbeat IPC: 1.7074 cumulative IPC: 1.60127 (Simulation time: 0 hr 28 min 48 sec) 
Heartbeat CPU 0 instructions: 39000000 cycles: 24361315 heartbeat IPC: 1.58675 cumulative IPC: 1.6009 (Simulation time: 0 hr 29 min 33 sec) 
Heartbeat CPU 0 instructions: 40000000 cycles: 25013127 heartbeat IPC: 1.53418 cumulative IPC: 1.59916 (Simulation time: 0 hr 30 min 20 sec) 
Heartbeat CPU 0 instructions: 41000000 cycles: 25664105 heartbeat IPC: 1.53615 cumulative IPC: 1.59756 (Simulation time: 0 hr 31 min 7 sec) 
Heartbeat CPU 0 instructions: 42000000 cycles: 26228918 heartbeat IPC: 1.7705 cumulative IPC: 1.60129 (Simulation time: 0 hr 31 min 50 sec) 
Heartbeat CPU 0 instructions: 43000002 cycles: 26880005 heartbeat IPC: 1.5359 cumulative IPC: 1.5997 (Simulation time: 0 hr 32 min 35 sec) 
Heartbeat CPU 0 instructions: 44000000 cycles: 27531509 heartbeat IPC: 1.53491 cumulative IPC: 1.59817 (Simulation time: 0 hr 33 min 24 sec) 
Heartbeat CPU 0 instructions: 45000001 cycles: 28090645 heartbeat IPC: 1.78848 cumulative IPC: 1.60196 (Simulation time: 0 hr 34 min 8 sec) 
Heartbeat CPU 0 instructions: 46000001 cycles: 28591381 heartbeat IPC: 1.99706 cumulative IPC: 1.60888 (Simulation time: 0 hr 34 min 54 sec) 
Heartbeat CPU 0 instructions: 47000001 cycles: 29092055 heartbeat IPC: 1.99731 cumulative IPC: 1.61556 (Simulation time: 0 hr 35 min 40 sec) 
Heartbeat CPU 0 instructions: 48000000 cycles: 29592911 heartbeat IPC: 1.99658 cumulative IPC: 1.62201 (Simulation time: 0 hr 36 min 23 sec) 
Heartbeat CPU 0 instructions: 49000002 cycles: 30093298 heartbeat IPC: 1.99846 cumulative IPC: 1.62827 (Simulation time: 0 hr 37 min 6 sec) 
Heartbeat CPU 0 instructions: 50000001 cycles: 30594225 heartbeat IPC: 1.9963 cumulative IPC: 1.6343 (Simulation time: 0 hr 37 min 49 sec) 

Warmup complete CPU 0 instructions: 50000001 cycles: 30594225 (Simulation time: 0 hr 37 min 49 sec) 

Heartbeat CPU 0 instructions: 51000000 cycles: 32613056 heartbeat IPC: 0.495336 cumulative IPC: 0.495336 (Simulation time: 0 hr 38 min 44 sec) 
Heartbeat CPU 0 instructions: 52000000 cycles: 34589981 heartbeat IPC: 0.505836 cumulative IPC: 0.500531 (Simulation time: 0 hr 39 min 38 sec) 
Heartbeat CPU 0 instructions: 53000003 cycles: 36590764 heartbeat IPC: 0.499806 cumulative IPC: 0.500289 (Simulation time: 0 hr 40 min 31 sec) 
Heartbeat CPU 0 instructions: 54000003 cycles: 38607142 heartbeat IPC: 0.495939 cumulative IPC: 0.499194 (Simulation time: 0 hr 41 min 24 sec) 
Heartbeat CPU 0 instructions: 55000001 cycles: 40840206 heartbeat IPC: 0.447814 cumulative IPC: 0.487996 (Simulation time: 0 hr 42 min 20 sec) 
Heartbeat CPU 0 instructions: 56000000 cycles: 43225755 heartbeat IPC: 0.41919 cumulative IPC: 0.475002 (Simulation time: 0 hr 43 min 14 sec) 
Heartbeat CPU 0 instructions: 57000001 cycles: 45635884 heartbeat IPC: 0.414916 cumulative IPC: 0.465374 (Simulation time: 0 hr 44 min 6 sec) 
Heartbeat CPU 0 instructions: 58000001 cycles: 48113700 heartbeat IPC: 0.403581 cumulative IPC: 0.456635 (Simulation time: 0 hr 45 min 1 sec) 
Heartbeat CPU 0 instructions: 59000003 cycles: 50446397 heartbeat IPC: 0.428689 cumulative IPC: 0.453351 (Simulation time: 0 hr 45 min 54 sec) 
Heartbeat CPU 0 instructions: 60000000 cycles: 52763154 heartbeat IPC: 0.431637 cumulative IPC: 0.451082 (Simulation time: 0 hr 46 min 49 sec) 
Heartbeat CPU 0 instructions: 61000003 cycles: 55092261 heartbeat IPC: 0.42935 cumulative IPC: 0.449016 (Simulation time: 0 hr 47 min 44 sec) 
Heartbeat CPU 0 instructions: 62000001 cycles: 57456366 heartbeat IPC: 0.422992 cumulative IPC: 0.446725 (Simulation time: 0 hr 48 min 38 sec) 
Heartbeat CPU 0 instructions: 63000000 cycles: 59453447 heartbeat IPC: 0.50073 cumulative IPC: 0.450463 (Simulation time: 0 hr 49 min 28 sec) 
Heartbeat CPU 0 instructions: 64000000 cycles: 60778732 heartbeat IPC: 0.754555 cumulative IPC: 0.463814 (Simulation time: 0 hr 50 min 12 sec) 
Heartbeat CPU 0 instructions: 65000000 cycles: 62138250 heartbeat IPC: 0.735555 cumulative IPC: 0.475526 (Simulation time: 0 hr 51 min 1 sec) 
Heartbeat CPU 0 instructions: 66000002 cycles: 63496710 heartbeat IPC: 0.736129 cumulative IPC: 0.486285 (Simulation time: 0 hr 51 min 48 sec) 
Heartbeat CPU 0 instructions: 67000000 cycles: 64844887 heartbeat IPC: 0.741741 cumulative IPC: 0.496341 (Simulation time: 0 hr 52 min 36 sec) 
Heartbeat CPU 0 instructions: 68000000 cycles: 66239671 heartbeat IPC: 0.716957 cumulative IPC: 0.504973 (Simulation time: 0 hr 53 min 23 sec) 
Heartbeat CPU 0 instructions: 69000000 cycles: 67571386 heartbeat IPC: 0.750911 cumulative IPC: 0.513831 (Simulation time: 0 hr 54 min 12 sec) 
Heartbeat CPU 0 instructions: 70000000 cycles: 68942388 heartbeat IPC: 0.729394 cumulative IPC: 0.521537 (Simulation time: 0 hr 55 min 2 sec) 
Heartbeat CPU 0 instructions: 71000000 cycles: 70266513 heartbeat IPC: 0.755216 cumulative IPC: 0.529337 (Simulation time: 0 hr 55 min 51 sec) 
Heartbeat CPU 0 instructions: 72000000 cycles: 71613163 heartbeat IPC: 0.742583 cumulative IPC: 0.536338 (Simulation time: 0 hr 56 min 38 sec) 
Heartbeat CPU 0 instructions: 73000000 cycles: 72960971 heartbeat IPC: 0.741945 cumulative IPC: 0.542879 (Simulation time: 0 hr 57 min 28 sec) 
Heartbeat CPU 0 instructions: 74000000 cycles: 74280396 heartbeat IPC: 0.757906 cumulative IPC: 0.549373 (Simulation time: 0 hr 58 min 15 sec) 
Heartbeat CPU 0 instructions: 75000003 cycles: 75645929 heartbeat IPC: 0.732317 cumulative IPC: 0.554918 (Simulation time: 0 hr 59 min 4 sec) 
Heartbeat CPU 0 instructions: 76000000 cycles: 76969547 heartbeat IPC: 0.755503 cumulative IPC: 0.560643 (Simulation time: 0 hr 59 min 54 sec) 
Heartbeat CPU 0 instructions: 77000000 cycles: 78330349 heartbeat IPC: 0.734861 cumulative IPC: 0.565609 (Simulation time: 1 hr 0 min 40 sec) 
Heartbeat CPU 0 instructions: 78000001 cycles: 79672469 heartbeat IPC: 0.745091 cumulative IPC: 0.570518 (Simulation time: 1 hr 1 min 28 sec) 
Heartbeat CPU 0 instructions: 79000002 cycles: 81024230 heartbeat IPC: 0.739776 cumulative IPC: 0.575054 (Simulation time: 1 hr 2 min 12 sec) 
Heartbeat CPU 0 instructions: 80000000 cycles: 82397033 heartbeat IPC: 0.728435 cumulative IPC: 0.579119 (Simulation time: 1 hr 2 min 59 sec) 
Heartbeat CPU 0 instructions: 81000000 cycles: 83732144 heartbeat IPC: 0.749001 cumulative IPC: 0.583388 (Simulation time: 1 hr 3 min 49 sec) 
Heartbeat CPU 0 instructions: 82000003 cycles: 85105922 heartbeat IPC: 0.727922 cumulative IPC: 0.58703 (Simulation time: 1 hr 4 min 35 sec) 
Heartbeat CPU 0 instructions: 83000001 cycles: 86449732 heartbeat IPC: 0.744151 cumulative IPC: 0.59081 (Simulation time: 1 hr 5 min 23 sec) 
Heartbeat CPU 0 instructions: 84000000 cycles: 87791173 heartbeat IPC: 0.745466 cumulative IPC: 0.594437 (Simulation time: 1 hr 6 min 11 sec) 
Heartbeat CPU 0 instructions: 85000001 cycles: 89118413 heartbeat IPC: 0.753444 cumulative IPC: 0.598043 (Simulation time: 1 hr 7 min 0 sec) 
Heartbeat CPU 0 instructions: 86000003 cycles: 90451842 heartbeat IPC: 0.749948 cumulative IPC: 0.601427 (Simulation time: 1 hr 7 min 47 sec) 
Heartbeat CPU 0 instructions: 87000001 cycles: 91793850 heartbeat IPC: 0.745151 cumulative IPC: 0.604579 (Simulation time: 1 hr 8 min 37 sec) 
Heartbeat CPU 0 instructions: 88000000 cycles: 93135885 heartbeat IPC: 0.745136 cumulative IPC: 0.607595 (Simulation time: 1 hr 9 min 24 sec) 
Heartbeat CPU 0 instructions: 89000001 cycles: 94485135 heartbeat IPC: 0.741153 cumulative IPC: 0.610415 (Simulation time: 1 hr 10 min 12 sec) 
Heartbeat CPU 0 instructions: 90000002 cycles: 95831074 heartbeat IPC: 0.742976 cumulative IPC: 0.61315 (Simulation time: 1 hr 11 min 1 sec) 
Heartbeat CPU 0 instructions: 91000000 cycles: 97182525 heartbeat IPC: 0.739944 cumulative IPC: 0.615724 (Simulation time: 1 hr 11 min 50 sec) 
Heartbeat CPU 0 instructions: 92000000 cycles: 98512681 heartbeat IPC: 0.751792 cumulative IPC: 0.618389 (Simulation time: 1 hr 12 min 39 sec) 
Heartbeat CPU 0 instructions: 93000002 cycles: 99867619 heartbeat IPC: 0.738043 cumulative IPC: 0.620729 (Simulation time: 1 hr 13 min 27 sec) 
Heartbeat CPU 0 instructions: 94000000 cycles: 101189427 heartbeat IPC: 0.756538 cumulative IPC: 0.623272 (Simulation time: 1 hr 14 min 16 sec) 
Heartbeat CPU 0 instructions: 95000003 cycles: 102517873 heartbeat IPC: 0.752761 cumulative IPC: 0.625664 (Simulation time: 1 hr 15 min 3 sec) 
Heartbeat CPU 0 instructions: 96000000 cycles: 103874383 heartbeat IPC: 0.737184 cumulative IPC: 0.627728 (Simulation time: 1 hr 15 min 47 sec) 
Heartbeat CPU 0 instructions: 97000001 cycles: 105200682 heartbeat IPC: 0.753979 cumulative IPC: 0.629972 (Simulation time: 1 hr 16 min 30 sec) 
Heartbeat CPU 0 instructions: 98000002 cycles: 106557403 heartbeat IPC: 0.737072 cumulative IPC: 0.631885 (Simulation time: 1 hr 17 min 12 sec) 
Heartbeat CPU 0 instructions: 99000000 cycles: 107886200 heartbeat IPC: 0.752559 cumulative IPC: 0.63396 (Simulation time: 1 hr 17 min 56 sec) 
Heartbeat CPU 0 instructions: 100000000 cycles: 109263420 heartbeat IPC: 0.7261 cumulative IPC: 0.635573 (Simulation time: 1 hr 18 min 38 sec) 
Heartbeat CPU 0 instructions: 101000000 cycles: 110610189 heartbeat IPC: 0.742518 cumulative IPC: 0.637373 (Simulation time: 1 hr 19 min 19 sec) 
Heartbeat CPU 0 instructions: 102000001 cycles: 111942210 heartbeat IPC: 0.75074 cumulative IPC: 0.639229 (Simulation time: 1 hr 19 min 59 sec) 
Heartbeat CPU 0 instructions: 103000001 cycles: 113306021 heartbeat IPC: 0.733239 cumulative IPC: 0.640779 (Simulation time: 1 hr 20 min 41 sec) 
Heartbeat CPU 0 instructions: 104000000 cycles: 114631042 heartbeat IPC: 0.754704 cumulative IPC: 0.642576 (Simulation time: 1 hr 21 min 20 sec) 
Heartbeat CPU 0 instructions: 105000001 cycles: 116007963 heartbeat IPC: 0.726259 cumulative IPC: 0.643925 (Simulation time: 1 hr 22 min 0 sec) 
Heartbeat CPU 0 instructions: 106000002 cycles: 117345302 heartbeat IPC: 0.747754 cumulative IPC: 0.645525 (Simulation time: 1 hr 22 min 39 sec) 
Heartbeat CPU 0 instructions: 107000000 cycles: 118699656 heartbeat IPC: 0.738358 cumulative IPC: 0.646952 (Simulation time: 1 hr 23 min 19 sec) 
Heartbeat CPU 0 instructions: 108000000 cycles: 120033449 heartbeat IPC: 0.749742 cumulative IPC: 0.648485 (Simulation time: 1 hr 23 min 59 sec) 
Heartbeat CPU 0 instructions: 109000003 cycles: 121366394 heartbeat IPC: 0.750221 cumulative IPC: 0.649979 (Simulation time: 1 hr 24 min 40 sec) 
Heartbeat CPU 0 instructions: 110000001 cycles: 122734813 heartbeat IPC: 0.730769 cumulative IPC: 0.651179 (Simulation time: 1 hr 25 min 17 sec) 
Heartbeat CPU 0 instructions: 111000001 cycles: 124036645 heartbeat IPC: 0.768148 cumulative IPC: 0.652808 (Simulation time: 1 hr 25 min 54 sec) 
Heartbeat CPU 0 instructions: 112000000 cycles: 125434372 heartbeat IPC: 0.715447 cumulative IPC: 0.653732 (Simulation time: 1 hr 26 min 28 sec) 
Heartbeat CPU 0 instructions: 113000000 cycles: 127028211 heartbeat IPC: 0.627416 cumulative IPC: 0.653297 (Simulation time: 1 hr 27 min 1 sec) 
Heartbeat CPU 0 instructions: 114000000 cycles: 128630381 heartbeat IPC: 0.624153 cumulative IPC: 0.65282 (Simulation time: 1 hr 27 min 31 sec) 
Heartbeat CPU 0 instructions: 115000000 cycles: 130255576 heartbeat IPC: 0.615311 cumulative IPC: 0.652209 (Simulation time: 1 hr 28 min 1 sec) 
Heartbeat CPU 0 instructions: 116000000 cycles: 131882313 heartbeat IPC: 0.614727 cumulative IPC: 0.651607 (Simulation time: 1 hr 28 min 29 sec) 
Heartbeat CPU 0 instructions: 117000001 cycles: 133531493 heartbeat IPC: 0.606363 cumulative IPC: 0.650882 (Simulation time: 1 hr 28 min 56 sec) 
Heartbeat CPU 0 instructions: 118000000 cycles: 135164977 heartbeat IPC: 0.612188 cumulative IPC: 0.650277 (Simulation time: 1 hr 29 min 21 sec) 
Heartbeat CPU 0 instructions: 119000001 cycles: 136811253 heartbeat IPC: 0.607432 cumulative IPC: 0.649613 (Simulation time: 1 hr 29 min 46 sec) 
Heartbeat CPU 0 instructions: 120000000 cycles: 138474118 heartbeat IPC: 0.601371 cumulative IPC: 0.64887 (Simulation time: 1 hr 30 min 12 sec) 
Heartbeat CPU 0 instructions: 121000002 cycles: 140113061 heartbeat IPC: 0.610151 cumulative IPC: 0.64829 (Simulation time: 1 hr 30 min 37 sec) 
Heartbeat CPU 0 instructions: 122000000 cycles: 141775560 heartbeat IPC: 0.601503 cumulative IPC: 0.647591 (Simulation time: 1 hr 31 min 2 sec) 
Heartbeat CPU 0 instructions: 123000002 cycles: 143404329 heartbeat IPC: 0.613962 cumulative IPC: 0.647105 (Simulation time: 1 hr 31 min 26 sec) 
Heartbeat CPU 0 instructions: 124000000 cycles: 145057500 heartbeat IPC: 0.604897 cumulative IPC: 0.646496 (Simulation time: 1 hr 31 min 49 sec) 
Heartbeat CPU 0 instructions: 125000003 cycles: 146701082 heartbeat IPC: 0.608429 cumulative IPC: 0.645957 (Simulation time: 1 hr 32 min 15 sec) 
Heartbeat CPU 0 instructions: 126000000 cycles: 148335328 heartbeat IPC: 0.611901 cumulative IPC: 0.645484 (Simulation time: 1 hr 32 min 40 sec) 
Heartbeat CPU 0 instructions: 127000001 cycles: 150020139 heartbeat IPC: 0.593539 cumulative IPC: 0.644751 (Simulation time: 1 hr 33 min 6 sec) 
Heartbeat CPU 0 instructions: 128000000 cycles: 151660322 heartbeat IPC: 0.609687 cumulative IPC: 0.644276 (Simulation time: 1 hr 33 min 30 sec) 
Heartbeat CPU 0 instructions: 129000001 cycles: 153287475 heartbeat IPC: 0.614571 cumulative IPC: 0.643882 (Simulation time: 1 hr 33 min 54 sec) 
Heartbeat CPU 0 instructions: 130000003 cycles: 154957369 heartbeat IPC: 0.598842 cumulative IPC: 0.643277 (Simulation time: 1 hr 34 min 18 sec) 
Heartbeat CPU 0 instructions: 131000001 cycles: 160361248 heartbeat IPC: 0.185052 cumulative IPC: 0.624196 (Simulation time: 1 hr 35 min 3 sec) 
Heartbeat CPU 0 instructions: 132000000 cycles: 163335213 heartbeat IPC: 0.336251 cumulative IPC: 0.617744 (Simulation time: 1 hr 35 min 38 sec) 
Heartbeat CPU 0 instructions: 133000002 cycles: 166031746 heartbeat IPC: 0.370847 cumulative IPC: 0.612829 (Simulation time: 1 hr 36 min 9 sec) 
Heartbeat CPU 0 instructions: 134000000 cycles: 167310086 heartbeat IPC: 0.782263 cumulative IPC: 0.614413 (Simulation time: 1 hr 36 min 24 sec) 
Heartbeat CPU 0 instructions: 135000001 cycles: 168599694 heartbeat IPC: 0.77543 cumulative IPC: 0.615918 (Simulation time: 1 hr 36 min 39 sec) 
Heartbeat CPU 0 instructions: 136000000 cycles: 169973244 heartbeat IPC: 0.72804 cumulative IPC: 0.617023 (Simulation time: 1 hr 36 min 56 sec) 
Heartbeat CPU 0 instructions: 137000001 cycles: 171423007 heartbeat IPC: 0.689769 cumulative IPC: 0.617771 (Simulation time: 1 hr 37 min 13 sec) 
Heartbeat CPU 0 instructions: 138000003 cycles: 172929127 heartbeat IPC: 0.663959 cumulative IPC: 0.61826 (Simulation time: 1 hr 37 min 31 sec) 
Heartbeat CPU 0 instructions: 139000001 cycles: 174403426 heartbeat IPC: 0.678287 cumulative IPC: 0.618876 (Simulation time: 1 hr 37 min 48 sec) 
Heartbeat CPU 0 instructions: 140000000 cycles: 175903375 heartbeat IPC: 0.666689 cumulative IPC: 0.619369 (Simulation time: 1 hr 38 min 5 sec) 
Heartbeat CPU 0 instructions: 141000003 cycles: 177389950 heartbeat IPC: 0.672689 cumulative IPC: 0.619909 (Simulation time: 1 hr 38 min 22 sec) 
Heartbeat CPU 0 instructions: 142000003 cycles: 178892932 heartbeat IPC: 0.665344 cumulative IPC: 0.62037 (Simulation time: 1 hr 38 min 38 sec) 
Heartbeat CPU 0 instructions: 143000003 cycles: 180362000 heartbeat IPC: 0.680704 cumulative IPC: 0.620961 (Simulation time: 1 hr 38 min 54 sec) 
Heartbeat CPU 0 instructions: 144000000 cycles: 181845447 heartbeat IPC: 0.674104 cumulative IPC: 0.621483 (Simulation time: 1 hr 39 min 9 sec) 
Heartbeat CPU 0 instructions: 145000001 cycles: 183340236 heartbeat IPC: 0.668991 cumulative IPC: 0.621948 (Simulation time: 1 hr 39 min 23 sec) 
Heartbeat CPU 0 instructions: 146000003 cycles: 184803611 heartbeat IPC: 0.683353 cumulative IPC: 0.62253 (Simulation time: 1 hr 39 min 37 sec) 
Heartbeat CPU 0 instructions: 147000001 cycles: 187143245 heartbeat IPC: 0.427416 cumulative IPC: 0.619614 (Simulation time: 1 hr 39 min 53 sec) 
Heartbeat CPU 0 instructions: 148000000 cycles: 189705339 heartbeat IPC: 0.390305 cumulative IPC: 0.615922 (Simulation time: 1 hr 40 min 9 sec) 
Heartbeat CPU 0 instructions: 149000003 cycles: 192207465 heartbeat IPC: 0.399661 cumulative IPC: 0.612574 (Simulation time: 1 hr 40 min 25 sec) 
Heartbeat CPU 0 instructions: 150000001 cycles: 194771938 heartbeat IPC: 0.389943 cumulative IPC: 0.609096 (Simulation time: 1 hr 40 min 40 sec) 
Finished CPU 0 instructions: 100000000 cycles: 164177713 cummulative IPC: 0.609096 (Simulation time: 1 hr 40 min 40 sec) 

ChampSim completed all CPUs

Region of Interest Statistics

CPU 0 cummulative IPC: 0.609096 instructions: 100000000 cycles: 164177713
LLC TOTAL     ACCESS:    4666023  HIT:     974611  MISS:    3691412
LLC LOAD      ACCESS:     475502  HIT:      51512  MISS:     423990
LLC RFO       ACCESS:     797351  HIT:      92471  MISS:     704880
LLC PREFETCH  ACCESS:    2248980  HIT:     115265  MISS:    2133715
LLC WRITEBACK ACCESS:    1144190  HIT:     715363  MISS:     428827
