
*** ChampSim Multicore Out-of-Order Simulator ***

Warmup Instructions: 50000000
Simulation Instructions: 100000000
Configuration: 2
Number of CPUs: 1
LLC sets: 2048
LLC ways: 16
Off-chip DRAM Channels: 1 Width: 64-bit Data Rate: 1600 MT/s

CPU 0 runs /datasets/cs240c-wi22-a00-public/data/Assignment2-gz/wrf_1228B.trace.gz
CPU 0 L1D next line prefetcher
CPU 0 L2C IP-based stride prefetcher
Heartbeat CPU 0 instructions: 1000003 cycles: 591062 heartbeat IPC: 1.69187 cumulative IPC: 1.69187 (Simulation time: 0 hr 0 min 45 sec) 
Heartbeat CPU 0 instructions: 2000002 cycles: 1111152 heartbeat IPC: 1.92274 cumulative IPC: 1.79994 (Simulation time: 0 hr 1 min 24 sec) 
Heartbeat CPU 0 instructions: 3000000 cycles: 1729111 heartbeat IPC: 1.61823 cumulative IPC: 1.735 (Simulation time: 0 hr 2 min 3 sec) 
Heartbeat CPU 0 instructions: 4000000 cycles: 2349763 heartbeat IPC: 1.61121 cumulative IPC: 1.7023 (Simulation time: 0 hr 2 min 48 sec) 
Heartbeat CPU 0 instructions: 5000000 cycles: 3052127 heartbeat IPC: 1.42376 cumulative IPC: 1.6382 (Simulation time: 0 hr 3 min 33 sec) 
Heartbeat CPU 0 instructions: 6000000 cycles: 3612217 heartbeat IPC: 1.78543 cumulative IPC: 1.66103 (Simulation time: 0 hr 4 min 15 sec) 
Heartbeat CPU 0 instructions: 7000001 cycles: 4164978 heartbeat IPC: 1.8091 cumulative IPC: 1.68068 (Simulation time: 0 hr 4 min 56 sec) 
Heartbeat CPU 0 instructions: 8000000 cycles: 4716342 heartbeat IPC: 1.81368 cumulative IPC: 1.69623 (Simulation time: 0 hr 5 min 39 sec) 
Heartbeat CPU 0 instructions: 9000002 cycles: 5266532 heartbeat IPC: 1.81756 cumulative IPC: 1.7089 (Simulation time: 0 hr 6 min 21 sec) 
Heartbeat CPU 0 instructions: 10000001 cycles: 5819428 heartbeat IPC: 1.80866 cumulative IPC: 1.71838 (Simulation time: 0 hr 7 min 3 sec) 
Heartbeat CPU 0 instructions: 11000002 cycles: 6373163 heartbeat IPC: 1.80592 cumulative IPC: 1.72599 (Simulation time: 0 hr 7 min 44 sec) 
Heartbeat CPU 0 instructions: 12000000 cycles: 6923987 heartbeat IPC: 1.81546 cumulative IPC: 1.73311 (Simulation time: 0 hr 8 min 26 sec) 
Heartbeat CPU 0 instructions: 13000003 cycles: 7475018 heartbeat IPC: 1.81479 cumulative IPC: 1.73913 (Simulation time: 0 hr 9 min 7 sec) 
Heartbeat CPU 0 instructions: 14000000 cycles: 7938654 heartbeat IPC: 2.15686 cumulative IPC: 1.76352 (Simulation time: 0 hr 9 min 45 sec) 
Heartbeat CPU 0 instructions: 15000002 cycles: 8329140 heartbeat IPC: 2.56092 cumulative IPC: 1.80091 (Simulation time: 0 hr 10 min 20 sec) 
Heartbeat CPU 0 instructions: 16000000 cycles: 8719611 heartbeat IPC: 2.561 cumulative IPC: 1.83494 (Simulation time: 0 hr 10 min 54 sec) 
Heartbeat CPU 0 instructions: 17000001 cycles: 9108787 heartbeat IPC: 2.56953 cumulative IPC: 1.86633 (Simulation time: 0 hr 11 min 28 sec) 
Heartbeat CPU 0 instructions: 18000003 cycles: 9499535 heartbeat IPC: 2.5592 cumulative IPC: 1.89483 (Simulation time: 0 hr 12 min 3 sec) 
Heartbeat CPU 0 instructions: 19000001 cycles: 9889897 heartbeat IPC: 2.56172 cumulative IPC: 1.92115 (Simulation time: 0 hr 12 min 37 sec) 
Heartbeat CPU 0 instructions: 20000000 cycles: 10279417 heartbeat IPC: 2.56726 cumulative IPC: 1.94564 (Simulation time: 0 hr 13 min 11 sec) 
Heartbeat CPU 0 instructions: 21000003 cycles: 10669377 heartbeat IPC: 2.56437 cumulative IPC: 1.96825 (Simulation time: 0 hr 13 min 45 sec) 
Heartbeat CPU 0 instructions: 22000000 cycles: 11071736 heartbeat IPC: 2.48534 cumulative IPC: 1.98704 (Simulation time: 0 hr 14 min 20 sec) 
Heartbeat CPU 0 instructions: 23000003 cycles: 11599072 heartbeat IPC: 1.89633 cumulative IPC: 1.98292 (Simulation time: 0 hr 15 min 0 sec) 
Heartbeat CPU 0 instructions: 24000000 cycles: 12126764 heartbeat IPC: 1.89504 cumulative IPC: 1.97909 (Simulation time: 0 hr 15 min 43 sec) 
Heartbeat CPU 0 instructions: 25000000 cycles: 12654057 heartbeat IPC: 1.89648 cumulative IPC: 1.97565 (Simulation time: 0 hr 16 min 26 sec) 
Heartbeat CPU 0 instructions: 26000003 cycles: 13181031 heartbeat IPC: 1.89763 cumulative IPC: 1.97253 (Simulation time: 0 hr 17 min 6 sec) 
Heartbeat CPU 0 instructions: 27000001 cycles: 13707917 heartbeat IPC: 1.89794 cumulative IPC: 1.96966 (Simulation time: 0 hr 17 min 50 sec) 
Heartbeat CPU 0 instructions: 28000000 cycles: 14234976 heartbeat IPC: 1.89732 cumulative IPC: 1.96699 (Simulation time: 0 hr 18 min 29 sec) 
Heartbeat CPU 0 instructions: 29000003 cycles: 14865503 heartbeat IPC: 1.58598 cumulative IPC: 1.95083 (Simulation time: 0 hr 19 min 13 sec) 
Heartbeat CPU 0 instructions: 30000003 cycles: 15478957 heartbeat IPC: 1.63011 cumulative IPC: 1.93812 (Simulation time: 0 hr 19 min 59 sec) 
Heartbeat CPU 0 instructions: 31000001 cycles: 16036143 heartbeat IPC: 1.79473 cumulative IPC: 1.93313 (Simulation time: 0 hr 20 min 44 sec) 
Heartbeat CPU 0 instructions: 32000000 cycles: 16591598 heartbeat IPC: 1.80032 cumulative IPC: 1.92869 (Simulation time: 0 hr 21 min 27 sec) 
Heartbeat CPU 0 instructions: 33000001 cycles: 17212417 heartbeat IPC: 1.61078 cumulative IPC: 1.91722 (Simulation time: 0 hr 22 min 13 sec) 
Heartbeat CPU 0 instructions: 34000003 cycles: 17832995 heartbeat IPC: 1.6114 cumulative IPC: 1.90658 (Simulation time: 0 hr 23 min 0 sec) 
Heartbeat CPU 0 instructions: 35000002 cycles: 18516416 heartbeat IPC: 1.46323 cumulative IPC: 1.89021 (Simulation time: 0 hr 23 min 45 sec) 
Heartbeat CPU 0 instructions: 36000000 cycles: 19069230 heartbeat IPC: 1.80892 cumulative IPC: 1.88786 (Simulation time: 0 hr 24 min 26 sec) 
Heartbeat CPU 0 instructions: 37000001 cycles: 19622716 heartbeat IPC: 1.80673 cumulative IPC: 1.88557 (Simulation time: 0 hr 25 min 6 sec) 
Heartbeat CPU 0 instructions: 38000001 cycles: 20172908 heartbeat IPC: 1.81755 cumulative IPC: 1.88371 (Simulation time: 0 hr 25 min 47 sec) 
Heartbeat CPU 0 instructions: 39000002 cycles: 20724378 heartbeat IPC: 1.81334 cumulative IPC: 1.88184 (Simulation time: 0 hr 26 min 29 sec) 
Heartbeat CPU 0 instructions: 40000000 cycles: 21276846 heartbeat IPC: 1.81006 cumulative IPC: 1.87998 (Simulation time: 0 hr 27 min 10 sec) 
Heartbeat CPU 0 instructions: 41000000 cycles: 21829347 heartbeat IPC: 1.80995 cumulative IPC: 1.87821 (Simulation time: 0 hr 27 min 51 sec) 
Heartbeat CPU 0 instructions: 42000000 cycles: 22381814 heartbeat IPC: 1.81006 cumulative IPC: 1.87652 (Simulation time: 0 hr 28 min 31 sec) 
Heartbeat CPU 0 instructions: 43000000 cycles: 22932310 heartbeat IPC: 1.81654 cumulative IPC: 1.87508 (Simulation time: 0 hr 29 min 12 sec) 
Heartbeat CPU 0 instructions: 44000000 cycles: 23336154 heartbeat IPC: 2.4762 cumulative IPC: 1.88549 (Simulation time: 0 hr 29 min 47 sec) 
Heartbeat CPU 0 instructions: 45000000 cycles: 23725677 heartbeat IPC: 2.56724 cumulative IPC: 1.89668 (Simulation time: 0 hr 30 min 22 sec) 
Heartbeat CPU 0 instructions: 46000000 cycles: 24115808 heartbeat IPC: 2.56324 cumulative IPC: 1.90746 (Simulation time: 0 hr 30 min 55 sec) 
Heartbeat CPU 0 instructions: 47000002 cycles: 24506319 heartbeat IPC: 2.56075 cumulative IPC: 1.91787 (Simulation time: 0 hr 31 min 32 sec) 
Heartbeat CPU 0 instructions: 48000000 cycles: 24896426 heartbeat IPC: 2.56339 cumulative IPC: 1.92799 (Simulation time: 0 hr 32 min 8 sec) 
Heartbeat CPU 0 instructions: 49000001 cycles: 25285685 heartbeat IPC: 2.56899 cumulative IPC: 1.93786 (Simulation time: 0 hr 32 min 43 sec) 
Heartbeat CPU 0 instructions: 50000003 cycles: 25676349 heartbeat IPC: 2.55975 cumulative IPC: 1.94732 (Simulation time: 0 hr 33 min 18 sec) 

Warmup complete CPU 0 instructions: 50000003 cycles: 25676349 (Simulation time: 0 hr 33 min 18 sec) 

Heartbeat CPU 0 instructions: 51000001 cycles: 26566272 heartbeat IPC: 1.12369 cumulative IPC: 1.12369 (Simulation time: 0 hr 33 min 55 sec) 
Heartbeat CPU 0 instructions: 52000000 cycles: 27475529 heartbeat IPC: 1.0998 cumulative IPC: 1.11162 (Simulation time: 0 hr 34 min 34 sec) 
Heartbeat CPU 0 instructions: 53000002 cycles: 28418436 heartbeat IPC: 1.06055 cumulative IPC: 1.09406 (Simulation time: 0 hr 35 min 16 sec) 
Heartbeat CPU 0 instructions: 54000001 cycles: 29407512 heartbeat IPC: 1.01104 cumulative IPC: 1.07205 (Simulation time: 0 hr 35 min 59 sec) 
Heartbeat CPU 0 instructions: 55000003 cycles: 30425280 heartbeat IPC: 0.982544 cumulative IPC: 1.05287 (Simulation time: 0 hr 36 min 40 sec) 
Heartbeat CPU 0 instructions: 56000000 cycles: 31455582 heartbeat IPC: 0.970586 cumulative IPC: 1.0382 (Simulation time: 0 hr 37 min 21 sec) 
Heartbeat CPU 0 instructions: 57000001 cycles: 32475020 heartbeat IPC: 0.980934 cumulative IPC: 1.02961 (Simulation time: 0 hr 38 min 3 sec) 
Heartbeat CPU 0 instructions: 58000000 cycles: 33476185 heartbeat IPC: 0.998835 cumulative IPC: 1.02566 (Simulation time: 0 hr 38 min 43 sec) 
Heartbeat CPU 0 instructions: 59000001 cycles: 34857636 heartbeat IPC: 0.723877 cumulative IPC: 0.980255 (Simulation time: 0 hr 39 min 29 sec) 
Heartbeat CPU 0 instructions: 60000000 cycles: 36468615 heartbeat IPC: 0.62074 cumulative IPC: 0.926589 (Simulation time: 0 hr 40 min 17 sec) 
Heartbeat CPU 0 instructions: 61000000 cycles: 38207205 heartbeat IPC: 0.575179 cumulative IPC: 0.877833 (Simulation time: 0 hr 41 min 4 sec) 
Heartbeat CPU 0 instructions: 62000000 cycles: 39693713 heartbeat IPC: 0.672718 cumulative IPC: 0.856081 (Simulation time: 0 hr 41 min 51 sec) 
Heartbeat CPU 0 instructions: 63000001 cycles: 41088535 heartbeat IPC: 0.716938 cumulative IPC: 0.843488 (Simulation time: 0 hr 42 min 39 sec) 
Heartbeat CPU 0 instructions: 64000000 cycles: 42503844 heartbeat IPC: 0.706559 cumulative IPC: 0.831972 (Simulation time: 0 hr 43 min 28 sec) 
Heartbeat CPU 0 instructions: 65000003 cycles: 43998670 heartbeat IPC: 0.668976 cumulative IPC: 0.818674 (Simulation time: 0 hr 44 min 15 sec) 
Heartbeat CPU 0 instructions: 66000000 cycles: 45494245 heartbeat IPC: 0.668637 cumulative IPC: 0.807351 (Simulation time: 0 hr 45 min 7 sec) 
Heartbeat CPU 0 instructions: 67000000 cycles: 46988765 heartbeat IPC: 0.669111 cumulative IPC: 0.797657 (Simulation time: 0 hr 45 min 56 sec) 
Heartbeat CPU 0 instructions: 68000000 cycles: 48483222 heartbeat IPC: 0.669139 cumulative IPC: 0.789236 (Simulation time: 0 hr 46 min 45 sec) 
Heartbeat CPU 0 instructions: 69000000 cycles: 49990578 heartbeat IPC: 0.663413 cumulative IPC: 0.781435 (Simulation time: 0 hr 47 min 34 sec) 
Heartbeat CPU 0 instructions: 70000001 cycles: 51487153 heartbeat IPC: 0.668193 cumulative IPC: 0.774869 (Simulation time: 0 hr 48 min 22 sec) 
Heartbeat CPU 0 instructions: 71000001 cycles: 52981179 heartbeat IPC: 0.669332 cumulative IPC: 0.769095 (Simulation time: 0 hr 49 min 11 sec) 
Heartbeat CPU 0 instructions: 72000000 cycles: 54464130 heartbeat IPC: 0.67433 cumulative IPC: 0.764213 (Simulation time: 0 hr 49 min 59 sec) 
Heartbeat CPU 0 instructions: 73000003 cycles: 55951840 heartbeat IPC: 0.672176 cumulative IPC: 0.75969 (Simulation time: 0 hr 50 min 47 sec) 
Heartbeat CPU 0 instructions: 74000000 cycles: 57449369 heartbeat IPC: 0.667765 cumulative IPC: 0.755358 (Simulation time: 0 hr 51 min 39 sec) 
Heartbeat CPU 0 instructions: 75000001 cycles: 58943346 heartbeat IPC: 0.669355 cumulative IPC: 0.751495 (Simulation time: 0 hr 52 min 25 sec) 
Heartbeat CPU 0 instructions: 76000000 cycles: 60439777 heartbeat IPC: 0.668256 cumulative IPC: 0.747912 (Simulation time: 0 hr 53 min 13 sec) 
Heartbeat CPU 0 instructions: 77000003 cycles: 61933571 heartbeat IPC: 0.669438 cumulative IPC: 0.744679 (Simulation time: 0 hr 54 min 1 sec) 
Heartbeat CPU 0 instructions: 78000001 cycles: 63428263 heartbeat IPC: 0.669033 cumulative IPC: 0.741684 (Simulation time: 0 hr 54 min 47 sec) 
Heartbeat CPU 0 instructions: 79000000 cycles: 64924697 heartbeat IPC: 0.668255 cumulative IPC: 0.738885 (Simulation time: 0 hr 55 min 36 sec) 
Heartbeat CPU 0 instructions: 80000000 cycles: 66415080 heartbeat IPC: 0.670968 cumulative IPC: 0.7364 (Simulation time: 0 hr 56 min 24 sec) 
Heartbeat CPU 0 instructions: 81000001 cycles: 67899018 heartbeat IPC: 0.673883 cumulative IPC: 0.734203 (Simulation time: 0 hr 57 min 11 sec) 
Heartbeat CPU 0 instructions: 82000000 cycles: 69382084 heartbeat IPC: 0.674278 cumulative IPC: 0.732169 (Simulation time: 0 hr 57 min 57 sec) 
Heartbeat CPU 0 instructions: 83000000 cycles: 70865429 heartbeat IPC: 0.674152 cumulative IPC: 0.730265 (Simulation time: 0 hr 58 min 47 sec) 
Heartbeat CPU 0 instructions: 84000000 cycles: 72360339 heartbeat IPC: 0.668937 cumulative IPC: 0.728301 (Simulation time: 0 hr 59 min 36 sec) 
Heartbeat CPU 0 instructions: 85000000 cycles: 73855224 heartbeat IPC: 0.668948 cumulative IPC: 0.726459 (Simulation time: 1 hr 0 min 23 sec) 
Heartbeat CPU 0 instructions: 86000000 cycles: 75349314 heartbeat IPC: 0.669304 cumulative IPC: 0.72474 (Simulation time: 1 hr 1 min 10 sec) 
Heartbeat CPU 0 instructions: 87000000 cycles: 76844166 heartbeat IPC: 0.668963 cumulative IPC: 0.723111 (Simulation time: 1 hr 1 min 58 sec) 
Heartbeat CPU 0 instructions: 88000000 cycles: 78339446 heartbeat IPC: 0.668771 cumulative IPC: 0.721568 (Simulation time: 1 hr 2 min 44 sec) 
Heartbeat CPU 0 instructions: 89000002 cycles: 79835079 heartbeat IPC: 0.668615 cumulative IPC: 0.720105 (Simulation time: 1 hr 3 min 31 sec) 
Heartbeat CPU 0 instructions: 90000000 cycles: 81319414 heartbeat IPC: 0.673701 cumulative IPC: 0.718868 (Simulation time: 1 hr 4 min 17 sec) 
Heartbeat CPU 0 instructions: 91000000 cycles: 82803010 heartbeat IPC: 0.674038 cumulative IPC: 0.717703 (Simulation time: 1 hr 5 min 2 sec) 
Heartbeat CPU 0 instructions: 92000000 cycles: 84286854 heartbeat IPC: 0.673925 cumulative IPC: 0.716595 (Simulation time: 1 hr 5 min 49 sec) 
Heartbeat CPU 0 instructions: 93000000 cycles: 85776594 heartbeat IPC: 0.671258 cumulative IPC: 0.715471 (Simulation time: 1 hr 6 min 35 sec) 
Heartbeat CPU 0 instructions: 94000003 cycles: 87270451 heartbeat IPC: 0.66941 cumulative IPC: 0.714354 (Simulation time: 1 hr 7 min 21 sec) 
Heartbeat CPU 0 instructions: 95000000 cycles: 88766247 heartbeat IPC: 0.668538 cumulative IPC: 0.713268 (Simulation time: 1 hr 8 min 8 sec) 
Heartbeat CPU 0 instructions: 96000000 cycles: 90260305 heartbeat IPC: 0.669318 cumulative IPC: 0.712251 (Simulation time: 1 hr 8 min 53 sec) 
Heartbeat CPU 0 instructions: 97000001 cycles: 91755852 heartbeat IPC: 0.668652 cumulative IPC: 0.711264 (Simulation time: 1 hr 9 min 40 sec) 
Heartbeat CPU 0 instructions: 98000003 cycles: 93251612 heartbeat IPC: 0.668558 cumulative IPC: 0.710319 (Simulation time: 1 hr 10 min 27 sec) 
Heartbeat CPU 0 instructions: 99000000 cycles: 94740711 heartbeat IPC: 0.671545 cumulative IPC: 0.709483 (Simulation time: 1 hr 11 min 14 sec) 
Heartbeat CPU 0 instructions: 100000000 cycles: 96224106 heartbeat IPC: 0.674129 cumulative IPC: 0.70874 (Simulation time: 1 hr 11 min 58 sec) 
Heartbeat CPU 0 instructions: 101000000 cycles: 97707315 heartbeat IPC: 0.674214 cumulative IPC: 0.708029 (Simulation time: 1 hr 12 min 44 sec) 
Heartbeat CPU 0 instructions: 102000003 cycles: 99190897 heartbeat IPC: 0.674046 cumulative IPC: 0.707343 (Simulation time: 1 hr 13 min 31 sec) 
Heartbeat CPU 0 instructions: 103000003 cycles: 100687157 heartbeat IPC: 0.668333 cumulative IPC: 0.706565 (Simulation time: 1 hr 14 min 17 sec) 
Heartbeat CPU 0 instructions: 104000000 cycles: 102181694 heartbeat IPC: 0.669102 cumulative IPC: 0.705833 (Simulation time: 1 hr 15 min 4 sec) 
Heartbeat CPU 0 instructions: 105000000 cycles: 103676508 heartbeat IPC: 0.66898 cumulative IPC: 0.705127 (Simulation time: 1 hr 15 min 51 sec) 
Heartbeat CPU 0 instructions: 106000000 cycles: 105171569 heartbeat IPC: 0.668869 cumulative IPC: 0.704445 (Simulation time: 1 hr 16 min 39 sec) 
Heartbeat CPU 0 instructions: 107000000 cycles: 106667705 heartbeat IPC: 0.668388 cumulative IPC: 0.703779 (Simulation time: 1 hr 17 min 24 sec) 
Heartbeat CPU 0 instructions: 108000000 cycles: 108163286 heartbeat IPC: 0.668636 cumulative IPC: 0.703142 (Simulation time: 1 hr 18 min 9 sec) 
Heartbeat CPU 0 instructions: 109000003 cycles: 109646145 heartbeat IPC: 0.674375 cumulative IPC: 0.702634 (Simulation time: 1 hr 18 min 54 sec) 
Heartbeat CPU 0 instructions: 110000001 cycles: 111129350 heartbeat IPC: 0.674214 cumulative IPC: 0.70214 (Simulation time: 1 hr 19 min 37 sec) 
Heartbeat CPU 0 instructions: 111000000 cycles: 112612937 heartbeat IPC: 0.674041 cumulative IPC: 0.701661 (Simulation time: 1 hr 20 min 21 sec) 
Heartbeat CPU 0 instructions: 112000000 cycles: 114104315 heartbeat IPC: 0.670521 cumulative IPC: 0.701136 (Simulation time: 1 hr 21 min 5 sec) 
Heartbeat CPU 0 instructions: 113000000 cycles: 115598310 heartbeat IPC: 0.669346 cumulative IPC: 0.700607 (Simulation time: 1 hr 21 min 47 sec) 
Heartbeat CPU 0 instructions: 114000000 cycles: 117094079 heartbeat IPC: 0.668552 cumulative IPC: 0.700083 (Simulation time: 1 hr 22 min 29 sec) 
Heartbeat CPU 0 instructions: 115000003 cycles: 118588190 heartbeat IPC: 0.669296 cumulative IPC: 0.699588 (Simulation time: 1 hr 23 min 11 sec) 
Heartbeat CPU 0 instructions: 116000000 cycles: 120084282 heartbeat IPC: 0.668406 cumulative IPC: 0.699094 (Simulation time: 1 hr 23 min 54 sec) 
Heartbeat CPU 0 instructions: 117000000 cycles: 121579876 heartbeat IPC: 0.668631 cumulative IPC: 0.698619 (Simulation time: 1 hr 24 min 35 sec) 
Heartbeat CPU 0 instructions: 118000000 cycles: 123067666 heartbeat IPC: 0.672138 cumulative IPC: 0.698214 (Simulation time: 1 hr 25 min 13 sec) 
Heartbeat CPU 0 instructions: 119000001 cycles: 124551583 heartbeat IPC: 0.673893 cumulative IPC: 0.697849 (Simulation time: 1 hr 25 min 49 sec) 
Heartbeat CPU 0 instructions: 120000000 cycles: 126034838 heartbeat IPC: 0.674192 cumulative IPC: 0.6975 (Simulation time: 1 hr 26 min 24 sec) 
Heartbeat CPU 0 instructions: 121000000 cycles: 127519546 heartbeat IPC: 0.673533 cumulative IPC: 0.69715 (Simulation time: 1 hr 26 min 58 sec) 
Heartbeat CPU 0 instructions: 122000002 cycles: 129017829 heartbeat IPC: 0.667432 cumulative IPC: 0.696719 (Simulation time: 1 hr 27 min 31 sec) 
Heartbeat CPU 0 instructions: 123000002 cycles: 130519401 heartbeat IPC: 0.665969 cumulative IPC: 0.696279 (Simulation time: 1 hr 28 min 5 sec) 
Heartbeat CPU 0 instructions: 124000000 cycles: 132016807 heartbeat IPC: 0.66782 cumulative IPC: 0.695878 (Simulation time: 1 hr 28 min 37 sec) 
Heartbeat CPU 0 instructions: 125000000 cycles: 133512619 heartbeat IPC: 0.668533 cumulative IPC: 0.695499 (Simulation time: 1 hr 29 min 6 sec) 
Heartbeat CPU 0 instructions: 126000000 cycles: 135025727 heartbeat IPC: 0.660891 cumulative IPC: 0.69502 (Simulation time: 1 hr 29 min 35 sec) 
Heartbeat CPU 0 instructions: 127000000 cycles: 136522643 heartbeat IPC: 0.66804 cumulative IPC: 0.694656 (Simulation time: 1 hr 30 min 4 sec) 
Heartbeat CPU 0 instructions: 128000000 cycles: 138013607 heartbeat IPC: 0.670707 cumulative IPC: 0.694338 (Simulation time: 1 hr 30 min 32 sec) 
Heartbeat CPU 0 instructions: 129000000 cycles: 139497247 heartbeat IPC: 0.674018 cumulative IPC: 0.694073 (Simulation time: 1 hr 31 min 1 sec) 
Heartbeat CPU 0 instructions: 130000001 cycles: 140987671 heartbeat IPC: 0.670951 cumulative IPC: 0.693774 (Simulation time: 1 hr 31 min 28 sec) 
Heartbeat CPU 0 instructions: 131000001 cycles: 142482819 heartbeat IPC: 0.66883 cumulative IPC: 0.693455 (Simulation time: 1 hr 31 min 56 sec) 
Heartbeat CPU 0 instructions: 132000000 cycles: 143978314 heartbeat IPC: 0.668674 cumulative IPC: 0.693141 (Simulation time: 1 hr 32 min 23 sec) 
Heartbeat CPU 0 instructions: 133000000 cycles: 145476724 heartbeat IPC: 0.667374 cumulative IPC: 0.692819 (Simulation time: 1 hr 32 min 49 sec) 
Heartbeat CPU 0 instructions: 134000000 cycles: 146971292 heartbeat IPC: 0.66909 cumulative IPC: 0.692527 (Simulation time: 1 hr 33 min 15 sec) 
Heartbeat CPU 0 instructions: 135000001 cycles: 148466531 heartbeat IPC: 0.66879 cumulative IPC: 0.692238 (Simulation time: 1 hr 33 min 42 sec) 
Heartbeat CPU 0 instructions: 136000000 cycles: 149964197 heartbeat IPC: 0.667705 cumulative IPC: 0.691942 (Simulation time: 1 hr 34 min 9 sec) 
Heartbeat CPU 0 instructions: 137000002 cycles: 151450980 heartbeat IPC: 0.672594 cumulative IPC: 0.691713 (Simulation time: 1 hr 34 min 35 sec) 
Heartbeat CPU 0 instructions: 138000001 cycles: 152935785 heartbeat IPC: 0.673488 cumulative IPC: 0.691501 (Simulation time: 1 hr 35 min 0 sec) 
Heartbeat CPU 0 instructions: 139000001 cycles: 154419488 heartbeat IPC: 0.673989 cumulative IPC: 0.691299 (Simulation time: 1 hr 35 min 23 sec) 
Heartbeat CPU 0 instructions: 140000000 cycles: 155905483 heartbeat IPC: 0.672949 cumulative IPC: 0.69109 (Simulation time: 1 hr 35 min 45 sec) 
Heartbeat CPU 0 instructions: 141000002 cycles: 157401606 heartbeat IPC: 0.668396 cumulative IPC: 0.690832 (Simulation time: 1 hr 36 min 8 sec) 
Heartbeat CPU 0 instructions: 142000000 cycles: 158896693 heartbeat IPC: 0.668856 cumulative IPC: 0.690585 (Simulation time: 1 hr 36 min 29 sec) 
Heartbeat CPU 0 instructions: 143000000 cycles: 160391101 heartbeat IPC: 0.669161 cumulative IPC: 0.690348 (Simulation time: 1 hr 36 min 50 sec) 
Heartbeat CPU 0 instructions: 144000000 cycles: 161885907 heartbeat IPC: 0.668983 cumulative IPC: 0.690113 (Simulation time: 1 hr 37 min 11 sec) 
Heartbeat CPU 0 instructions: 145000000 cycles: 163382141 heartbeat IPC: 0.668345 cumulative IPC: 0.689877 (Simulation time: 1 hr 37 min 31 sec) 
Heartbeat CPU 0 instructions: 146000000 cycles: 164873868 heartbeat IPC: 0.670364 cumulative IPC: 0.689667 (Simulation time: 1 hr 37 min 51 sec) 
Heartbeat CPU 0 instructions: 147000003 cycles: 166356713 heartbeat IPC: 0.674381 cumulative IPC: 0.689506 (Simulation time: 1 hr 38 min 11 sec) 
Heartbeat CPU 0 instructions: 148000000 cycles: 167841025 heartbeat IPC: 0.673711 cumulative IPC: 0.689341 (Simulation time: 1 hr 38 min 30 sec) 
Heartbeat CPU 0 instructions: 149000002 cycles: 169324516 heartbeat IPC: 0.674087 cumulative IPC: 0.689184 (Simulation time: 1 hr 38 min 49 sec) 
Heartbeat CPU 0 instructions: 150000001 cycles: 170818052 heartbeat IPC: 0.669551 cumulative IPC: 0.688982 (Simulation time: 1 hr 39 min 7 sec) 
Finished CPU 0 instructions: 100000001 cycles: 145141707 cummulative IPC: 0.688982 (Simulation time: 1 hr 39 min 7 sec) 

ChampSim completed all CPUs

Region of Interest Statistics

CPU 0 cummulative IPC: 0.688982 instructions: 100000001 cycles: 145141707
LLC TOTAL     ACCESS:     644545  HIT:     216295  MISS:     428250
LLC LOAD      ACCESS:      35687  HIT:       9021  MISS:      26666
LLC RFO       ACCESS:     120254  HIT:      32554  MISS:      87700
LLC PREFETCH  ACCESS:     305981  HIT:      56330  MISS:     249651
LLC WRITEBACK ACCESS:     182623  HIT:     118390  MISS:      64233
