
*** ChampSim Multicore Out-of-Order Simulator ***

Warmup Instructions: 50000000
Simulation Instructions: 100000000
Configuration: 2
Number of CPUs: 1
LLC sets: 2048
LLC ways: 16
Off-chip DRAM Channels: 1 Width: 64-bit Data Rate: 1600 MT/s

CPU 0 runs /datasets/cs240c-wi22-a00-public/data/Assignment2-gz/lbm_94B.trace.gz
CPU 0 L1D next line prefetcher
CPU 0 L2C IP-based stride prefetcher
Heartbeat CPU 0 instructions: 1000000 cycles: 422068 heartbeat IPC: 2.36929 cumulative IPC: 2.36929 (Simulation time: 0 hr 0 min 36 sec) 
Heartbeat CPU 0 instructions: 2000000 cycles: 812399 heartbeat IPC: 2.56193 cumulative IPC: 2.46184 (Simulation time: 0 hr 1 min 17 sec) 
Heartbeat CPU 0 instructions: 3000000 cycles: 1211540 heartbeat IPC: 2.50538 cumulative IPC: 2.47619 (Simulation time: 0 hr 1 min 59 sec) 
Heartbeat CPU 0 instructions: 4000000 cycles: 1631535 heartbeat IPC: 2.38098 cumulative IPC: 2.45168 (Simulation time: 0 hr 2 min 41 sec) 
Heartbeat CPU 0 instructions: 5000001 cycles: 2021787 heartbeat IPC: 2.56245 cumulative IPC: 2.47306 (Simulation time: 0 hr 3 min 20 sec) 
Heartbeat CPU 0 instructions: 6000000 cycles: 2422466 heartbeat IPC: 2.49576 cumulative IPC: 2.47681 (Simulation time: 0 hr 3 min 58 sec) 
Heartbeat CPU 0 instructions: 7000001 cycles: 2840617 heartbeat IPC: 2.39148 cumulative IPC: 2.46425 (Simulation time: 0 hr 4 min 37 sec) 
Heartbeat CPU 0 instructions: 8000000 cycles: 3230856 heartbeat IPC: 2.56253 cumulative IPC: 2.47612 (Simulation time: 0 hr 5 min 12 sec) 
Heartbeat CPU 0 instructions: 9000003 cycles: 3631892 heartbeat IPC: 2.49355 cumulative IPC: 2.47805 (Simulation time: 0 hr 5 min 46 sec) 
Heartbeat CPU 0 instructions: 10000000 cycles: 4048468 heartbeat IPC: 2.40052 cumulative IPC: 2.47007 (Simulation time: 0 hr 6 min 22 sec) 
Heartbeat CPU 0 instructions: 11000003 cycles: 4438660 heartbeat IPC: 2.56285 cumulative IPC: 2.47823 (Simulation time: 0 hr 6 min 56 sec) 
Heartbeat CPU 0 instructions: 12000000 cycles: 4839214 heartbeat IPC: 2.49653 cumulative IPC: 2.47974 (Simulation time: 0 hr 7 min 31 sec) 
Heartbeat CPU 0 instructions: 13000000 cycles: 5254609 heartbeat IPC: 2.40735 cumulative IPC: 2.47402 (Simulation time: 0 hr 8 min 7 sec) 
Heartbeat CPU 0 instructions: 14000003 cycles: 5644875 heartbeat IPC: 2.56236 cumulative IPC: 2.48013 (Simulation time: 0 hr 8 min 40 sec) 
Heartbeat CPU 0 instructions: 15000001 cycles: 6045271 heartbeat IPC: 2.49752 cumulative IPC: 2.48128 (Simulation time: 0 hr 9 min 17 sec) 
Heartbeat CPU 0 instructions: 16000000 cycles: 6459662 heartbeat IPC: 2.41318 cumulative IPC: 2.47691 (Simulation time: 0 hr 9 min 51 sec) 
Heartbeat CPU 0 instructions: 17000001 cycles: 6849927 heartbeat IPC: 2.56236 cumulative IPC: 2.48178 (Simulation time: 0 hr 10 min 27 sec) 
Heartbeat CPU 0 instructions: 18000001 cycles: 7248799 heartbeat IPC: 2.50707 cumulative IPC: 2.48317 (Simulation time: 0 hr 11 min 4 sec) 
Heartbeat CPU 0 instructions: 19000000 cycles: 7663343 heartbeat IPC: 2.41229 cumulative IPC: 2.47934 (Simulation time: 0 hr 11 min 42 sec) 
Heartbeat CPU 0 instructions: 20000000 cycles: 8053614 heartbeat IPC: 2.56232 cumulative IPC: 2.48336 (Simulation time: 0 hr 12 min 17 sec) 
Heartbeat CPU 0 instructions: 21000003 cycles: 8451702 heartbeat IPC: 2.51201 cumulative IPC: 2.48471 (Simulation time: 0 hr 12 min 55 sec) 
Heartbeat CPU 0 instructions: 22000000 cycles: 8865890 heartbeat IPC: 2.41436 cumulative IPC: 2.48142 (Simulation time: 0 hr 13 min 34 sec) 
Heartbeat CPU 0 instructions: 23000000 cycles: 9256085 heartbeat IPC: 2.56282 cumulative IPC: 2.48485 (Simulation time: 0 hr 14 min 9 sec) 
Heartbeat CPU 0 instructions: 24000000 cycles: 9652174 heartbeat IPC: 2.52469 cumulative IPC: 2.48649 (Simulation time: 0 hr 14 min 49 sec) 
Heartbeat CPU 0 instructions: 25000000 cycles: 10065838 heartbeat IPC: 2.41742 cumulative IPC: 2.48365 (Simulation time: 0 hr 15 min 26 sec) 
Heartbeat CPU 0 instructions: 26000003 cycles: 10456094 heartbeat IPC: 2.56243 cumulative IPC: 2.48659 (Simulation time: 0 hr 16 min 3 sec) 
Heartbeat CPU 0 instructions: 27000002 cycles: 10851160 heartbeat IPC: 2.53122 cumulative IPC: 2.48821 (Simulation time: 0 hr 16 min 41 sec) 
Heartbeat CPU 0 instructions: 28000000 cycles: 11264612 heartbeat IPC: 2.41866 cumulative IPC: 2.48566 (Simulation time: 0 hr 17 min 19 sec) 
Heartbeat CPU 0 instructions: 29000000 cycles: 11654804 heartbeat IPC: 2.56284 cumulative IPC: 2.48824 (Simulation time: 0 hr 17 min 57 sec) 
Heartbeat CPU 0 instructions: 30000000 cycles: 12049842 heartbeat IPC: 2.5314 cumulative IPC: 2.48966 (Simulation time: 0 hr 18 min 34 sec) 
Heartbeat CPU 0 instructions: 31000003 cycles: 12460772 heartbeat IPC: 2.43351 cumulative IPC: 2.48781 (Simulation time: 0 hr 19 min 14 sec) 
Heartbeat CPU 0 instructions: 32000000 cycles: 12851054 heartbeat IPC: 2.56224 cumulative IPC: 2.49007 (Simulation time: 0 hr 19 min 50 sec) 
Heartbeat CPU 0 instructions: 33000002 cycles: 13246177 heartbeat IPC: 2.53086 cumulative IPC: 2.49129 (Simulation time: 0 hr 20 min 27 sec) 
Heartbeat CPU 0 instructions: 34000003 cycles: 13653716 heartbeat IPC: 2.45376 cumulative IPC: 2.49016 (Simulation time: 0 hr 21 min 5 sec) 
Heartbeat CPU 0 instructions: 35000002 cycles: 14045360 heartbeat IPC: 2.55334 cumulative IPC: 2.49193 (Simulation time: 0 hr 21 min 41 sec) 
Heartbeat CPU 0 instructions: 36000000 cycles: 14440376 heartbeat IPC: 2.53154 cumulative IPC: 2.49301 (Simulation time: 0 hr 22 min 17 sec) 
Heartbeat CPU 0 instructions: 37000003 cycles: 14842591 heartbeat IPC: 2.48624 cumulative IPC: 2.49283 (Simulation time: 0 hr 22 min 56 sec) 
Heartbeat CPU 0 instructions: 38000002 cycles: 15237120 heartbeat IPC: 2.53467 cumulative IPC: 2.49391 (Simulation time: 0 hr 23 min 32 sec) 
Heartbeat CPU 0 instructions: 39000000 cycles: 15627328 heartbeat IPC: 2.56273 cumulative IPC: 2.49563 (Simulation time: 0 hr 24 min 7 sec) 
Heartbeat CPU 0 instructions: 40000000 cycles: 16027655 heartbeat IPC: 2.49796 cumulative IPC: 2.49569 (Simulation time: 0 hr 24 min 43 sec) 
Heartbeat CPU 0 instructions: 41000003 cycles: 16426333 heartbeat IPC: 2.5083 cumulative IPC: 2.49599 (Simulation time: 0 hr 25 min 20 sec) 
Heartbeat CPU 0 instructions: 42000003 cycles: 16816587 heartbeat IPC: 2.56243 cumulative IPC: 2.49753 (Simulation time: 0 hr 25 min 55 sec) 
Heartbeat CPU 0 instructions: 43000003 cycles: 17211863 heartbeat IPC: 2.52988 cumulative IPC: 2.49828 (Simulation time: 0 hr 26 min 32 sec) 
Heartbeat CPU 0 instructions: 44000000 cycles: 17612855 heartbeat IPC: 2.49381 cumulative IPC: 2.49818 (Simulation time: 0 hr 27 min 6 sec) 
Heartbeat CPU 0 instructions: 45000002 cycles: 18003119 heartbeat IPC: 2.56237 cumulative IPC: 2.49957 (Simulation time: 0 hr 27 min 43 sec) 
Heartbeat CPU 0 instructions: 46000001 cycles: 18398275 heartbeat IPC: 2.53064 cumulative IPC: 2.50023 (Simulation time: 0 hr 28 min 20 sec) 
Heartbeat CPU 0 instructions: 47000003 cycles: 18796684 heartbeat IPC: 2.50999 cumulative IPC: 2.50044 (Simulation time: 0 hr 28 min 57 sec) 
Heartbeat CPU 0 instructions: 48000000 cycles: 19186835 heartbeat IPC: 2.5631 cumulative IPC: 2.50172 (Simulation time: 0 hr 29 min 35 sec) 
Heartbeat CPU 0 instructions: 49000000 cycles: 19581927 heartbeat IPC: 2.53106 cumulative IPC: 2.50231 (Simulation time: 0 hr 30 min 12 sec) 
Heartbeat CPU 0 instructions: 50000003 cycles: 19976246 heartbeat IPC: 2.53603 cumulative IPC: 2.50297 (Simulation time: 0 hr 30 min 48 sec) 

Warmup complete CPU 0 instructions: 50000003 cycles: 19976246 (Simulation time: 0 hr 30 min 48 sec) 

Heartbeat CPU 0 instructions: 51000003 cycles: 21334310 heartbeat IPC: 0.736342 cumulative IPC: 0.736342 (Simulation time: 0 hr 31 min 31 sec) 
Heartbeat CPU 0 instructions: 52000000 cycles: 22700517 heartbeat IPC: 0.731951 cumulative IPC: 0.73414 (Simulation time: 0 hr 32 min 13 sec) 
Heartbeat CPU 0 instructions: 53000001 cycles: 24120262 heartbeat IPC: 0.704353 cumulative IPC: 0.723935 (Simulation time: 0 hr 32 min 59 sec) 
Heartbeat CPU 0 instructions: 54000000 cycles: 25489561 heartbeat IPC: 0.7303 cumulative IPC: 0.725516 (Simulation time: 0 hr 33 min 43 sec) 
Heartbeat CPU 0 instructions: 55000003 cycles: 26843872 heartbeat IPC: 0.738385 cumulative IPC: 0.728054 (Simulation time: 0 hr 34 min 28 sec) 
Heartbeat CPU 0 instructions: 56000000 cycles: 28270258 heartbeat IPC: 0.70107 cumulative IPC: 0.723413 (Simulation time: 0 hr 35 min 14 sec) 
Heartbeat CPU 0 instructions: 57000003 cycles: 29653705 heartbeat IPC: 0.722834 cumulative IPC: 0.72333 (Simulation time: 0 hr 35 min 59 sec) 
Heartbeat CPU 0 instructions: 58000003 cycles: 31013837 heartbeat IPC: 0.735223 cumulative IPC: 0.724796 (Simulation time: 0 hr 36 min 43 sec) 
Heartbeat CPU 0 instructions: 59000002 cycles: 32402573 heartbeat IPC: 0.720079 cumulative IPC: 0.724269 (Simulation time: 0 hr 37 min 27 sec) 
Heartbeat CPU 0 instructions: 60000000 cycles: 33791860 heartbeat IPC: 0.719792 cumulative IPC: 0.723818 (Simulation time: 0 hr 38 min 12 sec) 
Heartbeat CPU 0 instructions: 61000000 cycles: 35150405 heartbeat IPC: 0.736082 cumulative IPC: 0.724916 (Simulation time: 0 hr 38 min 56 sec) 
Heartbeat CPU 0 instructions: 62000003 cycles: 36499961 heartbeat IPC: 0.740987 cumulative IPC: 0.726229 (Simulation time: 0 hr 39 min 40 sec) 
Heartbeat CPU 0 instructions: 63000001 cycles: 37925329 heartbeat IPC: 0.701572 cumulative IPC: 0.724271 (Simulation time: 0 hr 40 min 24 sec) 
Heartbeat CPU 0 instructions: 64000000 cycles: 39267558 heartbeat IPC: 0.745029 cumulative IPC: 0.725715 (Simulation time: 0 hr 41 min 5 sec) 
Heartbeat CPU 0 instructions: 65000003 cycles: 40642516 heartbeat IPC: 0.727297 cumulative IPC: 0.72582 (Simulation time: 0 hr 41 min 49 sec) 
Heartbeat CPU 0 instructions: 66000002 cycles: 42050959 heartbeat IPC: 0.710003 cumulative IPC: 0.724811 (Simulation time: 0 hr 42 min 35 sec) 
Heartbeat CPU 0 instructions: 67000000 cycles: 43411513 heartbeat IPC: 0.734993 cumulative IPC: 0.725402 (Simulation time: 0 hr 43 min 18 sec) 
Heartbeat CPU 0 instructions: 68000000 cycles: 44779513 heartbeat IPC: 0.730994 cumulative IPC: 0.725711 (Simulation time: 0 hr 43 min 59 sec) 
Heartbeat CPU 0 instructions: 69000000 cycles: 46175196 heartbeat IPC: 0.716495 cumulative IPC: 0.72522 (Simulation time: 0 hr 44 min 40 sec) 
Heartbeat CPU 0 instructions: 70000001 cycles: 47627571 heartbeat IPC: 0.688528 cumulative IPC: 0.723293 (Simulation time: 0 hr 45 min 24 sec) 
Heartbeat CPU 0 instructions: 71000001 cycles: 48971682 heartbeat IPC: 0.743986 cumulative IPC: 0.724252 (Simulation time: 0 hr 46 min 9 sec) 
Heartbeat CPU 0 instructions: 72000000 cycles: 50336385 heartbeat IPC: 0.732759 cumulative IPC: 0.724634 (Simulation time: 0 hr 46 min 51 sec) 
Heartbeat CPU 0 instructions: 73000001 cycles: 51789369 heartbeat IPC: 0.68824 cumulative IPC: 0.722972 (Simulation time: 0 hr 47 min 33 sec) 
Heartbeat CPU 0 instructions: 74000001 cycles: 53177819 heartbeat IPC: 0.720228 cumulative IPC: 0.722857 (Simulation time: 0 hr 48 min 14 sec) 
Heartbeat CPU 0 instructions: 75000000 cycles: 54550062 heartbeat IPC: 0.728733 cumulative IPC: 0.72309 (Simulation time: 0 hr 48 min 56 sec) 
Heartbeat CPU 0 instructions: 76000000 cycles: 55989189 heartbeat IPC: 0.694866 cumulative IPC: 0.721963 (Simulation time: 0 hr 49 min 37 sec) 
Heartbeat CPU 0 instructions: 77000002 cycles: 57330691 heartbeat IPC: 0.745435 cumulative IPC: 0.722806 (Simulation time: 0 hr 50 min 18 sec) 
Heartbeat CPU 0 instructions: 78000003 cycles: 58706079 heartbeat IPC: 0.727068 cumulative IPC: 0.722957 (Simulation time: 0 hr 51 min 0 sec) 
Heartbeat CPU 0 instructions: 79000000 cycles: 60115880 heartbeat IPC: 0.709318 cumulative IPC: 0.722478 (Simulation time: 0 hr 51 min 44 sec) 
Heartbeat CPU 0 instructions: 80000000 cycles: 61515418 heartbeat IPC: 0.714522 cumulative IPC: 0.72221 (Simulation time: 0 hr 52 min 28 sec) 
Heartbeat CPU 0 instructions: 81000000 cycles: 62891367 heartbeat IPC: 0.726771 cumulative IPC: 0.722356 (Simulation time: 0 hr 53 min 12 sec) 
Heartbeat CPU 0 instructions: 82000000 cycles: 64277286 heartbeat IPC: 0.721543 cumulative IPC: 0.722331 (Simulation time: 0 hr 53 min 56 sec) 
Heartbeat CPU 0 instructions: 83000003 cycles: 65673424 heartbeat IPC: 0.716264 cumulative IPC: 0.722145 (Simulation time: 0 hr 54 min 40 sec) 
Heartbeat CPU 0 instructions: 84000000 cycles: 67017541 heartbeat IPC: 0.743981 cumulative IPC: 0.722769 (Simulation time: 0 hr 55 min 25 sec) 
Heartbeat CPU 0 instructions: 85000001 cycles: 68380494 heartbeat IPC: 0.733702 cumulative IPC: 0.723077 (Simulation time: 0 hr 56 min 8 sec) 
Heartbeat CPU 0 instructions: 86000003 cycles: 69772389 heartbeat IPC: 0.718446 cumulative IPC: 0.722948 (Simulation time: 0 hr 56 min 52 sec) 
Heartbeat CPU 0 instructions: 87000000 cycles: 71160368 heartbeat IPC: 0.72047 cumulative IPC: 0.72288 (Simulation time: 0 hr 57 min 37 sec) 
Heartbeat CPU 0 instructions: 88000000 cycles: 72518679 heartbeat IPC: 0.736208 cumulative IPC: 0.723225 (Simulation time: 0 hr 58 min 22 sec) 
Heartbeat CPU 0 instructions: 89000003 cycles: 73866097 heartbeat IPC: 0.742162 cumulative IPC: 0.723698 (Simulation time: 0 hr 59 min 4 sec) 
Heartbeat CPU 0 instructions: 90000003 cycles: 75264946 heartbeat IPC: 0.714873 cumulative IPC: 0.723475 (Simulation time: 0 hr 59 min 46 sec) 
Heartbeat CPU 0 instructions: 91000002 cycles: 76612111 heartbeat IPC: 0.742299 cumulative IPC: 0.723923 (Simulation time: 1 hr 0 min 30 sec) 
Heartbeat CPU 0 instructions: 92000000 cycles: 77969778 heartbeat IPC: 0.736556 cumulative IPC: 0.724219 (Simulation time: 1 hr 1 min 10 sec) 
Heartbeat CPU 0 instructions: 93000003 cycles: 79386898 heartbeat IPC: 0.705659 cumulative IPC: 0.723776 (Simulation time: 1 hr 1 min 54 sec) 
Heartbeat CPU 0 instructions: 94000001 cycles: 80719788 heartbeat IPC: 0.750248 cumulative IPC: 0.724357 (Simulation time: 1 hr 2 min 34 sec) 
Heartbeat CPU 0 instructions: 95000003 cycles: 82068371 heartbeat IPC: 0.741521 cumulative IPC: 0.72473 (Simulation time: 1 hr 3 min 19 sec) 
Heartbeat CPU 0 instructions: 96000000 cycles: 83432046 heartbeat IPC: 0.73331 cumulative IPC: 0.724914 (Simulation time: 1 hr 4 min 1 sec) 
Heartbeat CPU 0 instructions: 97000000 cycles: 84853459 heartbeat IPC: 0.703525 cumulative IPC: 0.724445 (Simulation time: 1 hr 4 min 41 sec) 
Heartbeat CPU 0 instructions: 98000002 cycles: 86182251 heartbeat IPC: 0.752565 cumulative IPC: 0.72501 (Simulation time: 1 hr 5 min 23 sec) 
Heartbeat CPU 0 instructions: 99000001 cycles: 87538713 heartbeat IPC: 0.737211 cumulative IPC: 0.725255 (Simulation time: 1 hr 6 min 7 sec) 
Heartbeat CPU 0 instructions: 100000000 cycles: 88937262 heartbeat IPC: 0.715026 cumulative IPC: 0.725047 (Simulation time: 1 hr 6 min 52 sec) 
Heartbeat CPU 0 instructions: 101000003 cycles: 90309623 heartbeat IPC: 0.728673 cumulative IPC: 0.725118 (Simulation time: 1 hr 7 min 34 sec) 
Heartbeat CPU 0 instructions: 102000002 cycles: 91658283 heartbeat IPC: 0.741476 cumulative IPC: 0.725426 (Simulation time: 1 hr 8 min 18 sec) 
Heartbeat CPU 0 instructions: 103000000 cycles: 93060940 heartbeat IPC: 0.712931 cumulative IPC: 0.725186 (Simulation time: 1 hr 9 min 3 sec) 
Heartbeat CPU 0 instructions: 104000000 cycles: 94434131 heartbeat IPC: 0.728231 cumulative IPC: 0.725242 (Simulation time: 1 hr 9 min 45 sec) 
Heartbeat CPU 0 instructions: 105000002 cycles: 95820736 heartbeat IPC: 0.721187 cumulative IPC: 0.725168 (Simulation time: 1 hr 10 min 28 sec) 
Heartbeat CPU 0 instructions: 106000001 cycles: 97173155 heartbeat IPC: 0.739415 cumulative IPC: 0.725418 (Simulation time: 1 hr 11 min 11 sec) 
Heartbeat CPU 0 instructions: 107000000 cycles: 98556485 heartbeat IPC: 0.722893 cumulative IPC: 0.725373 (Simulation time: 1 hr 11 min 53 sec) 
Heartbeat CPU 0 instructions: 108000000 cycles: 99934775 heartbeat IPC: 0.725537 cumulative IPC: 0.725376 (Simulation time: 1 hr 12 min 37 sec) 
Heartbeat CPU 0 instructions: 109000002 cycles: 101312407 heartbeat IPC: 0.725885 cumulative IPC: 0.725385 (Simulation time: 1 hr 13 min 23 sec) 
Heartbeat CPU 0 instructions: 110000000 cycles: 102746430 heartbeat IPC: 0.697338 cumulative IPC: 0.724899 (Simulation time: 1 hr 14 min 7 sec) 
Heartbeat CPU 0 instructions: 111000003 cycles: 104072747 heartbeat IPC: 0.75397 cumulative IPC: 0.725357 (Simulation time: 1 hr 14 min 50 sec) 
Heartbeat CPU 0 instructions: 112000000 cycles: 105413929 heartbeat IPC: 0.745609 cumulative IPC: 0.725675 (Simulation time: 1 hr 15 min 32 sec) 
Heartbeat CPU 0 instructions: 113000001 cycles: 106810424 heartbeat IPC: 0.716079 cumulative IPC: 0.725521 (Simulation time: 1 hr 16 min 15 sec) 
Heartbeat CPU 0 instructions: 114000003 cycles: 108173108 heartbeat IPC: 0.733847 cumulative IPC: 0.725649 (Simulation time: 1 hr 16 min 56 sec) 
Heartbeat CPU 0 instructions: 115000003 cycles: 109546248 heartbeat IPC: 0.728258 cumulative IPC: 0.725689 (Simulation time: 1 hr 17 min 37 sec) 
Heartbeat CPU 0 instructions: 116000000 cycles: 110886796 heartbeat IPC: 0.745961 cumulative IPC: 0.725988 (Simulation time: 1 hr 18 min 16 sec) 
Heartbeat CPU 0 instructions: 117000003 cycles: 112308907 heartbeat IPC: 0.703182 cumulative IPC: 0.725637 (Simulation time: 1 hr 18 min 54 sec) 
Heartbeat CPU 0 instructions: 118000003 cycles: 113634651 heartbeat IPC: 0.754293 cumulative IPC: 0.726043 (Simulation time: 1 hr 19 min 32 sec) 
Heartbeat CPU 0 instructions: 119000000 cycles: 115002249 heartbeat IPC: 0.731207 cumulative IPC: 0.726117 (Simulation time: 1 hr 20 min 9 sec) 
Heartbeat CPU 0 instructions: 120000000 cycles: 116420040 heartbeat IPC: 0.705323 cumulative IPC: 0.725811 (Simulation time: 1 hr 20 min 47 sec) 
Heartbeat CPU 0 instructions: 121000002 cycles: 117734178 heartbeat IPC: 0.760957 cumulative IPC: 0.726284 (Simulation time: 1 hr 21 min 22 sec) 
Heartbeat CPU 0 instructions: 122000003 cycles: 119091440 heartbeat IPC: 0.736778 cumulative IPC: 0.726427 (Simulation time: 1 hr 21 min 58 sec) 
Heartbeat CPU 0 instructions: 123000002 cycles: 120506334 heartbeat IPC: 0.706766 cumulative IPC: 0.726151 (Simulation time: 1 hr 22 min 34 sec) 
Heartbeat CPU 0 instructions: 124000000 cycles: 121913690 heartbeat IPC: 0.710551 cumulative IPC: 0.725935 (Simulation time: 1 hr 23 min 12 sec) 
Heartbeat CPU 0 instructions: 125000001 cycles: 123241902 heartbeat IPC: 0.752893 cumulative IPC: 0.726282 (Simulation time: 1 hr 23 min 48 sec) 
Heartbeat CPU 0 instructions: 126000003 cycles: 124590075 heartbeat IPC: 0.741746 cumulative IPC: 0.726481 (Simulation time: 1 hr 24 min 24 sec) 
Heartbeat CPU 0 instructions: 127000002 cycles: 126031735 heartbeat IPC: 0.693644 cumulative IPC: 0.726035 (Simulation time: 1 hr 24 min 58 sec) 
Heartbeat CPU 0 instructions: 128000000 cycles: 127397320 heartbeat IPC: 0.732285 cumulative IPC: 0.726114 (Simulation time: 1 hr 25 min 31 sec) 
Heartbeat CPU 0 instructions: 129000003 cycles: 128712836 heartbeat IPC: 0.76016 cumulative IPC: 0.726526 (Simulation time: 1 hr 26 min 3 sec) 
Heartbeat CPU 0 instructions: 130000000 cycles: 130081402 heartbeat IPC: 0.73069 cumulative IPC: 0.726578 (Simulation time: 1 hr 26 min 34 sec) 
Heartbeat CPU 0 instructions: 131000001 cycles: 131445847 heartbeat IPC: 0.732899 cumulative IPC: 0.726655 (Simulation time: 1 hr 27 min 4 sec) 
Heartbeat CPU 0 instructions: 132000000 cycles: 132790840 heartbeat IPC: 0.743498 cumulative IPC: 0.726856 (Simulation time: 1 hr 27 min 34 sec) 
Heartbeat CPU 0 instructions: 133000003 cycles: 134142662 heartbeat IPC: 0.739745 cumulative IPC: 0.727009 (Simulation time: 1 hr 28 min 3 sec) 
Heartbeat CPU 0 instructions: 134000001 cycles: 135589172 heartbeat IPC: 0.691318 cumulative IPC: 0.726562 (Simulation time: 1 hr 28 min 30 sec) 
Heartbeat CPU 0 instructions: 135000000 cycles: 136960777 heartbeat IPC: 0.729072 cumulative IPC: 0.726592 (Simulation time: 1 hr 28 min 56 sec) 
Heartbeat CPU 0 instructions: 136000000 cycles: 138321981 heartbeat IPC: 0.734644 cumulative IPC: 0.726684 (Simulation time: 1 hr 29 min 22 sec) 
Heartbeat CPU 0 instructions: 137000002 cycles: 139750623 heartbeat IPC: 0.699967 cumulative IPC: 0.726366 (Simulation time: 1 hr 29 min 46 sec) 
Heartbeat CPU 0 instructions: 138000001 cycles: 141159292 heartbeat IPC: 0.709889 cumulative IPC: 0.726174 (Simulation time: 1 hr 30 min 12 sec) 
Heartbeat CPU 0 instructions: 139000000 cycles: 142526179 heartbeat IPC: 0.731589 cumulative IPC: 0.726235 (Simulation time: 1 hr 30 min 38 sec) 
Heartbeat CPU 0 instructions: 140000000 cycles: 143870276 heartbeat IPC: 0.743994 cumulative IPC: 0.726427 (Simulation time: 1 hr 31 min 2 sec) 
Heartbeat CPU 0 instructions: 141000001 cycles: 145296638 heartbeat IPC: 0.701085 cumulative IPC: 0.726139 (Simulation time: 1 hr 31 min 27 sec) 
Heartbeat CPU 0 instructions: 142000003 cycles: 146654029 heartbeat IPC: 0.736709 cumulative IPC: 0.726252 (Simulation time: 1 hr 31 min 52 sec) 
Heartbeat CPU 0 instructions: 143000003 cycles: 148026265 heartbeat IPC: 0.728738 cumulative IPC: 0.726279 (Simulation time: 1 hr 32 min 16 sec) 
Heartbeat CPU 0 instructions: 144000000 cycles: 149443111 heartbeat IPC: 0.705791 cumulative IPC: 0.726054 (Simulation time: 1 hr 32 min 38 sec) 
Heartbeat CPU 0 instructions: 145000002 cycles: 150790454 heartbeat IPC: 0.742203 cumulative IPC: 0.726221 (Simulation time: 1 hr 33 min 2 sec) 
Heartbeat CPU 0 instructions: 146000000 cycles: 152173258 heartbeat IPC: 0.723167 cumulative IPC: 0.726189 (Simulation time: 1 hr 33 min 24 sec) 
Heartbeat CPU 0 instructions: 147000000 cycles: 153591770 heartbeat IPC: 0.704964 cumulative IPC: 0.725964 (Simulation time: 1 hr 33 min 49 sec) 
Heartbeat CPU 0 instructions: 148000000 cycles: 154966870 heartbeat IPC: 0.72722 cumulative IPC: 0.725976 (Simulation time: 1 hr 34 min 12 sec) 
Heartbeat CPU 0 instructions: 149000001 cycles: 156322595 heartbeat IPC: 0.737613 cumulative IPC: 0.726092 (Simulation time: 1 hr 34 min 34 sec) 
Heartbeat CPU 0 instructions: 150000003 cycles: 157682348 heartbeat IPC: 0.735429 cumulative IPC: 0.726184 (Simulation time: 1 hr 34 min 55 sec) 
Finished CPU 0 instructions: 100000000 cycles: 137706102 cummulative IPC: 0.726184 (Simulation time: 1 hr 34 min 55 sec) 

ChampSim completed all CPUs

Region of Interest Statistics

CPU 0 cummulative IPC: 0.726184 instructions: 100000000 cycles: 137706102
LLC TOTAL     ACCESS:    5313642  HIT:    1509979  MISS:    3803663
LLC LOAD      ACCESS:     372551  HIT:          4  MISS:     372547
LLC RFO       ACCESS:    2270814  HIT:     488580  MISS:    1782234
LLC PREFETCH  ACCESS:     399517  HIT:          4  MISS:     399513
LLC WRITEBACK ACCESS:    2270760  HIT:    1021391  MISS:    1249369
