
*** ChampSim Multicore Out-of-Order Simulator ***

Warmup Instructions: 50000000
Simulation Instructions: 100000000
Configuration: 2
Number of CPUs: 1
LLC sets: 2048
LLC ways: 16
Off-chip DRAM Channels: 1 Width: 64-bit Data Rate: 1600 MT/s

CPU 0 runs /datasets/cs240c-wi22-a00-public/data/Assignment2-gz/omnetpp_17B.trace.gz
CPU 0 L1D next line prefetcher
CPU 0 L2C IP-based stride prefetcher
Heartbeat CPU 0 instructions: 1000000 cycles: 559586 heartbeat IPC: 1.78704 cumulative IPC: 1.78704 (Simulation time: 0 hr 0 min 34 sec) 
Heartbeat CPU 0 instructions: 2000002 cycles: 1133652 heartbeat IPC: 1.74196 cumulative IPC: 1.76421 (Simulation time: 0 hr 1 min 8 sec) 
Heartbeat CPU 0 instructions: 3000001 cycles: 1769034 heartbeat IPC: 1.57385 cumulative IPC: 1.69584 (Simulation time: 0 hr 1 min 39 sec) 
Heartbeat CPU 0 instructions: 4000000 cycles: 2333839 heartbeat IPC: 1.77052 cumulative IPC: 1.71391 (Simulation time: 0 hr 2 min 13 sec) 
Heartbeat CPU 0 instructions: 5000002 cycles: 2892764 heartbeat IPC: 1.78915 cumulative IPC: 1.72845 (Simulation time: 0 hr 2 min 46 sec) 
Heartbeat CPU 0 instructions: 6000000 cycles: 3471258 heartbeat IPC: 1.72862 cumulative IPC: 1.72848 (Simulation time: 0 hr 3 min 19 sec) 
Heartbeat CPU 0 instructions: 7000000 cycles: 4035530 heartbeat IPC: 1.77219 cumulative IPC: 1.73459 (Simulation time: 0 hr 3 min 54 sec) 
Heartbeat CPU 0 instructions: 8000000 cycles: 4697264 heartbeat IPC: 1.51118 cumulative IPC: 1.70312 (Simulation time: 0 hr 4 min 23 sec) 
Heartbeat CPU 0 instructions: 9000000 cycles: 5359069 heartbeat IPC: 1.51102 cumulative IPC: 1.6794 (Simulation time: 0 hr 4 min 50 sec) 
Heartbeat CPU 0 instructions: 10000001 cycles: 6020638 heartbeat IPC: 1.51156 cumulative IPC: 1.66095 (Simulation time: 0 hr 5 min 18 sec) 
Heartbeat CPU 0 instructions: 11000001 cycles: 6682028 heartbeat IPC: 1.51197 cumulative IPC: 1.64621 (Simulation time: 0 hr 5 min 46 sec) 
Heartbeat CPU 0 instructions: 12000000 cycles: 7342803 heartbeat IPC: 1.51337 cumulative IPC: 1.63425 (Simulation time: 0 hr 6 min 13 sec) 
Heartbeat CPU 0 instructions: 13000001 cycles: 8001503 heartbeat IPC: 1.51814 cumulative IPC: 1.62469 (Simulation time: 0 hr 6 min 42 sec) 
Heartbeat CPU 0 instructions: 14000000 cycles: 8662791 heartbeat IPC: 1.5122 cumulative IPC: 1.61611 (Simulation time: 0 hr 7 min 10 sec) 
Heartbeat CPU 0 instructions: 15000000 cycles: 9324505 heartbeat IPC: 1.51123 cumulative IPC: 1.60866 (Simulation time: 0 hr 7 min 39 sec) 
Heartbeat CPU 0 instructions: 16000000 cycles: 9986416 heartbeat IPC: 1.51078 cumulative IPC: 1.60218 (Simulation time: 0 hr 8 min 7 sec) 
Heartbeat CPU 0 instructions: 17000000 cycles: 10652142 heartbeat IPC: 1.50212 cumulative IPC: 1.59592 (Simulation time: 0 hr 8 min 37 sec) 
Heartbeat CPU 0 instructions: 18000001 cycles: 11318698 heartbeat IPC: 1.50025 cumulative IPC: 1.59029 (Simulation time: 0 hr 9 min 7 sec) 
Heartbeat CPU 0 instructions: 19000002 cycles: 11987505 heartbeat IPC: 1.4952 cumulative IPC: 1.58498 (Simulation time: 0 hr 9 min 36 sec) 
Heartbeat CPU 0 instructions: 20000000 cycles: 12559207 heartbeat IPC: 1.74916 cumulative IPC: 1.59246 (Simulation time: 0 hr 10 min 7 sec) 
Heartbeat CPU 0 instructions: 21000000 cycles: 13148191 heartbeat IPC: 1.69784 cumulative IPC: 1.59718 (Simulation time: 0 hr 10 min 38 sec) 
Heartbeat CPU 0 instructions: 22000001 cycles: 13760082 heartbeat IPC: 1.63428 cumulative IPC: 1.59883 (Simulation time: 0 hr 11 min 8 sec) 
Heartbeat CPU 0 instructions: 23000000 cycles: 14317852 heartbeat IPC: 1.79285 cumulative IPC: 1.60639 (Simulation time: 0 hr 11 min 38 sec) 
Heartbeat CPU 0 instructions: 24000000 cycles: 14877404 heartbeat IPC: 1.78714 cumulative IPC: 1.61318 (Simulation time: 0 hr 12 min 9 sec) 
Heartbeat CPU 0 instructions: 25000001 cycles: 15460880 heartbeat IPC: 1.71387 cumulative IPC: 1.61698 (Simulation time: 0 hr 12 min 38 sec) 
Heartbeat CPU 0 instructions: 26000001 cycles: 16077721 heartbeat IPC: 1.62116 cumulative IPC: 1.61714 (Simulation time: 0 hr 13 min 7 sec) 
Heartbeat CPU 0 instructions: 27000000 cycles: 16637271 heartbeat IPC: 1.78715 cumulative IPC: 1.62286 (Simulation time: 0 hr 13 min 39 sec) 
Heartbeat CPU 0 instructions: 28000000 cycles: 17195507 heartbeat IPC: 1.79136 cumulative IPC: 1.62833 (Simulation time: 0 hr 14 min 11 sec) 
Heartbeat CPU 0 instructions: 29000000 cycles: 17774129 heartbeat IPC: 1.72824 cumulative IPC: 1.63158 (Simulation time: 0 hr 14 min 40 sec) 
Heartbeat CPU 0 instructions: 30000000 cycles: 18396674 heartbeat IPC: 1.60631 cumulative IPC: 1.63073 (Simulation time: 0 hr 15 min 8 sec) 
Heartbeat CPU 0 instructions: 31000000 cycles: 18957981 heartbeat IPC: 1.78156 cumulative IPC: 1.6352 (Simulation time: 0 hr 15 min 38 sec) 
Heartbeat CPU 0 instructions: 32000000 cycles: 19515130 heartbeat IPC: 1.79485 cumulative IPC: 1.63975 (Simulation time: 0 hr 16 min 10 sec) 
Heartbeat CPU 0 instructions: 33000001 cycles: 20086884 heartbeat IPC: 1.74901 cumulative IPC: 1.64286 (Simulation time: 0 hr 16 min 41 sec) 
Heartbeat CPU 0 instructions: 34000001 cycles: 20722583 heartbeat IPC: 1.57307 cumulative IPC: 1.64072 (Simulation time: 0 hr 17 min 9 sec) 
Heartbeat CPU 0 instructions: 35000002 cycles: 21287693 heartbeat IPC: 1.76957 cumulative IPC: 1.64414 (Simulation time: 0 hr 17 min 42 sec) 
Heartbeat CPU 0 instructions: 36000000 cycles: 21847359 heartbeat IPC: 1.78678 cumulative IPC: 1.6478 (Simulation time: 0 hr 18 min 15 sec) 
Heartbeat CPU 0 instructions: 37000001 cycles: 22425433 heartbeat IPC: 1.72988 cumulative IPC: 1.64991 (Simulation time: 0 hr 18 min 45 sec) 
Heartbeat CPU 0 instructions: 38000002 cycles: 23054463 heartbeat IPC: 1.58975 cumulative IPC: 1.64827 (Simulation time: 0 hr 19 min 14 sec) 
Heartbeat CPU 0 instructions: 39000000 cycles: 23617075 heartbeat IPC: 1.77742 cumulative IPC: 1.65135 (Simulation time: 0 hr 19 min 47 sec) 
Heartbeat CPU 0 instructions: 40000000 cycles: 24177086 heartbeat IPC: 1.78568 cumulative IPC: 1.65446 (Simulation time: 0 hr 20 min 21 sec) 
Heartbeat CPU 0 instructions: 41000002 cycles: 24760062 heartbeat IPC: 1.71534 cumulative IPC: 1.65589 (Simulation time: 0 hr 20 min 52 sec) 
Heartbeat CPU 0 instructions: 42000000 cycles: 25387027 heartbeat IPC: 1.59498 cumulative IPC: 1.65439 (Simulation time: 0 hr 21 min 19 sec) 
Heartbeat CPU 0 instructions: 43000001 cycles: 25874230 heartbeat IPC: 2.05253 cumulative IPC: 1.66189 (Simulation time: 0 hr 21 min 57 sec) 
Heartbeat CPU 0 instructions: 44000000 cycles: 26534927 heartbeat IPC: 1.51355 cumulative IPC: 1.65819 (Simulation time: 0 hr 22 min 26 sec) 
Heartbeat CPU 0 instructions: 45000003 cycles: 27196569 heartbeat IPC: 1.5114 cumulative IPC: 1.65462 (Simulation time: 0 hr 22 min 55 sec) 
Heartbeat CPU 0 instructions: 46000000 cycles: 27858944 heartbeat IPC: 1.50971 cumulative IPC: 1.65118 (Simulation time: 0 hr 23 min 20 sec) 
Heartbeat CPU 0 instructions: 47000001 cycles: 28521958 heartbeat IPC: 1.50827 cumulative IPC: 1.64785 (Simulation time: 0 hr 23 min 47 sec) 
Heartbeat CPU 0 instructions: 48000000 cycles: 29184708 heartbeat IPC: 1.50886 cumulative IPC: 1.6447 (Simulation time: 0 hr 24 min 14 sec) 
Heartbeat CPU 0 instructions: 49000000 cycles: 29846206 heartbeat IPC: 1.51172 cumulative IPC: 1.64175 (Simulation time: 0 hr 24 min 40 sec) 
Heartbeat CPU 0 instructions: 50000000 cycles: 30508396 heartbeat IPC: 1.51014 cumulative IPC: 1.63889 (Simulation time: 0 hr 25 min 5 sec) 

Warmup complete CPU 0 instructions: 50000002 cycles: 30508397 (Simulation time: 0 hr 25 min 5 sec) 

Heartbeat CPU 0 instructions: 51000002 cycles: 31551619 heartbeat IPC: 0.95857 cumulative IPC: 0.958569 (Simulation time: 0 hr 25 min 32 sec) 
Heartbeat CPU 0 instructions: 52000000 cycles: 32595858 heartbeat IPC: 0.957633 cumulative IPC: 0.958101 (Simulation time: 0 hr 25 min 59 sec) 
Heartbeat CPU 0 instructions: 53000001 cycles: 33638330 heartbeat IPC: 0.959259 cumulative IPC: 0.958487 (Simulation time: 0 hr 26 min 27 sec) 
Heartbeat CPU 0 instructions: 54000002 cycles: 34706455 heartbeat IPC: 0.936221 cumulative IPC: 0.952821 (Simulation time: 0 hr 26 min 54 sec) 
Heartbeat CPU 0 instructions: 55000003 cycles: 35746731 heartbeat IPC: 0.961284 cumulative IPC: 0.954502 (Simulation time: 0 hr 27 min 22 sec) 
Heartbeat CPU 0 instructions: 56000000 cycles: 38009753 heartbeat IPC: 0.441886 cumulative IPC: 0.799855 (Simulation time: 0 hr 27 min 54 sec) 
Heartbeat CPU 0 instructions: 57000003 cycles: 40042754 heartbeat IPC: 0.491885 cumulative IPC: 0.734187 (Simulation time: 0 hr 28 min 25 sec) 
Heartbeat CPU 0 instructions: 58000000 cycles: 43341227 heartbeat IPC: 0.30317 cumulative IPC: 0.623401 (Simulation time: 0 hr 29 min 0 sec) 
Heartbeat CPU 0 instructions: 59000003 cycles: 46627504 heartbeat IPC: 0.304297 cumulative IPC: 0.558344 (Simulation time: 0 hr 29 min 36 sec) 
Heartbeat CPU 0 instructions: 60000000 cycles: 49045737 heartbeat IPC: 0.413524 cumulative IPC: 0.539452 (Simulation time: 0 hr 30 min 8 sec) 
Heartbeat CPU 0 instructions: 61000001 cycles: 50922660 heartbeat IPC: 0.532787 cumulative IPC: 0.538839 (Simulation time: 0 hr 30 min 38 sec) 
Heartbeat CPU 0 instructions: 62000001 cycles: 54191521 heartbeat IPC: 0.305917 cumulative IPC: 0.50669 (Simulation time: 0 hr 31 min 13 sec) 
Heartbeat CPU 0 instructions: 63000000 cycles: 57459530 heartbeat IPC: 0.305996 cumulative IPC: 0.482354 (Simulation time: 0 hr 31 min 49 sec) 
Heartbeat CPU 0 instructions: 64000000 cycles: 60037078 heartbeat IPC: 0.387966 cumulative IPC: 0.474115 (Simulation time: 0 hr 32 min 21 sec) 
Heartbeat CPU 0 instructions: 65000000 cycles: 61744070 heartbeat IPC: 0.585826 cumulative IPC: 0.48022 (Simulation time: 0 hr 32 min 50 sec) 
Heartbeat CPU 0 instructions: 66000000 cycles: 65007745 heartbeat IPC: 0.306403 cumulative IPC: 0.463777 (Simulation time: 0 hr 33 min 26 sec) 
Heartbeat CPU 0 instructions: 67000001 cycles: 68278836 heartbeat IPC: 0.305709 cumulative IPC: 0.450087 (Simulation time: 0 hr 34 min 1 sec) 
Heartbeat CPU 0 instructions: 68000000 cycles: 71043571 heartbeat IPC: 0.361698 cumulative IPC: 0.444059 (Simulation time: 0 hr 34 min 32 sec) 
Heartbeat CPU 0 instructions: 69000001 cycles: 72570641 heartbeat IPC: 0.654849 cumulative IPC: 0.451712 (Simulation time: 0 hr 35 min 3 sec) 
Heartbeat CPU 0 instructions: 70000001 cycles: 75819414 heartbeat IPC: 0.307809 cumulative IPC: 0.441394 (Simulation time: 0 hr 35 min 37 sec) 
Heartbeat CPU 0 instructions: 71000001 cycles: 79087035 heartbeat IPC: 0.306033 cumulative IPC: 0.432289 (Simulation time: 0 hr 36 min 13 sec) 
Heartbeat CPU 0 instructions: 72000000 cycles: 81868596 heartbeat IPC: 0.35951 cumulative IPC: 0.428347 (Simulation time: 0 hr 36 min 45 sec) 
Heartbeat CPU 0 instructions: 73000000 cycles: 83402540 heartbeat IPC: 0.651914 cumulative IPC: 0.434831 (Simulation time: 0 hr 37 min 14 sec) 
Heartbeat CPU 0 instructions: 74000003 cycles: 86677418 heartbeat IPC: 0.305356 cumulative IPC: 0.427282 (Simulation time: 0 hr 37 min 46 sec) 
Heartbeat CPU 0 instructions: 75000001 cycles: 89951165 heartbeat IPC: 0.30546 cumulative IPC: 0.420573 (Simulation time: 0 hr 38 min 23 sec) 
Heartbeat CPU 0 instructions: 76000000 cycles: 92618247 heartbeat IPC: 0.374941 cumulative IPC: 0.418613 (Simulation time: 0 hr 38 min 55 sec) 
Heartbeat CPU 0 instructions: 77000001 cycles: 94254666 heartbeat IPC: 0.611091 cumulative IPC: 0.423554 (Simulation time: 0 hr 39 min 24 sec) 
Heartbeat CPU 0 instructions: 78000000 cycles: 97515288 heartbeat IPC: 0.30669 cumulative IPC: 0.417867 (Simulation time: 0 hr 39 min 58 sec) 
Heartbeat CPU 0 instructions: 79000000 cycles: 100949231 heartbeat IPC: 0.29121 cumulative IPC: 0.411693 (Simulation time: 0 hr 40 min 34 sec) 
Heartbeat CPU 0 instructions: 80000000 cycles: 102800093 heartbeat IPC: 0.540289 cumulative IPC: 0.414985 (Simulation time: 0 hr 41 min 2 sec) 
Heartbeat CPU 0 instructions: 81000001 cycles: 105239180 heartbeat IPC: 0.40999 cumulative IPC: 0.414822 (Simulation time: 0 hr 41 min 36 sec) 
Heartbeat CPU 0 instructions: 82000000 cycles: 108506340 heartbeat IPC: 0.306076 cumulative IPC: 0.410267 (Simulation time: 0 hr 42 min 10 sec) 
Heartbeat CPU 0 instructions: 83000000 cycles: 111774615 heartbeat IPC: 0.305972 cumulative IPC: 0.406073 (Simulation time: 0 hr 42 min 45 sec) 
Heartbeat CPU 0 instructions: 84000000 cycles: 113588581 heartbeat IPC: 0.551278 cumulative IPC: 0.409243 (Simulation time: 0 hr 43 min 17 sec) 
Heartbeat CPU 0 instructions: 85000003 cycles: 116063608 heartbeat IPC: 0.404037 cumulative IPC: 0.409093 (Simulation time: 0 hr 43 min 53 sec) 
Heartbeat CPU 0 instructions: 86000001 cycles: 119337641 heartbeat IPC: 0.305433 cumulative IPC: 0.405272 (Simulation time: 0 hr 44 min 31 sec) 
Heartbeat CPU 0 instructions: 87000000 cycles: 122602281 heartbeat IPC: 0.306312 cumulative IPC: 0.401764 (Simulation time: 0 hr 45 min 6 sec) 
Heartbeat CPU 0 instructions: 88000000 cycles: 124281428 heartbeat IPC: 0.59554 cumulative IPC: 0.405234 (Simulation time: 0 hr 45 min 36 sec) 
Heartbeat CPU 0 instructions: 89000000 cycles: 128995443 heartbeat IPC: 0.212133 cumulative IPC: 0.395991 (Simulation time: 0 hr 46 min 19 sec) 
Heartbeat CPU 0 instructions: 90000002 cycles: 130038887 heartbeat IPC: 0.958367 cumulative IPC: 0.401887 (Simulation time: 0 hr 46 min 49 sec) 
Heartbeat CPU 0 instructions: 91000001 cycles: 131083095 heartbeat IPC: 0.957663 cumulative IPC: 0.407657 (Simulation time: 0 hr 47 min 16 sec) 
Heartbeat CPU 0 instructions: 92000000 cycles: 132126741 heartbeat IPC: 0.958178 cumulative IPC: 0.413311 (Simulation time: 0 hr 47 min 44 sec) 
Heartbeat CPU 0 instructions: 93000002 cycles: 133171081 heartbeat IPC: 0.957545 cumulative IPC: 0.418847 (Simulation time: 0 hr 48 min 12 sec) 
Heartbeat CPU 0 instructions: 94000001 cycles: 134214909 heartbeat IPC: 0.958011 cumulative IPC: 0.424274 (Simulation time: 0 hr 48 min 41 sec) 
Heartbeat CPU 0 instructions: 95000000 cycles: 135259475 heartbeat IPC: 0.957334 cumulative IPC: 0.42959 (Simulation time: 0 hr 49 min 9 sec) 
Heartbeat CPU 0 instructions: 96000000 cycles: 136304270 heartbeat IPC: 0.957126 cumulative IPC: 0.4348 (Simulation time: 0 hr 49 min 37 sec) 
Heartbeat CPU 0 instructions: 97000002 cycles: 137375142 heartbeat IPC: 0.93382 cumulative IPC: 0.4398 (Simulation time: 0 hr 50 min 6 sec) 
Heartbeat CPU 0 instructions: 98000000 cycles: 138420770 heartbeat IPC: 0.956361 cumulative IPC: 0.444805 (Simulation time: 0 hr 50 min 34 sec) 
Heartbeat CPU 0 instructions: 99000003 cycles: 139459087 heartbeat IPC: 0.9631 cumulative IPC: 0.449745 (Simulation time: 0 hr 51 min 2 sec) 
Heartbeat CPU 0 instructions: 100000000 cycles: 140495541 heartbeat IPC: 0.964825 cumulative IPC: 0.454599 (Simulation time: 0 hr 51 min 31 sec) 
Heartbeat CPU 0 instructions: 101000001 cycles: 141536684 heartbeat IPC: 0.960484 cumulative IPC: 0.459342 (Simulation time: 0 hr 52 min 0 sec) 
Heartbeat CPU 0 instructions: 102000001 cycles: 144758761 heartbeat IPC: 0.310359 cumulative IPC: 0.455141 (Simulation time: 0 hr 52 min 38 sec) 
Heartbeat CPU 0 instructions: 103000001 cycles: 146158014 heartbeat IPC: 0.714667 cumulative IPC: 0.458281 (Simulation time: 0 hr 53 min 11 sec) 
Heartbeat CPU 0 instructions: 104000000 cycles: 149105478 heartbeat IPC: 0.339274 cumulative IPC: 0.455323 (Simulation time: 0 hr 53 min 50 sec) 
Heartbeat CPU 0 instructions: 105000000 cycles: 152371051 heartbeat IPC: 0.306225 cumulative IPC: 0.451328 (Simulation time: 0 hr 54 min 31 sec) 
Heartbeat CPU 0 instructions: 106000000 cycles: 155581379 heartbeat IPC: 0.311495 cumulative IPC: 0.447739 (Simulation time: 0 hr 55 min 10 sec) 
Heartbeat CPU 0 instructions: 107000001 cycles: 157132256 heartbeat IPC: 0.644797 cumulative IPC: 0.450152 (Simulation time: 0 hr 55 min 43 sec) 
Heartbeat CPU 0 instructions: 108000000 cycles: 159921264 heartbeat IPC: 0.35855 cumulative IPC: 0.448178 (Simulation time: 0 hr 56 min 21 sec) 
Heartbeat CPU 0 instructions: 109000000 cycles: 163182980 heartbeat IPC: 0.306587 cumulative IPC: 0.444697 (Simulation time: 0 hr 57 min 1 sec) 
Heartbeat CPU 0 instructions: 110000000 cycles: 166431199 heartbeat IPC: 0.307861 cumulative IPC: 0.441427 (Simulation time: 0 hr 57 min 42 sec) 
Heartbeat CPU 0 instructions: 111000000 cycles: 168127733 heartbeat IPC: 0.589437 cumulative IPC: 0.443252 (Simulation time: 0 hr 58 min 14 sec) 
Heartbeat CPU 0 instructions: 112000000 cycles: 170736647 heartbeat IPC: 0.383301 cumulative IPC: 0.442136 (Simulation time: 0 hr 58 min 50 sec) 
Heartbeat CPU 0 instructions: 113000001 cycles: 174010374 heartbeat IPC: 0.305463 cumulative IPC: 0.439018 (Simulation time: 0 hr 59 min 28 sec) 
Heartbeat CPU 0 instructions: 114000001 cycles: 177284355 heartbeat IPC: 0.305439 cumulative IPC: 0.436039 (Simulation time: 1 hr 0 min 6 sec) 
Heartbeat CPU 0 instructions: 115000002 cycles: 179156368 heartbeat IPC: 0.534185 cumulative IPC: 0.437275 (Simulation time: 1 hr 0 min 36 sec) 
Heartbeat CPU 0 instructions: 116000000 cycles: 181584195 heartbeat IPC: 0.41189 cumulative IPC: 0.436867 (Simulation time: 1 hr 1 min 10 sec) 
Heartbeat CPU 0 instructions: 117000000 cycles: 184836427 heartbeat IPC: 0.307481 cumulative IPC: 0.43414 (Simulation time: 1 hr 1 min 48 sec) 
Heartbeat CPU 0 instructions: 118000001 cycles: 188127655 heartbeat IPC: 0.303838 cumulative IPC: 0.431419 (Simulation time: 1 hr 2 min 26 sec) 
Heartbeat CPU 0 instructions: 119000002 cycles: 189899025 heartbeat IPC: 0.564535 cumulative IPC: 0.432899 (Simulation time: 1 hr 3 min 2 sec) 
Heartbeat CPU 0 instructions: 120000000 cycles: 192422951 heartbeat IPC: 0.396207 cumulative IPC: 0.432327 (Simulation time: 1 hr 3 min 37 sec) 
Heartbeat CPU 0 instructions: 121000000 cycles: 195693379 heartbeat IPC: 0.30577 cumulative IPC: 0.429821 (Simulation time: 1 hr 4 min 15 sec) 
Heartbeat CPU 0 instructions: 122000000 cycles: 198958221 heartbeat IPC: 0.306294 cumulative IPC: 0.427427 (Simulation time: 1 hr 4 min 55 sec) 
Heartbeat CPU 0 instructions: 123000002 cycles: 200636083 heartbeat IPC: 0.595998 cumulative IPC: 0.429089 (Simulation time: 1 hr 5 min 27 sec) 
Heartbeat CPU 0 instructions: 124000000 cycles: 203250785 heartbeat IPC: 0.382452 cumulative IPC: 0.428384 (Simulation time: 1 hr 6 min 3 sec) 
Heartbeat CPU 0 instructions: 125000000 cycles: 206670363 heartbeat IPC: 0.292434 cumulative IPC: 0.425745 (Simulation time: 1 hr 6 min 42 sec) 
Heartbeat CPU 0 instructions: 126000001 cycles: 209809014 heartbeat IPC: 0.318609 cumulative IPC: 0.423869 (Simulation time: 1 hr 7 min 21 sec) 
Heartbeat CPU 0 instructions: 127000002 cycles: 210964457 heartbeat IPC: 0.86547 cumulative IPC: 0.426697 (Simulation time: 1 hr 7 min 51 sec) 
Heartbeat CPU 0 instructions: 128000000 cycles: 214235556 heartbeat IPC: 0.305707 cumulative IPC: 0.424543 (Simulation time: 1 hr 8 min 32 sec) 
Heartbeat CPU 0 instructions: 129000000 cycles: 217503273 heartbeat IPC: 0.306024 cumulative IPC: 0.422471 (Simulation time: 1 hr 9 min 14 sec) 
Heartbeat CPU 0 instructions: 130000001 cycles: 220614947 heartbeat IPC: 0.321371 cumulative IPC: 0.420817 (Simulation time: 1 hr 9 min 56 sec) 
Heartbeat CPU 0 instructions: 131000002 cycles: 221805043 heartbeat IPC: 0.840269 cumulative IPC: 0.423426 (Simulation time: 1 hr 10 min 29 sec) 
Heartbeat CPU 0 instructions: 132000000 cycles: 225068319 heartbeat IPC: 0.30644 cumulative IPC: 0.421464 (Simulation time: 1 hr 11 min 12 sec) 
Heartbeat CPU 0 instructions: 133000000 cycles: 228321416 heartbeat IPC: 0.307399 cumulative IPC: 0.419588 (Simulation time: 1 hr 11 min 52 sec) 
Heartbeat CPU 0 instructions: 134000000 cycles: 231292105 heartbeat IPC: 0.336622 cumulative IPC: 0.418361 (Simulation time: 1 hr 12 min 32 sec) 
Heartbeat CPU 0 instructions: 135000001 cycles: 234709749 heartbeat IPC: 0.2926 cumulative IPC: 0.416256 (Simulation time: 1 hr 13 min 14 sec) 
Heartbeat CPU 0 instructions: 136000000 cycles: 235754030 heartbeat IPC: 0.957596 cumulative IPC: 0.41901 (Simulation time: 1 hr 13 min 45 sec) 
Heartbeat CPU 0 instructions: 137000001 cycles: 236799215 heartbeat IPC: 0.956769 cumulative IPC: 0.421735 (Simulation time: 1 hr 14 min 18 sec) 
Heartbeat CPU 0 instructions: 138000001 cycles: 237843919 heartbeat IPC: 0.957209 cumulative IPC: 0.424433 (Simulation time: 1 hr 14 min 49 sec) 
Heartbeat CPU 0 instructions: 139000001 cycles: 238889450 heartbeat IPC: 0.956452 cumulative IPC: 0.427102 (Simulation time: 1 hr 15 min 21 sec) 
Heartbeat CPU 0 instructions: 140000000 cycles: 239935974 heartbeat IPC: 0.955543 cumulative IPC: 0.429743 (Simulation time: 1 hr 15 min 51 sec) 
Heartbeat CPU 0 instructions: 141000001 cycles: 241006389 heartbeat IPC: 0.934218 cumulative IPC: 0.432308 (Simulation time: 1 hr 16 min 21 sec) 
Heartbeat CPU 0 instructions: 142000002 cycles: 242050263 heartbeat IPC: 0.957971 cumulative IPC: 0.434902 (Simulation time: 1 hr 16 min 49 sec) 
Heartbeat CPU 0 instructions: 143000001 cycles: 243095527 heartbeat IPC: 0.956695 cumulative IPC: 0.437468 (Simulation time: 1 hr 17 min 18 sec) 
Heartbeat CPU 0 instructions: 144000000 cycles: 244139191 heartbeat IPC: 0.958162 cumulative IPC: 0.440011 (Simulation time: 1 hr 17 min 47 sec) 
Heartbeat CPU 0 instructions: 145000003 cycles: 245182057 heartbeat IPC: 0.958899 cumulative IPC: 0.442532 (Simulation time: 1 hr 18 min 16 sec) 
Heartbeat CPU 0 instructions: 146000001 cycles: 246223473 heartbeat IPC: 0.960229 cumulative IPC: 0.445031 (Simulation time: 1 hr 18 min 45 sec) 
Heartbeat CPU 0 instructions: 147000000 cycles: 247265400 heartbeat IPC: 0.959759 cumulative IPC: 0.447506 (Simulation time: 1 hr 19 min 13 sec) 
Heartbeat CPU 0 instructions: 148000000 cycles: 250527041 heartbeat IPC: 0.306594 cumulative IPC: 0.445417 (Simulation time: 1 hr 19 min 50 sec) 
Heartbeat CPU 0 instructions: 149000000 cycles: 253147416 heartbeat IPC: 0.381625 cumulative IPC: 0.444666 (Simulation time: 1 hr 20 min 22 sec) 
Heartbeat CPU 0 instructions: 150000000 cycles: 254811848 heartbeat IPC: 0.600806 cumulative IPC: 0.445825 (Simulation time: 1 hr 20 min 54 sec) 
Finished CPU 0 instructions: 100000002 cycles: 224303457 cummulative IPC: 0.445825 (Simulation time: 1 hr 20 min 54 sec) 

ChampSim completed all CPUs

Region of Interest Statistics

CPU 0 cummulative IPC: 0.445825 instructions: 100000002 cycles: 224303457
LLC TOTAL     ACCESS:    3408728  HIT:    1353182  MISS:    2055546
LLC LOAD      ACCESS:    1623537  HIT:    1286076  MISS:     337461
LLC RFO       ACCESS:       5352  HIT:       2487  MISS:       2865
LLC PREFETCH  ACCESS:    1762438  HIT:      59700  MISS:    1702738
LLC WRITEBACK ACCESS:      17401  HIT:       4919  MISS:      12482
