
*** ChampSim Multicore Out-of-Order Simulator ***

Warmup Instructions: 50000000
Simulation Instructions: 100000000
Configuration: 2
Number of CPUs: 1
LLC sets: 2048
LLC ways: 16
Off-chip DRAM Channels: 1 Width: 64-bit Data Rate: 1600 MT/s

CPU 0 runs /datasets/cs240c-wi22-a00-public/data/Assignment2-gz/libquantum_1735B.trace.gz
CPU 0 L1D next line prefetcher
CPU 0 L2C IP-based stride prefetcher
Heartbeat CPU 0 instructions: 1000001 cycles: 333341 heartbeat IPC: 2.99993 cumulative IPC: 2.99993 (Simulation time: 0 hr 0 min 21 sec) 
Heartbeat CPU 0 instructions: 2000000 cycles: 666674 heartbeat IPC: 3 cumulative IPC: 2.99997 (Simulation time: 0 hr 0 min 41 sec) 
Heartbeat CPU 0 instructions: 3000000 cycles: 989045 heartbeat IPC: 3.10202 cumulative IPC: 3.03323 (Simulation time: 0 hr 1 min 2 sec) 
Heartbeat CPU 0 instructions: 4000000 cycles: 1290770 heartbeat IPC: 3.31428 cumulative IPC: 3.09893 (Simulation time: 0 hr 1 min 25 sec) 
Heartbeat CPU 0 instructions: 5000001 cycles: 1592495 heartbeat IPC: 3.31428 cumulative IPC: 3.13973 (Simulation time: 0 hr 1 min 46 sec) 
Heartbeat CPU 0 instructions: 6000001 cycles: 1894219 heartbeat IPC: 3.31429 cumulative IPC: 3.16753 (Simulation time: 0 hr 2 min 8 sec) 
Heartbeat CPU 0 instructions: 7000002 cycles: 2195942 heartbeat IPC: 3.3143 cumulative IPC: 3.1877 (Simulation time: 0 hr 2 min 31 sec) 
Heartbeat CPU 0 instructions: 8000000 cycles: 2501897 heartbeat IPC: 3.26845 cumulative IPC: 3.19757 (Simulation time: 0 hr 2 min 52 sec) 
Heartbeat CPU 0 instructions: 9000000 cycles: 2835230 heartbeat IPC: 3 cumulative IPC: 3.17435 (Simulation time: 0 hr 3 min 13 sec) 
Heartbeat CPU 0 instructions: 10000002 cycles: 3168564 heartbeat IPC: 3 cumulative IPC: 3.156 (Simulation time: 0 hr 3 min 34 sec) 
Heartbeat CPU 0 instructions: 11000001 cycles: 3501897 heartbeat IPC: 3 cumulative IPC: 3.14116 (Simulation time: 0 hr 3 min 56 sec) 
Heartbeat CPU 0 instructions: 12000000 cycles: 3835230 heartbeat IPC: 3 cumulative IPC: 3.12889 (Simulation time: 0 hr 4 min 17 sec) 
Heartbeat CPU 0 instructions: 13000000 cycles: 4159530 heartbeat IPC: 3.08356 cumulative IPC: 3.12535 (Simulation time: 0 hr 4 min 39 sec) 
Heartbeat CPU 0 instructions: 14000002 cycles: 4471102 heartbeat IPC: 3.20954 cumulative IPC: 3.13122 (Simulation time: 0 hr 5 min 2 sec) 
Heartbeat CPU 0 instructions: 15000000 cycles: 4782674 heartbeat IPC: 3.20952 cumulative IPC: 3.13632 (Simulation time: 0 hr 5 min 24 sec) 
Heartbeat CPU 0 instructions: 16000000 cycles: 5094247 heartbeat IPC: 3.20952 cumulative IPC: 3.1408 (Simulation time: 0 hr 5 min 46 sec) 
Heartbeat CPU 0 instructions: 17000000 cycles: 5405820 heartbeat IPC: 3.20952 cumulative IPC: 3.14476 (Simulation time: 0 hr 6 min 7 sec) 
Heartbeat CPU 0 instructions: 18000001 cycles: 5725379 heartbeat IPC: 3.12932 cumulative IPC: 3.1439 (Simulation time: 0 hr 6 min 29 sec) 
Heartbeat CPU 0 instructions: 19000000 cycles: 6058712 heartbeat IPC: 3 cumulative IPC: 3.13598 (Simulation time: 0 hr 6 min 51 sec) 
Heartbeat CPU 0 instructions: 20000000 cycles: 6392046 heartbeat IPC: 2.99999 cumulative IPC: 3.12889 (Simulation time: 0 hr 7 min 11 sec) 
Heartbeat CPU 0 instructions: 21000001 cycles: 6725379 heartbeat IPC: 3.00001 cumulative IPC: 3.1225 (Simulation time: 0 hr 7 min 33 sec) 
Heartbeat CPU 0 instructions: 22000000 cycles: 7058712 heartbeat IPC: 3 cumulative IPC: 3.11672 (Simulation time: 0 hr 7 min 54 sec) 
Heartbeat CPU 0 instructions: 23000001 cycles: 7377935 heartbeat IPC: 3.13261 cumulative IPC: 3.1174 (Simulation time: 0 hr 8 min 15 sec) 
Heartbeat CPU 0 instructions: 24000000 cycles: 7689508 heartbeat IPC: 3.20952 cumulative IPC: 3.12114 (Simulation time: 0 hr 8 min 39 sec) 
Heartbeat CPU 0 instructions: 25000002 cycles: 8001081 heartbeat IPC: 3.20953 cumulative IPC: 3.12458 (Simulation time: 0 hr 9 min 0 sec) 
Heartbeat CPU 0 instructions: 26000000 cycles: 8312653 heartbeat IPC: 3.20952 cumulative IPC: 3.12776 (Simulation time: 0 hr 9 min 19 sec) 
Heartbeat CPU 0 instructions: 27000003 cycles: 8624226 heartbeat IPC: 3.20953 cumulative IPC: 3.13072 (Simulation time: 0 hr 9 min 40 sec) 
Heartbeat CPU 0 instructions: 28000000 cycles: 8948866 heartbeat IPC: 3.08033 cumulative IPC: 3.12889 (Simulation time: 0 hr 10 min 3 sec) 
Heartbeat CPU 0 instructions: 29000000 cycles: 9282199 heartbeat IPC: 3 cumulative IPC: 3.12426 (Simulation time: 0 hr 10 min 25 sec) 
Heartbeat CPU 0 instructions: 30000001 cycles: 9615533 heartbeat IPC: 3 cumulative IPC: 3.11995 (Simulation time: 0 hr 10 min 45 sec) 
Heartbeat CPU 0 instructions: 31000000 cycles: 9948866 heartbeat IPC: 3 cumulative IPC: 3.11593 (Simulation time: 0 hr 11 min 7 sec) 
Heartbeat CPU 0 instructions: 32000000 cycles: 10282200 heartbeat IPC: 2.99999 cumulative IPC: 3.11217 (Simulation time: 0 hr 11 min 28 sec) 
Heartbeat CPU 0 instructions: 33000003 cycles: 10587669 heartbeat IPC: 3.27366 cumulative IPC: 3.11683 (Simulation time: 0 hr 11 min 49 sec) 
Heartbeat CPU 0 instructions: 34000002 cycles: 10889391 heartbeat IPC: 3.31431 cumulative IPC: 3.12231 (Simulation time: 0 hr 12 min 10 sec) 
Heartbeat CPU 0 instructions: 35000002 cycles: 11191114 heartbeat IPC: 3.3143 cumulative IPC: 3.12748 (Simulation time: 0 hr 12 min 30 sec) 
Heartbeat CPU 0 instructions: 36000000 cycles: 11492840 heartbeat IPC: 3.31426 cumulative IPC: 3.13239 (Simulation time: 0 hr 12 min 51 sec) 
Heartbeat CPU 0 instructions: 37000002 cycles: 11794564 heartbeat IPC: 3.31429 cumulative IPC: 3.13704 (Simulation time: 0 hr 13 min 12 sec) 
Heartbeat CPU 0 instructions: 38000003 cycles: 12117424 heartbeat IPC: 3.09732 cumulative IPC: 3.13598 (Simulation time: 0 hr 13 min 32 sec) 
Heartbeat CPU 0 instructions: 39000002 cycles: 12450757 heartbeat IPC: 3 cumulative IPC: 3.13234 (Simulation time: 0 hr 13 min 53 sec) 
Heartbeat CPU 0 instructions: 40000000 cycles: 12784090 heartbeat IPC: 3 cumulative IPC: 3.12889 (Simulation time: 0 hr 14 min 13 sec) 
Heartbeat CPU 0 instructions: 41000000 cycles: 13117423 heartbeat IPC: 3 cumulative IPC: 3.12561 (Simulation time: 0 hr 14 min 33 sec) 
Heartbeat CPU 0 instructions: 42000001 cycles: 13450757 heartbeat IPC: 3 cumulative IPC: 3.1225 (Simulation time: 0 hr 14 min 54 sec) 
Heartbeat CPU 0 instructions: 43000003 cycles: 13754059 heartbeat IPC: 3.29705 cumulative IPC: 3.12635 (Simulation time: 0 hr 15 min 15 sec) 
Heartbeat CPU 0 instructions: 44000000 cycles: 14055784 heartbeat IPC: 3.31427 cumulative IPC: 3.13038 (Simulation time: 0 hr 15 min 35 sec) 
Heartbeat CPU 0 instructions: 45000000 cycles: 14357508 heartbeat IPC: 3.31429 cumulative IPC: 3.13425 (Simulation time: 0 hr 15 min 57 sec) 
Heartbeat CPU 0 instructions: 46000002 cycles: 14659231 heartbeat IPC: 3.3143 cumulative IPC: 3.13795 (Simulation time: 0 hr 16 min 20 sec) 
Heartbeat CPU 0 instructions: 47000002 cycles: 14960955 heartbeat IPC: 3.31429 cumulative IPC: 3.14151 (Simulation time: 0 hr 16 min 41 sec) 
Heartbeat CPU 0 instructions: 48000000 cycles: 15285989 heartbeat IPC: 3.0766 cumulative IPC: 3.14013 (Simulation time: 0 hr 17 min 2 sec) 
Heartbeat CPU 0 instructions: 49000002 cycles: 15619323 heartbeat IPC: 3 cumulative IPC: 3.13714 (Simulation time: 0 hr 17 min 24 sec) 
Heartbeat CPU 0 instructions: 50000001 cycles: 15952656 heartbeat IPC: 3 cumulative IPC: 3.13427 (Simulation time: 0 hr 17 min 45 sec) 

Warmup complete CPU 0 instructions: 50000001 cycles: 15952656 (Simulation time: 0 hr 17 min 45 sec) 

Heartbeat CPU 0 instructions: 51000000 cycles: 17472253 heartbeat IPC: 0.658069 cumulative IPC: 0.658069 (Simulation time: 0 hr 18 min 22 sec) 
Heartbeat CPU 0 instructions: 52000000 cycles: 18991927 heartbeat IPC: 0.658036 cumulative IPC: 0.658052 (Simulation time: 0 hr 18 min 57 sec) 
Heartbeat CPU 0 instructions: 53000002 cycles: 20511631 heartbeat IPC: 0.658024 cumulative IPC: 0.658043 (Simulation time: 0 hr 19 min 35 sec) 
Heartbeat CPU 0 instructions: 54000001 cycles: 22030771 heartbeat IPC: 0.658267 cumulative IPC: 0.658099 (Simulation time: 0 hr 20 min 9 sec) 
Heartbeat CPU 0 instructions: 55000000 cycles: 23550423 heartbeat IPC: 0.658045 cumulative IPC: 0.658088 (Simulation time: 0 hr 20 min 44 sec) 
Heartbeat CPU 0 instructions: 56000000 cycles: 25069892 heartbeat IPC: 0.658125 cumulative IPC: 0.658094 (Simulation time: 0 hr 21 min 20 sec) 
Heartbeat CPU 0 instructions: 57000000 cycles: 26589485 heartbeat IPC: 0.658071 cumulative IPC: 0.658091 (Simulation time: 0 hr 21 min 54 sec) 
Heartbeat CPU 0 instructions: 58000002 cycles: 28108956 heartbeat IPC: 0.658125 cumulative IPC: 0.658095 (Simulation time: 0 hr 22 min 29 sec) 
Heartbeat CPU 0 instructions: 59000001 cycles: 29628502 heartbeat IPC: 0.658091 cumulative IPC: 0.658095 (Simulation time: 0 hr 23 min 3 sec) 
Heartbeat CPU 0 instructions: 60000000 cycles: 31147966 heartbeat IPC: 0.658126 cumulative IPC: 0.658098 (Simulation time: 0 hr 23 min 37 sec) 
Heartbeat CPU 0 instructions: 61000003 cycles: 32667586 heartbeat IPC: 0.658061 cumulative IPC: 0.658094 (Simulation time: 0 hr 24 min 13 sec) 
Heartbeat CPU 0 instructions: 62000002 cycles: 34187058 heartbeat IPC: 0.658123 cumulative IPC: 0.658097 (Simulation time: 0 hr 24 min 47 sec) 
Heartbeat CPU 0 instructions: 63000001 cycles: 35706602 heartbeat IPC: 0.658091 cumulative IPC: 0.658096 (Simulation time: 0 hr 25 min 22 sec) 
Heartbeat CPU 0 instructions: 64000000 cycles: 37226066 heartbeat IPC: 0.658126 cumulative IPC: 0.658099 (Simulation time: 0 hr 25 min 58 sec) 
Heartbeat CPU 0 instructions: 65000001 cycles: 38745554 heartbeat IPC: 0.658117 cumulative IPC: 0.6581 (Simulation time: 0 hr 26 min 34 sec) 
Heartbeat CPU 0 instructions: 66000000 cycles: 40256688 heartbeat IPC: 0.661754 cumulative IPC: 0.658327 (Simulation time: 0 hr 27 min 11 sec) 
Heartbeat CPU 0 instructions: 67000001 cycles: 41716754 heartbeat IPC: 0.684901 cumulative IPC: 0.659833 (Simulation time: 0 hr 27 min 48 sec) 
Heartbeat CPU 0 instructions: 68000000 cycles: 43137097 heartbeat IPC: 0.704055 cumulative IPC: 0.662143 (Simulation time: 0 hr 28 min 26 sec) 
Heartbeat CPU 0 instructions: 69000002 cycles: 44622214 heartbeat IPC: 0.673349 cumulative IPC: 0.662724 (Simulation time: 0 hr 29 min 1 sec) 
Heartbeat CPU 0 instructions: 70000001 cycles: 46114435 heartbeat IPC: 0.670141 cumulative IPC: 0.663091 (Simulation time: 0 hr 29 min 37 sec) 
Heartbeat CPU 0 instructions: 71000003 cycles: 47666561 heartbeat IPC: 0.644279 cumulative IPC: 0.66217 (Simulation time: 0 hr 30 min 13 sec) 
Heartbeat CPU 0 instructions: 72000000 cycles: 49833546 heartbeat IPC: 0.461469 cumulative IPC: 0.649334 (Simulation time: 0 hr 30 min 47 sec) 
Heartbeat CPU 0 instructions: 73000000 cycles: 52003334 heartbeat IPC: 0.460875 cumulative IPC: 0.637991 (Simulation time: 0 hr 31 min 19 sec) 
Heartbeat CPU 0 instructions: 74000000 cycles: 54156843 heartbeat IPC: 0.464358 cumulative IPC: 0.628203 (Simulation time: 0 hr 31 min 52 sec) 
Heartbeat CPU 0 instructions: 75000000 cycles: 56317234 heartbeat IPC: 0.462879 cumulative IPC: 0.619355 (Simulation time: 0 hr 32 min 24 sec) 
Heartbeat CPU 0 instructions: 76000000 cycles: 58488948 heartbeat IPC: 0.460466 cumulative IPC: 0.611243 (Simulation time: 0 hr 32 min 56 sec) 
Heartbeat CPU 0 instructions: 77000001 cycles: 60081147 heartbeat IPC: 0.628063 cumulative IPC: 0.61185 (Simulation time: 0 hr 33 min 32 sec) 
Heartbeat CPU 0 instructions: 78000000 cycles: 61586297 heartbeat IPC: 0.664385 cumulative IPC: 0.613582 (Simulation time: 0 hr 34 min 8 sec) 
Heartbeat CPU 0 instructions: 79000001 cycles: 63091520 heartbeat IPC: 0.664354 cumulative IPC: 0.615204 (Simulation time: 0 hr 34 min 44 sec) 
Heartbeat CPU 0 instructions: 80000000 cycles: 64596663 heartbeat IPC: 0.664388 cumulative IPC: 0.616726 (Simulation time: 0 hr 35 min 22 sec) 
Heartbeat CPU 0 instructions: 81000002 cycles: 66198673 heartbeat IPC: 0.624217 cumulative IPC: 0.616964 (Simulation time: 0 hr 35 min 58 sec) 
Heartbeat CPU 0 instructions: 82000003 cycles: 68350856 heartbeat IPC: 0.464645 cumulative IPC: 0.610708 (Simulation time: 0 hr 36 min 29 sec) 
Heartbeat CPU 0 instructions: 83000000 cycles: 70511291 heartbeat IPC: 0.462868 cumulative IPC: 0.604854 (Simulation time: 0 hr 37 min 0 sec) 
Heartbeat CPU 0 instructions: 84000000 cycles: 72670265 heartbeat IPC: 0.463183 cumulative IPC: 0.599461 (Simulation time: 0 hr 37 min 31 sec) 
Heartbeat CPU 0 instructions: 85000002 cycles: 74821566 heartbeat IPC: 0.464836 cumulative IPC: 0.594541 (Simulation time: 0 hr 38 min 2 sec) 
Heartbeat CPU 0 instructions: 86000002 cycles: 76990400 heartbeat IPC: 0.461077 cumulative IPC: 0.589799 (Simulation time: 0 hr 38 min 34 sec) 
Heartbeat CPU 0 instructions: 87000002 cycles: 78619115 heartbeat IPC: 0.613981 cumulative IPC: 0.590428 (Simulation time: 0 hr 39 min 13 sec) 
Heartbeat CPU 0 instructions: 88000000 cycles: 80194768 heartbeat IPC: 0.634656 cumulative IPC: 0.591512 (Simulation time: 0 hr 39 min 54 sec) 
Heartbeat CPU 0 instructions: 89000000 cycles: 81769728 heartbeat IPC: 0.634937 cumulative IPC: 0.592551 (Simulation time: 0 hr 40 min 33 sec) 
Heartbeat CPU 0 instructions: 90000000 cycles: 83675442 heartbeat IPC: 0.524738 cumulative IPC: 0.590643 (Simulation time: 0 hr 41 min 13 sec) 
Heartbeat CPU 0 instructions: 91000001 cycles: 86403318 heartbeat IPC: 0.366586 cumulative IPC: 0.581968 (Simulation time: 0 hr 41 min 50 sec) 
Heartbeat CPU 0 instructions: 92000000 cycles: 89150283 heartbeat IPC: 0.364038 cumulative IPC: 0.573789 (Simulation time: 0 hr 42 min 23 sec) 
Heartbeat CPU 0 instructions: 93000001 cycles: 91999433 heartbeat IPC: 0.350982 cumulative IPC: 0.565441 (Simulation time: 0 hr 42 min 57 sec) 
Heartbeat CPU 0 instructions: 94000001 cycles: 94697507 heartbeat IPC: 0.370635 cumulative IPC: 0.558767 (Simulation time: 0 hr 43 min 33 sec) 
Heartbeat CPU 0 instructions: 95000000 cycles: 96269441 heartbeat IPC: 0.636158 cumulative IPC: 0.560281 (Simulation time: 0 hr 44 min 12 sec) 
Heartbeat CPU 0 instructions: 96000000 cycles: 97841423 heartbeat IPC: 0.63614 cumulative IPC: 0.561738 (Simulation time: 0 hr 44 min 52 sec) 
Heartbeat CPU 0 instructions: 97000002 cycles: 99413471 heartbeat IPC: 0.636114 cumulative IPC: 0.563139 (Simulation time: 0 hr 45 min 31 sec) 
Heartbeat CPU 0 instructions: 98000001 cycles: 101551949 heartbeat IPC: 0.467622 cumulative IPC: 0.560752 (Simulation time: 0 hr 46 min 9 sec) 
Heartbeat CPU 0 instructions: 99000003 cycles: 104254046 heartbeat IPC: 0.370084 cumulative IPC: 0.554918 (Simulation time: 0 hr 46 min 40 sec) 
Heartbeat CPU 0 instructions: 100000000 cycles: 106962035 heartbeat IPC: 0.369277 cumulative IPC: 0.549394 (Simulation time: 0 hr 47 min 15 sec) 
Heartbeat CPU 0 instructions: 101000000 cycles: 109655797 heartbeat IPC: 0.371228 cumulative IPC: 0.544272 (Simulation time: 0 hr 47 min 48 sec) 
Heartbeat CPU 0 instructions: 102000000 cycles: 111903237 heartbeat IPC: 0.444951 cumulative IPC: 0.541946 (Simulation time: 0 hr 48 min 20 sec) 
Heartbeat CPU 0 instructions: 103000002 cycles: 113374102 heartbeat IPC: 0.679873 cumulative IPC: 0.544028 (Simulation time: 0 hr 48 min 54 sec) 
Heartbeat CPU 0 instructions: 104000000 cycles: 114845038 heartbeat IPC: 0.679838 cumulative IPC: 0.546048 (Simulation time: 0 hr 49 min 31 sec) 
Heartbeat CPU 0 instructions: 105000000 cycles: 116315919 heartbeat IPC: 0.679865 cumulative IPC: 0.548009 (Simulation time: 0 hr 50 min 8 sec) 
Heartbeat CPU 0 instructions: 106000003 cycles: 117785857 heartbeat IPC: 0.680303 cumulative IPC: 0.549919 (Simulation time: 0 hr 50 min 41 sec) 
Heartbeat CPU 0 instructions: 107000000 cycles: 119904230 heartbeat IPC: 0.472059 cumulative IPC: 0.548332 (Simulation time: 0 hr 51 min 13 sec) 
Heartbeat CPU 0 instructions: 108000000 cycles: 122315972 heartbeat IPC: 0.414638 cumulative IPC: 0.545301 (Simulation time: 0 hr 51 min 43 sec) 
Heartbeat CPU 0 instructions: 109000002 cycles: 124651225 heartbeat IPC: 0.42822 cumulative IPC: 0.542785 (Simulation time: 0 hr 52 min 12 sec) 
Heartbeat CPU 0 instructions: 110000002 cycles: 126949939 heartbeat IPC: 0.435026 cumulative IPC: 0.540554 (Simulation time: 0 hr 52 min 42 sec) 
Heartbeat CPU 0 instructions: 111000001 cycles: 129227147 heartbeat IPC: 0.439134 cumulative IPC: 0.538515 (Simulation time: 0 hr 53 min 16 sec) 
Heartbeat CPU 0 instructions: 112000000 cycles: 131047499 heartbeat IPC: 0.549344 cumulative IPC: 0.538686 (Simulation time: 0 hr 53 min 51 sec) 
Heartbeat CPU 0 instructions: 113000002 cycles: 132571833 heartbeat IPC: 0.656026 cumulative IPC: 0.54022 (Simulation time: 0 hr 54 min 28 sec) 
Heartbeat CPU 0 instructions: 114000001 cycles: 134072734 heartbeat IPC: 0.666266 cumulative IPC: 0.541822 (Simulation time: 0 hr 55 min 6 sec) 
Heartbeat CPU 0 instructions: 115000000 cycles: 135573564 heartbeat IPC: 0.666297 cumulative IPC: 0.543383 (Simulation time: 0 hr 55 min 45 sec) 
Heartbeat CPU 0 instructions: 116000000 cycles: 137074428 heartbeat IPC: 0.666283 cumulative IPC: 0.544906 (Simulation time: 0 hr 56 min 26 sec) 
Heartbeat CPU 0 instructions: 117000000 cycles: 139608634 heartbeat IPC: 0.394601 cumulative IPC: 0.541826 (Simulation time: 0 hr 56 min 57 sec) 
Heartbeat CPU 0 instructions: 118000001 cycles: 142273768 heartbeat IPC: 0.375216 cumulative IPC: 0.538311 (Simulation time: 0 hr 57 min 29 sec) 
Heartbeat CPU 0 instructions: 119000001 cycles: 144931441 heartbeat IPC: 0.376269 cumulative IPC: 0.534972 (Simulation time: 0 hr 57 min 59 sec) 
Heartbeat CPU 0 instructions: 120000000 cycles: 147588466 heartbeat IPC: 0.37636 cumulative IPC: 0.53177 (Simulation time: 0 hr 58 min 28 sec) 
Heartbeat CPU 0 instructions: 121000000 cycles: 150263932 heartbeat IPC: 0.373767 cumulative IPC: 0.528623 (Simulation time: 0 hr 59 min 1 sec) 
Heartbeat CPU 0 instructions: 122000000 cycles: 151931915 heartbeat IPC: 0.599526 cumulative IPC: 0.529492 (Simulation time: 0 hr 59 min 39 sec) 
Heartbeat CPU 0 instructions: 123000001 cycles: 153409686 heartbeat IPC: 0.676696 cumulative IPC: 0.531075 (Simulation time: 1 hr 0 min 16 sec) 
Heartbeat CPU 0 instructions: 124000000 cycles: 154875769 heartbeat IPC: 0.682089 cumulative IPC: 0.532669 (Simulation time: 1 hr 0 min 50 sec) 
Heartbeat CPU 0 instructions: 125000002 cycles: 156342202 heartbeat IPC: 0.681928 cumulative IPC: 0.534228 (Simulation time: 1 hr 1 min 25 sec) 
Heartbeat CPU 0 instructions: 126000001 cycles: 157887898 heartbeat IPC: 0.646957 cumulative IPC: 0.535455 (Simulation time: 1 hr 1 min 59 sec) 
Heartbeat CPU 0 instructions: 127000000 cycles: 160040544 heartbeat IPC: 0.464544 cumulative IPC: 0.534396 (Simulation time: 1 hr 2 min 30 sec) 
Heartbeat CPU 0 instructions: 128000000 cycles: 162181537 heartbeat IPC: 0.467073 cumulative IPC: 0.53341 (Simulation time: 1 hr 3 min 1 sec) 
Heartbeat CPU 0 instructions: 129000002 cycles: 164272690 heartbeat IPC: 0.478206 cumulative IPC: 0.532632 (Simulation time: 1 hr 3 min 36 sec) 
Heartbeat CPU 0 instructions: 130000003 cycles: 166350417 heartbeat IPC: 0.481296 cumulative IPC: 0.531923 (Simulation time: 1 hr 4 min 8 sec) 
Heartbeat CPU 0 instructions: 131000001 cycles: 168427536 heartbeat IPC: 0.481435 cumulative IPC: 0.531235 (Simulation time: 1 hr 4 min 38 sec) 
Heartbeat CPU 0 instructions: 132000000 cycles: 169967437 heartbeat IPC: 0.649392 cumulative IPC: 0.532416 (Simulation time: 1 hr 5 min 14 sec) 
Heartbeat CPU 0 instructions: 133000001 cycles: 171432048 heartbeat IPC: 0.682776 cumulative IPC: 0.533833 (Simulation time: 1 hr 5 min 51 sec) 
Heartbeat CPU 0 instructions: 134000000 cycles: 172893798 heartbeat IPC: 0.684111 cumulative IPC: 0.535232 (Simulation time: 1 hr 6 min 29 sec) 
Heartbeat CPU 0 instructions: 135000001 cycles: 174355621 heartbeat IPC: 0.684078 cumulative IPC: 0.536606 (Simulation time: 1 hr 7 min 7 sec) 
Heartbeat CPU 0 instructions: 136000000 cycles: 175945135 heartbeat IPC: 0.629122 cumulative IPC: 0.537525 (Simulation time: 1 hr 7 min 43 sec) 
Heartbeat CPU 0 instructions: 137000001 cycles: 178111856 heartbeat IPC: 0.461527 cumulative IPC: 0.53651 (Simulation time: 1 hr 8 min 15 sec) 
Heartbeat CPU 0 instructions: 138000001 cycles: 180297651 heartbeat IPC: 0.457499 cumulative IPC: 0.535459 (Simulation time: 1 hr 8 min 47 sec) 
Heartbeat CPU 0 instructions: 139000000 cycles: 182477784 heartbeat IPC: 0.458687 cumulative IPC: 0.534454 (Simulation time: 1 hr 9 min 20 sec) 
Heartbeat CPU 0 instructions: 140000000 cycles: 184644067 heartbeat IPC: 0.46162 cumulative IPC: 0.533519 (Simulation time: 1 hr 9 min 53 sec) 
Heartbeat CPU 0 instructions: 141000000 cycles: 186821156 heartbeat IPC: 0.459329 cumulative IPC: 0.532573 (Simulation time: 1 hr 10 min 25 sec) 
Heartbeat CPU 0 instructions: 142000002 cycles: 188312288 heartbeat IPC: 0.670633 cumulative IPC: 0.533768 (Simulation time: 1 hr 11 min 2 sec) 
Heartbeat CPU 0 instructions: 143000001 cycles: 189743442 heartbeat IPC: 0.698736 cumulative IPC: 0.535126 (Simulation time: 1 hr 11 min 39 sec) 
Heartbeat CPU 0 instructions: 144000000 cycles: 191171766 heartbeat IPC: 0.700121 cumulative IPC: 0.536471 (Simulation time: 1 hr 12 min 17 sec) 
Heartbeat CPU 0 instructions: 145000003 cycles: 192600246 heartbeat IPC: 0.700047 cumulative IPC: 0.537794 (Simulation time: 1 hr 12 min 58 sec) 
Heartbeat CPU 0 instructions: 146000002 cycles: 194034144 heartbeat IPC: 0.697399 cumulative IPC: 0.539079 (Simulation time: 1 hr 13 min 37 sec) 
Heartbeat CPU 0 instructions: 147000001 cycles: 195470439 heartbeat IPC: 0.696235 cumulative IPC: 0.540336 (Simulation time: 1 hr 14 min 14 sec) 
Heartbeat CPU 0 instructions: 148000000 cycles: 196904315 heartbeat IPC: 0.69741 cumulative IPC: 0.541581 (Simulation time: 1 hr 14 min 52 sec) 
Heartbeat CPU 0 instructions: 149000001 cycles: 198339842 heartbeat IPC: 0.696609 cumulative IPC: 0.542801 (Simulation time: 1 hr 15 min 29 sec) 
Heartbeat CPU 0 instructions: 150000000 cycles: 199793228 heartbeat IPC: 0.688048 cumulative IPC: 0.54395 (Simulation time: 1 hr 16 min 5 sec) 
Finished CPU 0 instructions: 100000002 cycles: 183840573 cummulative IPC: 0.54395 (Simulation time: 1 hr 16 min 5 sec) 

ChampSim completed all CPUs

Region of Interest Statistics

CPU 0 cummulative IPC: 0.54395 instructions: 100000002 cycles: 183840573
LLC TOTAL     ACCESS:    3739907  HIT:     176059  MISS:    3563848
LLC LOAD      ACCESS:     679976  HIT:      12780  MISS:     667196
LLC RFO       ACCESS:         20  HIT:         19  MISS:          1
LLC PREFETCH  ACCESS:    2116164  HIT:      71897  MISS:    2044267
LLC WRITEBACK ACCESS:     943747  HIT:      91363  MISS:     852384
