Initialize SIGNATURE TABLE
ST_SET: 1
ST_WAY: 256
ST_TAG_BIT: 16
ST_TAG_MASK: ffff

Initialize PATTERN TABLE
PT_SET: 512
PT_WAY: 4
SIG_DELTA_BIT: 7
C_SIG_BIT: 4
C_DELTA_BIT: 4

Initialize PREFETCH FILTER
FILTER_SET: 1024

*** ChampSim Multicore Out-of-Order Simulator ***

Warmup Instructions: 50000000
Simulation Instructions: 50000000
Number of CPUs: 1
LLC sets: 2048
LLC ways: 16
Off-chip DRAM Size: 4096 MB Channels: 1 Width: 64-bit Data Rate: 3200 MT/s

CPU 0 runs /Users/gandhardeshpande/Desktop/CSE240C/HW1/ChampSim/ipc1_public/server_031.champsimtrace.xz
CPU 0 L1D next line prefetcher
Heartbeat CPU 0 instructions: 10000003 cycles: 3524423 heartbeat IPC: 2.83734 cumulative IPC: 2.83734 (Simulation time: 0 hr 0 min 22 sec) 
Heartbeat CPU 0 instructions: 20000002 cycles: 7047298 heartbeat IPC: 2.83859 cumulative IPC: 2.83797 (Simulation time: 0 hr 0 min 44 sec) 
Heartbeat CPU 0 instructions: 30000002 cycles: 10571046 heartbeat IPC: 2.83789 cumulative IPC: 2.83794 (Simulation time: 0 hr 1 min 6 sec) 
Heartbeat CPU 0 instructions: 40000003 cycles: 14090180 heartbeat IPC: 2.84161 cumulative IPC: 2.83886 (Simulation time: 0 hr 1 min 27 sec) 
Heartbeat CPU 0 instructions: 50000001 cycles: 17611778 heartbeat IPC: 2.83962 cumulative IPC: 2.83901 (Simulation time: 0 hr 1 min 49 sec) 

Warmup complete CPU 0 instructions: 50000001 cycles: 17611778 (Simulation time: 0 hr 1 min 49 sec) 

Heartbeat CPU 0 instructions: 60000001 cycles: 25133768 heartbeat IPC: 1.32944 cumulative IPC: 1.32944 (Simulation time: 0 hr 2 min 11 sec) 
Heartbeat CPU 0 instructions: 70000002 cycles: 32706873 heartbeat IPC: 1.32046 cumulative IPC: 1.32493 (Simulation time: 0 hr 2 min 34 sec) 
*** Reached end of trace for Core: 0 Repeating trace: /Users/gandhardeshpande/Desktop/CSE240C/HW1/ChampSim/ipc1_public/server_031.champsimtrace.xz
Heartbeat CPU 0 instructions: 80000000 cycles: 40145944 heartbeat IPC: 1.34425 cumulative IPC: 1.33131 (Simulation time: 0 hr 2 min 56 sec) 
Heartbeat CPU 0 instructions: 90000001 cycles: 47609983 heartbeat IPC: 1.33976 cumulative IPC: 1.33341 (Simulation time: 0 hr 3 min 21 sec) 
Heartbeat CPU 0 instructions: 100000000 cycles: 55024011 heartbeat IPC: 1.34879 cumulative IPC: 1.33646 (Simulation time: 0 hr 3 min 44 sec) 
Finished CPU 0 instructions: 50000000 cycles: 37412235 cumulative IPC: 1.33646 (Simulation time: 0 hr 3 min 44 sec) 

ChampSim completed all CPUs

Region of Interest Statistics

CPU 0 cumulative IPC: 1.33646 instructions: 50000000 cycles: 37412235
L1D TOTAL     ACCESS:   19543815  HIT:   17639465  MISS:    1904350
L1D LOAD      ACCESS:    6783842  HIT:    5911265  MISS:     872577
L1D RFO       ACCESS:    6317106  HIT:    6025723  MISS:     291383
L1D PREFETCH  ACCESS:    6442867  HIT:    5702477  MISS:     740390
L1D WRITEBACK ACCESS:          0  HIT:          0  MISS:          0
L1D PREFETCH  REQUESTED:    6846166  ISSUED:    6733821  USEFUL:     174619  USELESS:     565776
L1D AVERAGE MISS LATENCY: 22.9004 cycles
L1I TOTAL     ACCESS:   14137827  HIT:   10177762  MISS:    3960065
L1I LOAD      ACCESS:    9627627  HIT:    9316008  MISS:     311619
L1I RFO       ACCESS:          0  HIT:          0  MISS:          0
L1I PREFETCH  ACCESS:    4510200  HIT:     861754  MISS:    3648446
L1I WRITEBACK ACCESS:          0  HIT:          0  MISS:          0
L1I PREFETCH  REQUESTED:    5148088  ISSUED:    5148088  USEFUL:    2787285  USELESS:     861136
L1I AVERAGE MISS LATENCY: 15.7253 cycles
L2C TOTAL     ACCESS:    8092701  HIT:    7496229  MISS:     596472
L2C LOAD      ACCESS:     922528  HIT:     789410  MISS:     133118
L2C RFO       ACCESS:     289518  HIT:     231240  MISS:      58278
L2C PREFETCH  ACCESS:    6263735  HIT:    5863019  MISS:     400716
L2C WRITEBACK ACCESS:     616920  HIT:     612560  MISS:       4360
L2C PREFETCH  REQUESTED:    4812396  ISSUED:    4807443  USEFUL:       9220  USELESS:     390965
L2C AVERAGE MISS LATENCY: 43.3376 cycles
LLC TOTAL     ACCESS:    2019431  HIT:    1947125  MISS:      72306
LLC LOAD      ACCESS:     132994  HIT:     114570  MISS:      18424
LLC RFO       ACCESS:      58265  HIT:      54134  MISS:       4131
LLC PREFETCH  ACCESS:    1717156  HIT:    1667852  MISS:      49304
LLC WRITEBACK ACCESS:     111016  HIT:     110569  MISS:        447
LLC PREFETCH  REQUESTED:          0  ISSUED:          0  USEFUL:       2319  USELESS:      46991
LLC AVERAGE MISS LATENCY: 156.395 cycles
Major fault: 0 Minor fault: 6041
CPU 0 L1D next line prefetcher final stats

DRAM Statistics
 CHANNEL 0
 RQ ROW_BUFFER_HIT:      19921  ROW_BUFFER_MISS:      51935
 DBUS_CONGESTED:      27925
 WQ ROW_BUFFER_HIT:        737  ROW_BUFFER_MISS:       4963  FULL:          0

 AVG_CONGESTED_CYCLE: 4

CPU 0 Branch Prediction Accuracy: 99.6894% MPKI: 0.58048 Average ROB Occupancy at Mispredict: 141.907

Branch types
NOT_BRANCH: 40655625 81.3113%
BRANCH_DIRECT_JUMP: 546483 1.09297%
BRANCH_INDIRECT: 172433 0.344866%
BRANCH_CONDITIONAL: 6207584 12.4152%
BRANCH_DIRECT_CALL: 1018497 2.03699%
BRANCH_INDIRECT_CALL: 190373 0.380746%
BRANCH_RETURN: 1208855 2.41771%
BRANCH_OTHER: 0 0%

