Initialize SIGNATURE TABLE
ST_SET: 1
ST_WAY: 256
ST_TAG_BIT: 16
ST_TAG_MASK: ffff

Initialize PATTERN TABLE
PT_SET: 512
PT_WAY: 4
SIG_DELTA_BIT: 7
C_SIG_BIT: 4
C_DELTA_BIT: 4

Initialize PREFETCH FILTER
FILTER_SET: 1024

*** ChampSim Multicore Out-of-Order Simulator ***

Warmup Instructions: 50000000
Simulation Instructions: 50000000
Number of CPUs: 1
LLC sets: 2048
LLC ways: 16
Off-chip DRAM Size: 4096 MB Channels: 1 Width: 64-bit Data Rate: 3200 MT/s

CPU 0 runs /Users/gandhardeshpande/Desktop/CSE240C/HW1/ChampSim/ipc1_public/server_002.champsimtrace.xz
CPU 0 L1D next line prefetcher
Heartbeat CPU 0 instructions: 10000000 cycles: 3581231 heartbeat IPC: 2.79234 cumulative IPC: 2.79234 (Simulation time: 0 hr 0 min 21 sec) 
Heartbeat CPU 0 instructions: 20000002 cycles: 7170370 heartbeat IPC: 2.78618 cumulative IPC: 2.78926 (Simulation time: 0 hr 0 min 42 sec) 
Heartbeat CPU 0 instructions: 30000000 cycles: 10711140 heartbeat IPC: 2.82424 cumulative IPC: 2.80082 (Simulation time: 0 hr 1 min 5 sec) 
Heartbeat CPU 0 instructions: 40000000 cycles: 14261385 heartbeat IPC: 2.81671 cumulative IPC: 2.80478 (Simulation time: 0 hr 1 min 28 sec) 
Heartbeat CPU 0 instructions: 50000001 cycles: 17809156 heartbeat IPC: 2.81867 cumulative IPC: 2.80754 (Simulation time: 0 hr 1 min 50 sec) 

Warmup complete CPU 0 instructions: 50000001 cycles: 17809156 (Simulation time: 0 hr 1 min 50 sec) 

Heartbeat CPU 0 instructions: 60000000 cycles: 24251062 heartbeat IPC: 1.55234 cumulative IPC: 1.55234 (Simulation time: 0 hr 2 min 13 sec) 
Heartbeat CPU 0 instructions: 70000003 cycles: 30685346 heartbeat IPC: 1.55417 cumulative IPC: 1.55325 (Simulation time: 0 hr 2 min 36 sec) 
Heartbeat CPU 0 instructions: 80000003 cycles: 37121985 heartbeat IPC: 1.55361 cumulative IPC: 1.55337 (Simulation time: 0 hr 2 min 59 sec) 
Heartbeat CPU 0 instructions: 90000002 cycles: 43557846 heartbeat IPC: 1.55379 cumulative IPC: 1.55348 (Simulation time: 0 hr 3 min 22 sec) 
Heartbeat CPU 0 instructions: 100000003 cycles: 49991800 heartbeat IPC: 1.55425 cumulative IPC: 1.55363 (Simulation time: 0 hr 3 min 45 sec) 
Finished CPU 0 instructions: 50000002 cycles: 32182644 cumulative IPC: 1.55363 (Simulation time: 0 hr 3 min 45 sec) 

ChampSim completed all CPUs

Region of Interest Statistics

CPU 0 cumulative IPC: 1.55363 instructions: 50000002 cycles: 32182644
L1D TOTAL     ACCESS:   21524015  HIT:   21523206  MISS:        809
L1D LOAD      ACCESS:    6601602  HIT:    6601224  MISS:        378
L1D RFO       ACCESS:    8433150  HIT:    8433038  MISS:        112
L1D PREFETCH  ACCESS:    6489263  HIT:    6488944  MISS:        319
L1D WRITEBACK ACCESS:          0  HIT:          0  MISS:          0
L1D PREFETCH  REQUESTED:    6601656  ISSUED:    6496640  USEFUL:         89  USELESS:        231
L1D AVERAGE MISS LATENCY: 45.0519 cycles
L1I TOTAL     ACCESS:   11169842  HIT:   10155125  MISS:    1014717
L1I LOAD      ACCESS:    9833083  HIT:    9747118  MISS:      85965
L1I RFO       ACCESS:          0  HIT:          0  MISS:          0
L1I PREFETCH  ACCESS:    1336759  HIT:     408007  MISS:     928752
L1I WRITEBACK ACCESS:          0  HIT:          0  MISS:          0
L1I PREFETCH  REQUESTED:    1582270  ISSUED:    1582270  USEFUL:     854260  USELESS:      74475
L1I AVERAGE MISS LATENCY: 13.326 cycles
L2C TOTAL     ACCESS:    1490290  HIT:    1489974  MISS:        316
L2C LOAD      ACCESS:      18473  HIT:      18401  MISS:         72
L2C RFO       ACCESS:        112  HIT:        107  MISS:          5
L2C PREFETCH  ACCESS:    1471369  HIT:    1471130  MISS:        239
L2C WRITEBACK ACCESS:        336  HIT:        336  MISS:          0
L2C PREFETCH  REQUESTED:     885113  ISSUED:     885037  USEFUL:         66  USELESS:        129
L2C AVERAGE MISS LATENCY: 180.383 cycles
LLC TOTAL     ACCESS:     229225  HIT:     228359  MISS:        866
LLC LOAD      ACCESS:         72  HIT:         57  MISS:         15
LLC RFO       ACCESS:          5  HIT:          4  MISS:          1
LLC PREFETCH  ACCESS:     229053  HIT:     228204  MISS:        849
LLC WRITEBACK ACCESS:         95  HIT:         94  MISS:          1
LLC PREFETCH  REQUESTED:          0  ISSUED:          0  USEFUL:         11  USELESS:        223
LLC AVERAGE MISS LATENCY: 582.096 cycles
Major fault: 0 Minor fault: 1867
CPU 0 L1D next line prefetcher final stats

DRAM Statistics
 CHANNEL 0
 RQ ROW_BUFFER_HIT:        216  ROW_BUFFER_MISS:        649
 DBUS_CONGESTED:        653
 WQ ROW_BUFFER_HIT:         90  ROW_BUFFER_MISS:        462  FULL:          0

 AVG_CONGESTED_CYCLE: 6

CPU 0 Branch Prediction Accuracy: 99.8789% MPKI: 0.20388 Average ROB Occupancy at Mispredict: 280.594

Branch types
NOT_BRANCH: 41580695 83.1614%
BRANCH_DIRECT_JUMP: 461630 0.92326%
BRANCH_INDIRECT: 0 0%
BRANCH_CONDITIONAL: 5376437 10.7529%
BRANCH_DIRECT_CALL: 1175775 2.35155%
BRANCH_INDIRECT_CALL: 114840 0.22968%
BRANCH_RETURN: 1290625 2.58125%
BRANCH_OTHER: 0 0%

