Initialize SIGNATURE TABLE
ST_SET: 1
ST_WAY: 256
ST_TAG_BIT: 16
ST_TAG_MASK: ffff

Initialize PATTERN TABLE
PT_SET: 512
PT_WAY: 4
SIG_DELTA_BIT: 7
C_SIG_BIT: 4
C_DELTA_BIT: 4

Initialize PREFETCH FILTER
FILTER_SET: 1024

*** ChampSim Multicore Out-of-Order Simulator ***

Warmup Instructions: 50000000
Simulation Instructions: 50000000
Number of CPUs: 1
LLC sets: 2048
LLC ways: 16
Off-chip DRAM Size: 4096 MB Channels: 1 Width: 64-bit Data Rate: 3200 MT/s

CPU 0 runs /Users/gandhardeshpande/Desktop/CSE240C/HW1/ChampSim/ipc1_public/server_019.champsimtrace.xz
CPU 0 L1D next line prefetcher
Heartbeat CPU 0 instructions: 10000002 cycles: 3624402 heartbeat IPC: 2.75908 cumulative IPC: 2.75908 (Simulation time: 0 hr 0 min 20 sec) 
Heartbeat CPU 0 instructions: 20000003 cycles: 7249968 heartbeat IPC: 2.75819 cumulative IPC: 2.75863 (Simulation time: 0 hr 0 min 40 sec) 
Heartbeat CPU 0 instructions: 30000002 cycles: 10874534 heartbeat IPC: 2.75895 cumulative IPC: 2.75874 (Simulation time: 0 hr 1 min 0 sec) 
Heartbeat CPU 0 instructions: 40000002 cycles: 14511067 heartbeat IPC: 2.74987 cumulative IPC: 2.75652 (Simulation time: 0 hr 1 min 20 sec) 
Heartbeat CPU 0 instructions: 50000001 cycles: 18136216 heartbeat IPC: 2.75851 cumulative IPC: 2.75691 (Simulation time: 0 hr 1 min 40 sec) 

Warmup complete CPU 0 instructions: 50000001 cycles: 18136216 (Simulation time: 0 hr 1 min 40 sec) 

Heartbeat CPU 0 instructions: 60000000 cycles: 38515536 heartbeat IPC: 0.490693 cumulative IPC: 0.490693 (Simulation time: 0 hr 2 min 6 sec) 
Heartbeat CPU 0 instructions: 70000002 cycles: 62575462 heartbeat IPC: 0.415629 cumulative IPC: 0.450053 (Simulation time: 0 hr 2 min 30 sec) 
Heartbeat CPU 0 instructions: 80000001 cycles: 83589743 heartbeat IPC: 0.475867 cumulative IPC: 0.45834 (Simulation time: 0 hr 2 min 54 sec) 
Heartbeat CPU 0 instructions: 90000002 cycles: 101805977 heartbeat IPC: 0.548961 cumulative IPC: 0.47807 (Simulation time: 0 hr 3 min 20 sec) 
Heartbeat CPU 0 instructions: 100000002 cycles: 119996676 heartbeat IPC: 0.549731 cumulative IPC: 0.490868 (Simulation time: 0 hr 3 min 46 sec) 
Finished CPU 0 instructions: 50000001 cycles: 101860460 cumulative IPC: 0.490868 (Simulation time: 0 hr 3 min 46 sec) 

ChampSim completed all CPUs

Region of Interest Statistics

CPU 0 cumulative IPC: 0.490868 instructions: 50000001 cycles: 101860460
L1D TOTAL     ACCESS:   18328206  HIT:   16104538  MISS:    2223668
L1D LOAD      ACCESS:    6978177  HIT:    6214869  MISS:     763308
L1D RFO       ACCESS:    5546125  HIT:    4643839  MISS:     902286
L1D PREFETCH  ACCESS:    5803904  HIT:    5245830  MISS:     558074
L1D WRITEBACK ACCESS:          0  HIT:          0  MISS:          0
L1D PREFETCH  REQUESTED:    7016588  ISSUED:    6830750  USEFUL:     188833  USELESS:     369149
L1D AVERAGE MISS LATENCY: 186.202 cycles
L1I TOTAL     ACCESS:   12839221  HIT:   10376517  MISS:    2462704
L1I LOAD      ACCESS:    9848663  HIT:    9694153  MISS:     154510
L1I RFO       ACCESS:          0  HIT:          0  MISS:          0
L1I PREFETCH  ACCESS:    2990558  HIT:     682364  MISS:    2308194
L1I WRITEBACK ACCESS:          0  HIT:          0  MISS:          0
L1I PREFETCH  REQUESTED:    3393929  ISSUED:    3393929  USEFUL:    2072237  USELESS:     235912
L1I AVERAGE MISS LATENCY: 17.8927 cycles
L2C TOTAL     ACCESS:    6989731  HIT:    5103126  MISS:    1886605
L2C LOAD      ACCESS:     584792  HIT:     247002  MISS:     337790
L2C RFO       ACCESS:     901561  HIT:      18188  MISS:     883373
L2C PREFETCH  ACCESS:    4328687  HIT:    3664751  MISS:     663936
L2C WRITEBACK ACCESS:    1174691  HIT:    1173185  MISS:       1506
L2C PREFETCH  REQUESTED:    3594170  ISSUED:    3591000  USEFUL:      21917  USELESS:     640648
L2C AVERAGE MISS LATENCY: 224.841 cycles
LLC TOTAL     ACCESS:    4107374  HIT:    2501229  MISS:    1606145
LLC LOAD      ACCESS:     337721  HIT:     168857  MISS:     168864
LLC RFO       ACCESS:     883372  HIT:     113515  MISS:     769857
LLC PREFETCH  ACCESS:    1776226  HIT:    1110615  MISS:     665611
LLC WRITEBACK ACCESS:    1110055  HIT:    1108242  MISS:       1813
LLC PREFETCH  REQUESTED:          0  ISSUED:          0  USEFUL:      49822  USELESS:     614646
LLC AVERAGE MISS LATENCY: 272.766 cycles
Major fault: 0 Minor fault: 25691
CPU 0 L1D next line prefetcher final stats

DRAM Statistics
 CHANNEL 0
 RQ ROW_BUFFER_HIT:     390038  ROW_BUFFER_MISS:    1214113
 DBUS_CONGESTED:    1561899
 WQ ROW_BUFFER_HIT:     281333  ROW_BUFFER_MISS:     656505  FULL:          0

 AVG_CONGESTED_CYCLE: 6

CPU 0 Branch Prediction Accuracy: 99.2186% MPKI: 1.32192 Average ROB Occupancy at Mispredict: 178.645

Branch types
NOT_BRANCH: 41540785 83.0816%
BRANCH_DIRECT_JUMP: 462384 0.924768%
BRANCH_INDIRECT: 45460 0.09092%
BRANCH_CONDITIONAL: 6209281 12.4186%
BRANCH_DIRECT_CALL: 666241 1.33248%
BRANCH_INDIRECT_CALL: 204728 0.409456%
BRANCH_RETURN: 870978 1.74196%
BRANCH_OTHER: 0 0%

