
*** ChampSim Multicore Out-of-Order Simulator ***

Warmup Instructions: 10000000
Simulation Instructions: 100000000
Configuration: 1
Number of CPUs: 1
LLC sets: 2048
LLC ways: 16
Off-chip DRAM Channels: 1 Width: 64-bit Data Rate: 1600 MT/s

CPU 0 runs /datasets/cs240c-wi22-a00-public/data/Assignment2-gz/soplex_66B.trace.gz
Initialize LRU replacement state
Heartbeat CPU 0 instructions: 1000003 cycles: 416334 heartbeat IPC: 2.40192 cumulative IPC: 2.40192 (Simulation time: 0 hr 0 min 19 sec) 
Heartbeat CPU 0 instructions: 2000002 cycles: 842776 heartbeat IPC: 2.34498 cumulative IPC: 2.37311 (Simulation time: 0 hr 0 min 39 sec) 
Heartbeat CPU 0 instructions: 3000003 cycles: 1252392 heartbeat IPC: 2.44131 cumulative IPC: 2.39542 (Simulation time: 0 hr 0 min 57 sec) 
Heartbeat CPU 0 instructions: 4000000 cycles: 1637723 heartbeat IPC: 2.59516 cumulative IPC: 2.44242 (Simulation time: 0 hr 1 min 14 sec) 
Heartbeat CPU 0 instructions: 5000000 cycles: 2035962 heartbeat IPC: 2.51105 cumulative IPC: 2.45584 (Simulation time: 0 hr 1 min 30 sec) 
Heartbeat CPU 0 instructions: 6000000 cycles: 2496206 heartbeat IPC: 2.17276 cumulative IPC: 2.40365 (Simulation time: 0 hr 1 min 46 sec) 
Heartbeat CPU 0 instructions: 7000002 cycles: 2868534 heartbeat IPC: 2.68581 cumulative IPC: 2.44027 (Simulation time: 0 hr 2 min 4 sec) 
Heartbeat CPU 0 instructions: 8000000 cycles: 3294833 heartbeat IPC: 2.34577 cumulative IPC: 2.42804 (Simulation time: 0 hr 2 min 23 sec) 
Heartbeat CPU 0 instructions: 9000003 cycles: 3734635 heartbeat IPC: 2.27376 cumulative IPC: 2.40987 (Simulation time: 0 hr 2 min 40 sec) 
Heartbeat CPU 0 instructions: 10000000 cycles: 4148776 heartbeat IPC: 2.41463 cumulative IPC: 2.41035 (Simulation time: 0 hr 2 min 58 sec) 

Warmup complete CPU 0 instructions: 10000004 cycles: 4148777 (Simulation time: 0 hr 2 min 58 sec) 

Heartbeat CPU 0 instructions: 11000001 cycles: 8447346 heartbeat IPC: 0.232636 cumulative IPC: 0.232635 (Simulation time: 0 hr 3 min 23 sec) 
Heartbeat CPU 0 instructions: 12000000 cycles: 10457799 heartbeat IPC: 0.4974 cumulative IPC: 0.317006 (Simulation time: 0 hr 3 min 40 sec) 
Heartbeat CPU 0 instructions: 13000001 cycles: 14403788 heartbeat IPC: 0.253422 cumulative IPC: 0.29254 (Simulation time: 0 hr 4 min 4 sec) 
Heartbeat CPU 0 instructions: 14000002 cycles: 17454345 heartbeat IPC: 0.327809 cumulative IPC: 0.300626 (Simulation time: 0 hr 4 min 25 sec) 
Heartbeat CPU 0 instructions: 15000002 cycles: 20054723 heartbeat IPC: 0.384559 cumulative IPC: 0.314348 (Simulation time: 0 hr 4 min 43 sec) 
Heartbeat CPU 0 instructions: 16000000 cycles: 23367727 heartbeat IPC: 0.30184 cumulative IPC: 0.312192 (Simulation time: 0 hr 5 min 6 sec) 
Heartbeat CPU 0 instructions: 17000001 cycles: 26987715 heartbeat IPC: 0.276244 cumulative IPC: 0.306494 (Simulation time: 0 hr 5 min 32 sec) 
Heartbeat CPU 0 instructions: 18000000 cycles: 29914432 heartbeat IPC: 0.341679 cumulative IPC: 0.310491 (Simulation time: 0 hr 5 min 56 sec) 
Heartbeat CPU 0 instructions: 19000002 cycles: 34732677 heartbeat IPC: 0.207545 cumulative IPC: 0.294272 (Simulation time: 0 hr 6 min 25 sec) 
Heartbeat CPU 0 instructions: 20000000 cycles: 36725719 heartbeat IPC: 0.501745 cumulative IPC: 0.306965 (Simulation time: 0 hr 6 min 43 sec) 
Heartbeat CPU 0 instructions: 21000000 cycles: 40141699 heartbeat IPC: 0.292742 cumulative IPC: 0.305616 (Simulation time: 0 hr 7 min 7 sec) 
Heartbeat CPU 0 instructions: 22000000 cycles: 43663282 heartbeat IPC: 0.283963 cumulative IPC: 0.303686 (Simulation time: 0 hr 7 min 33 sec) 
Heartbeat CPU 0 instructions: 23000000 cycles: 46252110 heartbeat IPC: 0.386275 cumulative IPC: 0.308764 (Simulation time: 0 hr 7 min 51 sec) 
Heartbeat CPU 0 instructions: 24000000 cycles: 49130432 heartbeat IPC: 0.347425 cumulative IPC: 0.311238 (Simulation time: 0 hr 8 min 10 sec) 
Heartbeat CPU 0 instructions: 25000003 cycles: 52531058 heartbeat IPC: 0.294064 cumulative IPC: 0.310031 (Simulation time: 0 hr 8 min 39 sec) 
Heartbeat CPU 0 instructions: 26000001 cycles: 56213646 heartbeat IPC: 0.271548 cumulative IPC: 0.307309 (Simulation time: 0 hr 9 min 6 sec) 
Heartbeat CPU 0 instructions: 27000002 cycles: 61011758 heartbeat IPC: 0.208416 cumulative IPC: 0.298964 (Simulation time: 0 hr 9 min 37 sec) 
Heartbeat CPU 0 instructions: 28000000 cycles: 62997697 heartbeat IPC: 0.503539 cumulative IPC: 0.305868 (Simulation time: 0 hr 9 min 56 sec) 
Heartbeat CPU 0 instructions: 29000002 cycles: 65840909 heartbeat IPC: 0.351716 cumulative IPC: 0.307981 (Simulation time: 0 hr 10 min 17 sec) 
Heartbeat CPU 0 instructions: 30000000 cycles: 69792595 heartbeat IPC: 0.253056 cumulative IPC: 0.304674 (Simulation time: 0 hr 10 min 41 sec) 
Heartbeat CPU 0 instructions: 31000001 cycles: 72459984 heartbeat IPC: 0.374899 cumulative IPC: 0.307417 (Simulation time: 0 hr 11 min 0 sec) 
Heartbeat CPU 0 instructions: 32000000 cycles: 75125283 heartbeat IPC: 0.375192 cumulative IPC: 0.309962 (Simulation time: 0 hr 11 min 18 sec) 
Heartbeat CPU 0 instructions: 33000001 cycles: 80351948 heartbeat IPC: 0.191327 cumulative IPC: 0.301825 (Simulation time: 0 hr 11 min 48 sec) 
Heartbeat CPU 0 instructions: 34000003 cycles: 83287755 heartbeat IPC: 0.340623 cumulative IPC: 0.303264 (Simulation time: 0 hr 12 min 13 sec) 
Heartbeat CPU 0 instructions: 35000003 cycles: 87554803 heartbeat IPC: 0.234354 cumulative IPC: 0.299739 (Simulation time: 0 hr 12 min 39 sec) 
Heartbeat CPU 0 instructions: 36000000 cycles: 89571221 heartbeat IPC: 0.495927 cumulative IPC: 0.30437 (Simulation time: 0 hr 12 min 56 sec) 
Heartbeat CPU 0 instructions: 37000000 cycles: 93544103 heartbeat IPC: 0.251706 cumulative IPC: 0.302029 (Simulation time: 0 hr 13 min 20 sec) 
Heartbeat CPU 0 instructions: 38000001 cycles: 96567818 heartbeat IPC: 0.330719 cumulative IPC: 0.302968 (Simulation time: 0 hr 13 min 42 sec) 
Heartbeat CPU 0 instructions: 39000003 cycles: 99182518 heartbeat IPC: 0.382454 cumulative IPC: 0.305155 (Simulation time: 0 hr 14 min 1 sec) 
Heartbeat CPU 0 instructions: 40000000 cycles: 102477480 heartbeat IPC: 0.303493 cumulative IPC: 0.305099 (Simulation time: 0 hr 14 min 25 sec) 
Heartbeat CPU 0 instructions: 41000001 cycles: 106076329 heartbeat IPC: 0.277867 cumulative IPC: 0.304138 (Simulation time: 0 hr 14 min 52 sec) 
Heartbeat CPU 0 instructions: 42000003 cycles: 109035313 heartbeat IPC: 0.337955 cumulative IPC: 0.305092 (Simulation time: 0 hr 15 min 17 sec) 
Heartbeat CPU 0 instructions: 43000000 cycles: 113864835 heartbeat IPC: 0.207059 cumulative IPC: 0.300776 (Simulation time: 0 hr 15 min 46 sec) 
Heartbeat CPU 0 instructions: 44000000 cycles: 115863207 heartbeat IPC: 0.500407 cumulative IPC: 0.304347 (Simulation time: 0 hr 16 min 4 sec) 
Heartbeat CPU 0 instructions: 45000003 cycles: 119266641 heartbeat IPC: 0.293822 cumulative IPC: 0.304036 (Simulation time: 0 hr 16 min 25 sec) 
Heartbeat CPU 0 instructions: 46000003 cycles: 122799088 heartbeat IPC: 0.28309 cumulative IPC: 0.303413 (Simulation time: 0 hr 16 min 49 sec) 
Heartbeat CPU 0 instructions: 47000001 cycles: 125381940 heartbeat IPC: 0.387168 cumulative IPC: 0.305197 (Simulation time: 0 hr 17 min 7 sec) 
Heartbeat CPU 0 instructions: 48000000 cycles: 128232554 heartbeat IPC: 0.350801 cumulative IPC: 0.306245 (Simulation time: 0 hr 17 min 27 sec) 
Heartbeat CPU 0 instructions: 49000000 cycles: 132217014 heartbeat IPC: 0.250975 cumulative IPC: 0.304525 (Simulation time: 0 hr 17 min 59 sec) 
Heartbeat CPU 0 instructions: 50000003 cycles: 138975923 heartbeat IPC: 0.147953 cumulative IPC: 0.296676 (Simulation time: 0 hr 18 min 35 sec) 
Heartbeat CPU 0 instructions: 51000002 cycles: 142027221 heartbeat IPC: 0.327729 cumulative IPC: 0.297363 (Simulation time: 0 hr 19 min 8 sec) 
Heartbeat CPU 0 instructions: 52000000 cycles: 147116091 heartbeat IPC: 0.196507 cumulative IPC: 0.293773 (Simulation time: 0 hr 19 min 40 sec) 
Heartbeat CPU 0 instructions: 53000003 cycles: 151107684 heartbeat IPC: 0.250527 cumulative IPC: 0.292599 (Simulation time: 0 hr 20 min 10 sec) 
Heartbeat CPU 0 instructions: 54000000 cycles: 154920025 heartbeat IPC: 0.262305 cumulative IPC: 0.291833 (Simulation time: 0 hr 20 min 40 sec) 
Heartbeat CPU 0 instructions: 55000002 cycles: 159395551 heartbeat IPC: 0.223438 cumulative IPC: 0.289861 (Simulation time: 0 hr 21 min 7 sec) 
Heartbeat CPU 0 instructions: 56000000 cycles: 163115395 heartbeat IPC: 0.268828 cumulative IPC: 0.289369 (Simulation time: 0 hr 21 min 34 sec) 
Heartbeat CPU 0 instructions: 57000003 cycles: 166109453 heartbeat IPC: 0.333996 cumulative IPC: 0.290194 (Simulation time: 0 hr 21 min 58 sec) 
Heartbeat CPU 0 instructions: 58000002 cycles: 168441205 heartbeat IPC: 0.428862 cumulative IPC: 0.292162 (Simulation time: 0 hr 22 min 23 sec) 
Heartbeat CPU 0 instructions: 59000002 cycles: 170133827 heartbeat IPC: 0.590799 cumulative IPC: 0.295207 (Simulation time: 0 hr 22 min 51 sec) 
Heartbeat CPU 0 instructions: 60000000 cycles: 172870893 heartbeat IPC: 0.365354 cumulative IPC: 0.296345 (Simulation time: 0 hr 23 min 18 sec) 
Heartbeat CPU 0 instructions: 61000002 cycles: 176758329 heartbeat IPC: 0.257239 cumulative IPC: 0.295465 (Simulation time: 0 hr 23 min 45 sec) 
Heartbeat CPU 0 instructions: 62000000 cycles: 179915007 heartbeat IPC: 0.316788 cumulative IPC: 0.295847 (Simulation time: 0 hr 24 min 14 sec) 
Heartbeat CPU 0 instructions: 63000002 cycles: 183126427 heartbeat IPC: 0.311389 cumulative IPC: 0.296126 (Simulation time: 0 hr 24 min 41 sec) 
Heartbeat CPU 0 instructions: 64000000 cycles: 186882433 heartbeat IPC: 0.26624 cumulative IPC: 0.295512 (Simulation time: 0 hr 25 min 5 sec) 
Heartbeat CPU 0 instructions: 65000000 cycles: 191565279 heartbeat IPC: 0.213545 cumulative IPC: 0.293464 (Simulation time: 0 hr 25 min 36 sec) 
Heartbeat CPU 0 instructions: 66000001 cycles: 193542579 heartbeat IPC: 0.505741 cumulative IPC: 0.29568 (Simulation time: 0 hr 25 min 53 sec) 
Heartbeat CPU 0 instructions: 67000000 cycles: 195635377 heartbeat IPC: 0.477829 cumulative IPC: 0.297671 (Simulation time: 0 hr 26 min 11 sec) 
Heartbeat CPU 0 instructions: 68000000 cycles: 200209671 heartbeat IPC: 0.218613 cumulative IPC: 0.295826 (Simulation time: 0 hr 26 min 38 sec) 
Heartbeat CPU 0 instructions: 69000000 cycles: 203030256 heartbeat IPC: 0.354536 cumulative IPC: 0.296659 (Simulation time: 0 hr 26 min 57 sec) 
Heartbeat CPU 0 instructions: 70000003 cycles: 205625169 heartbeat IPC: 0.385371 cumulative IPC: 0.297802 (Simulation time: 0 hr 27 min 16 sec) 
Heartbeat CPU 0 instructions: 71000000 cycles: 208617403 heartbeat IPC: 0.334197 cumulative IPC: 0.298334 (Simulation time: 0 hr 27 min 47 sec) 
Heartbeat CPU 0 instructions: 72000000 cycles: 213231001 heartbeat IPC: 0.216751 cumulative IPC: 0.296534 (Simulation time: 0 hr 28 min 16 sec) 
Heartbeat CPU 0 instructions: 73000002 cycles: 217152573 heartbeat IPC: 0.255 cumulative IPC: 0.295769 (Simulation time: 0 hr 28 min 45 sec) 
Heartbeat CPU 0 instructions: 74000000 cycles: 219951535 heartbeat IPC: 0.357275 cumulative IPC: 0.296567 (Simulation time: 0 hr 29 min 6 sec) 
Heartbeat CPU 0 instructions: 75000002 cycles: 222001048 heartbeat IPC: 0.487922 cumulative IPC: 0.298367 (Simulation time: 0 hr 29 min 23 sec) 
Heartbeat CPU 0 instructions: 76000000 cycles: 226547298 heartbeat IPC: 0.219961 cumulative IPC: 0.296765 (Simulation time: 0 hr 29 min 50 sec) 
Heartbeat CPU 0 instructions: 77000000 cycles: 229262974 heartbeat IPC: 0.368232 cumulative IPC: 0.297627 (Simulation time: 0 hr 30 min 9 sec) 
Heartbeat CPU 0 instructions: 78000003 cycles: 231799150 heartbeat IPC: 0.394296 cumulative IPC: 0.298704 (Simulation time: 0 hr 30 min 27 sec) 
Heartbeat CPU 0 instructions: 79000001 cycles: 235534451 heartbeat IPC: 0.267716 cumulative IPC: 0.298203 (Simulation time: 0 hr 30 min 54 sec) 
Heartbeat CPU 0 instructions: 80000000 cycles: 239992383 heartbeat IPC: 0.224319 cumulative IPC: 0.296807 (Simulation time: 0 hr 31 min 21 sec) 
Heartbeat CPU 0 instructions: 81000003 cycles: 244216457 heartbeat IPC: 0.236739 cumulative IPC: 0.29575 (Simulation time: 0 hr 31 min 50 sec) 
Heartbeat CPU 0 instructions: 82000000 cycles: 246681513 heartbeat IPC: 0.405669 cumulative IPC: 0.296867 (Simulation time: 0 hr 32 min 8 sec) 
Heartbeat CPU 0 instructions: 83000001 cycles: 248730887 heartbeat IPC: 0.487954 cumulative IPC: 0.298468 (Simulation time: 0 hr 32 min 26 sec) 
Heartbeat CPU 0 instructions: 84000000 cycles: 253307554 heartbeat IPC: 0.218499 cumulative IPC: 0.296999 (Simulation time: 0 hr 32 min 52 sec) 
Heartbeat CPU 0 instructions: 85000000 cycles: 256016276 heartbeat IPC: 0.369178 cumulative IPC: 0.297776 (Simulation time: 0 hr 33 min 11 sec) 
Heartbeat CPU 0 instructions: 86000000 cycles: 258643688 heartbeat IPC: 0.380603 cumulative IPC: 0.298631 (Simulation time: 0 hr 33 min 29 sec) 
Heartbeat CPU 0 instructions: 87000000 cycles: 262379273 heartbeat IPC: 0.267696 cumulative IPC: 0.298183 (Simulation time: 0 hr 33 min 54 sec) 
Heartbeat CPU 0 instructions: 88000000 cycles: 266474785 heartbeat IPC: 0.24417 cumulative IPC: 0.29734 (Simulation time: 0 hr 34 min 18 sec) 
Heartbeat CPU 0 instructions: 89000001 cycles: 271135867 heartbeat IPC: 0.214543 cumulative IPC: 0.295894 (Simulation time: 0 hr 34 min 44 sec) 
Heartbeat CPU 0 instructions: 90000002 cycles: 273112954 heartbeat IPC: 0.505795 cumulative IPC: 0.297437 (Simulation time: 0 hr 34 min 58 sec) 
Heartbeat CPU 0 instructions: 91000000 cycles: 275306770 heartbeat IPC: 0.455826 cumulative IPC: 0.298719 (Simulation time: 0 hr 35 min 14 sec) 
Heartbeat CPU 0 instructions: 92000000 cycles: 279730903 heartbeat IPC: 0.226033 cumulative IPC: 0.297552 (Simulation time: 0 hr 35 min 37 sec) 
Heartbeat CPU 0 instructions: 93000000 cycles: 282555416 heartbeat IPC: 0.354043 cumulative IPC: 0.298125 (Simulation time: 0 hr 35 min 52 sec) 
Heartbeat CPU 0 instructions: 94000001 cycles: 285161883 heartbeat IPC: 0.383661 cumulative IPC: 0.298918 (Simulation time: 0 hr 36 min 7 sec) 
Heartbeat CPU 0 instructions: 95000003 cycles: 289916103 heartbeat IPC: 0.21034 cumulative IPC: 0.297445 (Simulation time: 0 hr 36 min 29 sec) 
Heartbeat CPU 0 instructions: 96000000 cycles: 292906187 heartbeat IPC: 0.334438 cumulative IPC: 0.297828 (Simulation time: 0 hr 36 min 48 sec) 
Heartbeat CPU 0 instructions: 97000003 cycles: 297513881 heartbeat IPC: 0.217029 cumulative IPC: 0.296559 (Simulation time: 0 hr 37 min 8 sec) 
Heartbeat CPU 0 instructions: 98000003 cycles: 299509746 heartbeat IPC: 0.501036 cumulative IPC: 0.297941 (Simulation time: 0 hr 37 min 21 sec) 
Heartbeat CPU 0 instructions: 99000000 cycles: 303153593 heartbeat IPC: 0.274434 cumulative IPC: 0.297654 (Simulation time: 0 hr 37 min 37 sec) 
Heartbeat CPU 0 instructions: 100000000 cycles: 306494156 heartbeat IPC: 0.299351 cumulative IPC: 0.297673 (Simulation time: 0 hr 37 min 54 sec) 
Heartbeat CPU 0 instructions: 101000001 cycles: 309060118 heartbeat IPC: 0.389718 cumulative IPC: 0.298447 (Simulation time: 0 hr 38 min 8 sec) 
Heartbeat CPU 0 instructions: 102000000 cycles: 312064383 heartbeat IPC: 0.33286 cumulative IPC: 0.298783 (Simulation time: 0 hr 38 min 23 sec) 
Heartbeat CPU 0 instructions: 103000002 cycles: 317061843 heartbeat IPC: 0.200102 cumulative IPC: 0.297207 (Simulation time: 0 hr 38 min 44 sec) 
Heartbeat CPU 0 instructions: 104000000 cycles: 320443379 heartbeat IPC: 0.295723 cumulative IPC: 0.297191 (Simulation time: 0 hr 39 min 3 sec) 
Heartbeat CPU 0 instructions: 105000000 cycles: 323878522 heartbeat IPC: 0.291109 cumulative IPC: 0.297126 (Simulation time: 0 hr 39 min 19 sec) 
Heartbeat CPU 0 instructions: 106000001 cycles: 325895511 heartbeat IPC: 0.495789 cumulative IPC: 0.298371 (Simulation time: 0 hr 39 min 31 sec) 
Heartbeat CPU 0 instructions: 107000001 cycles: 330279403 heartbeat IPC: 0.228108 cumulative IPC: 0.297427 (Simulation time: 0 hr 39 min 48 sec) 
Heartbeat CPU 0 instructions: 108000000 cycles: 332977487 heartbeat IPC: 0.370633 cumulative IPC: 0.298027 (Simulation time: 0 hr 39 min 59 sec) 
Heartbeat CPU 0 instructions: 109000003 cycles: 335579180 heartbeat IPC: 0.384366 cumulative IPC: 0.298705 (Simulation time: 0 hr 40 min 11 sec) 
Heartbeat CPU 0 instructions: 110000003 cycles: 339211808 heartbeat IPC: 0.275283 cumulative IPC: 0.298451 (Simulation time: 0 hr 40 min 27 sec) 
Finished CPU 0 instructions: 100000003 cycles: 335063032 cummulative IPC: 0.298451 (Simulation time: 0 hr 40 min 27 sec) 

ChampSim completed all CPUs

Region of Interest Statistics

CPU 0 cummulative IPC: 0.298451 instructions: 100000003 cycles: 335063032
LLC TOTAL     ACCESS:    5290129  HIT:    2556723  MISS:    2733406
LLC LOAD      ACCESS:    3127296  HIT:     853818  MISS:    2273478
LLC RFO       ACCESS:     652040  HIT:     192241  MISS:     459799
LLC PREFETCH  ACCESS:          0  HIT:          0  MISS:          0
LLC WRITEBACK ACCESS:    1510793  HIT:    1510664  MISS:        129
