
*** ChampSim Multicore Out-of-Order Simulator ***

Warmup Instructions: 10000000
Simulation Instructions: 100000000
Configuration: 1
Number of CPUs: 1
LLC sets: 2048
LLC ways: 16
Off-chip DRAM Channels: 1 Width: 64-bit Data Rate: 1600 MT/s

CPU 0 runs /datasets/cs240c-wi22-a00-public/data/Assignment2-gz/milc_744B.trace.gz
Initialize LRU replacement state
Heartbeat CPU 0 instructions: 1000000 cycles: 383399 heartbeat IPC: 2.60825 cumulative IPC: 2.60825 (Simulation time: 0 hr 0 min 22 sec) 
Heartbeat CPU 0 instructions: 2000001 cycles: 766759 heartbeat IPC: 2.60852 cumulative IPC: 2.60838 (Simulation time: 0 hr 0 min 44 sec) 
Heartbeat CPU 0 instructions: 3000001 cycles: 1150170 heartbeat IPC: 2.60817 cumulative IPC: 2.60831 (Simulation time: 0 hr 1 min 6 sec) 
Heartbeat CPU 0 instructions: 4000000 cycles: 1533552 heartbeat IPC: 2.60836 cumulative IPC: 2.60832 (Simulation time: 0 hr 1 min 29 sec) 
Heartbeat CPU 0 instructions: 5000001 cycles: 1916947 heartbeat IPC: 2.60828 cumulative IPC: 2.60831 (Simulation time: 0 hr 1 min 51 sec) 
Heartbeat CPU 0 instructions: 6000002 cycles: 2300332 heartbeat IPC: 2.60835 cumulative IPC: 2.60832 (Simulation time: 0 hr 2 min 10 sec) 
Heartbeat CPU 0 instructions: 7000002 cycles: 2683720 heartbeat IPC: 2.60832 cumulative IPC: 2.60832 (Simulation time: 0 hr 2 min 29 sec) 
Heartbeat CPU 0 instructions: 8000000 cycles: 3067077 heartbeat IPC: 2.60853 cumulative IPC: 2.60835 (Simulation time: 0 hr 2 min 47 sec) 
Heartbeat CPU 0 instructions: 9000003 cycles: 3450523 heartbeat IPC: 2.60794 cumulative IPC: 2.6083 (Simulation time: 0 hr 3 min 7 sec) 
Heartbeat CPU 0 instructions: 10000002 cycles: 3833917 heartbeat IPC: 2.60828 cumulative IPC: 2.6083 (Simulation time: 0 hr 3 min 26 sec) 

Warmup complete CPU 0 instructions: 10000002 cycles: 3833917 (Simulation time: 0 hr 3 min 26 sec) 

Heartbeat CPU 0 instructions: 11000002 cycles: 5788007 heartbeat IPC: 0.511747 cumulative IPC: 0.511747 (Simulation time: 0 hr 3 min 49 sec) 
Heartbeat CPU 0 instructions: 12000000 cycles: 7741543 heartbeat IPC: 0.511891 cumulative IPC: 0.511819 (Simulation time: 0 hr 4 min 13 sec) 
Heartbeat CPU 0 instructions: 13000003 cycles: 9699683 heartbeat IPC: 0.51069 cumulative IPC: 0.511442 (Simulation time: 0 hr 4 min 36 sec) 
Heartbeat CPU 0 instructions: 14000000 cycles: 11662042 heartbeat IPC: 0.509589 cumulative IPC: 0.510978 (Simulation time: 0 hr 4 min 59 sec) 
Heartbeat CPU 0 instructions: 15000001 cycles: 13618035 heartbeat IPC: 0.51125 cumulative IPC: 0.511032 (Simulation time: 0 hr 5 min 23 sec) 
Heartbeat CPU 0 instructions: 16000000 cycles: 15578637 heartbeat IPC: 0.510047 cumulative IPC: 0.510868 (Simulation time: 0 hr 5 min 47 sec) 
Heartbeat CPU 0 instructions: 17000001 cycles: 17544619 heartbeat IPC: 0.508652 cumulative IPC: 0.51055 (Simulation time: 0 hr 6 min 11 sec) 
Heartbeat CPU 0 instructions: 18000000 cycles: 19514034 heartbeat IPC: 0.507764 cumulative IPC: 0.5102 (Simulation time: 0 hr 6 min 33 sec) 
Heartbeat CPU 0 instructions: 19000000 cycles: 21480923 heartbeat IPC: 0.508417 cumulative IPC: 0.510001 (Simulation time: 0 hr 6 min 55 sec) 
Heartbeat CPU 0 instructions: 20000000 cycles: 23449489 heartbeat IPC: 0.507984 cumulative IPC: 0.509799 (Simulation time: 0 hr 7 min 17 sec) 
Heartbeat CPU 0 instructions: 21000003 cycles: 25410604 heartbeat IPC: 0.509916 cumulative IPC: 0.50981 (Simulation time: 0 hr 7 min 42 sec) 
Heartbeat CPU 0 instructions: 22000002 cycles: 27377957 heartbeat IPC: 0.508297 cumulative IPC: 0.509683 (Simulation time: 0 hr 8 min 6 sec) 
Heartbeat CPU 0 instructions: 23000002 cycles: 29335673 heartbeat IPC: 0.510799 cumulative IPC: 0.509769 (Simulation time: 0 hr 8 min 27 sec) 
Heartbeat CPU 0 instructions: 24000000 cycles: 31291100 heartbeat IPC: 0.511396 cumulative IPC: 0.509885 (Simulation time: 0 hr 8 min 53 sec) 
Heartbeat CPU 0 instructions: 25000002 cycles: 33257171 heartbeat IPC: 0.50863 cumulative IPC: 0.509801 (Simulation time: 0 hr 9 min 14 sec) 
Heartbeat CPU 0 instructions: 26000001 cycles: 35219620 heartbeat IPC: 0.509567 cumulative IPC: 0.509786 (Simulation time: 0 hr 9 min 36 sec) 
Heartbeat CPU 0 instructions: 27000001 cycles: 37181620 heartbeat IPC: 0.509684 cumulative IPC: 0.50978 (Simulation time: 0 hr 9 min 58 sec) 
Heartbeat CPU 0 instructions: 28000000 cycles: 39145665 heartbeat IPC: 0.509153 cumulative IPC: 0.509745 (Simulation time: 0 hr 10 min 20 sec) 
Heartbeat CPU 0 instructions: 29000000 cycles: 41119589 heartbeat IPC: 0.506605 cumulative IPC: 0.509579 (Simulation time: 0 hr 10 min 42 sec) 
Heartbeat CPU 0 instructions: 30000000 cycles: 43087106 heartbeat IPC: 0.508255 cumulative IPC: 0.509513 (Simulation time: 0 hr 11 min 2 sec) 
Heartbeat CPU 0 instructions: 31000003 cycles: 45063354 heartbeat IPC: 0.506011 cumulative IPC: 0.509345 (Simulation time: 0 hr 11 min 22 sec) 
Heartbeat CPU 0 instructions: 32000000 cycles: 47030944 heartbeat IPC: 0.508234 cumulative IPC: 0.509294 (Simulation time: 0 hr 11 min 42 sec) 
Heartbeat CPU 0 instructions: 33000001 cycles: 49001701 heartbeat IPC: 0.50742 cumulative IPC: 0.509212 (Simulation time: 0 hr 12 min 2 sec) 
Heartbeat CPU 0 instructions: 34000003 cycles: 50969134 heartbeat IPC: 0.508278 cumulative IPC: 0.509173 (Simulation time: 0 hr 12 min 23 sec) 
Heartbeat CPU 0 instructions: 35000002 cycles: 52935143 heartbeat IPC: 0.508644 cumulative IPC: 0.509152 (Simulation time: 0 hr 12 min 44 sec) 
Heartbeat CPU 0 instructions: 36000000 cycles: 54907094 heartbeat IPC: 0.507111 cumulative IPC: 0.509073 (Simulation time: 0 hr 13 min 5 sec) 
Heartbeat CPU 0 instructions: 37000001 cycles: 56878903 heartbeat IPC: 0.507149 cumulative IPC: 0.509002 (Simulation time: 0 hr 13 min 25 sec) 
Heartbeat CPU 0 instructions: 38000001 cycles: 58838115 heartbeat IPC: 0.510409 cumulative IPC: 0.509052 (Simulation time: 0 hr 13 min 46 sec) 
Heartbeat CPU 0 instructions: 39000001 cycles: 60814406 heartbeat IPC: 0.505998 cumulative IPC: 0.508946 (Simulation time: 0 hr 14 min 11 sec) 
Heartbeat CPU 0 instructions: 40000000 cycles: 62778621 heartbeat IPC: 0.509109 cumulative IPC: 0.508952 (Simulation time: 0 hr 14 min 33 sec) 
Heartbeat CPU 0 instructions: 41000000 cycles: 64746907 heartbeat IPC: 0.508056 cumulative IPC: 0.508923 (Simulation time: 0 hr 14 min 55 sec) 
Heartbeat CPU 0 instructions: 42000002 cycles: 66705349 heartbeat IPC: 0.510611 cumulative IPC: 0.508975 (Simulation time: 0 hr 15 min 15 sec) 
Heartbeat CPU 0 instructions: 43000003 cycles: 68674331 heartbeat IPC: 0.507877 cumulative IPC: 0.508942 (Simulation time: 0 hr 15 min 37 sec) 
Heartbeat CPU 0 instructions: 44000000 cycles: 70644220 heartbeat IPC: 0.507641 cumulative IPC: 0.508904 (Simulation time: 0 hr 15 min 57 sec) 
Heartbeat CPU 0 instructions: 45000000 cycles: 72619136 heartbeat IPC: 0.506351 cumulative IPC: 0.50883 (Simulation time: 0 hr 16 min 20 sec) 
Heartbeat CPU 0 instructions: 46000003 cycles: 74581581 heartbeat IPC: 0.50957 cumulative IPC: 0.508851 (Simulation time: 0 hr 16 min 43 sec) 
Heartbeat CPU 0 instructions: 47000002 cycles: 76545165 heartbeat IPC: 0.509272 cumulative IPC: 0.508862 (Simulation time: 0 hr 17 min 6 sec) 
Heartbeat CPU 0 instructions: 48000000 cycles: 78526219 heartbeat IPC: 0.504781 cumulative IPC: 0.508754 (Simulation time: 0 hr 17 min 29 sec) 
Heartbeat CPU 0 instructions: 49000001 cycles: 80502365 heartbeat IPC: 0.506036 cumulative IPC: 0.508684 (Simulation time: 0 hr 17 min 50 sec) 
Heartbeat CPU 0 instructions: 50000001 cycles: 82468547 heartbeat IPC: 0.5086 cumulative IPC: 0.508682 (Simulation time: 0 hr 18 min 13 sec) 
Heartbeat CPU 0 instructions: 51000001 cycles: 84432726 heartbeat IPC: 0.509119 cumulative IPC: 0.508692 (Simulation time: 0 hr 18 min 35 sec) 
Heartbeat CPU 0 instructions: 52000000 cycles: 86392887 heartbeat IPC: 0.510162 cumulative IPC: 0.508727 (Simulation time: 0 hr 18 min 58 sec) 
Heartbeat CPU 0 instructions: 53000000 cycles: 88358375 heartbeat IPC: 0.50878 cumulative IPC: 0.508728 (Simulation time: 0 hr 19 min 21 sec) 
Heartbeat CPU 0 instructions: 54000001 cycles: 90324108 heartbeat IPC: 0.508717 cumulative IPC: 0.508728 (Simulation time: 0 hr 19 min 43 sec) 
Heartbeat CPU 0 instructions: 55000003 cycles: 92293215 heartbeat IPC: 0.507845 cumulative IPC: 0.508709 (Simulation time: 0 hr 20 min 5 sec) 
Heartbeat CPU 0 instructions: 56000000 cycles: 94266568 heartbeat IPC: 0.50675 cumulative IPC: 0.508666 (Simulation time: 0 hr 20 min 27 sec) 
Heartbeat CPU 0 instructions: 57000000 cycles: 96235467 heartbeat IPC: 0.507898 cumulative IPC: 0.508649 (Simulation time: 0 hr 20 min 49 sec) 
Heartbeat CPU 0 instructions: 58000000 cycles: 98192177 heartbeat IPC: 0.511062 cumulative IPC: 0.508699 (Simulation time: 0 hr 21 min 10 sec) 
Heartbeat CPU 0 instructions: 59000000 cycles: 100158901 heartbeat IPC: 0.50846 cumulative IPC: 0.508695 (Simulation time: 0 hr 21 min 33 sec) 
Heartbeat CPU 0 instructions: 60000000 cycles: 102117914 heartbeat IPC: 0.510461 cumulative IPC: 0.50873 (Simulation time: 0 hr 21 min 55 sec) 
Heartbeat CPU 0 instructions: 61000001 cycles: 104085205 heartbeat IPC: 0.508314 cumulative IPC: 0.508722 (Simulation time: 0 hr 22 min 16 sec) 
Heartbeat CPU 0 instructions: 62000001 cycles: 106054986 heartbeat IPC: 0.507671 cumulative IPC: 0.508701 (Simulation time: 0 hr 22 min 37 sec) 
Heartbeat CPU 0 instructions: 63000001 cycles: 108031676 heartbeat IPC: 0.505896 cumulative IPC: 0.508648 (Simulation time: 0 hr 22 min 59 sec) 
Heartbeat CPU 0 instructions: 64000000 cycles: 109996301 heartbeat IPC: 0.509003 cumulative IPC: 0.508655 (Simulation time: 0 hr 23 min 20 sec) 
Heartbeat CPU 0 instructions: 65000002 cycles: 111963888 heartbeat IPC: 0.508238 cumulative IPC: 0.508647 (Simulation time: 0 hr 23 min 42 sec) 
Heartbeat CPU 0 instructions: 66000001 cycles: 113931086 heartbeat IPC: 0.508337 cumulative IPC: 0.508642 (Simulation time: 0 hr 24 min 3 sec) 
Heartbeat CPU 0 instructions: 67000003 cycles: 115905118 heartbeat IPC: 0.506578 cumulative IPC: 0.508605 (Simulation time: 0 hr 24 min 24 sec) 
Heartbeat CPU 0 instructions: 68000000 cycles: 117875215 heartbeat IPC: 0.507588 cumulative IPC: 0.508588 (Simulation time: 0 hr 24 min 45 sec) 
Heartbeat CPU 0 instructions: 69000003 cycles: 119843216 heartbeat IPC: 0.508131 cumulative IPC: 0.50858 (Simulation time: 0 hr 25 min 11 sec) 
Heartbeat CPU 0 instructions: 70000002 cycles: 121807858 heartbeat IPC: 0.508998 cumulative IPC: 0.508587 (Simulation time: 0 hr 25 min 32 sec) 
Heartbeat CPU 0 instructions: 71000000 cycles: 123765402 heartbeat IPC: 0.510843 cumulative IPC: 0.508624 (Simulation time: 0 hr 25 min 53 sec) 
Heartbeat CPU 0 instructions: 72000000 cycles: 125731601 heartbeat IPC: 0.508596 cumulative IPC: 0.508623 (Simulation time: 0 hr 26 min 14 sec) 
Heartbeat CPU 0 instructions: 73000002 cycles: 127703094 heartbeat IPC: 0.507231 cumulative IPC: 0.508601 (Simulation time: 0 hr 26 min 36 sec) 
Heartbeat CPU 0 instructions: 74000001 cycles: 129677007 heartbeat IPC: 0.506607 cumulative IPC: 0.50857 (Simulation time: 0 hr 26 min 58 sec) 
Heartbeat CPU 0 instructions: 75000001 cycles: 131644432 heartbeat IPC: 0.508279 cumulative IPC: 0.508565 (Simulation time: 0 hr 27 min 18 sec) 
Heartbeat CPU 0 instructions: 76000000 cycles: 133616976 heartbeat IPC: 0.506959 cumulative IPC: 0.508541 (Simulation time: 0 hr 27 min 39 sec) 
Heartbeat CPU 0 instructions: 77000002 cycles: 135579732 heartbeat IPC: 0.509489 cumulative IPC: 0.508555 (Simulation time: 0 hr 28 min 0 sec) 
Heartbeat CPU 0 instructions: 78000000 cycles: 137546897 heartbeat IPC: 0.508345 cumulative IPC: 0.508552 (Simulation time: 0 hr 28 min 20 sec) 
Heartbeat CPU 0 instructions: 79000000 cycles: 139523299 heartbeat IPC: 0.50597 cumulative IPC: 0.508514 (Simulation time: 0 hr 28 min 42 sec) 
Heartbeat CPU 0 instructions: 80000000 cycles: 141493658 heartbeat IPC: 0.507522 cumulative IPC: 0.5085 (Simulation time: 0 hr 29 min 4 sec) 
Heartbeat CPU 0 instructions: 81000003 cycles: 143459217 heartbeat IPC: 0.508763 cumulative IPC: 0.508504 (Simulation time: 0 hr 29 min 29 sec) 
Heartbeat CPU 0 instructions: 82000003 cycles: 145427257 heartbeat IPC: 0.50812 cumulative IPC: 0.508498 (Simulation time: 0 hr 29 min 53 sec) 
Heartbeat CPU 0 instructions: 83000001 cycles: 147398737 heartbeat IPC: 0.507232 cumulative IPC: 0.508481 (Simulation time: 0 hr 30 min 19 sec) 
Heartbeat CPU 0 instructions: 84000000 cycles: 149359077 heartbeat IPC: 0.510115 cumulative IPC: 0.508503 (Simulation time: 0 hr 30 min 41 sec) 
Heartbeat CPU 0 instructions: 85000000 cycles: 151341784 heartbeat IPC: 0.504361 cumulative IPC: 0.508447 (Simulation time: 0 hr 31 min 5 sec) 
Heartbeat CPU 0 instructions: 86000002 cycles: 153301449 heartbeat IPC: 0.510292 cumulative IPC: 0.508472 (Simulation time: 0 hr 31 min 27 sec) 
Heartbeat CPU 0 instructions: 87000001 cycles: 155274427 heartbeat IPC: 0.506848 cumulative IPC: 0.50845 (Simulation time: 0 hr 31 min 47 sec) 
Heartbeat CPU 0 instructions: 88000000 cycles: 157246151 heartbeat IPC: 0.50717 cumulative IPC: 0.508434 (Simulation time: 0 hr 32 min 9 sec) 
Heartbeat CPU 0 instructions: 89000003 cycles: 159205707 heartbeat IPC: 0.510321 cumulative IPC: 0.508458 (Simulation time: 0 hr 32 min 31 sec) 
Heartbeat CPU 0 instructions: 90000000 cycles: 161172519 heartbeat IPC: 0.508435 cumulative IPC: 0.508458 (Simulation time: 0 hr 32 min 52 sec) 
Heartbeat CPU 0 instructions: 91000001 cycles: 163139325 heartbeat IPC: 0.508439 cumulative IPC: 0.508457 (Simulation time: 0 hr 33 min 12 sec) 
Heartbeat CPU 0 instructions: 92000000 cycles: 168057992 heartbeat IPC: 0.203307 cumulative IPC: 0.499318 (Simulation time: 0 hr 33 min 54 sec) 
Heartbeat CPU 0 instructions: 93000000 cycles: 173036028 heartbeat IPC: 0.200882 cumulative IPC: 0.490538 (Simulation time: 0 hr 34 min 36 sec) 
Heartbeat CPU 0 instructions: 94000000 cycles: 176853563 heartbeat IPC: 0.261949 cumulative IPC: 0.485494 (Simulation time: 0 hr 35 min 9 sec) 
Heartbeat CPU 0 instructions: 95000000 cycles: 179229924 heartbeat IPC: 0.420811 cumulative IPC: 0.484618 (Simulation time: 0 hr 35 min 32 sec) 
Heartbeat CPU 0 instructions: 96000000 cycles: 180806608 heartbeat IPC: 0.634242 cumulative IPC: 0.485951 (Simulation time: 0 hr 35 min 50 sec) 
Heartbeat CPU 0 instructions: 97000002 cycles: 182179425 heartbeat IPC: 0.728431 cumulative IPC: 0.487817 (Simulation time: 0 hr 36 min 6 sec) 
Heartbeat CPU 0 instructions: 98000003 cycles: 183554967 heartbeat IPC: 0.726987 cumulative IPC: 0.489648 (Simulation time: 0 hr 36 min 22 sec) 
Heartbeat CPU 0 instructions: 99000000 cycles: 184930460 heartbeat IPC: 0.72701 cumulative IPC: 0.491451 (Simulation time: 0 hr 36 min 37 sec) 
Heartbeat CPU 0 instructions: 100000000 cycles: 186294122 heartbeat IPC: 0.73332 cumulative IPC: 0.493258 (Simulation time: 0 hr 36 min 52 sec) 
Heartbeat CPU 0 instructions: 101000001 cycles: 187671704 heartbeat IPC: 0.72591 cumulative IPC: 0.495002 (Simulation time: 0 hr 37 min 7 sec) 
Heartbeat CPU 0 instructions: 102000000 cycles: 189041479 heartbeat IPC: 0.730046 cumulative IPC: 0.49674 (Simulation time: 0 hr 37 min 22 sec) 
Heartbeat CPU 0 instructions: 103000002 cycles: 190417693 heartbeat IPC: 0.726633 cumulative IPC: 0.498436 (Simulation time: 0 hr 37 min 36 sec) 
Heartbeat CPU 0 instructions: 104000000 cycles: 191799338 heartbeat IPC: 0.723773 cumulative IPC: 0.500092 (Simulation time: 0 hr 37 min 51 sec) 
Heartbeat CPU 0 instructions: 105000003 cycles: 193178539 heartbeat IPC: 0.72506 cumulative IPC: 0.501731 (Simulation time: 0 hr 38 min 5 sec) 
Heartbeat CPU 0 instructions: 106000002 cycles: 194552398 heartbeat IPC: 0.727876 cumulative IPC: 0.50336 (Simulation time: 0 hr 38 min 20 sec) 
Heartbeat CPU 0 instructions: 107000002 cycles: 195939455 heartbeat IPC: 0.720951 cumulative IPC: 0.504931 (Simulation time: 0 hr 38 min 35 sec) 
Heartbeat CPU 0 instructions: 108000000 cycles: 197323013 heartbeat IPC: 0.722773 cumulative IPC: 0.506489 (Simulation time: 0 hr 38 min 48 sec) 
Heartbeat CPU 0 instructions: 109000001 cycles: 198704624 heartbeat IPC: 0.723793 cumulative IPC: 0.508029 (Simulation time: 0 hr 39 min 2 sec) 
Heartbeat CPU 0 instructions: 110000001 cycles: 200090081 heartbeat IPC: 0.721784 cumulative IPC: 0.509538 (Simulation time: 0 hr 39 min 16 sec) 
Finished CPU 0 instructions: 100000003 cycles: 196256165 cummulative IPC: 0.509538 (Simulation time: 0 hr 39 min 16 sec) 

ChampSim completed all CPUs

Region of Interest Statistics

CPU 0 cummulative IPC: 0.509538 instructions: 100000003 cycles: 196256165
LLC TOTAL     ACCESS:    2445955  HIT:     701456  MISS:    1744499
LLC LOAD      ACCESS:    1321299  HIT:        106  MISS:    1321193
LLC RFO       ACCESS:     423300  HIT:          0  MISS:     423300
LLC PREFETCH  ACCESS:          0  HIT:          0  MISS:          0
LLC WRITEBACK ACCESS:     701356  HIT:     701350  MISS:          6
