
*** ChampSim Multicore Out-of-Order Simulator ***

Warmup Instructions: 10000000
Simulation Instructions: 100000000
Configuration: 1
Number of CPUs: 1
LLC sets: 2048
LLC ways: 16
Off-chip DRAM Channels: 1 Width: 64-bit Data Rate: 1600 MT/s

CPU 0 runs /datasets/cs240c-wi22-a00-public/data/Assignment2-gz/bzip2_183B.trace.gz
Initialize LRU replacement state
Heartbeat CPU 0 instructions: 1000000 cycles: 448069 heartbeat IPC: 2.2318 cumulative IPC: 2.2318 (Simulation time: 0 hr 0 min 22 sec) 
Heartbeat CPU 0 instructions: 2000001 cycles: 951159 heartbeat IPC: 1.98772 cumulative IPC: 2.1027 (Simulation time: 0 hr 0 min 44 sec) 
Heartbeat CPU 0 instructions: 3000001 cycles: 1457648 heartbeat IPC: 1.97438 cumulative IPC: 2.05811 (Simulation time: 0 hr 1 min 6 sec) 
Heartbeat CPU 0 instructions: 4000000 cycles: 1928242 heartbeat IPC: 2.12497 cumulative IPC: 2.07443 (Simulation time: 0 hr 1 min 26 sec) 
Heartbeat CPU 0 instructions: 5000000 cycles: 2425411 heartbeat IPC: 2.01139 cumulative IPC: 2.06151 (Simulation time: 0 hr 1 min 46 sec) 
Heartbeat CPU 0 instructions: 6000001 cycles: 2886962 heartbeat IPC: 2.16661 cumulative IPC: 2.07831 (Simulation time: 0 hr 2 min 4 sec) 
Heartbeat CPU 0 instructions: 7000003 cycles: 3343066 heartbeat IPC: 2.19249 cumulative IPC: 2.09389 (Simulation time: 0 hr 2 min 23 sec) 
Heartbeat CPU 0 instructions: 8000000 cycles: 3812557 heartbeat IPC: 2.12996 cumulative IPC: 2.09833 (Simulation time: 0 hr 2 min 42 sec) 
Heartbeat CPU 0 instructions: 9000003 cycles: 4277820 heartbeat IPC: 2.14933 cumulative IPC: 2.10388 (Simulation time: 0 hr 3 min 1 sec) 
Heartbeat CPU 0 instructions: 10000000 cycles: 4746171 heartbeat IPC: 2.13514 cumulative IPC: 2.10696 (Simulation time: 0 hr 3 min 19 sec) 

Warmup complete CPU 0 instructions: 10000001 cycles: 4746172 (Simulation time: 0 hr 3 min 19 sec) 

Heartbeat CPU 0 instructions: 11000000 cycles: 6299166 heartbeat IPC: 0.643917 cumulative IPC: 0.643917 (Simulation time: 0 hr 3 min 36 sec) 
Heartbeat CPU 0 instructions: 12000000 cycles: 7794979 heartbeat IPC: 0.668533 cumulative IPC: 0.655994 (Simulation time: 0 hr 3 min 55 sec) 
Heartbeat CPU 0 instructions: 13000000 cycles: 9025251 heartbeat IPC: 0.812828 cumulative IPC: 0.701085 (Simulation time: 0 hr 4 min 12 sec) 
Heartbeat CPU 0 instructions: 14000003 cycles: 10095187 heartbeat IPC: 0.934638 cumulative IPC: 0.747802 (Simulation time: 0 hr 4 min 30 sec) 
Heartbeat CPU 0 instructions: 15000000 cycles: 11501778 heartbeat IPC: 0.710937 cumulative IPC: 0.740126 (Simulation time: 0 hr 4 min 47 sec) 
Heartbeat CPU 0 instructions: 16000000 cycles: 12487097 heartbeat IPC: 1.0149 cumulative IPC: 0.775101 (Simulation time: 0 hr 5 min 5 sec) 
Heartbeat CPU 0 instructions: 17000003 cycles: 13418785 heartbeat IPC: 1.07332 cumulative IPC: 0.807139 (Simulation time: 0 hr 5 min 22 sec) 
Heartbeat CPU 0 instructions: 18000001 cycles: 14347038 heartbeat IPC: 1.07729 cumulative IPC: 0.833258 (Simulation time: 0 hr 5 min 39 sec) 
Heartbeat CPU 0 instructions: 19000002 cycles: 15306312 heartbeat IPC: 1.04246 cumulative IPC: 0.852262 (Simulation time: 0 hr 5 min 59 sec) 
Heartbeat CPU 0 instructions: 20000000 cycles: 16520953 heartbeat IPC: 0.823287 cumulative IPC: 0.849273 (Simulation time: 0 hr 6 min 15 sec) 
Heartbeat CPU 0 instructions: 21000000 cycles: 18040250 heartbeat IPC: 0.658199 cumulative IPC: 0.827436 (Simulation time: 0 hr 6 min 33 sec) 
Heartbeat CPU 0 instructions: 22000000 cycles: 19491019 heartbeat IPC: 0.68929 cumulative IPC: 0.813844 (Simulation time: 0 hr 6 min 50 sec) 
Heartbeat CPU 0 instructions: 23000002 cycles: 20681229 heartbeat IPC: 0.84019 cumulative IPC: 0.815811 (Simulation time: 0 hr 7 min 8 sec) 
Heartbeat CPU 0 instructions: 24000000 cycles: 21925897 heartbeat IPC: 0.803425 cumulative IPC: 0.814914 (Simulation time: 0 hr 7 min 25 sec) 
Heartbeat CPU 0 instructions: 25000001 cycles: 23296075 heartbeat IPC: 0.729833 cumulative IPC: 0.80863 (Simulation time: 0 hr 7 min 42 sec) 
Heartbeat CPU 0 instructions: 26000002 cycles: 24277106 heartbeat IPC: 1.01934 cumulative IPC: 0.819213 (Simulation time: 0 hr 7 min 59 sec) 
Heartbeat CPU 0 instructions: 27000000 cycles: 25291689 heartbeat IPC: 0.985625 cumulative IPC: 0.827431 (Simulation time: 0 hr 8 min 16 sec) 
Heartbeat CPU 0 instructions: 28000000 cycles: 26631302 heartbeat IPC: 0.746484 cumulative IPC: 0.822476 (Simulation time: 0 hr 8 min 34 sec) 
Heartbeat CPU 0 instructions: 29000003 cycles: 27698243 heartbeat IPC: 0.937262 cumulative IPC: 0.827812 (Simulation time: 0 hr 8 min 51 sec) 
Heartbeat CPU 0 instructions: 30000000 cycles: 29055008 heartbeat IPC: 0.737045 cumulative IPC: 0.822746 (Simulation time: 0 hr 9 min 9 sec) 
Heartbeat CPU 0 instructions: 31000000 cycles: 30407111 heartbeat IPC: 0.739589 cumulative IPC: 0.818364 (Simulation time: 0 hr 9 min 26 sec) 
Heartbeat CPU 0 instructions: 32000000 cycles: 32070237 heartbeat IPC: 0.601277 cumulative IPC: 0.805151 (Simulation time: 0 hr 9 min 42 sec) 
Heartbeat CPU 0 instructions: 33000000 cycles: 33191968 heartbeat IPC: 0.891479 cumulative IPC: 0.808555 (Simulation time: 0 hr 10 min 3 sec) 
Heartbeat CPU 0 instructions: 34000001 cycles: 34194619 heartbeat IPC: 0.997357 cumulative IPC: 0.814984 (Simulation time: 0 hr 10 min 20 sec) 
Heartbeat CPU 0 instructions: 35000000 cycles: 35215017 heartbeat IPC: 0.980009 cumulative IPC: 0.82051 (Simulation time: 0 hr 10 min 38 sec) 
Heartbeat CPU 0 instructions: 36000000 cycles: 36249084 heartbeat IPC: 0.967055 cumulative IPC: 0.82532 (Simulation time: 0 hr 10 min 54 sec) 
Heartbeat CPU 0 instructions: 37000003 cycles: 37564791 heartbeat IPC: 0.76005 cumulative IPC: 0.822704 (Simulation time: 0 hr 11 min 11 sec) 
Heartbeat CPU 0 instructions: 38000001 cycles: 39146450 heartbeat IPC: 0.632246 cumulative IPC: 0.813947 (Simulation time: 0 hr 11 min 28 sec) 
Heartbeat CPU 0 instructions: 39000002 cycles: 40286016 heartbeat IPC: 0.877528 cumulative IPC: 0.815986 (Simulation time: 0 hr 11 min 46 sec) 
Heartbeat CPU 0 instructions: 40000000 cycles: 41355585 heartbeat IPC: 0.934954 cumulative IPC: 0.819461 (Simulation time: 0 hr 12 min 4 sec) 
Heartbeat CPU 0 instructions: 41000002 cycles: 42867239 heartbeat IPC: 0.661528 cumulative IPC: 0.813199 (Simulation time: 0 hr 12 min 22 sec) 
Heartbeat CPU 0 instructions: 42000000 cycles: 44181908 heartbeat IPC: 0.760646 cumulative IPC: 0.811447 (Simulation time: 0 hr 12 min 41 sec) 
Heartbeat CPU 0 instructions: 43000001 cycles: 45375798 heartbeat IPC: 0.837599 cumulative IPC: 0.812215 (Simulation time: 0 hr 13 min 0 sec) 
Heartbeat CPU 0 instructions: 44000000 cycles: 46561189 heartbeat IPC: 0.843603 cumulative IPC: 0.813105 (Simulation time: 0 hr 13 min 19 sec) 
Heartbeat CPU 0 instructions: 45000000 cycles: 47692332 heartbeat IPC: 0.884062 cumulative IPC: 0.814974 (Simulation time: 0 hr 13 min 37 sec) 
Heartbeat CPU 0 instructions: 46000000 cycles: 48820433 heartbeat IPC: 0.886445 cumulative IPC: 0.816803 (Simulation time: 0 hr 13 min 54 sec) 
Heartbeat CPU 0 instructions: 47000003 cycles: 49827890 heartbeat IPC: 0.992601 cumulative IPC: 0.820732 (Simulation time: 0 hr 14 min 12 sec) 
Heartbeat CPU 0 instructions: 48000000 cycles: 51492455 heartbeat IPC: 0.600756 cumulative IPC: 0.812899 (Simulation time: 0 hr 14 min 30 sec) 
Heartbeat CPU 0 instructions: 49000003 cycles: 53123886 heartbeat IPC: 0.612961 cumulative IPC: 0.806156 (Simulation time: 0 hr 14 min 48 sec) 
Heartbeat CPU 0 instructions: 50000000 cycles: 54324192 heartbeat IPC: 0.833118 cumulative IPC: 0.806809 (Simulation time: 0 hr 15 min 8 sec) 
Heartbeat CPU 0 instructions: 51000000 cycles: 55355026 heartbeat IPC: 0.970088 cumulative IPC: 0.810135 (Simulation time: 0 hr 15 min 25 sec) 
Heartbeat CPU 0 instructions: 52000000 cycles: 56385860 heartbeat IPC: 0.970088 cumulative IPC: 0.813328 (Simulation time: 0 hr 15 min 42 sec) 
Heartbeat CPU 0 instructions: 53000001 cycles: 57427150 heartbeat IPC: 0.960348 cumulative IPC: 0.816234 (Simulation time: 0 hr 16 min 1 sec) 
Heartbeat CPU 0 instructions: 54000001 cycles: 58442917 heartbeat IPC: 0.984478 cumulative IPC: 0.819417 (Simulation time: 0 hr 16 min 20 sec) 
Heartbeat CPU 0 instructions: 55000001 cycles: 59762509 heartbeat IPC: 0.75781 cumulative IPC: 0.817939 (Simulation time: 0 hr 16 min 38 sec) 
Heartbeat CPU 0 instructions: 56000000 cycles: 61001820 heartbeat IPC: 0.806899 cumulative IPC: 0.817696 (Simulation time: 0 hr 16 min 56 sec) 
Heartbeat CPU 0 instructions: 57000003 cycles: 62493808 heartbeat IPC: 0.670249 cumulative IPC: 0.813886 (Simulation time: 0 hr 17 min 15 sec) 
Heartbeat CPU 0 instructions: 58000001 cycles: 64116653 heartbeat IPC: 0.616201 cumulative IPC: 0.808483 (Simulation time: 0 hr 17 min 32 sec) 
Heartbeat CPU 0 instructions: 59000003 cycles: 65468319 heartbeat IPC: 0.739829 cumulative IPC: 0.806954 (Simulation time: 0 hr 17 min 50 sec) 
Heartbeat CPU 0 instructions: 60000000 cycles: 67126456 heartbeat IPC: 0.603085 cumulative IPC: 0.801535 (Simulation time: 0 hr 18 min 8 sec) 
Heartbeat CPU 0 instructions: 61000003 cycles: 68884384 heartbeat IPC: 0.568853 cumulative IPC: 0.795158 (Simulation time: 0 hr 18 min 25 sec) 
Heartbeat CPU 0 instructions: 62000002 cycles: 70440110 heartbeat IPC: 0.642786 cumulative IPC: 0.791549 (Simulation time: 0 hr 18 min 43 sec) 
Heartbeat CPU 0 instructions: 63000003 cycles: 71884109 heartbeat IPC: 0.692522 cumulative IPC: 0.78942 (Simulation time: 0 hr 19 min 1 sec) 
Heartbeat CPU 0 instructions: 64000000 cycles: 73474194 heartbeat IPC: 0.628895 cumulative IPC: 0.785706 (Simulation time: 0 hr 19 min 18 sec) 
Heartbeat CPU 0 instructions: 65000003 cycles: 74755769 heartbeat IPC: 0.780292 cumulative IPC: 0.785607 (Simulation time: 0 hr 19 min 36 sec) 
Heartbeat CPU 0 instructions: 66000000 cycles: 76142368 heartbeat IPC: 0.721187 cumulative IPC: 0.784356 (Simulation time: 0 hr 19 min 55 sec) 
Heartbeat CPU 0 instructions: 67000000 cycles: 77119668 heartbeat IPC: 1.02323 cumulative IPC: 0.787581 (Simulation time: 0 hr 20 min 12 sec) 
Heartbeat CPU 0 instructions: 68000000 cycles: 78548969 heartbeat IPC: 0.699643 cumulative IPC: 0.785878 (Simulation time: 0 hr 20 min 30 sec) 
Heartbeat CPU 0 instructions: 69000000 cycles: 80147659 heartbeat IPC: 0.625512 cumulative IPC: 0.782478 (Simulation time: 0 hr 20 min 47 sec) 
Heartbeat CPU 0 instructions: 70000002 cycles: 81673789 heartbeat IPC: 0.655253 cumulative IPC: 0.779954 (Simulation time: 0 hr 21 min 5 sec) 
Heartbeat CPU 0 instructions: 71000000 cycles: 83286846 heartbeat IPC: 0.61994 cumulative IPC: 0.776668 (Simulation time: 0 hr 21 min 22 sec) 
Heartbeat CPU 0 instructions: 72000000 cycles: 84673114 heartbeat IPC: 0.721361 cumulative IPC: 0.775708 (Simulation time: 0 hr 21 min 39 sec) 
Heartbeat CPU 0 instructions: 73000001 cycles: 85991971 heartbeat IPC: 0.758233 cumulative IPC: 0.775425 (Simulation time: 0 hr 21 min 56 sec) 
Heartbeat CPU 0 instructions: 74000000 cycles: 87258498 heartbeat IPC: 0.78956 cumulative IPC: 0.775642 (Simulation time: 0 hr 22 min 15 sec) 
Heartbeat CPU 0 instructions: 75000001 cycles: 88653439 heartbeat IPC: 0.716877 cumulative IPC: 0.774665 (Simulation time: 0 hr 22 min 32 sec) 
Heartbeat CPU 0 instructions: 76000000 cycles: 89801605 heartbeat IPC: 0.870953 cumulative IPC: 0.775965 (Simulation time: 0 hr 22 min 49 sec) 
Heartbeat CPU 0 instructions: 77000003 cycles: 91002874 heartbeat IPC: 0.832456 cumulative IPC: 0.776751 (Simulation time: 0 hr 23 min 6 sec) 
Heartbeat CPU 0 instructions: 78000000 cycles: 92361502 heartbeat IPC: 0.736034 cumulative IPC: 0.77612 (Simulation time: 0 hr 23 min 24 sec) 
Heartbeat CPU 0 instructions: 79000000 cycles: 93781682 heartbeat IPC: 0.704136 cumulative IPC: 0.774972 (Simulation time: 0 hr 23 min 43 sec) 
Heartbeat CPU 0 instructions: 80000000 cycles: 95195246 heartbeat IPC: 0.707432 cumulative IPC: 0.773916 (Simulation time: 0 hr 24 min 1 sec) 
Heartbeat CPU 0 instructions: 81000000 cycles: 96910163 heartbeat IPC: 0.583119 cumulative IPC: 0.770366 (Simulation time: 0 hr 24 min 19 sec) 
Heartbeat CPU 0 instructions: 82000002 cycles: 98493507 heartbeat IPC: 0.631576 cumulative IPC: 0.768022 (Simulation time: 0 hr 24 min 36 sec) 
Heartbeat CPU 0 instructions: 83000000 cycles: 99755164 heartbeat IPC: 0.792607 cumulative IPC: 0.768348 (Simulation time: 0 hr 24 min 55 sec) 
Heartbeat CPU 0 instructions: 84000000 cycles: 100743482 heartbeat IPC: 1.01182 cumulative IPC: 0.770855 (Simulation time: 0 hr 25 min 12 sec) 
Heartbeat CPU 0 instructions: 85000002 cycles: 101805249 heartbeat IPC: 0.941828 cumulative IPC: 0.772725 (Simulation time: 0 hr 25 min 29 sec) 
Heartbeat CPU 0 instructions: 86000002 cycles: 102797830 heartbeat IPC: 1.00747 cumulative IPC: 0.775102 (Simulation time: 0 hr 25 min 46 sec) 
Heartbeat CPU 0 instructions: 87000001 cycles: 104017720 heartbeat IPC: 0.819745 cumulative IPC: 0.77565 (Simulation time: 0 hr 26 min 7 sec) 
Heartbeat CPU 0 instructions: 88000000 cycles: 105322854 heartbeat IPC: 0.766204 cumulative IPC: 0.775528 (Simulation time: 0 hr 26 min 25 sec) 
Heartbeat CPU 0 instructions: 89000000 cycles: 107111318 heartbeat IPC: 0.559139 cumulative IPC: 0.771747 (Simulation time: 0 hr 26 min 46 sec) 
Heartbeat CPU 0 instructions: 90000002 cycles: 108628638 heartbeat IPC: 0.659058 cumulative IPC: 0.770101 (Simulation time: 0 hr 27 min 3 sec) 
Heartbeat CPU 0 instructions: 91000000 cycles: 110330738 heartbeat IPC: 0.587508 cumulative IPC: 0.767158 (Simulation time: 0 hr 27 min 20 sec) 
Heartbeat CPU 0 instructions: 92000000 cycles: 111830154 heartbeat IPC: 0.666926 cumulative IPC: 0.765754 (Simulation time: 0 hr 27 min 38 sec) 
Heartbeat CPU 0 instructions: 93000001 cycles: 113261407 heartbeat IPC: 0.698689 cumulative IPC: 0.76487 (Simulation time: 0 hr 27 min 57 sec) 
Heartbeat CPU 0 instructions: 94000000 cycles: 115031577 heartbeat IPC: 0.564917 cumulative IPC: 0.76166 (Simulation time: 0 hr 28 min 15 sec) 
Heartbeat CPU 0 instructions: 95000002 cycles: 116674274 heartbeat IPC: 0.608756 cumulative IPC: 0.759416 (Simulation time: 0 hr 28 min 32 sec) 
Heartbeat CPU 0 instructions: 96000000 cycles: 118279899 heartbeat IPC: 0.622809 cumulative IPC: 0.757484 (Simulation time: 0 hr 28 min 50 sec) 
Heartbeat CPU 0 instructions: 97000000 cycles: 119712280 heartbeat IPC: 0.698138 cumulative IPC: 0.756745 (Simulation time: 0 hr 29 min 8 sec) 
Heartbeat CPU 0 instructions: 98000000 cycles: 120996574 heartbeat IPC: 0.778638 cumulative IPC: 0.756987 (Simulation time: 0 hr 29 min 27 sec) 
Heartbeat CPU 0 instructions: 99000003 cycles: 122264488 heartbeat IPC: 0.788699 cumulative IPC: 0.757329 (Simulation time: 0 hr 29 min 48 sec) 
Heartbeat CPU 0 instructions: 100000000 cycles: 123814984 heartbeat IPC: 0.644953 cumulative IPC: 0.755865 (Simulation time: 0 hr 30 min 12 sec) 
Heartbeat CPU 0 instructions: 101000000 cycles: 125328987 heartbeat IPC: 0.660501 cumulative IPC: 0.754668 (Simulation time: 0 hr 30 min 32 sec) 
Heartbeat CPU 0 instructions: 102000001 cycles: 127035577 heartbeat IPC: 0.585964 cumulative IPC: 0.752314 (Simulation time: 0 hr 30 min 51 sec) 
Heartbeat CPU 0 instructions: 103000002 cycles: 128551124 heartbeat IPC: 0.659828 cumulative IPC: 0.751182 (Simulation time: 0 hr 31 min 13 sec) 
Heartbeat CPU 0 instructions: 104000000 cycles: 130288591 heartbeat IPC: 0.575549 cumulative IPC: 0.748751 (Simulation time: 0 hr 31 min 30 sec) 
Heartbeat CPU 0 instructions: 105000002 cycles: 131302678 heartbeat IPC: 0.986111 cumulative IPC: 0.750653 (Simulation time: 0 hr 31 min 46 sec) 
Heartbeat CPU 0 instructions: 106000000 cycles: 132881684 heartbeat IPC: 0.633309 cumulative IPC: 0.749207 (Simulation time: 0 hr 32 min 4 sec) 
Heartbeat CPU 0 instructions: 107000002 cycles: 134467587 heartbeat IPC: 0.630557 cumulative IPC: 0.747756 (Simulation time: 0 hr 32 min 23 sec) 
Heartbeat CPU 0 instructions: 108000000 cycles: 136055203 heartbeat IPC: 0.629874 cumulative IPC: 0.746331 (Simulation time: 0 hr 32 min 53 sec) 
Heartbeat CPU 0 instructions: 109000002 cycles: 137775021 heartbeat IPC: 0.581458 cumulative IPC: 0.7442 (Simulation time: 0 hr 33 min 12 sec) 
Heartbeat CPU 0 instructions: 110000000 cycles: 139015059 heartbeat IPC: 0.806425 cumulative IPC: 0.744774 (Simulation time: 0 hr 33 min 29 sec) 
Finished CPU 0 instructions: 100000003 cycles: 134268888 cummulative IPC: 0.744774 (Simulation time: 0 hr 33 min 29 sec) 

ChampSim completed all CPUs

Region of Interest Statistics

CPU 0 cummulative IPC: 0.744774 instructions: 100000003 cycles: 134268888
LLC TOTAL     ACCESS:    1134860  HIT:    1000585  MISS:     134275
LLC LOAD      ACCESS:     519852  HIT:     455672  MISS:      64180
LLC RFO       ACCESS:     292431  HIT:     222336  MISS:      70095
LLC PREFETCH  ACCESS:          0  HIT:          0  MISS:          0
LLC WRITEBACK ACCESS:     322577  HIT:     322577  MISS:          0
