
*** ChampSim Multicore Out-of-Order Simulator ***

Warmup Instructions: 10000000
Simulation Instructions: 100000000
Configuration: 1
Number of CPUs: 1
LLC sets: 2048
LLC ways: 16
Off-chip DRAM Channels: 1 Width: 64-bit Data Rate: 1600 MT/s

CPU 0 runs /datasets/cs240c-wi22-a00-public/data/Assignment2-gz/perlbench_53B.trace.gz
Initialize LRU replacement state
Heartbeat CPU 0 instructions: 1000000 cycles: 617122 heartbeat IPC: 1.62043 cumulative IPC: 1.62043 (Simulation time: 0 hr 0 min 28 sec) 
Heartbeat CPU 0 instructions: 2000001 cycles: 1255808 heartbeat IPC: 1.56572 cumulative IPC: 1.5926 (Simulation time: 0 hr 0 min 54 sec) 
Heartbeat CPU 0 instructions: 3000002 cycles: 1912368 heartbeat IPC: 1.52309 cumulative IPC: 1.56874 (Simulation time: 0 hr 1 min 21 sec) 
Heartbeat CPU 0 instructions: 4000000 cycles: 2528843 heartbeat IPC: 1.62212 cumulative IPC: 1.58175 (Simulation time: 0 hr 1 min 45 sec) 
Heartbeat CPU 0 instructions: 5000001 cycles: 3158592 heartbeat IPC: 1.58794 cumulative IPC: 1.58298 (Simulation time: 0 hr 2 min 9 sec) 
Heartbeat CPU 0 instructions: 6000001 cycles: 3775086 heartbeat IPC: 1.62208 cumulative IPC: 1.58937 (Simulation time: 0 hr 2 min 34 sec) 
Heartbeat CPU 0 instructions: 7000002 cycles: 4399639 heartbeat IPC: 1.60115 cumulative IPC: 1.59104 (Simulation time: 0 hr 3 min 2 sec) 
Heartbeat CPU 0 instructions: 8000000 cycles: 5010281 heartbeat IPC: 1.63762 cumulative IPC: 1.59672 (Simulation time: 0 hr 3 min 26 sec) 
Heartbeat CPU 0 instructions: 9000000 cycles: 5663531 heartbeat IPC: 1.53081 cumulative IPC: 1.58911 (Simulation time: 0 hr 3 min 52 sec) 
Heartbeat CPU 0 instructions: 10000001 cycles: 6298896 heartbeat IPC: 1.5739 cumulative IPC: 1.58758 (Simulation time: 0 hr 4 min 15 sec) 

Warmup complete CPU 0 instructions: 10000001 cycles: 6298896 (Simulation time: 0 hr 4 min 15 sec) 

Heartbeat CPU 0 instructions: 11000000 cycles: 9192861 heartbeat IPC: 0.345546 cumulative IPC: 0.345546 (Simulation time: 0 hr 4 min 43 sec) 
Heartbeat CPU 0 instructions: 12000000 cycles: 12089395 heartbeat IPC: 0.34524 cumulative IPC: 0.345393 (Simulation time: 0 hr 5 min 11 sec) 
Heartbeat CPU 0 instructions: 13000000 cycles: 14457078 heartbeat IPC: 0.422354 cumulative IPC: 0.367729 (Simulation time: 0 hr 5 min 42 sec) 
Heartbeat CPU 0 instructions: 14000000 cycles: 16996974 heartbeat IPC: 0.393717 cumulative IPC: 0.373899 (Simulation time: 0 hr 6 min 12 sec) 
Heartbeat CPU 0 instructions: 15000001 cycles: 19794924 heartbeat IPC: 0.357405 cumulative IPC: 0.370479 (Simulation time: 0 hr 6 min 43 sec) 
Heartbeat CPU 0 instructions: 16000000 cycles: 22464083 heartbeat IPC: 0.374649 cumulative IPC: 0.371168 (Simulation time: 0 hr 7 min 14 sec) 
Heartbeat CPU 0 instructions: 17000001 cycles: 25170960 heartbeat IPC: 0.36943 cumulative IPC: 0.370919 (Simulation time: 0 hr 7 min 51 sec) 
Heartbeat CPU 0 instructions: 18000002 cycles: 28043023 heartbeat IPC: 0.348182 cumulative IPC: 0.367915 (Simulation time: 0 hr 8 min 21 sec) 
Heartbeat CPU 0 instructions: 19000000 cycles: 30912545 heartbeat IPC: 0.348489 cumulative IPC: 0.365651 (Simulation time: 0 hr 8 min 54 sec) 
Heartbeat CPU 0 instructions: 20000000 cycles: 33804239 heartbeat IPC: 0.345818 cumulative IPC: 0.363566 (Simulation time: 0 hr 9 min 24 sec) 
Heartbeat CPU 0 instructions: 21000000 cycles: 36184946 heartbeat IPC: 0.420043 cumulative IPC: 0.368065 (Simulation time: 0 hr 9 min 52 sec) 
Heartbeat CPU 0 instructions: 22000000 cycles: 38270920 heartbeat IPC: 0.479392 cumulative IPC: 0.375328 (Simulation time: 0 hr 10 min 17 sec) 
Heartbeat CPU 0 instructions: 23000001 cycles: 40211084 heartbeat IPC: 0.515421 cumulative IPC: 0.383343 (Simulation time: 0 hr 10 min 48 sec) 
Heartbeat CPU 0 instructions: 24000000 cycles: 42622115 heartbeat IPC: 0.41476 cumulative IPC: 0.385428 (Simulation time: 0 hr 11 min 20 sec) 
Heartbeat CPU 0 instructions: 25000000 cycles: 44635577 heartbeat IPC: 0.496657 cumulative IPC: 0.39127 (Simulation time: 0 hr 11 min 48 sec) 
Heartbeat CPU 0 instructions: 26000001 cycles: 46619750 heartbeat IPC: 0.503989 cumulative IPC: 0.396817 (Simulation time: 0 hr 12 min 12 sec) 
Heartbeat CPU 0 instructions: 27000002 cycles: 48917304 heartbeat IPC: 0.435246 cumulative IPC: 0.398889 (Simulation time: 0 hr 12 min 40 sec) 
Heartbeat CPU 0 instructions: 28000000 cycles: 51525295 heartbeat IPC: 0.383436 cumulative IPC: 0.397998 (Simulation time: 0 hr 13 min 8 sec) 
Heartbeat CPU 0 instructions: 29000000 cycles: 53852447 heartbeat IPC: 0.42971 cumulative IPC: 0.39955 (Simulation time: 0 hr 13 min 37 sec) 
Heartbeat CPU 0 instructions: 30000000 cycles: 55900772 heartbeat IPC: 0.488204 cumulative IPC: 0.403211 (Simulation time: 0 hr 14 min 3 sec) 
Heartbeat CPU 0 instructions: 31000001 cycles: 57888597 heartbeat IPC: 0.503063 cumulative IPC: 0.407058 (Simulation time: 0 hr 14 min 26 sec) 
Heartbeat CPU 0 instructions: 32000000 cycles: 59884997 heartbeat IPC: 0.500901 cumulative IPC: 0.410554 (Simulation time: 0 hr 14 min 50 sec) 
Heartbeat CPU 0 instructions: 33000003 cycles: 62383421 heartbeat IPC: 0.400254 cumulative IPC: 0.410095 (Simulation time: 0 hr 15 min 15 sec) 
Heartbeat CPU 0 instructions: 34000003 cycles: 65114889 heartbeat IPC: 0.366104 cumulative IPC: 0.408052 (Simulation time: 0 hr 15 min 41 sec) 
Heartbeat CPU 0 instructions: 35000000 cycles: 67694715 heartbeat IPC: 0.387622 cumulative IPC: 0.407194 (Simulation time: 0 hr 16 min 10 sec) 
Heartbeat CPU 0 instructions: 36000000 cycles: 70507067 heartbeat IPC: 0.355574 cumulative IPC: 0.404933 (Simulation time: 0 hr 16 min 39 sec) 
Heartbeat CPU 0 instructions: 37000002 cycles: 73406050 heartbeat IPC: 0.344949 cumulative IPC: 0.402342 (Simulation time: 0 hr 17 min 6 sec) 
Heartbeat CPU 0 instructions: 38000000 cycles: 76321352 heartbeat IPC: 0.343017 cumulative IPC: 0.399872 (Simulation time: 0 hr 17 min 36 sec) 
Heartbeat CPU 0 instructions: 39000001 cycles: 79046372 heartbeat IPC: 0.36697 cumulative IPC: 0.398639 (Simulation time: 0 hr 18 min 9 sec) 
Heartbeat CPU 0 instructions: 40000000 cycles: 81689477 heartbeat IPC: 0.378343 cumulative IPC: 0.397928 (Simulation time: 0 hr 18 min 39 sec) 
Heartbeat CPU 0 instructions: 41000002 cycles: 84616919 heartbeat IPC: 0.341596 cumulative IPC: 0.395822 (Simulation time: 0 hr 19 min 6 sec) 
Heartbeat CPU 0 instructions: 42000000 cycles: 87223054 heartbeat IPC: 0.383709 cumulative IPC: 0.395432 (Simulation time: 0 hr 19 min 33 sec) 
Heartbeat CPU 0 instructions: 43000002 cycles: 90102957 heartbeat IPC: 0.347235 cumulative IPC: 0.393776 (Simulation time: 0 hr 19 min 59 sec) 
Heartbeat CPU 0 instructions: 44000000 cycles: 92804029 heartbeat IPC: 0.370223 cumulative IPC: 0.39304 (Simulation time: 0 hr 20 min 28 sec) 
Heartbeat CPU 0 instructions: 45000001 cycles: 94273838 heartbeat IPC: 0.680361 cumulative IPC: 0.397841 (Simulation time: 0 hr 20 min 50 sec) 
Heartbeat CPU 0 instructions: 46000000 cycles: 96308505 heartbeat IPC: 0.49148 cumulative IPC: 0.399957 (Simulation time: 0 hr 21 min 13 sec) 
Heartbeat CPU 0 instructions: 47000002 cycles: 98224044 heartbeat IPC: 0.522047 cumulative IPC: 0.402501 (Simulation time: 0 hr 21 min 36 sec) 
Heartbeat CPU 0 instructions: 48000000 cycles: 100144438 heartbeat IPC: 0.520725 cumulative IPC: 0.404921 (Simulation time: 0 hr 21 min 58 sec) 
Heartbeat CPU 0 instructions: 49000000 cycles: 102517325 heartbeat IPC: 0.421428 cumulative IPC: 0.405328 (Simulation time: 0 hr 22 min 29 sec) 
Heartbeat CPU 0 instructions: 50000002 cycles: 104387777 heartbeat IPC: 0.534631 cumulative IPC: 0.407793 (Simulation time: 0 hr 22 min 56 sec) 
Heartbeat CPU 0 instructions: 51000000 cycles: 106318970 heartbeat IPC: 0.517814 cumulative IPC: 0.409918 (Simulation time: 0 hr 23 min 28 sec) 
Heartbeat CPU 0 instructions: 52000000 cycles: 108233924 heartbeat IPC: 0.522206 cumulative IPC: 0.412027 (Simulation time: 0 hr 23 min 51 sec) 
Heartbeat CPU 0 instructions: 53000002 cycles: 110186380 heartbeat IPC: 0.512176 cumulative IPC: 0.413909 (Simulation time: 0 hr 24 min 14 sec) 
Heartbeat CPU 0 instructions: 54000000 cycles: 113121071 heartbeat IPC: 0.340751 cumulative IPC: 0.411899 (Simulation time: 0 hr 24 min 40 sec) 
Heartbeat CPU 0 instructions: 55000000 cycles: 115627405 heartbeat IPC: 0.398989 cumulative IPC: 0.411604 (Simulation time: 0 hr 25 min 7 sec) 
Heartbeat CPU 0 instructions: 56000000 cycles: 118453757 heartbeat IPC: 0.353813 cumulative IPC: 0.410147 (Simulation time: 0 hr 25 min 34 sec) 
Heartbeat CPU 0 instructions: 57000001 cycles: 121518360 heartbeat IPC: 0.326307 cumulative IPC: 0.407917 (Simulation time: 0 hr 26 min 1 sec) 
Heartbeat CPU 0 instructions: 58000003 cycles: 124502850 heartbeat IPC: 0.335066 cumulative IPC: 0.406078 (Simulation time: 0 hr 26 min 35 sec) 
Heartbeat CPU 0 instructions: 59000002 cycles: 127455531 heartbeat IPC: 0.338675 cumulative IPC: 0.404435 (Simulation time: 0 hr 27 min 7 sec) 
Heartbeat CPU 0 instructions: 60000000 cycles: 130288246 heartbeat IPC: 0.353018 cumulative IPC: 0.40326 (Simulation time: 0 hr 27 min 35 sec) 
Heartbeat CPU 0 instructions: 61000002 cycles: 132931627 heartbeat IPC: 0.378304 cumulative IPC: 0.402739 (Simulation time: 0 hr 28 min 3 sec) 
Heartbeat CPU 0 instructions: 62000002 cycles: 135631136 heartbeat IPC: 0.370438 cumulative IPC: 0.402065 (Simulation time: 0 hr 28 min 29 sec) 
Heartbeat CPU 0 instructions: 63000001 cycles: 138311405 heartbeat IPC: 0.373096 cumulative IPC: 0.401477 (Simulation time: 0 hr 28 min 55 sec) 
Heartbeat CPU 0 instructions: 64000000 cycles: 140981333 heartbeat IPC: 0.374542 cumulative IPC: 0.400943 (Simulation time: 0 hr 29 min 22 sec) 
Heartbeat CPU 0 instructions: 65000003 cycles: 143632575 heartbeat IPC: 0.377183 cumulative IPC: 0.400484 (Simulation time: 0 hr 29 min 48 sec) 
Heartbeat CPU 0 instructions: 66000001 cycles: 146272961 heartbeat IPC: 0.378732 cumulative IPC: 0.400074 (Simulation time: 0 hr 30 min 13 sec) 
Heartbeat CPU 0 instructions: 67000001 cycles: 148904399 heartbeat IPC: 0.38002 cumulative IPC: 0.399704 (Simulation time: 0 hr 30 min 39 sec) 
Heartbeat CPU 0 instructions: 68000000 cycles: 151582098 heartbeat IPC: 0.373455 cumulative IPC: 0.39922 (Simulation time: 0 hr 31 min 6 sec) 
Heartbeat CPU 0 instructions: 69000001 cycles: 154235853 heartbeat IPC: 0.376825 cumulative IPC: 0.398819 (Simulation time: 0 hr 31 min 32 sec) 
Heartbeat CPU 0 instructions: 70000001 cycles: 156861325 heartbeat IPC: 0.380884 cumulative IPC: 0.398506 (Simulation time: 0 hr 31 min 57 sec) 
Heartbeat CPU 0 instructions: 71000001 cycles: 159602465 heartbeat IPC: 0.364812 cumulative IPC: 0.397903 (Simulation time: 0 hr 32 min 24 sec) 
Heartbeat CPU 0 instructions: 72000000 cycles: 162228205 heartbeat IPC: 0.380845 cumulative IPC: 0.397616 (Simulation time: 0 hr 32 min 52 sec) 
Heartbeat CPU 0 instructions: 73000002 cycles: 164885826 heartbeat IPC: 0.376277 cumulative IPC: 0.397258 (Simulation time: 0 hr 33 min 17 sec) 
Heartbeat CPU 0 instructions: 74000001 cycles: 167579072 heartbeat IPC: 0.371299 cumulative IPC: 0.396825 (Simulation time: 0 hr 33 min 42 sec) 
Heartbeat CPU 0 instructions: 75000001 cycles: 170247322 heartbeat IPC: 0.374777 cumulative IPC: 0.396466 (Simulation time: 0 hr 34 min 5 sec) 
Heartbeat CPU 0 instructions: 76000000 cycles: 172901621 heartbeat IPC: 0.376747 cumulative IPC: 0.396152 (Simulation time: 0 hr 34 min 32 sec) 
Heartbeat CPU 0 instructions: 77000002 cycles: 175584551 heartbeat IPC: 0.372728 cumulative IPC: 0.395781 (Simulation time: 0 hr 34 min 56 sec) 
Heartbeat CPU 0 instructions: 78000000 cycles: 178250398 heartbeat IPC: 0.375115 cumulative IPC: 0.39546 (Simulation time: 0 hr 35 min 19 sec) 
Heartbeat CPU 0 instructions: 79000002 cycles: 180922799 heartbeat IPC: 0.374196 cumulative IPC: 0.395135 (Simulation time: 0 hr 35 min 42 sec) 
Heartbeat CPU 0 instructions: 80000000 cycles: 183568768 heartbeat IPC: 0.377933 cumulative IPC: 0.394878 (Simulation time: 0 hr 36 min 3 sec) 
Heartbeat CPU 0 instructions: 81000000 cycles: 186192752 heartbeat IPC: 0.3811 cumulative IPC: 0.394677 (Simulation time: 0 hr 36 min 24 sec) 
Heartbeat CPU 0 instructions: 82000003 cycles: 188876002 heartbeat IPC: 0.372683 cumulative IPC: 0.394354 (Simulation time: 0 hr 36 min 44 sec) 
Heartbeat CPU 0 instructions: 83000000 cycles: 191535512 heartbeat IPC: 0.376008 cumulative IPC: 0.394091 (Simulation time: 0 hr 37 min 4 sec) 
Heartbeat CPU 0 instructions: 84000000 cycles: 194204578 heartbeat IPC: 0.374663 cumulative IPC: 0.393815 (Simulation time: 0 hr 37 min 25 sec) 
Heartbeat CPU 0 instructions: 85000002 cycles: 196897825 heartbeat IPC: 0.3713 cumulative IPC: 0.393496 (Simulation time: 0 hr 37 min 46 sec) 
Heartbeat CPU 0 instructions: 86000000 cycles: 199381473 heartbeat IPC: 0.402633 cumulative IPC: 0.393614 (Simulation time: 0 hr 38 min 7 sec) 
Heartbeat CPU 0 instructions: 87000000 cycles: 201549379 heartbeat IPC: 0.461275 cumulative IPC: 0.394365 (Simulation time: 0 hr 38 min 25 sec) 
Heartbeat CPU 0 instructions: 88000000 cycles: 203547611 heartbeat IPC: 0.500442 cumulative IPC: 0.39544 (Simulation time: 0 hr 38 min 42 sec) 
Heartbeat CPU 0 instructions: 89000001 cycles: 205632171 heartbeat IPC: 0.479718 cumulative IPC: 0.396321 (Simulation time: 0 hr 38 min 58 sec) 
Heartbeat CPU 0 instructions: 90000000 cycles: 208362682 heartbeat IPC: 0.366231 cumulative IPC: 0.395915 (Simulation time: 0 hr 39 min 18 sec) 
Heartbeat CPU 0 instructions: 91000001 cycles: 211138913 heartbeat IPC: 0.360201 cumulative IPC: 0.395431 (Simulation time: 0 hr 39 min 39 sec) 
Heartbeat CPU 0 instructions: 92000000 cycles: 213842897 heartbeat IPC: 0.369824 cumulative IPC: 0.395097 (Simulation time: 0 hr 39 min 55 sec) 
Heartbeat CPU 0 instructions: 93000000 cycles: 216505202 heartbeat IPC: 0.375614 cumulative IPC: 0.39485 (Simulation time: 0 hr 40 min 12 sec) 
Heartbeat CPU 0 instructions: 94000002 cycles: 219166787 heartbeat IPC: 0.375717 cumulative IPC: 0.394611 (Simulation time: 0 hr 40 min 29 sec) 
Heartbeat CPU 0 instructions: 95000000 cycles: 221796788 heartbeat IPC: 0.380227 cumulative IPC: 0.394435 (Simulation time: 0 hr 40 min 44 sec) 
Heartbeat CPU 0 instructions: 96000000 cycles: 224475066 heartbeat IPC: 0.373374 cumulative IPC: 0.394177 (Simulation time: 0 hr 41 min 0 sec) 
Heartbeat CPU 0 instructions: 97000000 cycles: 227128028 heartbeat IPC: 0.376937 cumulative IPC: 0.39397 (Simulation time: 0 hr 41 min 14 sec) 
Heartbeat CPU 0 instructions: 98000000 cycles: 229764743 heartbeat IPC: 0.37926 cumulative IPC: 0.393796 (Simulation time: 0 hr 41 min 30 sec) 
Heartbeat CPU 0 instructions: 99000002 cycles: 232385624 heartbeat IPC: 0.381552 cumulative IPC: 0.393654 (Simulation time: 0 hr 41 min 44 sec) 
Heartbeat CPU 0 instructions: 100000000 cycles: 235021114 heartbeat IPC: 0.379435 cumulative IPC: 0.39349 (Simulation time: 0 hr 41 min 58 sec) 
Heartbeat CPU 0 instructions: 101000002 cycles: 237689121 heartbeat IPC: 0.374812 cumulative IPC: 0.393275 (Simulation time: 0 hr 42 min 13 sec) 
Heartbeat CPU 0 instructions: 102000000 cycles: 240333775 heartbeat IPC: 0.378121 cumulative IPC: 0.393104 (Simulation time: 0 hr 42 min 26 sec) 
Heartbeat CPU 0 instructions: 103000000 cycles: 242974947 heartbeat IPC: 0.37862 cumulative IPC: 0.392942 (Simulation time: 0 hr 42 min 39 sec) 
Heartbeat CPU 0 instructions: 104000000 cycles: 245632969 heartbeat IPC: 0.37622 cumulative IPC: 0.392756 (Simulation time: 0 hr 42 min 53 sec) 
Heartbeat CPU 0 instructions: 105000003 cycles: 247813371 heartbeat IPC: 0.458632 cumulative IPC: 0.393351 (Simulation time: 0 hr 43 min 4 sec) 
Heartbeat CPU 0 instructions: 106000000 cycles: 249791934 heartbeat IPC: 0.505416 cumulative IPC: 0.394262 (Simulation time: 0 hr 43 min 13 sec) 
Heartbeat CPU 0 instructions: 107000003 cycles: 251768699 heartbeat IPC: 0.505879 cumulative IPC: 0.395161 (Simulation time: 0 hr 43 min 23 sec) 
Heartbeat CPU 0 instructions: 108000000 cycles: 254608173 heartbeat IPC: 0.352177 cumulative IPC: 0.394669 (Simulation time: 0 hr 43 min 32 sec) 
Heartbeat CPU 0 instructions: 109000001 cycles: 257322071 heartbeat IPC: 0.368474 cumulative IPC: 0.394386 (Simulation time: 0 hr 43 min 41 sec) 
Heartbeat CPU 0 instructions: 110000000 cycles: 259893757 heartbeat IPC: 0.38885 cumulative IPC: 0.39433 (Simulation time: 0 hr 43 min 49 sec) 
Finished CPU 0 instructions: 100000000 cycles: 253594862 cummulative IPC: 0.39433 (Simulation time: 0 hr 43 min 49 sec) 

ChampSim completed all CPUs

Region of Interest Statistics

CPU 0 cummulative IPC: 0.39433 instructions: 100000000 cycles: 253594862
LLC TOTAL     ACCESS:     411671  HIT:     390078  MISS:      21593
LLC LOAD      ACCESS:     296216  HIT:     279872  MISS:      16344
LLC RFO       ACCESS:      32929  HIT:      27682  MISS:       5247
LLC PREFETCH  ACCESS:          0  HIT:          0  MISS:          0
LLC WRITEBACK ACCESS:      82526  HIT:      82524  MISS:          2
