
*** ChampSim Multicore Out-of-Order Simulator ***

Warmup Instructions: 10000000
Simulation Instructions: 100000000
Configuration: 1
Number of CPUs: 1
LLC sets: 2048
LLC ways: 16
Off-chip DRAM Channels: 1 Width: 64-bit Data Rate: 1600 MT/s

CPU 0 runs /datasets/cs240c-wi22-a00-public/data/Assignment2-gz/mcf_46B.trace.gz
Initialize LRU replacement state
Heartbeat CPU 0 instructions: 1000002 cycles: 482161 heartbeat IPC: 2.074 cumulative IPC: 2.074 (Simulation time: 0 hr 0 min 22 sec) 
Heartbeat CPU 0 instructions: 2000002 cycles: 967606 heartbeat IPC: 2.05997 cumulative IPC: 2.06696 (Simulation time: 0 hr 0 min 43 sec) 
Heartbeat CPU 0 instructions: 3000000 cycles: 1485298 heartbeat IPC: 1.93165 cumulative IPC: 2.0198 (Simulation time: 0 hr 1 min 5 sec) 
Heartbeat CPU 0 instructions: 4000000 cycles: 1996484 heartbeat IPC: 1.95624 cumulative IPC: 2.00352 (Simulation time: 0 hr 1 min 27 sec) 
Heartbeat CPU 0 instructions: 5000000 cycles: 2479336 heartbeat IPC: 2.07103 cumulative IPC: 2.01667 (Simulation time: 0 hr 1 min 49 sec) 
Heartbeat CPU 0 instructions: 6000003 cycles: 2974325 heartbeat IPC: 2.02025 cumulative IPC: 2.01727 (Simulation time: 0 hr 2 min 11 sec) 
Heartbeat CPU 0 instructions: 7000001 cycles: 3509685 heartbeat IPC: 1.8679 cumulative IPC: 1.99448 (Simulation time: 0 hr 2 min 33 sec) 
Heartbeat CPU 0 instructions: 8000000 cycles: 3989659 heartbeat IPC: 2.08344 cumulative IPC: 2.00518 (Simulation time: 0 hr 2 min 54 sec) 
Heartbeat CPU 0 instructions: 9000001 cycles: 4463042 heartbeat IPC: 2.11246 cumulative IPC: 2.01656 (Simulation time: 0 hr 3 min 16 sec) 
Heartbeat CPU 0 instructions: 10000001 cycles: 4990964 heartbeat IPC: 1.89422 cumulative IPC: 2.00362 (Simulation time: 0 hr 3 min 38 sec) 

Warmup complete CPU 0 instructions: 10000001 cycles: 4990964 (Simulation time: 0 hr 3 min 38 sec) 

Heartbeat CPU 0 instructions: 11000002 cycles: 19598053 heartbeat IPC: 0.06846 cumulative IPC: 0.06846 (Simulation time: 0 hr 4 min 24 sec) 
Heartbeat CPU 0 instructions: 12000000 cycles: 25193901 heartbeat IPC: 0.178704 cumulative IPC: 0.0989955 (Simulation time: 0 hr 4 min 55 sec) 
Heartbeat CPU 0 instructions: 13000000 cycles: 33830370 heartbeat IPC: 0.115788 cumulative IPC: 0.104024 (Simulation time: 0 hr 5 min 30 sec) 
Heartbeat CPU 0 instructions: 14000003 cycles: 50878436 heartbeat IPC: 0.0586579 cumulative IPC: 0.0871698 (Simulation time: 0 hr 6 min 20 sec) 
Heartbeat CPU 0 instructions: 15000000 cycles: 56407273 heartbeat IPC: 0.180869 cumulative IPC: 0.0972454 (Simulation time: 0 hr 6 min 52 sec) 
Heartbeat CPU 0 instructions: 16000000 cycles: 61460724 heartbeat IPC: 0.197885 cumulative IPC: 0.106252 (Simulation time: 0 hr 7 min 24 sec) 
Heartbeat CPU 0 instructions: 17000002 cycles: 78606526 heartbeat IPC: 0.0583234 cumulative IPC: 0.0950886 (Simulation time: 0 hr 8 min 21 sec) 
Heartbeat CPU 0 instructions: 18000000 cycles: 85257508 heartbeat IPC: 0.150353 cumulative IPC: 0.0996679 (Simulation time: 0 hr 8 min 55 sec) 
Heartbeat CPU 0 instructions: 19000002 cycles: 91243049 heartbeat IPC: 0.16707 cumulative IPC: 0.104345 (Simulation time: 0 hr 9 min 26 sec) 
Heartbeat CPU 0 instructions: 20000000 cycles: 108228150 heartbeat IPC: 0.058875 cumulative IPC: 0.0968643 (Simulation time: 0 hr 10 min 20 sec) 
Heartbeat CPU 0 instructions: 21000001 cycles: 125876407 heartbeat IPC: 0.0566629 cumulative IPC: 0.0909952 (Simulation time: 0 hr 11 min 15 sec) 
Heartbeat CPU 0 instructions: 22000002 cycles: 131450537 heartbeat IPC: 0.1794 cumulative IPC: 0.094892 (Simulation time: 0 hr 11 min 45 sec) 
Heartbeat CPU 0 instructions: 23000001 cycles: 136580612 heartbeat IPC: 0.194929 cumulative IPC: 0.098792 (Simulation time: 0 hr 12 min 15 sec) 
Heartbeat CPU 0 instructions: 24000000 cycles: 151230840 heartbeat IPC: 0.0682583 cumulative IPC: 0.0957331 (Simulation time: 0 hr 13 min 3 sec) 
Heartbeat CPU 0 instructions: 25000002 cycles: 160386188 heartbeat IPC: 0.109226 cumulative IPC: 0.0965281 (Simulation time: 0 hr 13 min 42 sec) 
Heartbeat CPU 0 instructions: 26000001 cycles: 165504911 heartbeat IPC: 0.195361 cumulative IPC: 0.0996798 (Simulation time: 0 hr 14 min 14 sec) 
Heartbeat CPU 0 instructions: 27000000 cycles: 176644862 heartbeat IPC: 0.0897669 cumulative IPC: 0.0990365 (Simulation time: 0 hr 14 min 57 sec) 
Heartbeat CPU 0 instructions: 28000000 cycles: 189735179 heartbeat IPC: 0.0763923 cumulative IPC: 0.097432 (Simulation time: 0 hr 15 min 44 sec) 
Heartbeat CPU 0 instructions: 29000001 cycles: 195461990 heartbeat IPC: 0.174617 cumulative IPC: 0.0997527 (Simulation time: 0 hr 16 min 16 sec) 
Heartbeat CPU 0 instructions: 30000000 cycles: 204031614 heartbeat IPC: 0.116691 cumulative IPC: 0.100482 (Simulation time: 0 hr 16 min 53 sec) 
Heartbeat CPU 0 instructions: 31000001 cycles: 219686204 heartbeat IPC: 0.0638791 cumulative IPC: 0.0978131 (Simulation time: 0 hr 17 min 42 sec) 
Heartbeat CPU 0 instructions: 32000000 cycles: 225440409 heartbeat IPC: 0.173786 cumulative IPC: 0.0997961 (Simulation time: 0 hr 18 min 13 sec) 
Heartbeat CPU 0 instructions: 33000000 cycles: 233349732 heartbeat IPC: 0.126433 cumulative IPC: 0.100719 (Simulation time: 0 hr 18 min 47 sec) 
Heartbeat CPU 0 instructions: 34000000 cycles: 250213972 heartbeat IPC: 0.0592971 cumulative IPC: 0.0978701 (Simulation time: 0 hr 19 min 38 sec) 
Heartbeat CPU 0 instructions: 35000000 cycles: 257807891 heartbeat IPC: 0.131684 cumulative IPC: 0.0988858 (Simulation time: 0 hr 20 min 13 sec) 
Heartbeat CPU 0 instructions: 36000000 cycles: 265879083 heartbeat IPC: 0.123897 cumulative IPC: 0.0996596 (Simulation time: 0 hr 20 min 47 sec) 
Heartbeat CPU 0 instructions: 37000002 cycles: 277660069 heartbeat IPC: 0.0848827 cumulative IPC: 0.0990211 (Simulation time: 0 hr 21 min 30 sec) 
Heartbeat CPU 0 instructions: 38000001 cycles: 290280511 heartbeat IPC: 0.0792364 cumulative IPC: 0.0981459 (Simulation time: 0 hr 22 min 13 sec) 
Heartbeat CPU 0 instructions: 39000000 cycles: 295877261 heartbeat IPC: 0.178675 cumulative IPC: 0.0996953 (Simulation time: 0 hr 22 min 42 sec) 
Heartbeat CPU 0 instructions: 40000000 cycles: 303126702 heartbeat IPC: 0.137942 cumulative IPC: 0.100625 (Simulation time: 0 hr 23 min 14 sec) 
Heartbeat CPU 0 instructions: 41000000 cycles: 319843617 heartbeat IPC: 0.0598196 cumulative IPC: 0.0984588 (Simulation time: 0 hr 24 min 6 sec) 
Heartbeat CPU 0 instructions: 42000001 cycles: 326253296 heartbeat IPC: 0.156014 cumulative IPC: 0.0996071 (Simulation time: 0 hr 24 min 39 sec) 
Heartbeat CPU 0 instructions: 43000000 cycles: 331761184 heartbeat IPC: 0.181558 cumulative IPC: 0.100988 (Simulation time: 0 hr 25 min 8 sec) 
Heartbeat CPU 0 instructions: 44000000 cycles: 347018998 heartbeat IPC: 0.0655402 cumulative IPC: 0.0994071 (Simulation time: 0 hr 25 min 57 sec) 
Heartbeat CPU 0 instructions: 45000001 cycles: 356069216 heartbeat IPC: 0.110495 cumulative IPC: 0.0996929 (Simulation time: 0 hr 26 min 34 sec) 
Heartbeat CPU 0 instructions: 46000001 cycles: 361688210 heartbeat IPC: 0.177968 cumulative IPC: 0.100926 (Simulation time: 0 hr 27 min 3 sec) 
Heartbeat CPU 0 instructions: 47000002 cycles: 372735803 heartbeat IPC: 0.0905175 cumulative IPC: 0.100613 (Simulation time: 0 hr 27 min 42 sec) 
Heartbeat CPU 0 instructions: 48000000 cycles: 386170701 heartbeat IPC: 0.0744329 cumulative IPC: 0.0996905 (Simulation time: 0 hr 28 min 24 sec) 
Heartbeat CPU 0 instructions: 49000000 cycles: 392231630 heartbeat IPC: 0.164991 cumulative IPC: 0.100713 (Simulation time: 0 hr 28 min 56 sec) 
Heartbeat CPU 0 instructions: 50000001 cycles: 399860330 heartbeat IPC: 0.131084 cumulative IPC: 0.101299 (Simulation time: 0 hr 29 min 32 sec) 
Heartbeat CPU 0 instructions: 51000001 cycles: 416466782 heartbeat IPC: 0.0602176 cumulative IPC: 0.0996413 (Simulation time: 0 hr 30 min 21 sec) 
Heartbeat CPU 0 instructions: 52000000 cycles: 422538027 heartbeat IPC: 0.164711 cumulative IPC: 0.100587 (Simulation time: 0 hr 30 min 53 sec) 
Heartbeat CPU 0 instructions: 53000000 cycles: 428138156 heartbeat IPC: 0.178567 cumulative IPC: 0.101619 (Simulation time: 0 hr 31 min 22 sec) 
Heartbeat CPU 0 instructions: 54000002 cycles: 445665754 heartbeat IPC: 0.057053 cumulative IPC: 0.0998469 (Simulation time: 0 hr 32 min 12 sec) 
Heartbeat CPU 0 instructions: 55000002 cycles: 452384628 heartbeat IPC: 0.148834 cumulative IPC: 0.100583 (Simulation time: 0 hr 32 min 45 sec) 
Heartbeat CPU 0 instructions: 56000000 cycles: 458108421 heartbeat IPC: 0.174709 cumulative IPC: 0.101519 (Simulation time: 0 hr 33 min 13 sec) 
Heartbeat CPU 0 instructions: 57000000 cycles: 473385437 heartbeat IPC: 0.0654578 cumulative IPC: 0.100343 (Simulation time: 0 hr 33 min 58 sec) 
Heartbeat CPU 0 instructions: 58000000 cycles: 482443624 heartbeat IPC: 0.110397 cumulative IPC: 0.100534 (Simulation time: 0 hr 34 min 33 sec) 
Heartbeat CPU 0 instructions: 59000002 cycles: 488115917 heartbeat IPC: 0.176296 cumulative IPC: 0.101423 (Simulation time: 0 hr 34 min 59 sec) 
Heartbeat CPU 0 instructions: 60000000 cycles: 501627178 heartbeat IPC: 0.0740122 cumulative IPC: 0.100677 (Simulation time: 0 hr 35 min 38 sec) 
Heartbeat CPU 0 instructions: 61000000 cycles: 512822623 heartbeat IPC: 0.089322 cumulative IPC: 0.100427 (Simulation time: 0 hr 36 min 11 sec) 
Heartbeat CPU 0 instructions: 62000001 cycles: 518465847 heartbeat IPC: 0.177204 cumulative IPC: 0.101271 (Simulation time: 0 hr 36 min 35 sec) 
Heartbeat CPU 0 instructions: 63000001 cycles: 530250351 heartbeat IPC: 0.0848572 cumulative IPC: 0.100903 (Simulation time: 0 hr 37 min 6 sec) 
Heartbeat CPU 0 instructions: 64000000 cycles: 543576341 heartbeat IPC: 0.0750413 cumulative IPC: 0.100263 (Simulation time: 0 hr 37 min 39 sec) 
Heartbeat CPU 0 instructions: 65000000 cycles: 550094970 heartbeat IPC: 0.153406 cumulative IPC: 0.100898 (Simulation time: 0 hr 38 min 2 sec) 
Heartbeat CPU 0 instructions: 66000000 cycles: 558505659 heartbeat IPC: 0.118896 cumulative IPC: 0.101172 (Simulation time: 0 hr 38 min 27 sec) 
Heartbeat CPU 0 instructions: 67000001 cycles: 576398966 heartbeat IPC: 0.0558869 cumulative IPC: 0.0997536 (Simulation time: 0 hr 39 min 4 sec) 
Heartbeat CPU 0 instructions: 68000000 cycles: 582317244 heartbeat IPC: 0.168968 cumulative IPC: 0.100463 (Simulation time: 0 hr 39 min 26 sec) 
Heartbeat CPU 0 instructions: 69000000 cycles: 587719047 heartbeat IPC: 0.185123 cumulative IPC: 0.101248 (Simulation time: 0 hr 39 min 45 sec) 
Heartbeat CPU 0 instructions: 70000002 cycles: 603776583 heartbeat IPC: 0.0622762 cumulative IPC: 0.100203 (Simulation time: 0 hr 40 min 16 sec) 
Heartbeat CPU 0 instructions: 71000002 cycles: 614747747 heartbeat IPC: 0.091148 cumulative IPC: 0.10004 (Simulation time: 0 hr 40 min 40 sec) 
Heartbeat CPU 0 instructions: 72000000 cycles: 621189686 heartbeat IPC: 0.155232 cumulative IPC: 0.100617 (Simulation time: 0 hr 40 min 58 sec) 
Heartbeat CPU 0 instructions: 73000002 cycles: 631830167 heartbeat IPC: 0.0939809 cumulative IPC: 0.100504 (Simulation time: 0 hr 41 min 20 sec) 
Heartbeat CPU 0 instructions: 74000001 cycles: 645579497 heartbeat IPC: 0.0727307 cumulative IPC: 0.0999081 (Simulation time: 0 hr 41 min 48 sec) 
Heartbeat CPU 0 instructions: 75000001 cycles: 651563573 heartbeat IPC: 0.16711 cumulative IPC: 0.10053 (Simulation time: 0 hr 42 min 5 sec) 
Heartbeat CPU 0 instructions: 76000000 cycles: 658843555 heartbeat IPC: 0.137363 cumulative IPC: 0.10094 (Simulation time: 0 hr 42 min 22 sec) 
Heartbeat CPU 0 instructions: 77000001 cycles: 677885414 heartbeat IPC: 0.0525159 cumulative IPC: 0.0995698 (Simulation time: 0 hr 42 min 49 sec) 
Heartbeat CPU 0 instructions: 78000002 cycles: 684200452 heartbeat IPC: 0.158352 cumulative IPC: 0.100116 (Simulation time: 0 hr 43 min 3 sec) 
Heartbeat CPU 0 instructions: 79000001 cycles: 690002773 heartbeat IPC: 0.172345 cumulative IPC: 0.100728 (Simulation time: 0 hr 43 min 15 sec) 
Heartbeat CPU 0 instructions: 80000000 cycles: 705122775 heartbeat IPC: 0.0661375 cumulative IPC: 0.0999812 (Simulation time: 0 hr 43 min 33 sec) 
Heartbeat CPU 0 instructions: 81000000 cycles: 714084808 heartbeat IPC: 0.111582 cumulative IPC: 0.100128 (Simulation time: 0 hr 43 min 46 sec) 
Heartbeat CPU 0 instructions: 82000000 cycles: 720413431 heartbeat IPC: 0.158012 cumulative IPC: 0.10064 (Simulation time: 0 hr 43 min 54 sec) 
Heartbeat CPU 0 instructions: 83000001 cycles: 731923104 heartbeat IPC: 0.0868835 cumulative IPC: 0.100422 (Simulation time: 0 hr 44 min 3 sec) 
Heartbeat CPU 0 instructions: 84000000 cycles: 745156806 heartbeat IPC: 0.0755646 cumulative IPC: 0.0999776 (Simulation time: 0 hr 44 min 12 sec) 
Heartbeat CPU 0 instructions: 85000001 cycles: 750884919 heartbeat IPC: 0.174578 cumulative IPC: 0.10055 (Simulation time: 0 hr 44 min 17 sec) 
Heartbeat CPU 0 instructions: 86000000 cycles: 761794778 heartbeat IPC: 0.0916601 cumulative IPC: 0.100422 (Simulation time: 0 hr 44 min 23 sec) 
Heartbeat CPU 0 instructions: 87000000 cycles: 778495356 heartbeat IPC: 0.0598782 cumulative IPC: 0.0995469 (Simulation time: 0 hr 44 min 31 sec) 
Heartbeat CPU 0 instructions: 88000000 cycles: 786248536 heartbeat IPC: 0.128979 cumulative IPC: 0.099839 (Simulation time: 0 hr 44 min 36 sec) 
Heartbeat CPU 0 instructions: 89000000 cycles: 791909626 heartbeat IPC: 0.176644 cumulative IPC: 0.100392 (Simulation time: 0 hr 44 min 40 sec) 
Heartbeat CPU 0 instructions: 90000003 cycles: 805515013 heartbeat IPC: 0.0735005 cumulative IPC: 0.0999345 (Simulation time: 0 hr 44 min 46 sec) 
Heartbeat CPU 0 instructions: 91000000 cycles: 816135992 heartbeat IPC: 0.094153 cumulative IPC: 0.0998588 (Simulation time: 0 hr 44 min 51 sec) 
Heartbeat CPU 0 instructions: 92000000 cycles: 821749041 heartbeat IPC: 0.178156 cumulative IPC: 0.100397 (Simulation time: 0 hr 44 min 55 sec) 
Heartbeat CPU 0 instructions: 93000002 cycles: 832164356 heartbeat IPC: 0.0960127 cumulative IPC: 0.100342 (Simulation time: 0 hr 45 min 0 sec) 
Heartbeat CPU 0 instructions: 94000002 cycles: 845694776 heartbeat IPC: 0.0739075 cumulative IPC: 0.0999163 (Simulation time: 0 hr 45 min 6 sec) 
Heartbeat CPU 0 instructions: 95000001 cycles: 853306017 heartbeat IPC: 0.131384 cumulative IPC: 0.100199 (Simulation time: 0 hr 45 min 10 sec) 
Heartbeat CPU 0 instructions: 96000000 cycles: 860256183 heartbeat IPC: 0.143881 cumulative IPC: 0.100554 (Simulation time: 0 hr 45 min 14 sec) 
Heartbeat CPU 0 instructions: 97000000 cycles: 877463090 heartbeat IPC: 0.0581162 cumulative IPC: 0.0997166 (Simulation time: 0 hr 45 min 21 sec) 
Heartbeat CPU 0 instructions: 98000002 cycles: 883626461 heartbeat IPC: 0.162249 cumulative IPC: 0.100155 (Simulation time: 0 hr 45 min 25 sec) 
Heartbeat CPU 0 instructions: 99000002 cycles: 889666496 heartbeat IPC: 0.165562 cumulative IPC: 0.100602 (Simulation time: 0 hr 45 min 29 sec) 
Heartbeat CPU 0 instructions: 100000000 cycles: 905653500 heartbeat IPC: 0.0625507 cumulative IPC: 0.0999264 (Simulation time: 0 hr 45 min 36 sec) 
Heartbeat CPU 0 instructions: 101000000 cycles: 913924934 heartbeat IPC: 0.120898 cumulative IPC: 0.100117 (Simulation time: 0 hr 45 min 40 sec) 
Heartbeat CPU 0 instructions: 102000003 cycles: 919475059 heartbeat IPC: 0.180177 cumulative IPC: 0.100603 (Simulation time: 0 hr 45 min 44 sec) 
Heartbeat CPU 0 instructions: 103000003 cycles: 933215756 heartbeat IPC: 0.0727765 cumulative IPC: 0.100191 (Simulation time: 0 hr 45 min 50 sec) 
Heartbeat CPU 0 instructions: 104000000 cycles: 947786137 heartbeat IPC: 0.0686322 cumulative IPC: 0.0997035 (Simulation time: 0 hr 45 min 56 sec) 
Heartbeat CPU 0 instructions: 105000000 cycles: 953987538 heartbeat IPC: 0.161254 cumulative IPC: 0.100106 (Simulation time: 0 hr 46 min 0 sec) 
Heartbeat CPU 0 instructions: 106000000 cycles: 959455806 heartbeat IPC: 0.182873 cumulative IPC: 0.10058 (Simulation time: 0 hr 46 min 4 sec) 
Heartbeat CPU 0 instructions: 107000002 cycles: 976840686 heartbeat IPC: 0.0575214 cumulative IPC: 0.0998097 (Simulation time: 0 hr 46 min 11 sec) 
Heartbeat CPU 0 instructions: 108000000 cycles: 983630425 heartbeat IPC: 0.147281 cumulative IPC: 0.100139 (Simulation time: 0 hr 46 min 15 sec) 
Heartbeat CPU 0 instructions: 109000001 cycles: 989264251 heartbeat IPC: 0.177499 cumulative IPC: 0.100582 (Simulation time: 0 hr 46 min 19 sec) 
Heartbeat CPU 0 instructions: 110000002 cycles: 1000629895 heartbeat IPC: 0.0879845 cumulative IPC: 0.100438 (Simulation time: 0 hr 46 min 24 sec) 
Finished CPU 0 instructions: 100000001 cycles: 995638931 cummulative IPC: 0.100438 (Simulation time: 0 hr 46 min 24 sec) 

ChampSim completed all CPUs

Region of Interest Statistics

CPU 0 cummulative IPC: 0.100438 instructions: 100000001 cycles: 995638931
LLC TOTAL     ACCESS:   11193215  HIT:    4200452  MISS:    6992763
LLC LOAD      ACCESS:    8987645  HIT:    2132608  MISS:    6855037
LLC RFO       ACCESS:     195736  HIT:      60120  MISS:     135616
LLC PREFETCH  ACCESS:          0  HIT:          0  MISS:          0
LLC WRITEBACK ACCESS:    2009834  HIT:    2007724  MISS:       2110
