
*** ChampSim Multicore Out-of-Order Simulator ***

Warmup Instructions: 10000000
Simulation Instructions: 100000000
Configuration: 1
Number of CPUs: 1
LLC sets: 2048
LLC ways: 16
Off-chip DRAM Channels: 1 Width: 64-bit Data Rate: 1600 MT/s

CPU 0 runs /datasets/cs240c-wi22-a00-public/data/Assignment2-gz/libquantum_1735B.trace.gz
Initialize LRU replacement state
Heartbeat CPU 0 instructions: 1000003 cycles: 333345 heartbeat IPC: 2.9999 cumulative IPC: 2.9999 (Simulation time: 0 hr 0 min 11 sec) 
Heartbeat CPU 0 instructions: 2000003 cycles: 666677 heartbeat IPC: 3.00001 cumulative IPC: 2.99996 (Simulation time: 0 hr 0 min 22 sec) 
Heartbeat CPU 0 instructions: 3000001 cycles: 989047 heartbeat IPC: 3.10202 cumulative IPC: 3.03322 (Simulation time: 0 hr 0 min 33 sec) 
Heartbeat CPU 0 instructions: 4000000 cycles: 1290772 heartbeat IPC: 3.31427 cumulative IPC: 3.09892 (Simulation time: 0 hr 0 min 45 sec) 
Heartbeat CPU 0 instructions: 5000000 cycles: 1592498 heartbeat IPC: 3.31427 cumulative IPC: 3.13972 (Simulation time: 0 hr 0 min 57 sec) 
Heartbeat CPU 0 instructions: 6000003 cycles: 1894221 heartbeat IPC: 3.31431 cumulative IPC: 3.16753 (Simulation time: 0 hr 1 min 8 sec) 
Heartbeat CPU 0 instructions: 7000000 cycles: 2195944 heartbeat IPC: 3.31429 cumulative IPC: 3.1877 (Simulation time: 0 hr 1 min 20 sec) 
Heartbeat CPU 0 instructions: 8000000 cycles: 2501901 heartbeat IPC: 3.26843 cumulative IPC: 3.19757 (Simulation time: 0 hr 1 min 31 sec) 
Heartbeat CPU 0 instructions: 9000001 cycles: 2835236 heartbeat IPC: 2.99999 cumulative IPC: 3.17434 (Simulation time: 0 hr 1 min 43 sec) 
Heartbeat CPU 0 instructions: 10000001 cycles: 3168569 heartbeat IPC: 3 cumulative IPC: 3.156 (Simulation time: 0 hr 1 min 54 sec) 

Warmup complete CPU 0 instructions: 10000001 cycles: 3168569 (Simulation time: 0 hr 1 min 54 sec) 

Heartbeat CPU 0 instructions: 11000001 cycles: 5166671 heartbeat IPC: 0.500475 cumulative IPC: 0.500475 (Simulation time: 0 hr 2 min 16 sec) 
Heartbeat CPU 0 instructions: 12000000 cycles: 7164493 heartbeat IPC: 0.500545 cumulative IPC: 0.50051 (Simulation time: 0 hr 2 min 37 sec) 
Heartbeat CPU 0 instructions: 13000003 cycles: 9654031 heartbeat IPC: 0.401682 cumulative IPC: 0.462573 (Simulation time: 0 hr 2 min 58 sec) 
Heartbeat CPU 0 instructions: 14000000 cycles: 12948703 heartbeat IPC: 0.303519 cumulative IPC: 0.408992 (Simulation time: 0 hr 3 min 16 sec) 
Heartbeat CPU 0 instructions: 15000000 cycles: 16627419 heartbeat IPC: 0.271834 cumulative IPC: 0.371503 (Simulation time: 0 hr 3 min 35 sec) 
Heartbeat CPU 0 instructions: 16000000 cycles: 20368516 heartbeat IPC: 0.267301 cumulative IPC: 0.348838 (Simulation time: 0 hr 3 min 54 sec) 
Heartbeat CPU 0 instructions: 17000002 cycles: 24111826 heartbeat IPC: 0.267144 cumulative IPC: 0.334237 (Simulation time: 0 hr 4 min 13 sec) 
Heartbeat CPU 0 instructions: 18000001 cycles: 27354925 heartbeat IPC: 0.308347 cumulative IPC: 0.330765 (Simulation time: 0 hr 4 min 34 sec) 
Heartbeat CPU 0 instructions: 19000000 cycles: 29663215 heartbeat IPC: 0.433221 cumulative IPC: 0.339691 (Simulation time: 0 hr 4 min 58 sec) 
Heartbeat CPU 0 instructions: 20000000 cycles: 31615533 heartbeat IPC: 0.512212 cumulative IPC: 0.351531 (Simulation time: 0 hr 5 min 20 sec) 
Heartbeat CPU 0 instructions: 21000001 cycles: 33533549 heartbeat IPC: 0.521373 cumulative IPC: 0.362259 (Simulation time: 0 hr 5 min 41 sec) 
Heartbeat CPU 0 instructions: 22000000 cycles: 35451522 heartbeat IPC: 0.521383 cumulative IPC: 0.371713 (Simulation time: 0 hr 6 min 2 sec) 
Heartbeat CPU 0 instructions: 23000001 cycles: 38265230 heartbeat IPC: 0.355403 cumulative IPC: 0.370406 (Simulation time: 0 hr 6 min 22 sec) 
Heartbeat CPU 0 instructions: 24000000 cycles: 41758757 heartbeat IPC: 0.286243 cumulative IPC: 0.362787 (Simulation time: 0 hr 6 min 40 sec) 
Heartbeat CPU 0 instructions: 25000000 cycles: 45612606 heartbeat IPC: 0.259481 cumulative IPC: 0.353407 (Simulation time: 0 hr 6 min 59 sec) 
Heartbeat CPU 0 instructions: 26000000 cycles: 49478950 heartbeat IPC: 0.258642 cumulative IPC: 0.345495 (Simulation time: 0 hr 7 min 17 sec) 
Heartbeat CPU 0 instructions: 27000001 cycles: 53344668 heartbeat IPC: 0.258684 cumulative IPC: 0.338807 (Simulation time: 0 hr 7 min 36 sec) 
Heartbeat CPU 0 instructions: 28000000 cycles: 56377231 heartbeat IPC: 0.329754 cumulative IPC: 0.338291 (Simulation time: 0 hr 8 min 0 sec) 
Heartbeat CPU 0 instructions: 29000000 cycles: 58658228 heartbeat IPC: 0.438405 cumulative IPC: 0.342406 (Simulation time: 0 hr 8 min 22 sec) 
Heartbeat CPU 0 instructions: 30000001 cycles: 60678270 heartbeat IPC: 0.49504 cumulative IPC: 0.347767 (Simulation time: 0 hr 8 min 43 sec) 
Heartbeat CPU 0 instructions: 31000000 cycles: 62679042 heartbeat IPC: 0.499807 cumulative IPC: 0.352879 (Simulation time: 0 hr 9 min 6 sec) 
Heartbeat CPU 0 instructions: 32000000 cycles: 64679907 heartbeat IPC: 0.499784 cumulative IPC: 0.357658 (Simulation time: 0 hr 9 min 27 sec) 
Heartbeat CPU 0 instructions: 33000002 cycles: 67400140 heartbeat IPC: 0.367616 cumulative IPC: 0.358079 (Simulation time: 0 hr 9 min 46 sec) 
Heartbeat CPU 0 instructions: 34000000 cycles: 70587513 heartbeat IPC: 0.313737 cumulative IPC: 0.355983 (Simulation time: 0 hr 10 min 5 sec) 
Heartbeat CPU 0 instructions: 35000000 cycles: 74033834 heartbeat IPC: 0.290165 cumulative IPC: 0.352782 (Simulation time: 0 hr 10 min 25 sec) 
Heartbeat CPU 0 instructions: 36000000 cycles: 77499358 heartbeat IPC: 0.288557 cumulative IPC: 0.349788 (Simulation time: 0 hr 10 min 47 sec) 
Heartbeat CPU 0 instructions: 37000002 cycles: 80955342 heartbeat IPC: 0.289354 cumulative IPC: 0.347103 (Simulation time: 0 hr 11 min 7 sec) 
Heartbeat CPU 0 instructions: 38000003 cycles: 83835350 heartbeat IPC: 0.347222 cumulative IPC: 0.347107 (Simulation time: 0 hr 11 min 29 sec) 
Heartbeat CPU 0 instructions: 39000002 cycles: 86141125 heartbeat IPC: 0.433693 cumulative IPC: 0.349513 (Simulation time: 0 hr 11 min 53 sec) 
Heartbeat CPU 0 instructions: 40000000 cycles: 88149817 heartbeat IPC: 0.497835 cumulative IPC: 0.353019 (Simulation time: 0 hr 12 min 15 sec) 
Heartbeat CPU 0 instructions: 41000000 cycles: 90150725 heartbeat IPC: 0.499773 cumulative IPC: 0.356395 (Simulation time: 0 hr 12 min 36 sec) 
Heartbeat CPU 0 instructions: 42000001 cycles: 92151593 heartbeat IPC: 0.499784 cumulative IPC: 0.359619 (Simulation time: 0 hr 12 min 57 sec) 
Heartbeat CPU 0 instructions: 43000002 cycles: 94933583 heartbeat IPC: 0.359455 cumulative IPC: 0.359614 (Simulation time: 0 hr 13 min 15 sec) 
Heartbeat CPU 0 instructions: 44000000 cycles: 98175537 heartbeat IPC: 0.308455 cumulative IPC: 0.357868 (Simulation time: 0 hr 13 min 35 sec) 
Heartbeat CPU 0 instructions: 45000001 cycles: 101641153 heartbeat IPC: 0.288549 cumulative IPC: 0.355429 (Simulation time: 0 hr 13 min 55 sec) 
Heartbeat CPU 0 instructions: 46000002 cycles: 105107763 heartbeat IPC: 0.288467 cumulative IPC: 0.353152 (Simulation time: 0 hr 14 min 15 sec) 
Heartbeat CPU 0 instructions: 47000000 cycles: 108585985 heartbeat IPC: 0.287503 cumulative IPC: 0.350986 (Simulation time: 0 hr 14 min 35 sec) 
Heartbeat CPU 0 instructions: 48000000 cycles: 111406882 heartbeat IPC: 0.354497 cumulative IPC: 0.351077 (Simulation time: 0 hr 14 min 58 sec) 
Heartbeat CPU 0 instructions: 49000002 cycles: 113658347 heartbeat IPC: 0.444156 cumulative IPC: 0.352974 (Simulation time: 0 hr 15 min 21 sec) 
Heartbeat CPU 0 instructions: 50000001 cycles: 115667595 heartbeat IPC: 0.497698 cumulative IPC: 0.355559 (Simulation time: 0 hr 15 min 43 sec) 
Heartbeat CPU 0 instructions: 51000000 cycles: 117664994 heartbeat IPC: 0.500651 cumulative IPC: 0.35809 (Simulation time: 0 hr 16 min 6 sec) 
Heartbeat CPU 0 instructions: 52000000 cycles: 119662508 heartbeat IPC: 0.500622 cumulative IPC: 0.360534 (Simulation time: 0 hr 16 min 29 sec) 
Heartbeat CPU 0 instructions: 53000002 cycles: 121660056 heartbeat IPC: 0.500615 cumulative IPC: 0.362895 (Simulation time: 0 hr 16 min 51 sec) 
Heartbeat CPU 0 instructions: 54000001 cycles: 123657121 heartbeat IPC: 0.500734 cumulative IPC: 0.36518 (Simulation time: 0 hr 17 min 12 sec) 
Heartbeat CPU 0 instructions: 55000000 cycles: 125654421 heartbeat IPC: 0.500675 cumulative IPC: 0.367389 (Simulation time: 0 hr 17 min 34 sec) 
Heartbeat CPU 0 instructions: 56000000 cycles: 127651924 heartbeat IPC: 0.500625 cumulative IPC: 0.369527 (Simulation time: 0 hr 17 min 56 sec) 
Heartbeat CPU 0 instructions: 57000000 cycles: 129649361 heartbeat IPC: 0.500642 cumulative IPC: 0.371598 (Simulation time: 0 hr 18 min 18 sec) 
Heartbeat CPU 0 instructions: 58000002 cycles: 131646757 heartbeat IPC: 0.500653 cumulative IPC: 0.373604 (Simulation time: 0 hr 18 min 41 sec) 
Heartbeat CPU 0 instructions: 59000001 cycles: 133644059 heartbeat IPC: 0.500675 cumulative IPC: 0.375549 (Simulation time: 0 hr 19 min 4 sec) 
Heartbeat CPU 0 instructions: 60000000 cycles: 135641449 heartbeat IPC: 0.500653 cumulative IPC: 0.377436 (Simulation time: 0 hr 19 min 26 sec) 
Heartbeat CPU 0 instructions: 61000003 cycles: 137638883 heartbeat IPC: 0.500644 cumulative IPC: 0.379266 (Simulation time: 0 hr 19 min 47 sec) 
Heartbeat CPU 0 instructions: 62000002 cycles: 139636276 heartbeat IPC: 0.500652 cumulative IPC: 0.381043 (Simulation time: 0 hr 20 min 10 sec) 
Heartbeat CPU 0 instructions: 63000001 cycles: 141633578 heartbeat IPC: 0.500675 cumulative IPC: 0.382768 (Simulation time: 0 hr 20 min 32 sec) 
Heartbeat CPU 0 instructions: 64000000 cycles: 143630968 heartbeat IPC: 0.500653 cumulative IPC: 0.384445 (Simulation time: 0 hr 20 min 54 sec) 
Heartbeat CPU 0 instructions: 65000001 cycles: 145628397 heartbeat IPC: 0.500644 cumulative IPC: 0.386074 (Simulation time: 0 hr 21 min 16 sec) 
Heartbeat CPU 0 instructions: 66000000 cycles: 147625703 heartbeat IPC: 0.500674 cumulative IPC: 0.387658 (Simulation time: 0 hr 21 min 40 sec) 
Heartbeat CPU 0 instructions: 67000001 cycles: 149548179 heartbeat IPC: 0.520163 cumulative IPC: 0.389398 (Simulation time: 0 hr 22 min 3 sec) 
Heartbeat CPU 0 instructions: 68000000 cycles: 151457034 heartbeat IPC: 0.523874 cumulative IPC: 0.39113 (Simulation time: 0 hr 22 min 25 sec) 
Heartbeat CPU 0 instructions: 69000002 cycles: 153365928 heartbeat IPC: 0.523865 cumulative IPC: 0.392817 (Simulation time: 0 hr 22 min 51 sec) 
Heartbeat CPU 0 instructions: 70000001 cycles: 155274698 heartbeat IPC: 0.523897 cumulative IPC: 0.394461 (Simulation time: 0 hr 23 min 14 sec) 
Heartbeat CPU 0 instructions: 71000003 cycles: 157313170 heartbeat IPC: 0.490564 cumulative IPC: 0.395732 (Simulation time: 0 hr 23 min 39 sec) 
Heartbeat CPU 0 instructions: 72000000 cycles: 160159343 heartbeat IPC: 0.351348 cumulative IPC: 0.394928 (Simulation time: 0 hr 23 min 57 sec) 
Heartbeat CPU 0 instructions: 73000000 cycles: 163459434 heartbeat IPC: 0.303022 cumulative IPC: 0.393036 (Simulation time: 0 hr 24 min 16 sec) 
Heartbeat CPU 0 instructions: 74000000 cycles: 166917119 heartbeat IPC: 0.289211 cumulative IPC: 0.390843 (Simulation time: 0 hr 24 min 35 sec) 
Heartbeat CPU 0 instructions: 75000000 cycles: 170370306 heartbeat IPC: 0.289588 cumulative IPC: 0.388752 (Simulation time: 0 hr 24 min 55 sec) 
Heartbeat CPU 0 instructions: 76000000 cycles: 173823925 heartbeat IPC: 0.289551 cumulative IPC: 0.386744 (Simulation time: 0 hr 25 min 15 sec) 
Heartbeat CPU 0 instructions: 77000001 cycles: 176383429 heartbeat IPC: 0.390701 cumulative IPC: 0.386803 (Simulation time: 0 hr 25 min 40 sec) 
Heartbeat CPU 0 instructions: 78000000 cycles: 178468079 heartbeat IPC: 0.479696 cumulative IPC: 0.387908 (Simulation time: 0 hr 26 min 1 sec) 
Heartbeat CPU 0 instructions: 79000001 cycles: 180376846 heartbeat IPC: 0.523899 cumulative IPC: 0.389372 (Simulation time: 0 hr 26 min 22 sec) 
Heartbeat CPU 0 instructions: 80000000 cycles: 182285701 heartbeat IPC: 0.523874 cumulative IPC: 0.390806 (Simulation time: 0 hr 26 min 44 sec) 
Heartbeat CPU 0 instructions: 81000002 cycles: 184387658 heartbeat IPC: 0.475748 cumulative IPC: 0.391791 (Simulation time: 0 hr 27 min 4 sec) 
Heartbeat CPU 0 instructions: 82000003 cycles: 187246328 heartbeat IPC: 0.349813 cumulative IPC: 0.391139 (Simulation time: 0 hr 27 min 22 sec) 
Heartbeat CPU 0 instructions: 83000000 cycles: 190615971 heartbeat IPC: 0.296766 cumulative IPC: 0.389443 (Simulation time: 0 hr 27 min 40 sec) 
Heartbeat CPU 0 instructions: 84000000 cycles: 194081347 heartbeat IPC: 0.288569 cumulative IPC: 0.387612 (Simulation time: 0 hr 27 min 58 sec) 
Heartbeat CPU 0 instructions: 85000002 cycles: 197545133 heartbeat IPC: 0.288702 cumulative IPC: 0.385849 (Simulation time: 0 hr 28 min 17 sec) 
Heartbeat CPU 0 instructions: 86000002 cycles: 201014413 heartbeat IPC: 0.288244 cumulative IPC: 0.384137 (Simulation time: 0 hr 28 min 37 sec) 
Heartbeat CPU 0 instructions: 87000002 cycles: 203566074 heartbeat IPC: 0.391902 cumulative IPC: 0.384236 (Simulation time: 0 hr 29 min 4 sec) 
Heartbeat CPU 0 instructions: 88000000 cycles: 205571401 heartbeat IPC: 0.498671 cumulative IPC: 0.38537 (Simulation time: 0 hr 29 min 30 sec) 
Heartbeat CPU 0 instructions: 89000000 cycles: 207522907 heartbeat IPC: 0.512425 cumulative IPC: 0.386583 (Simulation time: 0 hr 29 min 54 sec) 
Heartbeat CPU 0 instructions: 90000000 cycles: 209979411 heartbeat IPC: 0.407083 cumulative IPC: 0.386827 (Simulation time: 0 hr 30 min 17 sec) 
Heartbeat CPU 0 instructions: 91000002 cycles: 213720051 heartbeat IPC: 0.267334 cumulative IPC: 0.384704 (Simulation time: 0 hr 30 min 36 sec) 
Heartbeat CPU 0 instructions: 92000000 cycles: 218013482 heartbeat IPC: 0.232913 cumulative IPC: 0.381671 (Simulation time: 0 hr 30 min 58 sec) 
Heartbeat CPU 0 instructions: 93000001 cycles: 222325726 heartbeat IPC: 0.231898 cumulative IPC: 0.378724 (Simulation time: 0 hr 31 min 18 sec) 
Heartbeat CPU 0 instructions: 94000001 cycles: 226286908 heartbeat IPC: 0.25245 cumulative IPC: 0.376482 (Simulation time: 0 hr 31 min 40 sec) 
Heartbeat CPU 0 instructions: 95000000 cycles: 228677187 heartbeat IPC: 0.418361 cumulative IPC: 0.376926 (Simulation time: 0 hr 32 min 4 sec) 
Heartbeat CPU 0 instructions: 96000000 cycles: 230578353 heartbeat IPC: 0.525993 cumulative IPC: 0.378172 (Simulation time: 0 hr 32 min 26 sec) 
Heartbeat CPU 0 instructions: 97000002 cycles: 232465125 heartbeat IPC: 0.530007 cumulative IPC: 0.379421 (Simulation time: 0 hr 32 min 48 sec) 
Heartbeat CPU 0 instructions: 98000001 cycles: 235120806 heartbeat IPC: 0.376551 cumulative IPC: 0.379388 (Simulation time: 0 hr 33 min 7 sec) 
Heartbeat CPU 0 instructions: 99000003 cycles: 238850927 heartbeat IPC: 0.268088 cumulative IPC: 0.377627 (Simulation time: 0 hr 33 min 26 sec) 
Heartbeat CPU 0 instructions: 100000000 cycles: 242969551 heartbeat IPC: 0.242799 cumulative IPC: 0.375311 (Simulation time: 0 hr 33 min 45 sec) 
Heartbeat CPU 0 instructions: 101000000 cycles: 247096229 heartbeat IPC: 0.242326 cumulative IPC: 0.373061 (Simulation time: 0 hr 34 min 5 sec) 
Heartbeat CPU 0 instructions: 102000000 cycles: 250588730 heartbeat IPC: 0.286328 cumulative IPC: 0.371837 (Simulation time: 0 hr 34 min 27 sec) 
Heartbeat CPU 0 instructions: 103000002 cycles: 253010687 heartbeat IPC: 0.41289 cumulative IPC: 0.372235 (Simulation time: 0 hr 34 min 48 sec) 
Heartbeat CPU 0 instructions: 104000000 cycles: 255053842 heartbeat IPC: 0.489438 cumulative IPC: 0.373186 (Simulation time: 0 hr 35 min 7 sec) 
Heartbeat CPU 0 instructions: 105000000 cycles: 257050838 heartbeat IPC: 0.500752 cumulative IPC: 0.374189 (Simulation time: 0 hr 35 min 26 sec) 
Heartbeat CPU 0 instructions: 106000003 cycles: 259047714 heartbeat IPC: 0.500784 cumulative IPC: 0.375177 (Simulation time: 0 hr 35 min 45 sec) 
Heartbeat CPU 0 instructions: 107000000 cycles: 261877729 heartbeat IPC: 0.353354 cumulative IPC: 0.374938 (Simulation time: 0 hr 36 min 0 sec) 
Heartbeat CPU 0 instructions: 108000000 cycles: 265293766 heartbeat IPC: 0.292737 cumulative IPC: 0.373867 (Simulation time: 0 hr 36 min 14 sec) 
Heartbeat CPU 0 instructions: 109000002 cycles: 269016175 heartbeat IPC: 0.268644 cumulative IPC: 0.372394 (Simulation time: 0 hr 36 min 29 sec) 
Heartbeat CPU 0 instructions: 110000002 cycles: 272759077 heartbeat IPC: 0.267172 cumulative IPC: 0.370933 (Simulation time: 0 hr 36 min 44 sec) 
Finished CPU 0 instructions: 100000001 cycles: 269590508 cummulative IPC: 0.370933 (Simulation time: 0 hr 36 min 44 sec) 

ChampSim completed all CPUs

Region of Interest Statistics

CPU 0 cummulative IPC: 0.370933 instructions: 100000001 cycles: 269590508
LLC TOTAL     ACCESS:    3801525  HIT:    1012104  MISS:    2789421
LLC LOAD      ACCESS:    2789401  HIT:          0  MISS:    2789401
LLC RFO       ACCESS:         20  HIT:          0  MISS:         20
LLC PREFETCH  ACCESS:          0  HIT:          0  MISS:          0
LLC WRITEBACK ACCESS:    1012104  HIT:    1012104  MISS:          0
