
*** ChampSim Multicore Out-of-Order Simulator ***

Warmup Instructions: 10000000
Simulation Instructions: 100000000
Configuration: 1
Number of CPUs: 1
LLC sets: 2048
LLC ways: 16
Off-chip DRAM Channels: 1 Width: 64-bit Data Rate: 1600 MT/s

CPU 0 runs /datasets/cs240c-wi22-a00-public/data/Assignment2-gz/soplex_205B.trace.gz
Initialize LRU replacement state
Heartbeat CPU 0 instructions: 1000000 cycles: 394357 heartbeat IPC: 2.53577 cumulative IPC: 2.53577 (Simulation time: 0 hr 0 min 18 sec) 
Heartbeat CPU 0 instructions: 2000002 cycles: 890219 heartbeat IPC: 2.01669 cumulative IPC: 2.24664 (Simulation time: 0 hr 0 min 38 sec) 
Heartbeat CPU 0 instructions: 3000000 cycles: 1360050 heartbeat IPC: 2.12842 cumulative IPC: 2.2058 (Simulation time: 0 hr 1 min 2 sec) 
Heartbeat CPU 0 instructions: 4000000 cycles: 1722290 heartbeat IPC: 2.7606 cumulative IPC: 2.32249 (Simulation time: 0 hr 1 min 21 sec) 
Heartbeat CPU 0 instructions: 5000001 cycles: 2171260 heartbeat IPC: 2.22732 cumulative IPC: 2.30281 (Simulation time: 0 hr 1 min 42 sec) 
Heartbeat CPU 0 instructions: 6000003 cycles: 2598832 heartbeat IPC: 2.33879 cumulative IPC: 2.30873 (Simulation time: 0 hr 2 min 4 sec) 
Heartbeat CPU 0 instructions: 7000000 cycles: 2984545 heartbeat IPC: 2.59259 cumulative IPC: 2.34542 (Simulation time: 0 hr 2 min 22 sec) 
Heartbeat CPU 0 instructions: 8000000 cycles: 3371811 heartbeat IPC: 2.5822 cumulative IPC: 2.37261 (Simulation time: 0 hr 2 min 39 sec) 
Heartbeat CPU 0 instructions: 9000003 cycles: 3864968 heartbeat IPC: 2.02776 cumulative IPC: 2.32861 (Simulation time: 0 hr 3 min 1 sec) 
Heartbeat CPU 0 instructions: 10000000 cycles: 4348598 heartbeat IPC: 2.06769 cumulative IPC: 2.29959 (Simulation time: 0 hr 3 min 25 sec) 

Warmup complete CPU 0 instructions: 10000004 cycles: 4348599 (Simulation time: 0 hr 3 min 25 sec) 

Heartbeat CPU 0 instructions: 11000001 cycles: 8368223 heartbeat IPC: 0.24878 cumulative IPC: 0.248779 (Simulation time: 0 hr 3 min 53 sec) 
Heartbeat CPU 0 instructions: 12000000 cycles: 11552861 heartbeat IPC: 0.314007 cumulative IPC: 0.277613 (Simulation time: 0 hr 4 min 24 sec) 
Heartbeat CPU 0 instructions: 13000000 cycles: 16698040 heartbeat IPC: 0.194357 cumulative IPC: 0.242926 (Simulation time: 0 hr 5 min 0 sec) 
Heartbeat CPU 0 instructions: 14000003 cycles: 18714999 heartbeat IPC: 0.495797 cumulative IPC: 0.278427 (Simulation time: 0 hr 5 min 21 sec) 
Heartbeat CPU 0 instructions: 15000000 cycles: 21364763 heartbeat IPC: 0.377391 cumulative IPC: 0.293838 (Simulation time: 0 hr 5 min 46 sec) 
Heartbeat CPU 0 instructions: 16000000 cycles: 25475549 heartbeat IPC: 0.243262 cumulative IPC: 0.283997 (Simulation time: 0 hr 6 min 22 sec) 
Heartbeat CPU 0 instructions: 17000001 cycles: 29860864 heartbeat IPC: 0.228034 cumulative IPC: 0.274378 (Simulation time: 0 hr 6 min 57 sec) 
Heartbeat CPU 0 instructions: 18000000 cycles: 37126081 heartbeat IPC: 0.137642 cumulative IPC: 0.24407 (Simulation time: 0 hr 7 min 30 sec) 
Heartbeat CPU 0 instructions: 19000000 cycles: 42379672 heartbeat IPC: 0.190346 cumulative IPC: 0.236648 (Simulation time: 0 hr 8 min 4 sec) 
Heartbeat CPU 0 instructions: 20000000 cycles: 44975474 heartbeat IPC: 0.385237 cumulative IPC: 0.246142 (Simulation time: 0 hr 8 min 39 sec) 
Heartbeat CPU 0 instructions: 21000001 cycles: 50357431 heartbeat IPC: 0.185806 cumulative IPC: 0.239084 (Simulation time: 0 hr 9 min 11 sec) 
Heartbeat CPU 0 instructions: 22000001 cycles: 55502644 heartbeat IPC: 0.194355 cumulative IPC: 0.234585 (Simulation time: 0 hr 9 min 42 sec) 
Heartbeat CPU 0 instructions: 23000002 cycles: 59997590 heartbeat IPC: 0.222472 cumulative IPC: 0.233607 (Simulation time: 0 hr 10 min 18 sec) 
Heartbeat CPU 0 instructions: 24000000 cycles: 64865665 heartbeat IPC: 0.20542 cumulative IPC: 0.23134 (Simulation time: 0 hr 10 min 49 sec) 
Heartbeat CPU 0 instructions: 25000002 cycles: 69063410 heartbeat IPC: 0.238224 cumulative IPC: 0.231786 (Simulation time: 0 hr 11 min 17 sec) 
Heartbeat CPU 0 instructions: 26000002 cycles: 72939541 heartbeat IPC: 0.257989 cumulative IPC: 0.233267 (Simulation time: 0 hr 11 min 46 sec) 
Heartbeat CPU 0 instructions: 27000000 cycles: 76141234 heartbeat IPC: 0.312334 cumulative IPC: 0.236793 (Simulation time: 0 hr 12 min 9 sec) 
Heartbeat CPU 0 instructions: 28000000 cycles: 79864403 heartbeat IPC: 0.268588 cumulative IPC: 0.238361 (Simulation time: 0 hr 12 min 39 sec) 
Heartbeat CPU 0 instructions: 29000002 cycles: 82120365 heartbeat IPC: 0.443271 cumulative IPC: 0.244305 (Simulation time: 0 hr 13 min 7 sec) 
Heartbeat CPU 0 instructions: 30000003 cycles: 83677118 heartbeat IPC: 0.642363 cumulative IPC: 0.252116 (Simulation time: 0 hr 13 min 29 sec) 
Heartbeat CPU 0 instructions: 31000003 cycles: 86602080 heartbeat IPC: 0.341885 cumulative IPC: 0.255308 (Simulation time: 0 hr 13 min 53 sec) 
Heartbeat CPU 0 instructions: 32000000 cycles: 90803441 heartbeat IPC: 0.238017 cumulative IPC: 0.254468 (Simulation time: 0 hr 14 min 23 sec) 
Heartbeat CPU 0 instructions: 33000000 cycles: 94215263 heartbeat IPC: 0.293099 cumulative IPC: 0.255935 (Simulation time: 0 hr 14 min 52 sec) 
Heartbeat CPU 0 instructions: 34000002 cycles: 97123177 heartbeat IPC: 0.34389 cumulative IPC: 0.258692 (Simulation time: 0 hr 15 min 22 sec) 
Heartbeat CPU 0 instructions: 35000001 cycles: 100733035 heartbeat IPC: 0.277019 cumulative IPC: 0.259378 (Simulation time: 0 hr 15 min 49 sec) 
Heartbeat CPU 0 instructions: 36000000 cycles: 104062322 heartbeat IPC: 0.300364 cumulative IPC: 0.260746 (Simulation time: 0 hr 16 min 18 sec) 
Heartbeat CPU 0 instructions: 37000000 cycles: 109079831 heartbeat IPC: 0.199302 cumulative IPC: 0.257803 (Simulation time: 0 hr 16 min 55 sec) 
Heartbeat CPU 0 instructions: 38000002 cycles: 111092616 heartbeat IPC: 0.496825 cumulative IPC: 0.26231 (Simulation time: 0 hr 17 min 15 sec) 
Heartbeat CPU 0 instructions: 39000003 cycles: 114039190 heartbeat IPC: 0.339378 cumulative IPC: 0.26438 (Simulation time: 0 hr 17 min 36 sec) 
Heartbeat CPU 0 instructions: 40000000 cycles: 118090253 heartbeat IPC: 0.246848 cumulative IPC: 0.263756 (Simulation time: 0 hr 18 min 4 sec) 
Heartbeat CPU 0 instructions: 41000000 cycles: 122703570 heartbeat IPC: 0.216764 cumulative IPC: 0.261924 (Simulation time: 0 hr 18 min 32 sec) 
Heartbeat CPU 0 instructions: 42000001 cycles: 125181793 heartbeat IPC: 0.403515 cumulative IPC: 0.264828 (Simulation time: 0 hr 18 min 56 sec) 
Heartbeat CPU 0 instructions: 43000001 cycles: 130323333 heartbeat IPC: 0.194494 cumulative IPC: 0.261957 (Simulation time: 0 hr 19 min 32 sec) 
Heartbeat CPU 0 instructions: 44000000 cycles: 133663389 heartbeat IPC: 0.299396 cumulative IPC: 0.262924 (Simulation time: 0 hr 19 min 59 sec) 
Heartbeat CPU 0 instructions: 45000001 cycles: 135608079 heartbeat IPC: 0.514221 cumulative IPC: 0.266647 (Simulation time: 0 hr 20 min 22 sec) 
Heartbeat CPU 0 instructions: 46000002 cycles: 139772439 heartbeat IPC: 0.240133 cumulative IPC: 0.265832 (Simulation time: 0 hr 20 min 51 sec) 
Heartbeat CPU 0 instructions: 47000000 cycles: 143795052 heartbeat IPC: 0.248594 cumulative IPC: 0.265335 (Simulation time: 0 hr 21 min 20 sec) 
Heartbeat CPU 0 instructions: 48000000 cycles: 147824004 heartbeat IPC: 0.248204 cumulative IPC: 0.264854 (Simulation time: 0 hr 21 min 51 sec) 
Heartbeat CPU 0 instructions: 49000001 cycles: 150730477 heartbeat IPC: 0.34406 cumulative IPC: 0.266426 (Simulation time: 0 hr 22 min 19 sec) 
Heartbeat CPU 0 instructions: 50000002 cycles: 155599071 heartbeat IPC: 0.205398 cumulative IPC: 0.264462 (Simulation time: 0 hr 22 min 55 sec) 
Heartbeat CPU 0 instructions: 51000003 cycles: 159167784 heartbeat IPC: 0.280213 cumulative IPC: 0.264825 (Simulation time: 0 hr 23 min 18 sec) 
Heartbeat CPU 0 instructions: 52000000 cycles: 161112627 heartbeat IPC: 0.514179 cumulative IPC: 0.267919 (Simulation time: 0 hr 23 min 39 sec) 
Heartbeat CPU 0 instructions: 53000003 cycles: 165245548 heartbeat IPC: 0.24196 cumulative IPC: 0.267252 (Simulation time: 0 hr 24 min 8 sec) 
Heartbeat CPU 0 instructions: 54000000 cycles: 169221443 heartbeat IPC: 0.251515 cumulative IPC: 0.266872 (Simulation time: 0 hr 24 min 39 sec) 
Heartbeat CPU 0 instructions: 55000001 cycles: 173739485 heartbeat IPC: 0.221335 cumulative IPC: 0.265658 (Simulation time: 0 hr 25 min 9 sec) 
Heartbeat CPU 0 instructions: 56000000 cycles: 176312907 heartbeat IPC: 0.388587 cumulative IPC: 0.267497 (Simulation time: 0 hr 25 min 34 sec) 
Heartbeat CPU 0 instructions: 57000001 cycles: 181470720 heartbeat IPC: 0.193881 cumulative IPC: 0.265354 (Simulation time: 0 hr 26 min 9 sec) 
Heartbeat CPU 0 instructions: 58000000 cycles: 184821008 heartbeat IPC: 0.298481 cumulative IPC: 0.265969 (Simulation time: 0 hr 26 min 32 sec) 
Heartbeat CPU 0 instructions: 59000001 cycles: 186761123 heartbeat IPC: 0.515434 cumulative IPC: 0.268622 (Simulation time: 0 hr 26 min 52 sec) 
Heartbeat CPU 0 instructions: 60000000 cycles: 190950117 heartbeat IPC: 0.238721 cumulative IPC: 0.267951 (Simulation time: 0 hr 27 min 24 sec) 
Heartbeat CPU 0 instructions: 61000003 cycles: 194936850 heartbeat IPC: 0.250833 cumulative IPC: 0.267593 (Simulation time: 0 hr 27 min 52 sec) 
Heartbeat CPU 0 instructions: 62000002 cycles: 199544924 heartbeat IPC: 0.21701 cumulative IPC: 0.266398 (Simulation time: 0 hr 28 min 25 sec) 
Heartbeat CPU 0 instructions: 63000001 cycles: 201851129 heartbeat IPC: 0.433612 cumulative IPC: 0.268351 (Simulation time: 0 hr 28 min 52 sec) 
Heartbeat CPU 0 instructions: 64000000 cycles: 207609977 heartbeat IPC: 0.173646 cumulative IPC: 0.265668 (Simulation time: 0 hr 29 min 27 sec) 
Heartbeat CPU 0 instructions: 65000001 cycles: 210448457 heartbeat IPC: 0.352302 cumulative IPC: 0.266861 (Simulation time: 0 hr 29 min 47 sec) 
Heartbeat CPU 0 instructions: 66000000 cycles: 212361553 heartbeat IPC: 0.522712 cumulative IPC: 0.269214 (Simulation time: 0 hr 30 min 5 sec) 
Heartbeat CPU 0 instructions: 67000002 cycles: 216599067 heartbeat IPC: 0.235988 cumulative IPC: 0.268551 (Simulation time: 0 hr 30 min 38 sec) 
Heartbeat CPU 0 instructions: 68000000 cycles: 220747725 heartbeat IPC: 0.241041 cumulative IPC: 0.268023 (Simulation time: 0 hr 31 min 8 sec) 
Heartbeat CPU 0 instructions: 69000001 cycles: 224790889 heartbeat IPC: 0.247331 cumulative IPC: 0.267644 (Simulation time: 0 hr 31 min 39 sec) 
Heartbeat CPU 0 instructions: 70000000 cycles: 227428321 heartbeat IPC: 0.379156 cumulative IPC: 0.268962 (Simulation time: 0 hr 32 min 7 sec) 
Heartbeat CPU 0 instructions: 71000001 cycles: 232623368 heartbeat IPC: 0.192491 cumulative IPC: 0.267222 (Simulation time: 0 hr 32 min 39 sec) 
Heartbeat CPU 0 instructions: 72000000 cycles: 235942317 heartbeat IPC: 0.3013 cumulative IPC: 0.26771 (Simulation time: 0 hr 33 min 1 sec) 
Heartbeat CPU 0 instructions: 73000000 cycles: 237888009 heartbeat IPC: 0.513956 cumulative IPC: 0.269762 (Simulation time: 0 hr 33 min 20 sec) 
Heartbeat CPU 0 instructions: 74000001 cycles: 242052812 heartbeat IPC: 0.240108 cumulative IPC: 0.269242 (Simulation time: 0 hr 33 min 47 sec) 
Heartbeat CPU 0 instructions: 75000000 cycles: 246065394 heartbeat IPC: 0.249216 cumulative IPC: 0.26891 (Simulation time: 0 hr 34 min 18 sec) 
Heartbeat CPU 0 instructions: 76000000 cycles: 250721653 heartbeat IPC: 0.214765 cumulative IPC: 0.267886 (Simulation time: 0 hr 34 min 48 sec) 
Heartbeat CPU 0 instructions: 77000000 cycles: 252964396 heartbeat IPC: 0.445883 cumulative IPC: 0.269492 (Simulation time: 0 hr 35 min 11 sec) 
Heartbeat CPU 0 instructions: 78000000 cycles: 258874568 heartbeat IPC: 0.1692 cumulative IPC: 0.267163 (Simulation time: 0 hr 35 min 48 sec) 
Heartbeat CPU 0 instructions: 79000002 cycles: 261590264 heartbeat IPC: 0.36823 cumulative IPC: 0.26823 (Simulation time: 0 hr 36 min 9 sec) 
Heartbeat CPU 0 instructions: 80000000 cycles: 263496179 heartbeat IPC: 0.524681 cumulative IPC: 0.270116 (Simulation time: 0 hr 36 min 24 sec) 
Heartbeat CPU 0 instructions: 81000002 cycles: 267736329 heartbeat IPC: 0.235841 cumulative IPC: 0.269565 (Simulation time: 0 hr 36 min 45 sec) 
Heartbeat CPU 0 instructions: 82000000 cycles: 271911873 heartbeat IPC: 0.239489 cumulative IPC: 0.269095 (Simulation time: 0 hr 37 min 9 sec) 
Heartbeat CPU 0 instructions: 83000000 cycles: 276525283 heartbeat IPC: 0.216759 cumulative IPC: 0.268208 (Simulation time: 0 hr 37 min 32 sec) 
Heartbeat CPU 0 instructions: 84000000 cycles: 278924888 heartbeat IPC: 0.416735 cumulative IPC: 0.269506 (Simulation time: 0 hr 37 min 51 sec) 
Heartbeat CPU 0 instructions: 85000000 cycles: 284980093 heartbeat IPC: 0.165147 cumulative IPC: 0.267254 (Simulation time: 0 hr 38 min 19 sec) 
Heartbeat CPU 0 instructions: 86000002 cycles: 287183071 heartbeat IPC: 0.453932 cumulative IPC: 0.268708 (Simulation time: 0 hr 38 min 32 sec) 
Heartbeat CPU 0 instructions: 87000000 cycles: 289078928 heartbeat IPC: 0.527465 cumulative IPC: 0.270431 (Simulation time: 0 hr 38 min 45 sec) 
Heartbeat CPU 0 instructions: 88000000 cycles: 293331198 heartbeat IPC: 0.235169 cumulative IPC: 0.269912 (Simulation time: 0 hr 39 min 6 sec) 
Heartbeat CPU 0 instructions: 89000001 cycles: 297907088 heartbeat IPC: 0.218537 cumulative IPC: 0.269112 (Simulation time: 0 hr 39 min 28 sec) 
Heartbeat CPU 0 instructions: 90000001 cycles: 302207658 heartbeat IPC: 0.232527 cumulative IPC: 0.268583 (Simulation time: 0 hr 39 min 48 sec) 
Heartbeat CPU 0 instructions: 91000003 cycles: 304994348 heartbeat IPC: 0.358849 cumulative IPC: 0.26942 (Simulation time: 0 hr 40 min 6 sec) 
Heartbeat CPU 0 instructions: 92000000 cycles: 310678331 heartbeat IPC: 0.175932 cumulative IPC: 0.267685 (Simulation time: 0 hr 40 min 27 sec) 
Heartbeat CPU 0 instructions: 93000000 cycles: 312710892 heartbeat IPC: 0.49199 cumulative IPC: 0.269164 (Simulation time: 0 hr 40 min 39 sec) 
Heartbeat CPU 0 instructions: 94000000 cycles: 314832162 heartbeat IPC: 0.471416 cumulative IPC: 0.270546 (Simulation time: 0 hr 40 min 51 sec) 
Heartbeat CPU 0 instructions: 95000002 cycles: 319061179 heartbeat IPC: 0.236462 cumulative IPC: 0.270088 (Simulation time: 0 hr 41 min 6 sec) 
Heartbeat CPU 0 instructions: 96000000 cycles: 322659549 heartbeat IPC: 0.277903 cumulative IPC: 0.270176 (Simulation time: 0 hr 41 min 22 sec) 
Heartbeat CPU 0 instructions: 97000003 cycles: 326734578 heartbeat IPC: 0.245398 cumulative IPC: 0.269863 (Simulation time: 0 hr 41 min 37 sec) 
Heartbeat CPU 0 instructions: 98000002 cycles: 330055324 heartbeat IPC: 0.301137 cumulative IPC: 0.270182 (Simulation time: 0 hr 41 min 54 sec) 
Heartbeat CPU 0 instructions: 99000000 cycles: 335043602 heartbeat IPC: 0.20047 cumulative IPC: 0.26913 (Simulation time: 0 hr 42 min 11 sec) 
Heartbeat CPU 0 instructions: 100000000 cycles: 337057950 heartbeat IPC: 0.496439 cumulative IPC: 0.270506 (Simulation time: 0 hr 42 min 20 sec) 
Heartbeat CPU 0 instructions: 101000003 cycles: 340026548 heartbeat IPC: 0.33686 cumulative IPC: 0.271093 (Simulation time: 0 hr 42 min 31 sec) 
Heartbeat CPU 0 instructions: 102000002 cycles: 344000106 heartbeat IPC: 0.251663 cumulative IPC: 0.270866 (Simulation time: 0 hr 42 min 45 sec) 
Heartbeat CPU 0 instructions: 103000000 cycles: 346718113 heartbeat IPC: 0.367916 cumulative IPC: 0.271636 (Simulation time: 0 hr 42 min 59 sec) 
Heartbeat CPU 0 instructions: 104000000 cycles: 356746619 heartbeat IPC: 0.0997157 cumulative IPC: 0.266744 (Simulation time: 0 hr 43 min 14 sec) 
Heartbeat CPU 0 instructions: 105000000 cycles: 359196114 heartbeat IPC: 0.408247 cumulative IPC: 0.267721 (Simulation time: 0 hr 43 min 26 sec) 
Heartbeat CPU 0 instructions: 106000002 cycles: 364161733 heartbeat IPC: 0.201385 cumulative IPC: 0.266805 (Simulation time: 0 hr 43 min 40 sec) 
Heartbeat CPU 0 instructions: 107000003 cycles: 369439311 heartbeat IPC: 0.189481 cumulative IPC: 0.265687 (Simulation time: 0 hr 43 min 50 sec) 
Heartbeat CPU 0 instructions: 108000000 cycles: 374116830 heartbeat IPC: 0.213788 cumulative IPC: 0.265031 (Simulation time: 0 hr 43 min 58 sec) 
Heartbeat CPU 0 instructions: 109000000 cycles: 378683608 heartbeat IPC: 0.218973 cumulative IPC: 0.264469 (Simulation time: 0 hr 44 min 4 sec) 
Heartbeat CPU 0 instructions: 110000003 cycles: 383074789 heartbeat IPC: 0.22773 cumulative IPC: 0.264043 (Simulation time: 0 hr 44 min 9 sec) 
Finished CPU 0 instructions: 100000003 cycles: 378726191 cummulative IPC: 0.264043 (Simulation time: 0 hr 44 min 9 sec) 

ChampSim completed all CPUs

Region of Interest Statistics

CPU 0 cummulative IPC: 0.264043 instructions: 100000003 cycles: 378726191
LLC TOTAL     ACCESS:    7007057  HIT:    3632626  MISS:    3374431
LLC LOAD      ACCESS:    4052524  HIT:    1233561  MISS:    2818963
LLC RFO       ACCESS:     856745  HIT:     301294  MISS:     555451
LLC PREFETCH  ACCESS:          0  HIT:          0  MISS:          0
LLC WRITEBACK ACCESS:    2097788  HIT:    2097771  MISS:         17
