
*** ChampSim Multicore Out-of-Order Simulator ***

Warmup Instructions: 10000000
Simulation Instructions: 100000000
Configuration: 1
Number of CPUs: 1
LLC sets: 2048
LLC ways: 16
Off-chip DRAM Channels: 1 Width: 64-bit Data Rate: 1600 MT/s

CPU 0 runs /datasets/cs240c-wi22-a00-public/data/Assignment2-gz/calculix_2670B.trace.gz
Initialize LRU replacement state
Heartbeat CPU 0 instructions: 1000003 cycles: 520140 heartbeat IPC: 1.92257 cumulative IPC: 1.92257 (Simulation time: 0 hr 0 min 17 sec) 
Heartbeat CPU 0 instructions: 2000001 cycles: 1039679 heartbeat IPC: 1.92478 cumulative IPC: 1.92367 (Simulation time: 0 hr 0 min 33 sec) 
Heartbeat CPU 0 instructions: 3000001 cycles: 1559976 heartbeat IPC: 1.92198 cumulative IPC: 1.92311 (Simulation time: 0 hr 0 min 51 sec) 
Heartbeat CPU 0 instructions: 4000000 cycles: 2081696 heartbeat IPC: 1.91674 cumulative IPC: 1.92151 (Simulation time: 0 hr 1 min 7 sec) 
Heartbeat CPU 0 instructions: 5000000 cycles: 2602077 heartbeat IPC: 1.92167 cumulative IPC: 1.92154 (Simulation time: 0 hr 1 min 22 sec) 
Heartbeat CPU 0 instructions: 6000001 cycles: 3123869 heartbeat IPC: 1.91647 cumulative IPC: 1.9207 (Simulation time: 0 hr 1 min 37 sec) 
Heartbeat CPU 0 instructions: 7000001 cycles: 3644216 heartbeat IPC: 1.92179 cumulative IPC: 1.92085 (Simulation time: 0 hr 1 min 55 sec) 
Heartbeat CPU 0 instructions: 8000000 cycles: 4165896 heartbeat IPC: 1.91688 cumulative IPC: 1.92036 (Simulation time: 0 hr 2 min 14 sec) 
Heartbeat CPU 0 instructions: 9000001 cycles: 4686484 heartbeat IPC: 1.92091 cumulative IPC: 1.92042 (Simulation time: 0 hr 2 min 31 sec) 
Heartbeat CPU 0 instructions: 10000000 cycles: 5207985 heartbeat IPC: 1.91754 cumulative IPC: 1.92013 (Simulation time: 0 hr 2 min 46 sec) 

Warmup complete CPU 0 instructions: 10000002 cycles: 5207987 (Simulation time: 0 hr 2 min 46 sec) 

Heartbeat CPU 0 instructions: 11000002 cycles: 5684930 heartbeat IPC: 2.09668 cumulative IPC: 2.09669 (Simulation time: 0 hr 3 min 4 sec) 
Heartbeat CPU 0 instructions: 12000000 cycles: 6161724 heartbeat IPC: 2.09734 cumulative IPC: 2.09701 (Simulation time: 0 hr 3 min 25 sec) 
Heartbeat CPU 0 instructions: 13000001 cycles: 6635166 heartbeat IPC: 2.11219 cumulative IPC: 2.10205 (Simulation time: 0 hr 3 min 43 sec) 
Heartbeat CPU 0 instructions: 14000002 cycles: 7111704 heartbeat IPC: 2.09847 cumulative IPC: 2.10115 (Simulation time: 0 hr 4 min 0 sec) 
Heartbeat CPU 0 instructions: 15000002 cycles: 7584954 heartbeat IPC: 2.11305 cumulative IPC: 2.10352 (Simulation time: 0 hr 4 min 16 sec) 
Heartbeat CPU 0 instructions: 16000000 cycles: 8061327 heartbeat IPC: 2.09919 cumulative IPC: 2.1028 (Simulation time: 0 hr 4 min 35 sec) 
Heartbeat CPU 0 instructions: 17000000 cycles: 8534782 heartbeat IPC: 2.11213 cumulative IPC: 2.10413 (Simulation time: 0 hr 4 min 53 sec) 
Heartbeat CPU 0 instructions: 18000001 cycles: 9010756 heartbeat IPC: 2.10096 cumulative IPC: 2.10373 (Simulation time: 0 hr 5 min 9 sec) 
Heartbeat CPU 0 instructions: 19000001 cycles: 9487091 heartbeat IPC: 2.09936 cumulative IPC: 2.10324 (Simulation time: 0 hr 5 min 27 sec) 
Heartbeat CPU 0 instructions: 20000000 cycles: 9960566 heartbeat IPC: 2.11204 cumulative IPC: 2.10412 (Simulation time: 0 hr 5 min 44 sec) 
Heartbeat CPU 0 instructions: 21000003 cycles: 10436809 heartbeat IPC: 2.09977 cumulative IPC: 2.10372 (Simulation time: 0 hr 6 min 1 sec) 
Heartbeat CPU 0 instructions: 22000000 cycles: 10910424 heartbeat IPC: 2.11141 cumulative IPC: 2.10436 (Simulation time: 0 hr 6 min 18 sec) 
Heartbeat CPU 0 instructions: 23000000 cycles: 11386312 heartbeat IPC: 2.10133 cumulative IPC: 2.10413 (Simulation time: 0 hr 6 min 36 sec) 
Heartbeat CPU 0 instructions: 24000000 cycles: 11859785 heartbeat IPC: 2.11205 cumulative IPC: 2.10469 (Simulation time: 0 hr 6 min 54 sec) 
Heartbeat CPU 0 instructions: 25000001 cycles: 12336754 heartbeat IPC: 2.09657 cumulative IPC: 2.10415 (Simulation time: 0 hr 7 min 12 sec) 
Heartbeat CPU 0 instructions: 26000001 cycles: 12913612 heartbeat IPC: 1.73353 cumulative IPC: 2.07641 (Simulation time: 0 hr 7 min 30 sec) 
Heartbeat CPU 0 instructions: 27000001 cycles: 13692956 heartbeat IPC: 1.28313 cumulative IPC: 2.00354 (Simulation time: 0 hr 7 min 47 sec) 
Heartbeat CPU 0 instructions: 28000000 cycles: 14166609 heartbeat IPC: 2.11125 cumulative IPC: 2.00924 (Simulation time: 0 hr 8 min 4 sec) 
Heartbeat CPU 0 instructions: 29000002 cycles: 14643675 heartbeat IPC: 2.09615 cumulative IPC: 2.01363 (Simulation time: 0 hr 8 min 20 sec) 
Heartbeat CPU 0 instructions: 30000001 cycles: 15120506 heartbeat IPC: 2.09718 cumulative IPC: 2.01765 (Simulation time: 0 hr 8 min 35 sec) 
Heartbeat CPU 0 instructions: 31000002 cycles: 15593939 heartbeat IPC: 2.11223 cumulative IPC: 2.02196 (Simulation time: 0 hr 8 min 52 sec) 
Heartbeat CPU 0 instructions: 32000000 cycles: 16070331 heartbeat IPC: 2.09911 cumulative IPC: 2.02535 (Simulation time: 0 hr 9 min 8 sec) 
Heartbeat CPU 0 instructions: 33000000 cycles: 16543784 heartbeat IPC: 2.11214 cumulative IPC: 2.02897 (Simulation time: 0 hr 9 min 25 sec) 
Heartbeat CPU 0 instructions: 34000003 cycles: 17020170 heartbeat IPC: 2.09914 cumulative IPC: 2.0318 (Simulation time: 0 hr 9 min 42 sec) 
Heartbeat CPU 0 instructions: 35000002 cycles: 17493580 heartbeat IPC: 2.11233 cumulative IPC: 2.0349 (Simulation time: 0 hr 9 min 58 sec) 
Heartbeat CPU 0 instructions: 36000000 cycles: 17970117 heartbeat IPC: 2.09847 cumulative IPC: 2.03728 (Simulation time: 0 hr 10 min 14 sec) 
Heartbeat CPU 0 instructions: 37000001 cycles: 18443407 heartbeat IPC: 2.11287 cumulative IPC: 2.03998 (Simulation time: 0 hr 10 min 30 sec) 
Heartbeat CPU 0 instructions: 38000000 cycles: 18919246 heartbeat IPC: 2.10155 cumulative IPC: 2.04212 (Simulation time: 0 hr 10 min 47 sec) 
Heartbeat CPU 0 instructions: 39000003 cycles: 19395644 heartbeat IPC: 2.09909 cumulative IPC: 2.04403 (Simulation time: 0 hr 11 min 2 sec) 
Heartbeat CPU 0 instructions: 40000000 cycles: 19869493 heartbeat IPC: 2.11037 cumulative IPC: 2.04617 (Simulation time: 0 hr 11 min 19 sec) 
Heartbeat CPU 0 instructions: 41000001 cycles: 20346126 heartbeat IPC: 2.09805 cumulative IPC: 2.04781 (Simulation time: 0 hr 11 min 35 sec) 
Heartbeat CPU 0 instructions: 42000000 cycles: 20819507 heartbeat IPC: 2.11246 cumulative IPC: 2.04977 (Simulation time: 0 hr 11 min 52 sec) 
Heartbeat CPU 0 instructions: 43000003 cycles: 21295637 heartbeat IPC: 2.10027 cumulative IPC: 2.05126 (Simulation time: 0 hr 12 min 8 sec) 
Heartbeat CPU 0 instructions: 44000000 cycles: 21769167 heartbeat IPC: 2.11179 cumulative IPC: 2.05299 (Simulation time: 0 hr 12 min 27 sec) 
Heartbeat CPU 0 instructions: 45000002 cycles: 22245254 heartbeat IPC: 2.10046 cumulative IPC: 2.05432 (Simulation time: 0 hr 12 min 43 sec) 
Heartbeat CPU 0 instructions: 46000000 cycles: 22721251 heartbeat IPC: 2.10085 cumulative IPC: 2.05558 (Simulation time: 0 hr 12 min 59 sec) 
Heartbeat CPU 0 instructions: 47000001 cycles: 23195082 heartbeat IPC: 2.11046 cumulative IPC: 2.05703 (Simulation time: 0 hr 13 min 16 sec) 
Heartbeat CPU 0 instructions: 48000000 cycles: 23671224 heartbeat IPC: 2.10021 cumulative IPC: 2.05814 (Simulation time: 0 hr 13 min 34 sec) 
Heartbeat CPU 0 instructions: 49000000 cycles: 24144382 heartbeat IPC: 2.11346 cumulative IPC: 2.05953 (Simulation time: 0 hr 13 min 50 sec) 
Heartbeat CPU 0 instructions: 50000001 cycles: 24620289 heartbeat IPC: 2.10125 cumulative IPC: 2.06055 (Simulation time: 0 hr 14 min 6 sec) 
Heartbeat CPU 0 instructions: 51000001 cycles: 25093761 heartbeat IPC: 2.11206 cumulative IPC: 2.06178 (Simulation time: 0 hr 14 min 22 sec) 
Heartbeat CPU 0 instructions: 52000000 cycles: 25569601 heartbeat IPC: 2.10154 cumulative IPC: 2.0627 (Simulation time: 0 hr 14 min 38 sec) 
Heartbeat CPU 0 instructions: 53000001 cycles: 26045639 heartbeat IPC: 2.10067 cumulative IPC: 2.06357 (Simulation time: 0 hr 14 min 54 sec) 
Heartbeat CPU 0 instructions: 54000000 cycles: 26519268 heartbeat IPC: 2.11136 cumulative IPC: 2.06463 (Simulation time: 0 hr 15 min 12 sec) 
Heartbeat CPU 0 instructions: 55000003 cycles: 26995152 heartbeat IPC: 2.10136 cumulative IPC: 2.06544 (Simulation time: 0 hr 15 min 28 sec) 
Heartbeat CPU 0 instructions: 56000000 cycles: 27468508 heartbeat IPC: 2.11257 cumulative IPC: 2.06644 (Simulation time: 0 hr 15 min 44 sec) 
Heartbeat CPU 0 instructions: 57000000 cycles: 27944407 heartbeat IPC: 2.10129 cumulative IPC: 2.06717 (Simulation time: 0 hr 16 min 1 sec) 
Heartbeat CPU 0 instructions: 58000002 cycles: 28417694 heartbeat IPC: 2.11289 cumulative IPC: 2.0681 (Simulation time: 0 hr 16 min 18 sec) 
Heartbeat CPU 0 instructions: 59000003 cycles: 28893627 heartbeat IPC: 2.10114 cumulative IPC: 2.06876 (Simulation time: 0 hr 16 min 36 sec) 
Heartbeat CPU 0 instructions: 60000000 cycles: 29369647 heartbeat IPC: 2.10075 cumulative IPC: 2.06939 (Simulation time: 0 hr 16 min 52 sec) 
Heartbeat CPU 0 instructions: 61000003 cycles: 29843112 heartbeat IPC: 2.11209 cumulative IPC: 2.07021 (Simulation time: 0 hr 17 min 8 sec) 
Heartbeat CPU 0 instructions: 62000000 cycles: 30319009 heartbeat IPC: 2.10129 cumulative IPC: 2.0708 (Simulation time: 0 hr 17 min 24 sec) 
Heartbeat CPU 0 instructions: 63000003 cycles: 30792555 heartbeat IPC: 2.11173 cumulative IPC: 2.07156 (Simulation time: 0 hr 17 min 40 sec) 
Heartbeat CPU 0 instructions: 64000000 cycles: 31268652 heartbeat IPC: 2.10041 cumulative IPC: 2.07209 (Simulation time: 0 hr 17 min 56 sec) 
Heartbeat CPU 0 instructions: 65000002 cycles: 31741952 heartbeat IPC: 2.11283 cumulative IPC: 2.07281 (Simulation time: 0 hr 18 min 12 sec) 
Heartbeat CPU 0 instructions: 66000002 cycles: 32217530 heartbeat IPC: 2.1027 cumulative IPC: 2.07334 (Simulation time: 0 hr 18 min 28 sec) 
Heartbeat CPU 0 instructions: 67000001 cycles: 32690871 heartbeat IPC: 2.11264 cumulative IPC: 2.07402 (Simulation time: 0 hr 18 min 44 sec) 
Heartbeat CPU 0 instructions: 68000000 cycles: 33167170 heartbeat IPC: 2.09952 cumulative IPC: 2.07445 (Simulation time: 0 hr 19 min 1 sec) 
Heartbeat CPU 0 instructions: 69000001 cycles: 33643205 heartbeat IPC: 2.10069 cumulative IPC: 2.07489 (Simulation time: 0 hr 19 min 17 sec) 
Heartbeat CPU 0 instructions: 70000002 cycles: 34116992 heartbeat IPC: 2.11066 cumulative IPC: 2.07548 (Simulation time: 0 hr 19 min 33 sec) 
Heartbeat CPU 0 instructions: 71000003 cycles: 34593121 heartbeat IPC: 2.10027 cumulative IPC: 2.07588 (Simulation time: 0 hr 19 min 49 sec) 
Heartbeat CPU 0 instructions: 72000000 cycles: 35066386 heartbeat IPC: 2.11297 cumulative IPC: 2.07647 (Simulation time: 0 hr 20 min 6 sec) 
Heartbeat CPU 0 instructions: 73000003 cycles: 35542467 heartbeat IPC: 2.10049 cumulative IPC: 2.07684 (Simulation time: 0 hr 20 min 22 sec) 
Heartbeat CPU 0 instructions: 74000000 cycles: 36015967 heartbeat IPC: 2.11193 cumulative IPC: 2.07738 (Simulation time: 0 hr 20 min 38 sec) 
Heartbeat CPU 0 instructions: 75000003 cycles: 36787665 heartbeat IPC: 1.29585 cumulative IPC: 2.05829 (Simulation time: 0 hr 20 min 55 sec) 
Heartbeat CPU 0 instructions: 76000000 cycles: 37261349 heartbeat IPC: 2.11111 cumulative IPC: 2.05907 (Simulation time: 0 hr 21 min 10 sec) 
Heartbeat CPU 0 instructions: 77000003 cycles: 37738247 heartbeat IPC: 2.09689 cumulative IPC: 2.05962 (Simulation time: 0 hr 21 min 26 sec) 
Heartbeat CPU 0 instructions: 78000000 cycles: 38214638 heartbeat IPC: 2.09911 cumulative IPC: 2.06019 (Simulation time: 0 hr 21 min 42 sec) 
Heartbeat CPU 0 instructions: 79000000 cycles: 38688191 heartbeat IPC: 2.1117 cumulative IPC: 2.06092 (Simulation time: 0 hr 21 min 57 sec) 
Heartbeat CPU 0 instructions: 80000000 cycles: 39164175 heartbeat IPC: 2.10091 cumulative IPC: 2.06148 (Simulation time: 0 hr 22 min 13 sec) 
Heartbeat CPU 0 instructions: 81000002 cycles: 39637824 heartbeat IPC: 2.11127 cumulative IPC: 2.06216 (Simulation time: 0 hr 22 min 29 sec) 
Heartbeat CPU 0 instructions: 82000001 cycles: 40114302 heartbeat IPC: 2.09873 cumulative IPC: 2.06266 (Simulation time: 0 hr 22 min 45 sec) 
Heartbeat CPU 0 instructions: 83000001 cycles: 40587746 heartbeat IPC: 2.11218 cumulative IPC: 2.06333 (Simulation time: 0 hr 23 min 1 sec) 
Heartbeat CPU 0 instructions: 84000000 cycles: 41064185 heartbeat IPC: 2.0989 cumulative IPC: 2.0638 (Simulation time: 0 hr 23 min 17 sec) 
Heartbeat CPU 0 instructions: 85000003 cycles: 41537586 heartbeat IPC: 2.11238 cumulative IPC: 2.06443 (Simulation time: 0 hr 23 min 33 sec) 
Heartbeat CPU 0 instructions: 86000003 cycles: 42013909 heartbeat IPC: 2.09942 cumulative IPC: 2.06489 (Simulation time: 0 hr 23 min 50 sec) 
Heartbeat CPU 0 instructions: 87000001 cycles: 42490150 heartbeat IPC: 2.09977 cumulative IPC: 2.06533 (Simulation time: 0 hr 24 min 7 sec) 
Heartbeat CPU 0 instructions: 88000000 cycles: 42963930 heartbeat IPC: 2.11068 cumulative IPC: 2.0659 (Simulation time: 0 hr 24 min 24 sec) 
Heartbeat CPU 0 instructions: 89000000 cycles: 43440288 heartbeat IPC: 2.09926 cumulative IPC: 2.06632 (Simulation time: 0 hr 24 min 41 sec) 
Heartbeat CPU 0 instructions: 90000003 cycles: 43913722 heartbeat IPC: 2.11223 cumulative IPC: 2.06688 (Simulation time: 0 hr 24 min 57 sec) 
Heartbeat CPU 0 instructions: 91000002 cycles: 44390011 heartbeat IPC: 2.09956 cumulative IPC: 2.06727 (Simulation time: 0 hr 25 min 13 sec) 
Heartbeat CPU 0 instructions: 92000000 cycles: 44863347 heartbeat IPC: 2.11266 cumulative IPC: 2.06782 (Simulation time: 0 hr 25 min 29 sec) 
Heartbeat CPU 0 instructions: 93000003 cycles: 45339935 heartbeat IPC: 2.09825 cumulative IPC: 2.06818 (Simulation time: 0 hr 25 min 45 sec) 
Heartbeat CPU 0 instructions: 94000000 cycles: 45815834 heartbeat IPC: 2.10128 cumulative IPC: 2.06857 (Simulation time: 0 hr 26 min 2 sec) 
Heartbeat CPU 0 instructions: 95000003 cycles: 46289477 heartbeat IPC: 2.1113 cumulative IPC: 2.06906 (Simulation time: 0 hr 26 min 18 sec) 
Heartbeat CPU 0 instructions: 96000000 cycles: 46766044 heartbeat IPC: 2.09833 cumulative IPC: 2.06939 (Simulation time: 0 hr 26 min 34 sec) 
Heartbeat CPU 0 instructions: 97000001 cycles: 47239327 heartbeat IPC: 2.1129 cumulative IPC: 2.06988 (Simulation time: 0 hr 26 min 50 sec) 
Heartbeat CPU 0 instructions: 98000000 cycles: 47716042 heartbeat IPC: 2.09769 cumulative IPC: 2.0702 (Simulation time: 0 hr 27 min 5 sec) 
Heartbeat CPU 0 instructions: 99000000 cycles: 48189477 heartbeat IPC: 2.11222 cumulative IPC: 2.07066 (Simulation time: 0 hr 27 min 21 sec) 
Heartbeat CPU 0 instructions: 100000000 cycles: 48665837 heartbeat IPC: 2.09925 cumulative IPC: 2.07097 (Simulation time: 0 hr 27 min 36 sec) 
Heartbeat CPU 0 instructions: 101000002 cycles: 49142162 heartbeat IPC: 2.09941 cumulative IPC: 2.07128 (Simulation time: 0 hr 27 min 53 sec) 
Heartbeat CPU 0 instructions: 102000002 cycles: 49615808 heartbeat IPC: 2.11128 cumulative IPC: 2.07171 (Simulation time: 0 hr 28 min 8 sec) 
Heartbeat CPU 0 instructions: 103000003 cycles: 50092166 heartbeat IPC: 2.09926 cumulative IPC: 2.072 (Simulation time: 0 hr 28 min 24 sec) 
Heartbeat CPU 0 instructions: 104000000 cycles: 50565479 heartbeat IPC: 2.11276 cumulative IPC: 2.07242 (Simulation time: 0 hr 28 min 39 sec) 
Heartbeat CPU 0 instructions: 105000002 cycles: 51041878 heartbeat IPC: 2.09909 cumulative IPC: 2.0727 (Simulation time: 0 hr 28 min 55 sec) 
Heartbeat CPU 0 instructions: 106000000 cycles: 51515113 heartbeat IPC: 2.11311 cumulative IPC: 2.07312 (Simulation time: 0 hr 29 min 10 sec) 
Heartbeat CPU 0 instructions: 107000001 cycles: 51991779 heartbeat IPC: 2.09791 cumulative IPC: 2.07337 (Simulation time: 0 hr 29 min 27 sec) 
Heartbeat CPU 0 instructions: 108000000 cycles: 52467728 heartbeat IPC: 2.10106 cumulative IPC: 2.07365 (Simulation time: 0 hr 29 min 43 sec) 
Heartbeat CPU 0 instructions: 109000001 cycles: 52941193 heartbeat IPC: 2.11209 cumulative IPC: 2.07403 (Simulation time: 0 hr 29 min 59 sec) 
Heartbeat CPU 0 instructions: 110000003 cycles: 53417968 heartbeat IPC: 2.09743 cumulative IPC: 2.07426 (Simulation time: 0 hr 30 min 15 sec) 
Finished CPU 0 instructions: 100000001 cycles: 48209981 cummulative IPC: 2.07426 (Simulation time: 0 hr 30 min 15 sec) 

ChampSim completed all CPUs

Region of Interest Statistics

CPU 0 cummulative IPC: 2.07426 instructions: 100000001 cycles: 48209981
LLC TOTAL     ACCESS:       1896  HIT:          9  MISS:       1887
LLC LOAD      ACCESS:       1706  HIT:          0  MISS:       1706
LLC RFO       ACCESS:        181  HIT:          0  MISS:        181
LLC PREFETCH  ACCESS:          0  HIT:          0  MISS:          0
LLC WRITEBACK ACCESS:          9  HIT:          9  MISS:          0
