
*** ChampSim Multicore Out-of-Order Simulator ***

Warmup Instructions: 10000000
Simulation Instructions: 100000000
Configuration: 1
Number of CPUs: 1
LLC sets: 2048
LLC ways: 16
Off-chip DRAM Channels: 1 Width: 64-bit Data Rate: 1600 MT/s

CPU 0 runs /datasets/cs240c-wi22-a00-public/data/Assignment2-gz/zeusmp_100B.trace.gz
Initialize LRU replacement state
Heartbeat CPU 0 instructions: 1000002 cycles: 464468 heartbeat IPC: 2.15301 cumulative IPC: 2.15301 (Simulation time: 0 hr 0 min 18 sec) 
Heartbeat CPU 0 instructions: 2000001 cycles: 928928 heartbeat IPC: 2.15304 cumulative IPC: 2.15302 (Simulation time: 0 hr 0 min 36 sec) 
Heartbeat CPU 0 instructions: 3000003 cycles: 1393617 heartbeat IPC: 2.15198 cumulative IPC: 2.15267 (Simulation time: 0 hr 0 min 54 sec) 
Heartbeat CPU 0 instructions: 4000000 cycles: 1858062 heartbeat IPC: 2.1531 cumulative IPC: 2.15278 (Simulation time: 0 hr 1 min 13 sec) 
Heartbeat CPU 0 instructions: 5000003 cycles: 2322491 heartbeat IPC: 2.15319 cumulative IPC: 2.15286 (Simulation time: 0 hr 1 min 31 sec) 
Heartbeat CPU 0 instructions: 6000001 cycles: 2787246 heartbeat IPC: 2.15167 cumulative IPC: 2.15266 (Simulation time: 0 hr 1 min 49 sec) 
Heartbeat CPU 0 instructions: 7000001 cycles: 3251588 heartbeat IPC: 2.15358 cumulative IPC: 2.15279 (Simulation time: 0 hr 2 min 7 sec) 
Heartbeat CPU 0 instructions: 8000000 cycles: 3716295 heartbeat IPC: 2.15189 cumulative IPC: 2.15268 (Simulation time: 0 hr 2 min 25 sec) 
Heartbeat CPU 0 instructions: 9000003 cycles: 4180636 heartbeat IPC: 2.1536 cumulative IPC: 2.15278 (Simulation time: 0 hr 2 min 43 sec) 
Heartbeat CPU 0 instructions: 10000001 cycles: 4645606 heartbeat IPC: 2.15067 cumulative IPC: 2.15257 (Simulation time: 0 hr 3 min 1 sec) 

Warmup complete CPU 0 instructions: 10000001 cycles: 4645606 (Simulation time: 0 hr 3 min 1 sec) 

Heartbeat CPU 0 instructions: 11000000 cycles: 5566230 heartbeat IPC: 1.08622 cumulative IPC: 1.08622 (Simulation time: 0 hr 3 min 21 sec) 
Heartbeat CPU 0 instructions: 12000000 cycles: 6490706 heartbeat IPC: 1.08169 cumulative IPC: 1.08395 (Simulation time: 0 hr 3 min 43 sec) 
Heartbeat CPU 0 instructions: 13000001 cycles: 7434018 heartbeat IPC: 1.0601 cumulative IPC: 1.07588 (Simulation time: 0 hr 4 min 4 sec) 
Heartbeat CPU 0 instructions: 14000003 cycles: 8356718 heartbeat IPC: 1.08378 cumulative IPC: 1.07784 (Simulation time: 0 hr 4 min 24 sec) 
Heartbeat CPU 0 instructions: 15000002 cycles: 9281667 heartbeat IPC: 1.08114 cumulative IPC: 1.0785 (Simulation time: 0 hr 4 min 45 sec) 
Heartbeat CPU 0 instructions: 16000000 cycles: 10206573 heartbeat IPC: 1.08119 cumulative IPC: 1.07895 (Simulation time: 0 hr 5 min 6 sec) 
Heartbeat CPU 0 instructions: 17000003 cycles: 11171491 heartbeat IPC: 1.03636 cumulative IPC: 1.07265 (Simulation time: 0 hr 5 min 27 sec) 
Heartbeat CPU 0 instructions: 18000000 cycles: 12061288 heartbeat IPC: 1.12385 cumulative IPC: 1.07879 (Simulation time: 0 hr 5 min 51 sec) 
Heartbeat CPU 0 instructions: 19000002 cycles: 12940984 heartbeat IPC: 1.13676 cumulative IPC: 1.08494 (Simulation time: 0 hr 6 min 13 sec) 
Heartbeat CPU 0 instructions: 20000000 cycles: 13801935 heartbeat IPC: 1.1615 cumulative IPC: 1.09214 (Simulation time: 0 hr 6 min 36 sec) 
Heartbeat CPU 0 instructions: 21000001 cycles: 14676744 heartbeat IPC: 1.14311 cumulative IPC: 1.09659 (Simulation time: 0 hr 6 min 57 sec) 
Heartbeat CPU 0 instructions: 22000001 cycles: 15540483 heartbeat IPC: 1.15776 cumulative IPC: 1.10144 (Simulation time: 0 hr 7 min 22 sec) 
Heartbeat CPU 0 instructions: 23000002 cycles: 16423034 heartbeat IPC: 1.13308 cumulative IPC: 1.10381 (Simulation time: 0 hr 7 min 47 sec) 
Heartbeat CPU 0 instructions: 24000000 cycles: 17287564 heartbeat IPC: 1.1567 cumulative IPC: 1.10742 (Simulation time: 0 hr 8 min 8 sec) 
Heartbeat CPU 0 instructions: 25000002 cycles: 18165802 heartbeat IPC: 1.13865 cumulative IPC: 1.10945 (Simulation time: 0 hr 8 min 30 sec) 
Heartbeat CPU 0 instructions: 26000001 cycles: 19029871 heartbeat IPC: 1.15731 cumulative IPC: 1.11233 (Simulation time: 0 hr 8 min 52 sec) 
Heartbeat CPU 0 instructions: 27000000 cycles: 19909542 heartbeat IPC: 1.13679 cumulative IPC: 1.11374 (Simulation time: 0 hr 9 min 16 sec) 
Heartbeat CPU 0 instructions: 28000000 cycles: 20778384 heartbeat IPC: 1.15096 cumulative IPC: 1.11574 (Simulation time: 0 hr 9 min 40 sec) 
Heartbeat CPU 0 instructions: 29000000 cycles: 21642410 heartbeat IPC: 1.15737 cumulative IPC: 1.11786 (Simulation time: 0 hr 10 min 1 sec) 
Heartbeat CPU 0 instructions: 30000003 cycles: 22518533 heartbeat IPC: 1.1414 cumulative IPC: 1.11901 (Simulation time: 0 hr 10 min 22 sec) 
Heartbeat CPU 0 instructions: 31000000 cycles: 23385105 heartbeat IPC: 1.15397 cumulative IPC: 1.12063 (Simulation time: 0 hr 10 min 44 sec) 
Heartbeat CPU 0 instructions: 32000000 cycles: 24268374 heartbeat IPC: 1.13216 cumulative IPC: 1.12115 (Simulation time: 0 hr 11 min 4 sec) 
Heartbeat CPU 0 instructions: 33000002 cycles: 25132206 heartbeat IPC: 1.15763 cumulative IPC: 1.12269 (Simulation time: 0 hr 11 min 23 sec) 
Heartbeat CPU 0 instructions: 34000002 cycles: 26010977 heartbeat IPC: 1.13795 cumulative IPC: 1.12331 (Simulation time: 0 hr 11 min 43 sec) 
Heartbeat CPU 0 instructions: 35000003 cycles: 26876985 heartbeat IPC: 1.15472 cumulative IPC: 1.12454 (Simulation time: 0 hr 12 min 3 sec) 
Heartbeat CPU 0 instructions: 36000000 cycles: 27754661 heartbeat IPC: 1.13937 cumulative IPC: 1.1251 (Simulation time: 0 hr 12 min 24 sec) 
Heartbeat CPU 0 instructions: 37000001 cycles: 28623670 heartbeat IPC: 1.15074 cumulative IPC: 1.12603 (Simulation time: 0 hr 12 min 44 sec) 
Heartbeat CPU 0 instructions: 38000003 cycles: 29500333 heartbeat IPC: 1.14069 cumulative IPC: 1.12655 (Simulation time: 0 hr 13 min 4 sec) 
Heartbeat CPU 0 instructions: 39000001 cycles: 30366145 heartbeat IPC: 1.15498 cumulative IPC: 1.1275 (Simulation time: 0 hr 13 min 25 sec) 
Heartbeat CPU 0 instructions: 40000000 cycles: 31243909 heartbeat IPC: 1.13926 cumulative IPC: 1.12789 (Simulation time: 0 hr 13 min 55 sec) 
Heartbeat CPU 0 instructions: 41000002 cycles: 32115539 heartbeat IPC: 1.14728 cumulative IPC: 1.12851 (Simulation time: 0 hr 14 min 18 sec) 
Heartbeat CPU 0 instructions: 42000000 cycles: 32981164 heartbeat IPC: 1.15523 cumulative IPC: 1.12932 (Simulation time: 0 hr 14 min 39 sec) 
Heartbeat CPU 0 instructions: 43000003 cycles: 33857031 heartbeat IPC: 1.14173 cumulative IPC: 1.1297 (Simulation time: 0 hr 15 min 0 sec) 
Heartbeat CPU 0 instructions: 44000000 cycles: 34720416 heartbeat IPC: 1.15823 cumulative IPC: 1.13051 (Simulation time: 0 hr 15 min 20 sec) 
Heartbeat CPU 0 instructions: 45000001 cycles: 35597589 heartbeat IPC: 1.14003 cumulative IPC: 1.13078 (Simulation time: 0 hr 15 min 41 sec) 
Heartbeat CPU 0 instructions: 46000002 cycles: 36468740 heartbeat IPC: 1.14791 cumulative IPC: 1.13125 (Simulation time: 0 hr 16 min 2 sec) 
Heartbeat CPU 0 instructions: 47000003 cycles: 37345896 heartbeat IPC: 1.14005 cumulative IPC: 1.13149 (Simulation time: 0 hr 16 min 24 sec) 
Heartbeat CPU 0 instructions: 48000000 cycles: 38212210 heartbeat IPC: 1.15431 cumulative IPC: 1.13208 (Simulation time: 0 hr 16 min 47 sec) 
Heartbeat CPU 0 instructions: 49000001 cycles: 39089583 heartbeat IPC: 1.13977 cumulative IPC: 1.13227 (Simulation time: 0 hr 17 min 11 sec) 
Heartbeat CPU 0 instructions: 50000001 cycles: 39962558 heartbeat IPC: 1.14551 cumulative IPC: 1.1326 (Simulation time: 0 hr 17 min 32 sec) 
Heartbeat CPU 0 instructions: 51000002 cycles: 40841839 heartbeat IPC: 1.13729 cumulative IPC: 1.13271 (Simulation time: 0 hr 17 min 56 sec) 
Heartbeat CPU 0 instructions: 52000000 cycles: 41710450 heartbeat IPC: 1.15126 cumulative IPC: 1.13315 (Simulation time: 0 hr 18 min 20 sec) 
Heartbeat CPU 0 instructions: 53000001 cycles: 42589499 heartbeat IPC: 1.13759 cumulative IPC: 1.13325 (Simulation time: 0 hr 18 min 42 sec) 
Heartbeat CPU 0 instructions: 54000003 cycles: 43454903 heartbeat IPC: 1.15553 cumulative IPC: 1.13375 (Simulation time: 0 hr 19 min 5 sec) 
Heartbeat CPU 0 instructions: 55000003 cycles: 44335423 heartbeat IPC: 1.13569 cumulative IPC: 1.13379 (Simulation time: 0 hr 19 min 27 sec) 
Heartbeat CPU 0 instructions: 56000000 cycles: 45205100 heartbeat IPC: 1.14985 cumulative IPC: 1.13414 (Simulation time: 0 hr 19 min 47 sec) 
Heartbeat CPU 0 instructions: 57000003 cycles: 46070647 heartbeat IPC: 1.15534 cumulative IPC: 1.13458 (Simulation time: 0 hr 20 min 10 sec) 
Heartbeat CPU 0 instructions: 58000003 cycles: 46948421 heartbeat IPC: 1.13925 cumulative IPC: 1.13468 (Simulation time: 0 hr 20 min 32 sec) 
Heartbeat CPU 0 instructions: 59000002 cycles: 47816428 heartbeat IPC: 1.15206 cumulative IPC: 1.13503 (Simulation time: 0 hr 20 min 54 sec) 
Heartbeat CPU 0 instructions: 60000000 cycles: 48693445 heartbeat IPC: 1.14023 cumulative IPC: 1.13513 (Simulation time: 0 hr 21 min 18 sec) 
Heartbeat CPU 0 instructions: 61000000 cycles: 49557271 heartbeat IPC: 1.15764 cumulative IPC: 1.13556 (Simulation time: 0 hr 21 min 39 sec) 
Heartbeat CPU 0 instructions: 62000001 cycles: 50434499 heartbeat IPC: 1.13996 cumulative IPC: 1.13565 (Simulation time: 0 hr 22 min 4 sec) 
Heartbeat CPU 0 instructions: 63000001 cycles: 51299982 heartbeat IPC: 1.15542 cumulative IPC: 1.13601 (Simulation time: 0 hr 22 min 27 sec) 
Heartbeat CPU 0 instructions: 64000000 cycles: 52183202 heartbeat IPC: 1.13222 cumulative IPC: 1.13594 (Simulation time: 0 hr 22 min 49 sec) 
Heartbeat CPU 0 instructions: 65000003 cycles: 53049059 heartbeat IPC: 1.15493 cumulative IPC: 1.13628 (Simulation time: 0 hr 23 min 11 sec) 
Heartbeat CPU 0 instructions: 66000002 cycles: 53925004 heartbeat IPC: 1.14162 cumulative IPC: 1.13638 (Simulation time: 0 hr 23 min 33 sec) 
Heartbeat CPU 0 instructions: 67000000 cycles: 54789380 heartbeat IPC: 1.1569 cumulative IPC: 1.13673 (Simulation time: 0 hr 23 min 55 sec) 
Heartbeat CPU 0 instructions: 68000000 cycles: 55668778 heartbeat IPC: 1.13714 cumulative IPC: 1.13674 (Simulation time: 0 hr 24 min 15 sec) 
Heartbeat CPU 0 instructions: 69000000 cycles: 56537464 heartbeat IPC: 1.15116 cumulative IPC: 1.13698 (Simulation time: 0 hr 24 min 36 sec) 
Heartbeat CPU 0 instructions: 70000003 cycles: 57402298 heartbeat IPC: 1.15629 cumulative IPC: 1.1373 (Simulation time: 0 hr 24 min 58 sec) 
Heartbeat CPU 0 instructions: 71000003 cycles: 58279911 heartbeat IPC: 1.13945 cumulative IPC: 1.13733 (Simulation time: 0 hr 25 min 21 sec) 
Heartbeat CPU 0 instructions: 72000000 cycles: 59147520 heartbeat IPC: 1.15259 cumulative IPC: 1.13757 (Simulation time: 0 hr 25 min 41 sec) 
Heartbeat CPU 0 instructions: 73000002 cycles: 60031196 heartbeat IPC: 1.13164 cumulative IPC: 1.13748 (Simulation time: 0 hr 26 min 3 sec) 
Heartbeat CPU 0 instructions: 74000003 cycles: 60898244 heartbeat IPC: 1.15334 cumulative IPC: 1.13772 (Simulation time: 0 hr 26 min 24 sec) 
Heartbeat CPU 0 instructions: 75000003 cycles: 61775268 heartbeat IPC: 1.14022 cumulative IPC: 1.13776 (Simulation time: 0 hr 26 min 44 sec) 
Heartbeat CPU 0 instructions: 76000000 cycles: 62641729 heartbeat IPC: 1.15412 cumulative IPC: 1.13801 (Simulation time: 0 hr 27 min 5 sec) 
Heartbeat CPU 0 instructions: 77000003 cycles: 63521812 heartbeat IPC: 1.13626 cumulative IPC: 1.13798 (Simulation time: 0 hr 27 min 26 sec) 
Heartbeat CPU 0 instructions: 78000001 cycles: 64391507 heartbeat IPC: 1.14983 cumulative IPC: 1.13815 (Simulation time: 0 hr 27 min 48 sec) 
Heartbeat CPU 0 instructions: 79000000 cycles: 65269530 heartbeat IPC: 1.13892 cumulative IPC: 1.13816 (Simulation time: 0 hr 28 min 9 sec) 
Heartbeat CPU 0 instructions: 80000000 cycles: 66134705 heartbeat IPC: 1.15584 cumulative IPC: 1.13841 (Simulation time: 0 hr 28 min 29 sec) 
Heartbeat CPU 0 instructions: 81000003 cycles: 67014316 heartbeat IPC: 1.13687 cumulative IPC: 1.13839 (Simulation time: 0 hr 28 min 49 sec) 
Heartbeat CPU 0 instructions: 82000001 cycles: 67886001 heartbeat IPC: 1.1472 cumulative IPC: 1.13851 (Simulation time: 0 hr 29 min 12 sec) 
Heartbeat CPU 0 instructions: 83000002 cycles: 68751292 heartbeat IPC: 1.15568 cumulative IPC: 1.13874 (Simulation time: 0 hr 29 min 38 sec) 
Heartbeat CPU 0 instructions: 84000000 cycles: 69628342 heartbeat IPC: 1.14018 cumulative IPC: 1.13876 (Simulation time: 0 hr 30 min 2 sec) 
Heartbeat CPU 0 instructions: 85000001 cycles: 70493356 heartbeat IPC: 1.15605 cumulative IPC: 1.13899 (Simulation time: 0 hr 30 min 26 sec) 
Heartbeat CPU 0 instructions: 86000001 cycles: 71369534 heartbeat IPC: 1.14132 cumulative IPC: 1.13902 (Simulation time: 0 hr 30 min 46 sec) 
Heartbeat CPU 0 instructions: 87000001 cycles: 72241396 heartbeat IPC: 1.14697 cumulative IPC: 1.13912 (Simulation time: 0 hr 31 min 9 sec) 
Heartbeat CPU 0 instructions: 88000000 cycles: 73118254 heartbeat IPC: 1.14043 cumulative IPC: 1.13914 (Simulation time: 0 hr 31 min 29 sec) 
Heartbeat CPU 0 instructions: 89000003 cycles: 73983037 heartbeat IPC: 1.15636 cumulative IPC: 1.13936 (Simulation time: 0 hr 31 min 49 sec) 
Heartbeat CPU 0 instructions: 90000001 cycles: 74859824 heartbeat IPC: 1.14053 cumulative IPC: 1.13937 (Simulation time: 0 hr 32 min 11 sec) 
Heartbeat CPU 0 instructions: 91000000 cycles: 75729657 heartbeat IPC: 1.14964 cumulative IPC: 1.1395 (Simulation time: 0 hr 32 min 37 sec) 
Heartbeat CPU 0 instructions: 92000000 cycles: 76607526 heartbeat IPC: 1.13912 cumulative IPC: 1.13949 (Simulation time: 0 hr 32 min 58 sec) 
Heartbeat CPU 0 instructions: 93000001 cycles: 77471031 heartbeat IPC: 1.15807 cumulative IPC: 1.13971 (Simulation time: 0 hr 33 min 19 sec) 
Heartbeat CPU 0 instructions: 94000003 cycles: 78347318 heartbeat IPC: 1.14118 cumulative IPC: 1.13973 (Simulation time: 0 hr 33 min 39 sec) 
Heartbeat CPU 0 instructions: 95000003 cycles: 79211403 heartbeat IPC: 1.15729 cumulative IPC: 1.13993 (Simulation time: 0 hr 34 min 0 sec) 
Heartbeat CPU 0 instructions: 96000000 cycles: 80083139 heartbeat IPC: 1.14713 cumulative IPC: 1.14002 (Simulation time: 0 hr 34 min 18 sec) 
Heartbeat CPU 0 instructions: 97000000 cycles: 80960686 heartbeat IPC: 1.13954 cumulative IPC: 1.14001 (Simulation time: 0 hr 34 min 39 sec) 
Heartbeat CPU 0 instructions: 98000001 cycles: 81826251 heartbeat IPC: 1.15532 cumulative IPC: 1.14018 (Simulation time: 0 hr 34 min 58 sec) 
Heartbeat CPU 0 instructions: 99000001 cycles: 82702907 heartbeat IPC: 1.1407 cumulative IPC: 1.14019 (Simulation time: 0 hr 35 min 19 sec) 
Heartbeat CPU 0 instructions: 100000000 cycles: 83571284 heartbeat IPC: 1.15157 cumulative IPC: 1.14031 (Simulation time: 0 hr 35 min 38 sec) 
Heartbeat CPU 0 instructions: 101000002 cycles: 84448916 heartbeat IPC: 1.13943 cumulative IPC: 1.1403 (Simulation time: 0 hr 35 min 56 sec) 
Heartbeat CPU 0 instructions: 102000003 cycles: 85313624 heartbeat IPC: 1.15646 cumulative IPC: 1.14048 (Simulation time: 0 hr 36 min 13 sec) 
Heartbeat CPU 0 instructions: 103000001 cycles: 86189165 heartbeat IPC: 1.14215 cumulative IPC: 1.14049 (Simulation time: 0 hr 36 min 31 sec) 
Heartbeat CPU 0 instructions: 104000000 cycles: 87053164 heartbeat IPC: 1.15741 cumulative IPC: 1.14067 (Simulation time: 0 hr 36 min 46 sec) 
Heartbeat CPU 0 instructions: 105000003 cycles: 87935389 heartbeat IPC: 1.1335 cumulative IPC: 1.1406 (Simulation time: 0 hr 37 min 2 sec) 
Heartbeat CPU 0 instructions: 106000002 cycles: 88799430 heartbeat IPC: 1.15735 cumulative IPC: 1.14077 (Simulation time: 0 hr 37 min 17 sec) 
Heartbeat CPU 0 instructions: 107000000 cycles: 89675344 heartbeat IPC: 1.14166 cumulative IPC: 1.14078 (Simulation time: 0 hr 37 min 33 sec) 
Heartbeat CPU 0 instructions: 108000000 cycles: 90537890 heartbeat IPC: 1.15936 cumulative IPC: 1.14096 (Simulation time: 0 hr 37 min 50 sec) 
Heartbeat CPU 0 instructions: 109000002 cycles: 91407851 heartbeat IPC: 1.14948 cumulative IPC: 1.14105 (Simulation time: 0 hr 38 min 7 sec) 
Heartbeat CPU 0 instructions: 110000000 cycles: 92287614 heartbeat IPC: 1.13667 cumulative IPC: 1.14101 (Simulation time: 0 hr 38 min 25 sec) 
Finished CPU 0 instructions: 100000003 cycles: 87642009 cummulative IPC: 1.14101 (Simulation time: 0 hr 38 min 25 sec) 

ChampSim completed all CPUs

Region of Interest Statistics

CPU 0 cummulative IPC: 1.14101 instructions: 100000003 cycles: 87642009
LLC TOTAL     ACCESS:     789890  HIT:     290928  MISS:     498962
LLC LOAD      ACCESS:     401404  HIT:      96008  MISS:     305396
LLC RFO       ACCESS:     194179  HIT:        917  MISS:     193262
LLC PREFETCH  ACCESS:          0  HIT:          0  MISS:          0
LLC WRITEBACK ACCESS:     194307  HIT:     194003  MISS:        304
