
*** ChampSim Multicore Out-of-Order Simulator ***

Warmup Instructions: 10000000
Simulation Instructions: 100000000
Configuration: 1
Number of CPUs: 1
LLC sets: 2048
LLC ways: 16
Off-chip DRAM Channels: 1 Width: 64-bit Data Rate: 1600 MT/s

CPU 0 runs /datasets/cs240c-wi22-a00-public/data/Assignment2-gz/lbm_94B.trace.gz
Initialize LRU replacement state
Heartbeat CPU 0 instructions: 1000000 cycles: 422411 heartbeat IPC: 2.36736 cumulative IPC: 2.36736 (Simulation time: 0 hr 0 min 24 sec) 
Heartbeat CPU 0 instructions: 2000000 cycles: 812709 heartbeat IPC: 2.56214 cumulative IPC: 2.46091 (Simulation time: 0 hr 0 min 44 sec) 
Heartbeat CPU 0 instructions: 3000000 cycles: 1211869 heartbeat IPC: 2.50526 cumulative IPC: 2.47552 (Simulation time: 0 hr 1 min 3 sec) 
Heartbeat CPU 0 instructions: 4000000 cycles: 1632043 heartbeat IPC: 2.37997 cumulative IPC: 2.45092 (Simulation time: 0 hr 1 min 24 sec) 
Heartbeat CPU 0 instructions: 5000001 cycles: 2022321 heartbeat IPC: 2.56228 cumulative IPC: 2.47241 (Simulation time: 0 hr 1 min 45 sec) 
Heartbeat CPU 0 instructions: 6000000 cycles: 2423000 heartbeat IPC: 2.49576 cumulative IPC: 2.47627 (Simulation time: 0 hr 2 min 5 sec) 
Heartbeat CPU 0 instructions: 7000001 cycles: 2841339 heartbeat IPC: 2.39041 cumulative IPC: 2.46363 (Simulation time: 0 hr 2 min 25 sec) 
Heartbeat CPU 0 instructions: 8000000 cycles: 3231564 heartbeat IPC: 2.56262 cumulative IPC: 2.47558 (Simulation time: 0 hr 2 min 46 sec) 
Heartbeat CPU 0 instructions: 9000003 cycles: 3632646 heartbeat IPC: 2.49326 cumulative IPC: 2.47753 (Simulation time: 0 hr 3 min 9 sec) 
Heartbeat CPU 0 instructions: 10000000 cycles: 4049322 heartbeat IPC: 2.39994 cumulative IPC: 2.46955 (Simulation time: 0 hr 3 min 29 sec) 

Warmup complete CPU 0 instructions: 10000004 cycles: 4049323 (Simulation time: 0 hr 3 min 29 sec) 

Heartbeat CPU 0 instructions: 11000003 cycles: 5917212 heartbeat IPC: 0.535365 cumulative IPC: 0.535363 (Simulation time: 0 hr 3 min 56 sec) 
Heartbeat CPU 0 instructions: 12000000 cycles: 7899240 heartbeat IPC: 0.504532 cumulative IPC: 0.519491 (Simulation time: 0 hr 4 min 22 sec) 
Heartbeat CPU 0 instructions: 13000000 cycles: 10061011 heartbeat IPC: 0.462584 cumulative IPC: 0.499027 (Simulation time: 0 hr 4 min 52 sec) 
Heartbeat CPU 0 instructions: 14000000 cycles: 11910746 heartbeat IPC: 0.540618 cumulative IPC: 0.508813 (Simulation time: 0 hr 5 min 20 sec) 
Heartbeat CPU 0 instructions: 15000001 cycles: 13897242 heartbeat IPC: 0.503399 cumulative IPC: 0.507721 (Simulation time: 0 hr 5 min 50 sec) 
Heartbeat CPU 0 instructions: 16000000 cycles: 16076395 heartbeat IPC: 0.458893 cumulative IPC: 0.498874 (Simulation time: 0 hr 6 min 22 sec) 
Heartbeat CPU 0 instructions: 17000001 cycles: 17922965 heartbeat IPC: 0.541545 cumulative IPC: 0.504554 (Simulation time: 0 hr 6 min 50 sec) 
Heartbeat CPU 0 instructions: 18000001 cycles: 19882163 heartbeat IPC: 0.510413 cumulative IPC: 0.505279 (Simulation time: 0 hr 7 min 17 sec) 
Heartbeat CPU 0 instructions: 19000000 cycles: 22020962 heartbeat IPC: 0.467552 cumulative IPC: 0.500789 (Simulation time: 0 hr 7 min 43 sec) 
Heartbeat CPU 0 instructions: 20000000 cycles: 23883935 heartbeat IPC: 0.536776 cumulative IPC: 0.504169 (Simulation time: 0 hr 8 min 9 sec) 
Heartbeat CPU 0 instructions: 21000001 cycles: 25820001 heartbeat IPC: 0.516512 cumulative IPC: 0.505267 (Simulation time: 0 hr 8 min 33 sec) 
Heartbeat CPU 0 instructions: 22000000 cycles: 27991899 heartbeat IPC: 0.460426 cumulative IPC: 0.501199 (Simulation time: 0 hr 9 min 0 sec) 
Heartbeat CPU 0 instructions: 23000000 cycles: 29850851 heartbeat IPC: 0.537938 cumulative IPC: 0.503846 (Simulation time: 0 hr 9 min 25 sec) 
Heartbeat CPU 0 instructions: 24000000 cycles: 31795014 heartbeat IPC: 0.51436 cumulative IPC: 0.504583 (Simulation time: 0 hr 9 min 50 sec) 
Heartbeat CPU 0 instructions: 25000000 cycles: 33932932 heartbeat IPC: 0.467745 cumulative IPC: 0.501947 (Simulation time: 0 hr 10 min 19 sec) 
Heartbeat CPU 0 instructions: 26000000 cycles: 35778688 heartbeat IPC: 0.541783 cumulative IPC: 0.504265 (Simulation time: 0 hr 10 min 45 sec) 
Heartbeat CPU 0 instructions: 27000002 cycles: 37690484 heartbeat IPC: 0.523069 cumulative IPC: 0.505333 (Simulation time: 0 hr 11 min 12 sec) 
Heartbeat CPU 0 instructions: 28000000 cycles: 39845735 heartbeat IPC: 0.463982 cumulative IPC: 0.502844 (Simulation time: 0 hr 11 min 39 sec) 
Heartbeat CPU 0 instructions: 29000000 cycles: 41713464 heartbeat IPC: 0.53541 cumulative IPC: 0.504458 (Simulation time: 0 hr 12 min 7 sec) 
Heartbeat CPU 0 instructions: 30000000 cycles: 43613033 heartbeat IPC: 0.526435 cumulative IPC: 0.505514 (Simulation time: 0 hr 12 min 35 sec) 
Heartbeat CPU 0 instructions: 31000003 cycles: 45715530 heartbeat IPC: 0.475626 cumulative IPC: 0.504006 (Simulation time: 0 hr 13 min 5 sec) 
Heartbeat CPU 0 instructions: 32000000 cycles: 47568525 heartbeat IPC: 0.539665 cumulative IPC: 0.505524 (Simulation time: 0 hr 13 min 32 sec) 
Heartbeat CPU 0 instructions: 33000000 cycles: 49498914 heartbeat IPC: 0.51803 cumulative IPC: 0.506055 (Simulation time: 0 hr 13 min 58 sec) 
Heartbeat CPU 0 instructions: 34000003 cycles: 51574768 heartbeat IPC: 0.481731 cumulative IPC: 0.504993 (Simulation time: 0 hr 14 min 28 sec) 
Heartbeat CPU 0 instructions: 35000003 cycles: 53427721 heartbeat IPC: 0.539679 cumulative IPC: 0.506294 (Simulation time: 0 hr 14 min 55 sec) 
Heartbeat CPU 0 instructions: 36000000 cycles: 55334378 heartbeat IPC: 0.524477 cumulative IPC: 0.50697 (Simulation time: 0 hr 15 min 19 sec) 
Heartbeat CPU 0 instructions: 37000003 cycles: 57329187 heartbeat IPC: 0.501303 cumulative IPC: 0.506758 (Simulation time: 0 hr 15 min 44 sec) 
Heartbeat CPU 0 instructions: 38000000 cycles: 59220924 heartbeat IPC: 0.528613 cumulative IPC: 0.507507 (Simulation time: 0 hr 16 min 13 sec) 
Heartbeat CPU 0 instructions: 39000002 cycles: 61053311 heartbeat IPC: 0.545737 cumulative IPC: 0.508736 (Simulation time: 0 hr 16 min 38 sec) 
Heartbeat CPU 0 instructions: 40000000 cycles: 63029862 heartbeat IPC: 0.505931 cumulative IPC: 0.508642 (Simulation time: 0 hr 17 min 3 sec) 
Heartbeat CPU 0 instructions: 41000003 cycles: 64997143 heartbeat IPC: 0.508317 cumulative IPC: 0.508632 (Simulation time: 0 hr 17 min 28 sec) 
Heartbeat CPU 0 instructions: 42000000 cycles: 66849850 heartbeat IPC: 0.539749 cumulative IPC: 0.50955 (Simulation time: 0 hr 17 min 52 sec) 
Heartbeat CPU 0 instructions: 43000003 cycles: 68772296 heartbeat IPC: 0.520172 cumulative IPC: 0.509865 (Simulation time: 0 hr 18 min 17 sec) 
Heartbeat CPU 0 instructions: 44000000 cycles: 70746450 heartbeat IPC: 0.506545 cumulative IPC: 0.509767 (Simulation time: 0 hr 18 min 42 sec) 
Heartbeat CPU 0 instructions: 45000002 cycles: 72593955 heartbeat IPC: 0.541272 cumulative IPC: 0.510616 (Simulation time: 0 hr 19 min 7 sec) 
Heartbeat CPU 0 instructions: 46000001 cycles: 74480477 heartbeat IPC: 0.530075 cumulative IPC: 0.511137 (Simulation time: 0 hr 19 min 32 sec) 
Heartbeat CPU 0 instructions: 47000003 cycles: 76429808 heartbeat IPC: 0.512998 cumulative IPC: 0.511187 (Simulation time: 0 hr 19 min 59 sec) 
Heartbeat CPU 0 instructions: 48000000 cycles: 78263926 heartbeat IPC: 0.54522 cumulative IPC: 0.512029 (Simulation time: 0 hr 20 min 23 sec) 
Heartbeat CPU 0 instructions: 49000000 cycles: 80175641 heartbeat IPC: 0.523091 cumulative IPC: 0.512306 (Simulation time: 0 hr 20 min 47 sec) 
Heartbeat CPU 0 instructions: 50000003 cycles: 82084593 heartbeat IPC: 0.523849 cumulative IPC: 0.512589 (Simulation time: 0 hr 21 min 11 sec) 
Heartbeat CPU 0 instructions: 51000003 cycles: 83931160 heartbeat IPC: 0.541545 cumulative IPC: 0.513258 (Simulation time: 0 hr 21 min 36 sec) 
Heartbeat CPU 0 instructions: 52000000 cycles: 85774898 heartbeat IPC: 0.542375 cumulative IPC: 0.513915 (Simulation time: 0 hr 22 min 0 sec) 
Heartbeat CPU 0 instructions: 53000001 cycles: 87693783 heartbeat IPC: 0.521137 cumulative IPC: 0.514081 (Simulation time: 0 hr 22 min 26 sec) 
Heartbeat CPU 0 instructions: 54000000 cycles: 89562434 heartbeat IPC: 0.535145 cumulative IPC: 0.514541 (Simulation time: 0 hr 22 min 52 sec) 
Heartbeat CPU 0 instructions: 55000003 cycles: 91418646 heartbeat IPC: 0.538733 cumulative IPC: 0.515055 (Simulation time: 0 hr 23 min 15 sec) 
Heartbeat CPU 0 instructions: 56000000 cycles: 93318029 heartbeat IPC: 0.526485 cumulative IPC: 0.515298 (Simulation time: 0 hr 23 min 43 sec) 
Heartbeat CPU 0 instructions: 57000003 cycles: 95171536 heartbeat IPC: 0.539519 cumulative IPC: 0.515791 (Simulation time: 0 hr 24 min 11 sec) 
Heartbeat CPU 0 instructions: 58000000 cycles: 97025793 heartbeat IPC: 0.539298 cumulative IPC: 0.51626 (Simulation time: 0 hr 24 min 38 sec) 
Heartbeat CPU 0 instructions: 59000002 cycles: 98918382 heartbeat IPC: 0.528378 cumulative IPC: 0.516501 (Simulation time: 0 hr 25 min 5 sec) 
Heartbeat CPU 0 instructions: 60000000 cycles: 100772621 heartbeat IPC: 0.539304 cumulative IPC: 0.516939 (Simulation time: 0 hr 25 min 32 sec) 
Heartbeat CPU 0 instructions: 61000000 cycles: 102612875 heartbeat IPC: 0.543403 cumulative IPC: 0.517433 (Simulation time: 0 hr 25 min 59 sec) 
Heartbeat CPU 0 instructions: 62000000 cycles: 104453776 heartbeat IPC: 0.543212 cumulative IPC: 0.517905 (Simulation time: 0 hr 26 min 25 sec) 
Heartbeat CPU 0 instructions: 63000003 cycles: 106360750 heartbeat IPC: 0.524393 cumulative IPC: 0.518026 (Simulation time: 0 hr 26 min 50 sec) 
Heartbeat CPU 0 instructions: 64000000 cycles: 108204802 heartbeat IPC: 0.542282 cumulative IPC: 0.518456 (Simulation time: 0 hr 27 min 14 sec) 
Heartbeat CPU 0 instructions: 65000001 cycles: 110043536 heartbeat IPC: 0.543853 cumulative IPC: 0.518896 (Simulation time: 0 hr 27 min 38 sec) 
Heartbeat CPU 0 instructions: 66000002 cycles: 111950103 heartbeat IPC: 0.524503 cumulative IPC: 0.518995 (Simulation time: 0 hr 28 min 5 sec) 
Heartbeat CPU 0 instructions: 67000002 cycles: 113809939 heartbeat IPC: 0.537682 cumulative IPC: 0.519312 (Simulation time: 0 hr 28 min 33 sec) 
Heartbeat CPU 0 instructions: 68000000 cycles: 115651325 heartbeat IPC: 0.543068 cumulative IPC: 0.519704 (Simulation time: 0 hr 28 min 59 sec) 
Heartbeat CPU 0 instructions: 69000000 cycles: 117519105 heartbeat IPC: 0.535395 cumulative IPC: 0.519962 (Simulation time: 0 hr 29 min 23 sec) 
Heartbeat CPU 0 instructions: 70000003 cycles: 119437392 heartbeat IPC: 0.5213 cumulative IPC: 0.519984 (Simulation time: 0 hr 29 min 47 sec) 
Heartbeat CPU 0 instructions: 71000001 cycles: 121281562 heartbeat IPC: 0.542248 cumulative IPC: 0.520335 (Simulation time: 0 hr 30 min 12 sec) 
Heartbeat CPU 0 instructions: 72000000 cycles: 123126955 heartbeat IPC: 0.541889 cumulative IPC: 0.520669 (Simulation time: 0 hr 30 min 38 sec) 
Heartbeat CPU 0 instructions: 73000001 cycles: 125052447 heartbeat IPC: 0.519348 cumulative IPC: 0.520648 (Simulation time: 0 hr 31 min 6 sec) 
Heartbeat CPU 0 instructions: 74000001 cycles: 126899772 heartbeat IPC: 0.541323 cumulative IPC: 0.520959 (Simulation time: 0 hr 31 min 32 sec) 
Heartbeat CPU 0 instructions: 75000003 cycles: 128743254 heartbeat IPC: 0.542453 cumulative IPC: 0.521276 (Simulation time: 0 hr 31 min 57 sec) 
Heartbeat CPU 0 instructions: 76000000 cycles: 130644607 heartbeat IPC: 0.52594 cumulative IPC: 0.521346 (Simulation time: 0 hr 32 min 21 sec) 
Heartbeat CPU 0 instructions: 77000002 cycles: 132478017 heartbeat IPC: 0.545433 cumulative IPC: 0.52169 (Simulation time: 0 hr 32 min 44 sec) 
Heartbeat CPU 0 instructions: 78000003 cycles: 134329747 heartbeat IPC: 0.540036 cumulative IPC: 0.521951 (Simulation time: 0 hr 33 min 7 sec) 
Heartbeat CPU 0 instructions: 79000000 cycles: 136176505 heartbeat IPC: 0.541488 cumulative IPC: 0.522224 (Simulation time: 0 hr 33 min 32 sec) 
Heartbeat CPU 0 instructions: 80000000 cycles: 138076294 heartbeat IPC: 0.526374 cumulative IPC: 0.522283 (Simulation time: 0 hr 33 min 59 sec) 
Heartbeat CPU 0 instructions: 81000000 cycles: 139930243 heartbeat IPC: 0.539389 cumulative IPC: 0.522516 (Simulation time: 0 hr 34 min 21 sec) 
Heartbeat CPU 0 instructions: 82000000 cycles: 141756303 heartbeat IPC: 0.547627 cumulative IPC: 0.522849 (Simulation time: 0 hr 34 min 42 sec) 
Heartbeat CPU 0 instructions: 83000003 cycles: 143668632 heartbeat IPC: 0.522924 cumulative IPC: 0.52285 (Simulation time: 0 hr 35 min 5 sec) 
Heartbeat CPU 0 instructions: 84000000 cycles: 145513258 heartbeat IPC: 0.542114 cumulative IPC: 0.523102 (Simulation time: 0 hr 35 min 27 sec) 
Heartbeat CPU 0 instructions: 85000001 cycles: 147359870 heartbeat IPC: 0.541533 cumulative IPC: 0.523339 (Simulation time: 0 hr 35 min 47 sec) 
Heartbeat CPU 0 instructions: 86000002 cycles: 149284940 heartbeat IPC: 0.519462 cumulative IPC: 0.523288 (Simulation time: 0 hr 36 min 7 sec) 
Heartbeat CPU 0 instructions: 87000000 cycles: 151146136 heartbeat IPC: 0.537288 cumulative IPC: 0.523465 (Simulation time: 0 hr 36 min 26 sec) 
Heartbeat CPU 0 instructions: 88000000 cycles: 152964410 heartbeat IPC: 0.549972 cumulative IPC: 0.523788 (Simulation time: 0 hr 36 min 43 sec) 
Heartbeat CPU 0 instructions: 89000003 cycles: 154808091 heartbeat IPC: 0.542395 cumulative IPC: 0.524016 (Simulation time: 0 hr 37 min 1 sec) 
Heartbeat CPU 0 instructions: 90000003 cycles: 156703391 heartbeat IPC: 0.527621 cumulative IPC: 0.524061 (Simulation time: 0 hr 37 min 19 sec) 
Heartbeat CPU 0 instructions: 91000002 cycles: 158526684 heartbeat IPC: 0.548458 cumulative IPC: 0.524349 (Simulation time: 0 hr 37 min 36 sec) 
Heartbeat CPU 0 instructions: 92000000 cycles: 160387862 heartbeat IPC: 0.537293 cumulative IPC: 0.524503 (Simulation time: 0 hr 37 min 56 sec) 
Heartbeat CPU 0 instructions: 93000003 cycles: 162295135 heartbeat IPC: 0.52431 cumulative IPC: 0.5245 (Simulation time: 0 hr 38 min 15 sec) 
Heartbeat CPU 0 instructions: 94000001 cycles: 164155389 heartbeat IPC: 0.53756 cumulative IPC: 0.524652 (Simulation time: 0 hr 38 min 36 sec) 
Heartbeat CPU 0 instructions: 95000003 cycles: 166001939 heartbeat IPC: 0.541552 cumulative IPC: 0.524845 (Simulation time: 0 hr 38 min 55 sec) 
Heartbeat CPU 0 instructions: 96000000 cycles: 167851028 heartbeat IPC: 0.540805 cumulative IPC: 0.525025 (Simulation time: 0 hr 39 min 16 sec) 
Heartbeat CPU 0 instructions: 97000000 cycles: 169774681 heartbeat IPC: 0.519844 cumulative IPC: 0.524965 (Simulation time: 0 hr 39 min 32 sec) 
Heartbeat CPU 0 instructions: 98000002 cycles: 171616594 heartbeat IPC: 0.542915 cumulative IPC: 0.525162 (Simulation time: 0 hr 39 min 47 sec) 
Heartbeat CPU 0 instructions: 99000001 cycles: 173448482 heartbeat IPC: 0.545884 cumulative IPC: 0.525386 (Simulation time: 0 hr 40 min 2 sec) 
Heartbeat CPU 0 instructions: 100000000 cycles: 175353912 heartbeat IPC: 0.524815 cumulative IPC: 0.52538 (Simulation time: 0 hr 40 min 18 sec) 
Heartbeat CPU 0 instructions: 101000003 cycles: 177189780 heartbeat IPC: 0.544703 cumulative IPC: 0.525585 (Simulation time: 0 hr 40 min 34 sec) 
Heartbeat CPU 0 instructions: 102000002 cycles: 179036774 heartbeat IPC: 0.54142 cumulative IPC: 0.525752 (Simulation time: 0 hr 40 min 50 sec) 
Heartbeat CPU 0 instructions: 103000000 cycles: 180942114 heartbeat IPC: 0.52484 cumulative IPC: 0.525742 (Simulation time: 0 hr 41 min 4 sec) 
Heartbeat CPU 0 instructions: 104000000 cycles: 182769775 heartbeat IPC: 0.547147 cumulative IPC: 0.525961 (Simulation time: 0 hr 41 min 18 sec) 
Heartbeat CPU 0 instructions: 105000002 cycles: 184629132 heartbeat IPC: 0.537821 cumulative IPC: 0.526083 (Simulation time: 0 hr 41 min 33 sec) 
Heartbeat CPU 0 instructions: 106000000 cycles: 186480270 heartbeat IPC: 0.540207 cumulative IPC: 0.526226 (Simulation time: 0 hr 41 min 46 sec) 
Heartbeat CPU 0 instructions: 107000000 cycles: 188395156 heartbeat IPC: 0.522224 cumulative IPC: 0.526185 (Simulation time: 0 hr 41 min 59 sec) 
Heartbeat CPU 0 instructions: 108000000 cycles: 190252299 heartbeat IPC: 0.538462 cumulative IPC: 0.526307 (Simulation time: 0 hr 42 min 11 sec) 
Heartbeat CPU 0 instructions: 109000002 cycles: 192087613 heartbeat IPC: 0.544867 cumulative IPC: 0.526488 (Simulation time: 0 hr 42 min 23 sec) 
Heartbeat CPU 0 instructions: 110000000 cycles: 194000532 heartbeat IPC: 0.52276 cumulative IPC: 0.526451 (Simulation time: 0 hr 42 min 35 sec) 
Finished CPU 0 instructions: 100000000 cycles: 189951210 cummulative IPC: 0.526451 (Simulation time: 0 hr 42 min 35 sec) 

ChampSim completed all CPUs

Region of Interest Statistics

CPU 0 cummulative IPC: 0.526451 instructions: 100000000 cycles: 189951210
LLC TOTAL     ACCESS:    5455659  HIT:    2401928  MISS:    3053731
LLC LOAD      ACCESS:     763533  HIT:         49  MISS:     763484
LLC RFO       ACCESS:    2345909  HIT:      55777  MISS:    2290132
LLC PREFETCH  ACCESS:          0  HIT:          0  MISS:          0
LLC WRITEBACK ACCESS:    2346217  HIT:    2346102  MISS:        115
