
*** ChampSim Multicore Out-of-Order Simulator ***

Warmup Instructions: 10000000
Simulation Instructions: 100000000
Configuration: 1
Number of CPUs: 1
LLC sets: 2048
LLC ways: 16
Off-chip DRAM Channels: 1 Width: 64-bit Data Rate: 1600 MT/s

CPU 0 runs /datasets/cs240c-wi22-a00-public/data/Assignment2-gz/sphinx3_2520B.trace.gz
Initialize LRU replacement state
Heartbeat CPU 0 instructions: 1000003 cycles: 338265 heartbeat IPC: 2.95627 cumulative IPC: 2.95627 (Simulation time: 0 hr 0 min 20 sec) 
Heartbeat CPU 0 instructions: 2000000 cycles: 735301 heartbeat IPC: 2.51866 cumulative IPC: 2.71997 (Simulation time: 0 hr 0 min 41 sec) 
Heartbeat CPU 0 instructions: 3000003 cycles: 1181536 heartbeat IPC: 2.24098 cumulative IPC: 2.53907 (Simulation time: 0 hr 1 min 0 sec) 
Heartbeat CPU 0 instructions: 4000000 cycles: 1519954 heartbeat IPC: 2.95492 cumulative IPC: 2.63166 (Simulation time: 0 hr 1 min 22 sec) 
Heartbeat CPU 0 instructions: 5000001 cycles: 1897168 heartbeat IPC: 2.65102 cumulative IPC: 2.63551 (Simulation time: 0 hr 1 min 43 sec) 
Heartbeat CPU 0 instructions: 6000001 cycles: 2360960 heartbeat IPC: 2.15614 cumulative IPC: 2.54134 (Simulation time: 0 hr 2 min 2 sec) 
Heartbeat CPU 0 instructions: 7000002 cycles: 2699317 heartbeat IPC: 2.95546 cumulative IPC: 2.59325 (Simulation time: 0 hr 2 min 22 sec) 
Heartbeat CPU 0 instructions: 8000000 cycles: 3047580 heartbeat IPC: 2.87139 cumulative IPC: 2.62503 (Simulation time: 0 hr 2 min 41 sec) 
Heartbeat CPU 0 instructions: 9000000 cycles: 3499543 heartbeat IPC: 2.21257 cumulative IPC: 2.57176 (Simulation time: 0 hr 3 min 1 sec) 
Heartbeat CPU 0 instructions: 10000001 cycles: 3849085 heartbeat IPC: 2.86089 cumulative IPC: 2.59802 (Simulation time: 0 hr 3 min 19 sec) 

Warmup complete CPU 0 instructions: 10000001 cycles: 3849085 (Simulation time: 0 hr 3 min 19 sec) 

Heartbeat CPU 0 instructions: 11000000 cycles: 5387733 heartbeat IPC: 0.649921 cumulative IPC: 0.649921 (Simulation time: 0 hr 3 min 44 sec) 
Heartbeat CPU 0 instructions: 12000000 cycles: 6932818 heartbeat IPC: 0.647214 cumulative IPC: 0.648564 (Simulation time: 0 hr 4 min 6 sec) 
Heartbeat CPU 0 instructions: 13000002 cycles: 8397600 heartbeat IPC: 0.682697 cumulative IPC: 0.659556 (Simulation time: 0 hr 4 min 30 sec) 
Heartbeat CPU 0 instructions: 14000002 cycles: 9889173 heartbeat IPC: 0.670433 cumulative IPC: 0.662242 (Simulation time: 0 hr 4 min 53 sec) 
Heartbeat CPU 0 instructions: 15000003 cycles: 11460818 heartbeat IPC: 0.636277 cumulative IPC: 0.656881 (Simulation time: 0 hr 5 min 15 sec) 
Heartbeat CPU 0 instructions: 16000000 cycles: 12908821 heartbeat IPC: 0.690604 cumulative IPC: 0.662271 (Simulation time: 0 hr 5 min 36 sec) 
Heartbeat CPU 0 instructions: 17000000 cycles: 14381624 heartbeat IPC: 0.678977 cumulative IPC: 0.664607 (Simulation time: 0 hr 5 min 59 sec) 
Heartbeat CPU 0 instructions: 18000002 cycles: 15931742 heartbeat IPC: 0.645113 cumulative IPC: 0.662106 (Simulation time: 0 hr 6 min 20 sec) 
Heartbeat CPU 0 instructions: 19000003 cycles: 17361714 heartbeat IPC: 0.699315 cumulative IPC: 0.666044 (Simulation time: 0 hr 6 min 45 sec) 
Heartbeat CPU 0 instructions: 20000000 cycles: 18832688 heartbeat IPC: 0.67982 cumulative IPC: 0.667396 (Simulation time: 0 hr 7 min 9 sec) 
Heartbeat CPU 0 instructions: 21000001 cycles: 20238672 heartbeat IPC: 0.711246 cumulative IPC: 0.671158 (Simulation time: 0 hr 7 min 32 sec) 
Heartbeat CPU 0 instructions: 22000002 cycles: 21594113 heartbeat IPC: 0.737768 cumulative IPC: 0.676246 (Simulation time: 0 hr 7 min 55 sec) 
Heartbeat CPU 0 instructions: 23000001 cycles: 22938023 heartbeat IPC: 0.744097 cumulative IPC: 0.681023 (Simulation time: 0 hr 8 min 17 sec) 
Heartbeat CPU 0 instructions: 24000000 cycles: 24437367 heartbeat IPC: 0.666958 cumulative IPC: 0.679998 (Simulation time: 0 hr 8 min 42 sec) 
Heartbeat CPU 0 instructions: 25000003 cycles: 25979522 heartbeat IPC: 0.648445 cumulative IPC: 0.6778 (Simulation time: 0 hr 9 min 6 sec) 
Heartbeat CPU 0 instructions: 26000000 cycles: 27295529 heartbeat IPC: 0.759872 cumulative IPC: 0.682406 (Simulation time: 0 hr 9 min 33 sec) 
Heartbeat CPU 0 instructions: 27000000 cycles: 28749728 heartbeat IPC: 0.687664 cumulative IPC: 0.682713 (Simulation time: 0 hr 9 min 55 sec) 
Heartbeat CPU 0 instructions: 28000000 cycles: 30235172 heartbeat IPC: 0.673199 cumulative IPC: 0.682178 (Simulation time: 0 hr 10 min 18 sec) 
Heartbeat CPU 0 instructions: 29000003 cycles: 31579417 heartbeat IPC: 0.743914 cumulative IPC: 0.68517 (Simulation time: 0 hr 10 min 41 sec) 
Heartbeat CPU 0 instructions: 30000003 cycles: 33050293 heartbeat IPC: 0.679867 cumulative IPC: 0.684903 (Simulation time: 0 hr 11 min 6 sec) 
Heartbeat CPU 0 instructions: 31000001 cycles: 34468281 heartbeat IPC: 0.705223 cumulative IPC: 0.685844 (Simulation time: 0 hr 11 min 28 sec) 
Heartbeat CPU 0 instructions: 32000000 cycles: 35838000 heartbeat IPC: 0.730076 cumulative IPC: 0.687738 (Simulation time: 0 hr 11 min 52 sec) 
Heartbeat CPU 0 instructions: 33000000 cycles: 37301687 heartbeat IPC: 0.683206 cumulative IPC: 0.68754 (Simulation time: 0 hr 12 min 18 sec) 
Heartbeat CPU 0 instructions: 34000000 cycles: 38664287 heartbeat IPC: 0.733891 cumulative IPC: 0.689354 (Simulation time: 0 hr 12 min 42 sec) 
Heartbeat CPU 0 instructions: 35000002 cycles: 40066188 heartbeat IPC: 0.713319 cumulative IPC: 0.690282 (Simulation time: 0 hr 13 min 4 sec) 
Heartbeat CPU 0 instructions: 36000000 cycles: 41485235 heartbeat IPC: 0.704697 cumulative IPC: 0.690825 (Simulation time: 0 hr 13 min 28 sec) 
Heartbeat CPU 0 instructions: 37000000 cycles: 42850202 heartbeat IPC: 0.732618 cumulative IPC: 0.692288 (Simulation time: 0 hr 13 min 49 sec) 
Heartbeat CPU 0 instructions: 38000002 cycles: 44283374 heartbeat IPC: 0.697754 cumulative IPC: 0.692482 (Simulation time: 0 hr 14 min 13 sec) 
Heartbeat CPU 0 instructions: 39000000 cycles: 45741120 heartbeat IPC: 0.685989 cumulative IPC: 0.692256 (Simulation time: 0 hr 14 min 37 sec) 
Heartbeat CPU 0 instructions: 40000000 cycles: 47115316 heartbeat IPC: 0.727698 cumulative IPC: 0.693381 (Simulation time: 0 hr 15 min 0 sec) 
Heartbeat CPU 0 instructions: 41000001 cycles: 48578563 heartbeat IPC: 0.683412 cumulative IPC: 0.693055 (Simulation time: 0 hr 15 min 24 sec) 
Heartbeat CPU 0 instructions: 42000002 cycles: 50043960 heartbeat IPC: 0.68241 cumulative IPC: 0.692718 (Simulation time: 0 hr 15 min 47 sec) 
Heartbeat CPU 0 instructions: 43000001 cycles: 51399721 heartbeat IPC: 0.737592 cumulative IPC: 0.693997 (Simulation time: 0 hr 16 min 12 sec) 
Heartbeat CPU 0 instructions: 44000000 cycles: 52871802 heartbeat IPC: 0.67931 cumulative IPC: 0.693556 (Simulation time: 0 hr 16 min 38 sec) 
Heartbeat CPU 0 instructions: 45000001 cycles: 54307991 heartbeat IPC: 0.696288 cumulative IPC: 0.693634 (Simulation time: 0 hr 17 min 1 sec) 
Heartbeat CPU 0 instructions: 46000001 cycles: 55716037 heartbeat IPC: 0.710204 cumulative IPC: 0.694084 (Simulation time: 0 hr 17 min 23 sec) 
Heartbeat CPU 0 instructions: 47000001 cycles: 57171085 heartbeat IPC: 0.687263 cumulative IPC: 0.693897 (Simulation time: 0 hr 17 min 48 sec) 
Heartbeat CPU 0 instructions: 48000000 cycles: 58611274 heartbeat IPC: 0.694353 cumulative IPC: 0.693909 (Simulation time: 0 hr 18 min 11 sec) 
Heartbeat CPU 0 instructions: 49000001 cycles: 59992553 heartbeat IPC: 0.723967 cumulative IPC: 0.694649 (Simulation time: 0 hr 18 min 37 sec) 
Heartbeat CPU 0 instructions: 50000003 cycles: 61437767 heartbeat IPC: 0.69194 cumulative IPC: 0.694581 (Simulation time: 0 hr 19 min 3 sec) 
Heartbeat CPU 0 instructions: 51000001 cycles: 62894601 heartbeat IPC: 0.686419 cumulative IPC: 0.69438 (Simulation time: 0 hr 19 min 26 sec) 
Heartbeat CPU 0 instructions: 52000000 cycles: 64238609 heartbeat IPC: 0.744042 cumulative IPC: 0.695485 (Simulation time: 0 hr 19 min 50 sec) 
Heartbeat CPU 0 instructions: 53000001 cycles: 65690615 heartbeat IPC: 0.688703 cumulative IPC: 0.695326 (Simulation time: 0 hr 20 min 12 sec) 
Heartbeat CPU 0 instructions: 54000001 cycles: 67090276 heartbeat IPC: 0.714459 cumulative IPC: 0.695749 (Simulation time: 0 hr 20 min 36 sec) 
Heartbeat CPU 0 instructions: 55000003 cycles: 68347116 heartbeat IPC: 0.795648 cumulative IPC: 0.697696 (Simulation time: 0 hr 20 min 59 sec) 
Heartbeat CPU 0 instructions: 56000000 cycles: 69782483 heartbeat IPC: 0.696684 cumulative IPC: 0.697674 (Simulation time: 0 hr 21 min 23 sec) 
Heartbeat CPU 0 instructions: 57000000 cycles: 71188313 heartbeat IPC: 0.711324 cumulative IPC: 0.697959 (Simulation time: 0 hr 21 min 45 sec) 
Heartbeat CPU 0 instructions: 58000002 cycles: 72330810 heartbeat IPC: 0.875278 cumulative IPC: 0.700917 (Simulation time: 0 hr 22 min 6 sec) 
Heartbeat CPU 0 instructions: 59000001 cycles: 73599262 heartbeat IPC: 0.788362 cumulative IPC: 0.702507 (Simulation time: 0 hr 22 min 27 sec) 
Heartbeat CPU 0 instructions: 60000000 cycles: 75076284 heartbeat IPC: 0.677037 cumulative IPC: 0.701979 (Simulation time: 0 hr 22 min 51 sec) 
Heartbeat CPU 0 instructions: 61000001 cycles: 76460508 heartbeat IPC: 0.722427 cumulative IPC: 0.702369 (Simulation time: 0 hr 23 min 17 sec) 
Heartbeat CPU 0 instructions: 62000000 cycles: 77800873 heartbeat IPC: 0.746065 cumulative IPC: 0.703161 (Simulation time: 0 hr 23 min 40 sec) 
Heartbeat CPU 0 instructions: 63000002 cycles: 79217657 heartbeat IPC: 0.705825 cumulative IPC: 0.703211 (Simulation time: 0 hr 24 min 2 sec) 
Heartbeat CPU 0 instructions: 64000000 cycles: 80600557 heartbeat IPC: 0.723117 cumulative IPC: 0.70357 (Simulation time: 0 hr 24 min 25 sec) 
Heartbeat CPU 0 instructions: 65000003 cycles: 81877119 heartbeat IPC: 0.783356 cumulative IPC: 0.704875 (Simulation time: 0 hr 24 min 51 sec) 
Heartbeat CPU 0 instructions: 66000003 cycles: 83313533 heartbeat IPC: 0.696178 cumulative IPC: 0.704718 (Simulation time: 0 hr 25 min 13 sec) 
Heartbeat CPU 0 instructions: 67000002 cycles: 84757011 heartbeat IPC: 0.692771 cumulative IPC: 0.704505 (Simulation time: 0 hr 25 min 35 sec) 
Heartbeat CPU 0 instructions: 68000000 cycles: 86042313 heartbeat IPC: 0.778026 cumulative IPC: 0.705654 (Simulation time: 0 hr 25 min 56 sec) 
Heartbeat CPU 0 instructions: 69000003 cycles: 87495644 heartbeat IPC: 0.688077 cumulative IPC: 0.705349 (Simulation time: 0 hr 26 min 17 sec) 
Heartbeat CPU 0 instructions: 70000003 cycles: 88937167 heartbeat IPC: 0.693711 cumulative IPC: 0.705152 (Simulation time: 0 hr 26 min 38 sec) 
Heartbeat CPU 0 instructions: 71000002 cycles: 90234878 heartbeat IPC: 0.770587 cumulative IPC: 0.706135 (Simulation time: 0 hr 26 min 59 sec) 
Heartbeat CPU 0 instructions: 72000000 cycles: 91689483 heartbeat IPC: 0.68747 cumulative IPC: 0.705826 (Simulation time: 0 hr 27 min 23 sec) 
Heartbeat CPU 0 instructions: 73000003 cycles: 93133251 heartbeat IPC: 0.692634 cumulative IPC: 0.705612 (Simulation time: 0 hr 27 min 45 sec) 
Heartbeat CPU 0 instructions: 74000000 cycles: 94410308 heartbeat IPC: 0.783048 cumulative IPC: 0.706704 (Simulation time: 0 hr 28 min 6 sec) 
Heartbeat CPU 0 instructions: 75000002 cycles: 95877973 heartbeat IPC: 0.681356 cumulative IPC: 0.7063 (Simulation time: 0 hr 28 min 27 sec) 
Heartbeat CPU 0 instructions: 76000000 cycles: 97301664 heartbeat IPC: 0.702398 cumulative IPC: 0.706241 (Simulation time: 0 hr 28 min 51 sec) 
Heartbeat CPU 0 instructions: 77000003 cycles: 98616312 heartbeat IPC: 0.760662 cumulative IPC: 0.706995 (Simulation time: 0 hr 29 min 13 sec) 
Heartbeat CPU 0 instructions: 78000002 cycles: 100059436 heartbeat IPC: 0.69294 cumulative IPC: 0.706785 (Simulation time: 0 hr 29 min 34 sec) 
Heartbeat CPU 0 instructions: 79000003 cycles: 101481773 heartbeat IPC: 0.703069 cumulative IPC: 0.706731 (Simulation time: 0 hr 29 min 57 sec) 
Heartbeat CPU 0 instructions: 80000000 cycles: 102793155 heartbeat IPC: 0.762552 cumulative IPC: 0.70747 (Simulation time: 0 hr 30 min 20 sec) 
Heartbeat CPU 0 instructions: 81000000 cycles: 104238093 heartbeat IPC: 0.692071 cumulative IPC: 0.707249 (Simulation time: 0 hr 30 min 40 sec) 
Heartbeat CPU 0 instructions: 82000002 cycles: 105671193 heartbeat IPC: 0.697789 cumulative IPC: 0.707116 (Simulation time: 0 hr 31 min 1 sec) 
Heartbeat CPU 0 instructions: 83000000 cycles: 106996533 heartbeat IPC: 0.754522 cumulative IPC: 0.707725 (Simulation time: 0 hr 31 min 21 sec) 
Heartbeat CPU 0 instructions: 84000000 cycles: 108445939 heartbeat IPC: 0.689938 cumulative IPC: 0.707478 (Simulation time: 0 hr 31 min 42 sec) 
Heartbeat CPU 0 instructions: 85000001 cycles: 109865644 heartbeat IPC: 0.704372 cumulative IPC: 0.707437 (Simulation time: 0 hr 32 min 2 sec) 
Heartbeat CPU 0 instructions: 86000002 cycles: 111152735 heartbeat IPC: 0.776947 cumulative IPC: 0.70827 (Simulation time: 0 hr 32 min 22 sec) 
Heartbeat CPU 0 instructions: 87000000 cycles: 112568035 heartbeat IPC: 0.706563 cumulative IPC: 0.708248 (Simulation time: 0 hr 32 min 43 sec) 
Heartbeat CPU 0 instructions: 88000000 cycles: 113942711 heartbeat IPC: 0.727444 cumulative IPC: 0.708488 (Simulation time: 0 hr 33 min 2 sec) 
Heartbeat CPU 0 instructions: 89000000 cycles: 115269645 heartbeat IPC: 0.753617 cumulative IPC: 0.709025 (Simulation time: 0 hr 33 min 21 sec) 
Heartbeat CPU 0 instructions: 90000000 cycles: 116693762 heartbeat IPC: 0.70219 cumulative IPC: 0.708939 (Simulation time: 0 hr 33 min 40 sec) 
Heartbeat CPU 0 instructions: 91000001 cycles: 117996661 heartbeat IPC: 0.76752 cumulative IPC: 0.709608 (Simulation time: 0 hr 33 min 59 sec) 
Heartbeat CPU 0 instructions: 92000000 cycles: 119383299 heartbeat IPC: 0.721168 cumulative IPC: 0.709746 (Simulation time: 0 hr 34 min 18 sec) 
Heartbeat CPU 0 instructions: 93000002 cycles: 120758844 heartbeat IPC: 0.726986 cumulative IPC: 0.709949 (Simulation time: 0 hr 34 min 39 sec) 
Heartbeat CPU 0 instructions: 94000000 cycles: 122078631 heartbeat IPC: 0.757697 cumulative IPC: 0.710482 (Simulation time: 0 hr 34 min 59 sec) 
Heartbeat CPU 0 instructions: 95000003 cycles: 123505090 heartbeat IPC: 0.701039 cumulative IPC: 0.71037 (Simulation time: 0 hr 35 min 19 sec) 
Heartbeat CPU 0 instructions: 96000000 cycles: 124891850 heartbeat IPC: 0.721103 cumulative IPC: 0.710493 (Simulation time: 0 hr 35 min 38 sec) 
Heartbeat CPU 0 instructions: 97000002 cycles: 126262442 heartbeat IPC: 0.729613 cumulative IPC: 0.710707 (Simulation time: 0 hr 35 min 57 sec) 
Heartbeat CPU 0 instructions: 98000003 cycles: 127611810 heartbeat IPC: 0.741088 cumulative IPC: 0.711038 (Simulation time: 0 hr 36 min 15 sec) 
Heartbeat CPU 0 instructions: 99000000 cycles: 129012396 heartbeat IPC: 0.713985 cumulative IPC: 0.711071 (Simulation time: 0 hr 36 min 33 sec) 
Heartbeat CPU 0 instructions: 100000000 cycles: 130516651 heartbeat IPC: 0.664781 cumulative IPC: 0.710521 (Simulation time: 0 hr 36 min 51 sec) 
Heartbeat CPU 0 instructions: 101000003 cycles: 132744076 heartbeat IPC: 0.44895 cumulative IPC: 0.706001 (Simulation time: 0 hr 37 min 10 sec) 
Heartbeat CPU 0 instructions: 102000002 cycles: 134222581 heartbeat IPC: 0.676358 cumulative IPC: 0.705665 (Simulation time: 0 hr 37 min 29 sec) 
Heartbeat CPU 0 instructions: 103000002 cycles: 135834128 heartbeat IPC: 0.620522 cumulative IPC: 0.704625 (Simulation time: 0 hr 37 min 46 sec) 
Heartbeat CPU 0 instructions: 104000000 cycles: 138009697 heartbeat IPC: 0.459649 cumulative IPC: 0.700653 (Simulation time: 0 hr 38 min 4 sec) 
Heartbeat CPU 0 instructions: 105000002 cycles: 139539315 heartbeat IPC: 0.653759 cumulative IPC: 0.700124 (Simulation time: 0 hr 38 min 20 sec) 
Heartbeat CPU 0 instructions: 106000000 cycles: 141135647 heartbeat IPC: 0.626435 cumulative IPC: 0.699267 (Simulation time: 0 hr 38 min 37 sec) 
Heartbeat CPU 0 instructions: 107000001 cycles: 143146779 heartbeat IPC: 0.497233 cumulative IPC: 0.69635 (Simulation time: 0 hr 38 min 53 sec) 
Heartbeat CPU 0 instructions: 108000000 cycles: 144904600 heartbeat IPC: 0.568886 cumulative IPC: 0.694762 (Simulation time: 0 hr 39 min 11 sec) 
Heartbeat CPU 0 instructions: 109000003 cycles: 146479759 heartbeat IPC: 0.634858 cumulative IPC: 0.6941 (Simulation time: 0 hr 39 min 27 sec) 
Heartbeat CPU 0 instructions: 110000000 cycles: 148204564 heartbeat IPC: 0.579774 cumulative IPC: 0.692734 (Simulation time: 0 hr 39 min 42 sec) 
Finished CPU 0 instructions: 100000002 cycles: 144355481 cummulative IPC: 0.692734 (Simulation time: 0 hr 39 min 42 sec) 

ChampSim completed all CPUs

Region of Interest Statistics

CPU 0 cummulative IPC: 0.692734 instructions: 100000002 cycles: 144355481
LLC TOTAL     ACCESS:    1399116  HIT:     551292  MISS:     847824
LLC LOAD      ACCESS:    1148259  HIT:     350914  MISS:     797345
LLC RFO       ACCESS:     122689  HIT:      72213  MISS:      50476
LLC PREFETCH  ACCESS:          0  HIT:          0  MISS:          0
LLC WRITEBACK ACCESS:     128168  HIT:     128165  MISS:          3
