
*** ChampSim Multicore Out-of-Order Simulator ***

Warmup Instructions: 10000000
Simulation Instructions: 100000000
Configuration: 1
Number of CPUs: 1
LLC sets: 2048
LLC ways: 16
Off-chip DRAM Channels: 1 Width: 64-bit Data Rate: 1600 MT/s

CPU 0 runs /datasets/cs240c-wi22-a00-public/data/Assignment2-gz/gcc_56B.trace.gz
Initialize LRU replacement state
Heartbeat CPU 0 instructions: 1000003 cycles: 954224 heartbeat IPC: 1.04798 cumulative IPC: 1.04798 (Simulation time: 0 hr 0 min 26 sec) 
Heartbeat CPU 0 instructions: 2000001 cycles: 1898520 heartbeat IPC: 1.05899 cumulative IPC: 1.05345 (Simulation time: 0 hr 0 min 53 sec) 
Heartbeat CPU 0 instructions: 3000001 cycles: 2885884 heartbeat IPC: 1.0128 cumulative IPC: 1.03954 (Simulation time: 0 hr 1 min 23 sec) 
Heartbeat CPU 0 instructions: 4000000 cycles: 3848630 heartbeat IPC: 1.03869 cumulative IPC: 1.03933 (Simulation time: 0 hr 1 min 48 sec) 
Heartbeat CPU 0 instructions: 5000002 cycles: 4738254 heartbeat IPC: 1.12407 cumulative IPC: 1.05524 (Simulation time: 0 hr 2 min 14 sec) 
Heartbeat CPU 0 instructions: 6000000 cycles: 5686317 heartbeat IPC: 1.05478 cumulative IPC: 1.05516 (Simulation time: 0 hr 2 min 40 sec) 
Heartbeat CPU 0 instructions: 7000000 cycles: 6650678 heartbeat IPC: 1.03696 cumulative IPC: 1.05252 (Simulation time: 0 hr 3 min 7 sec) 
Heartbeat CPU 0 instructions: 8000000 cycles: 7612019 heartbeat IPC: 1.04021 cumulative IPC: 1.05097 (Simulation time: 0 hr 3 min 33 sec) 
Heartbeat CPU 0 instructions: 9000000 cycles: 8623623 heartbeat IPC: 0.988529 cumulative IPC: 1.04364 (Simulation time: 0 hr 4 min 0 sec) 
Heartbeat CPU 0 instructions: 10000002 cycles: 9584265 heartbeat IPC: 1.04097 cumulative IPC: 1.04338 (Simulation time: 0 hr 4 min 28 sec) 

Warmup complete CPU 0 instructions: 10000002 cycles: 9584265 (Simulation time: 0 hr 4 min 28 sec) 

Heartbeat CPU 0 instructions: 11000000 cycles: 10947676 heartbeat IPC: 0.733453 cumulative IPC: 0.733453 (Simulation time: 0 hr 4 min 54 sec) 
Heartbeat CPU 0 instructions: 12000000 cycles: 12387082 heartbeat IPC: 0.694731 cumulative IPC: 0.713567 (Simulation time: 0 hr 5 min 22 sec) 
Heartbeat CPU 0 instructions: 13000001 cycles: 13782835 heartbeat IPC: 0.71646 cumulative IPC: 0.714529 (Simulation time: 0 hr 5 min 49 sec) 
Heartbeat CPU 0 instructions: 14000000 cycles: 15121636 heartbeat IPC: 0.746936 cumulative IPC: 0.722364 (Simulation time: 0 hr 6 min 19 sec) 
Heartbeat CPU 0 instructions: 15000003 cycles: 16506906 heartbeat IPC: 0.721883 cumulative IPC: 0.722268 (Simulation time: 0 hr 6 min 46 sec) 
Heartbeat CPU 0 instructions: 16000000 cycles: 17838697 heartbeat IPC: 0.750866 cumulative IPC: 0.726882 (Simulation time: 0 hr 7 min 13 sec) 
Heartbeat CPU 0 instructions: 17000001 cycles: 19168852 heartbeat IPC: 0.751793 cumulative IPC: 0.730339 (Simulation time: 0 hr 7 min 44 sec) 
Heartbeat CPU 0 instructions: 18000000 cycles: 20567776 heartbeat IPC: 0.714834 cumulative IPC: 0.728364 (Simulation time: 0 hr 8 min 13 sec) 
Heartbeat CPU 0 instructions: 19000000 cycles: 21951308 heartbeat IPC: 0.722788 cumulative IPC: 0.72774 (Simulation time: 0 hr 8 min 40 sec) 
Heartbeat CPU 0 instructions: 20000000 cycles: 23322988 heartbeat IPC: 0.729033 cumulative IPC: 0.72787 (Simulation time: 0 hr 9 min 4 sec) 
Heartbeat CPU 0 instructions: 21000000 cycles: 24672949 heartbeat IPC: 0.740762 cumulative IPC: 0.729023 (Simulation time: 0 hr 9 min 29 sec) 
Heartbeat CPU 0 instructions: 22000000 cycles: 26006546 heartbeat IPC: 0.749852 cumulative IPC: 0.730714 (Simulation time: 0 hr 9 min 54 sec) 
Heartbeat CPU 0 instructions: 23000000 cycles: 27346337 heartbeat IPC: 0.746385 cumulative IPC: 0.731896 (Simulation time: 0 hr 10 min 21 sec) 
Heartbeat CPU 0 instructions: 24000000 cycles: 28716176 heartbeat IPC: 0.730013 cumulative IPC: 0.731762 (Simulation time: 0 hr 10 min 50 sec) 
Heartbeat CPU 0 instructions: 25000000 cycles: 30095439 heartbeat IPC: 0.725025 cumulative IPC: 0.731309 (Simulation time: 0 hr 11 min 20 sec) 
Heartbeat CPU 0 instructions: 26000002 cycles: 31511962 heartbeat IPC: 0.705955 cumulative IPC: 0.729671 (Simulation time: 0 hr 11 min 48 sec) 
Heartbeat CPU 0 instructions: 27000000 cycles: 32903235 heartbeat IPC: 0.718765 cumulative IPC: 0.72902 (Simulation time: 0 hr 12 min 16 sec) 
Heartbeat CPU 0 instructions: 28000000 cycles: 34244335 heartbeat IPC: 0.745657 cumulative IPC: 0.729925 (Simulation time: 0 hr 12 min 43 sec) 
Heartbeat CPU 0 instructions: 29000000 cycles: 35592552 heartbeat IPC: 0.74172 cumulative IPC: 0.730536 (Simulation time: 0 hr 13 min 9 sec) 
Heartbeat CPU 0 instructions: 30000000 cycles: 36944216 heartbeat IPC: 0.739829 cumulative IPC: 0.730995 (Simulation time: 0 hr 13 min 36 sec) 
Heartbeat CPU 0 instructions: 31000000 cycles: 38305011 heartbeat IPC: 0.734865 cumulative IPC: 0.731179 (Simulation time: 0 hr 14 min 1 sec) 
Heartbeat CPU 0 instructions: 32000000 cycles: 39691074 heartbeat IPC: 0.721468 cumulative IPC: 0.730732 (Simulation time: 0 hr 14 min 25 sec) 
Heartbeat CPU 0 instructions: 33000002 cycles: 41106946 heartbeat IPC: 0.70628 cumulative IPC: 0.729633 (Simulation time: 0 hr 14 min 51 sec) 
Heartbeat CPU 0 instructions: 34000002 cycles: 42478755 heartbeat IPC: 0.728964 cumulative IPC: 0.729605 (Simulation time: 0 hr 15 min 19 sec) 
Heartbeat CPU 0 instructions: 35000002 cycles: 43835181 heartbeat IPC: 0.737231 cumulative IPC: 0.729908 (Simulation time: 0 hr 15 min 49 sec) 
Heartbeat CPU 0 instructions: 36000000 cycles: 45171827 heartbeat IPC: 0.74814 cumulative IPC: 0.730592 (Simulation time: 0 hr 16 min 16 sec) 
Heartbeat CPU 0 instructions: 37000000 cycles: 46493083 heartbeat IPC: 0.756856 cumulative IPC: 0.731532 (Simulation time: 0 hr 16 min 44 sec) 
Heartbeat CPU 0 instructions: 38000002 cycles: 47836571 heartbeat IPC: 0.744333 cumulative IPC: 0.731982 (Simulation time: 0 hr 17 min 13 sec) 
Heartbeat CPU 0 instructions: 39000000 cycles: 49250332 heartbeat IPC: 0.707332 cumulative IPC: 0.731103 (Simulation time: 0 hr 17 min 40 sec) 
Heartbeat CPU 0 instructions: 40000000 cycles: 50623784 heartbeat IPC: 0.728092 cumulative IPC: 0.731003 (Simulation time: 0 hr 18 min 10 sec) 
Heartbeat CPU 0 instructions: 41000001 cycles: 51974567 heartbeat IPC: 0.740312 cumulative IPC: 0.731299 (Simulation time: 0 hr 18 min 39 sec) 
Heartbeat CPU 0 instructions: 42000003 cycles: 53315856 heartbeat IPC: 0.745553 cumulative IPC: 0.731736 (Simulation time: 0 hr 19 min 7 sec) 
Heartbeat CPU 0 instructions: 43000001 cycles: 54664313 heartbeat IPC: 0.741587 cumulative IPC: 0.732031 (Simulation time: 0 hr 19 min 39 sec) 
Heartbeat CPU 0 instructions: 44000000 cycles: 56002024 heartbeat IPC: 0.747545 cumulative IPC: 0.732478 (Simulation time: 0 hr 20 min 5 sec) 
Heartbeat CPU 0 instructions: 45000000 cycles: 57385818 heartbeat IPC: 0.722651 cumulative IPC: 0.732194 (Simulation time: 0 hr 20 min 29 sec) 
Heartbeat CPU 0 instructions: 46000000 cycles: 58791776 heartbeat IPC: 0.711259 cumulative IPC: 0.731596 (Simulation time: 0 hr 20 min 54 sec) 
Heartbeat CPU 0 instructions: 47000002 cycles: 60179330 heartbeat IPC: 0.720694 cumulative IPC: 0.731297 (Simulation time: 0 hr 21 min 20 sec) 
Heartbeat CPU 0 instructions: 48000000 cycles: 61539003 heartbeat IPC: 0.735469 cumulative IPC: 0.731406 (Simulation time: 0 hr 21 min 46 sec) 
Heartbeat CPU 0 instructions: 49000002 cycles: 62876029 heartbeat IPC: 0.74793 cumulative IPC: 0.73182 (Simulation time: 0 hr 22 min 12 sec) 
Heartbeat CPU 0 instructions: 50000000 cycles: 64212388 heartbeat IPC: 0.7483 cumulative IPC: 0.732224 (Simulation time: 0 hr 22 min 37 sec) 
Heartbeat CPU 0 instructions: 51000000 cycles: 65583149 heartbeat IPC: 0.729522 cumulative IPC: 0.732157 (Simulation time: 0 hr 23 min 3 sec) 
Heartbeat CPU 0 instructions: 52000000 cycles: 66991290 heartbeat IPC: 0.710156 cumulative IPC: 0.731618 (Simulation time: 0 hr 23 min 28 sec) 
Heartbeat CPU 0 instructions: 53000001 cycles: 68342655 heartbeat IPC: 0.739993 cumulative IPC: 0.73181 (Simulation time: 0 hr 23 min 52 sec) 
Heartbeat CPU 0 instructions: 54000000 cycles: 69669336 heartbeat IPC: 0.75376 cumulative IPC: 0.732295 (Simulation time: 0 hr 24 min 17 sec) 
Heartbeat CPU 0 instructions: 55000001 cycles: 70990190 heartbeat IPC: 0.757087 cumulative IPC: 0.732828 (Simulation time: 0 hr 24 min 42 sec) 
Heartbeat CPU 0 instructions: 56000000 cycles: 72329181 heartbeat IPC: 0.74683 cumulative IPC: 0.733127 (Simulation time: 0 hr 25 min 7 sec) 
Heartbeat CPU 0 instructions: 57000001 cycles: 73678984 heartbeat IPC: 0.74085 cumulative IPC: 0.73329 (Simulation time: 0 hr 25 min 31 sec) 
Heartbeat CPU 0 instructions: 58000000 cycles: 75072749 heartbeat IPC: 0.71748 cumulative IPC: 0.732953 (Simulation time: 0 hr 25 min 58 sec) 
Heartbeat CPU 0 instructions: 59000000 cycles: 76485208 heartbeat IPC: 0.707985 cumulative IPC: 0.732426 (Simulation time: 0 hr 26 min 29 sec) 
Heartbeat CPU 0 instructions: 60000000 cycles: 77876035 heartbeat IPC: 0.718997 cumulative IPC: 0.732153 (Simulation time: 0 hr 26 min 55 sec) 
Heartbeat CPU 0 instructions: 61000000 cycles: 79219321 heartbeat IPC: 0.744443 cumulative IPC: 0.73239 (Simulation time: 0 hr 27 min 22 sec) 
Heartbeat CPU 0 instructions: 62000002 cycles: 80596035 heartbeat IPC: 0.726369 cumulative IPC: 0.732273 (Simulation time: 0 hr 27 min 48 sec) 
Heartbeat CPU 0 instructions: 63000003 cycles: 81923494 heartbeat IPC: 0.75332 cumulative IPC: 0.732659 (Simulation time: 0 hr 28 min 17 sec) 
Heartbeat CPU 0 instructions: 64000000 cycles: 83256978 heartbeat IPC: 0.749913 cumulative IPC: 0.732971 (Simulation time: 0 hr 28 min 47 sec) 
Heartbeat CPU 0 instructions: 65000000 cycles: 84620079 heartbeat IPC: 0.733621 cumulative IPC: 0.732983 (Simulation time: 0 hr 29 min 15 sec) 
Heartbeat CPU 0 instructions: 66000002 cycles: 86029035 heartbeat IPC: 0.709747 cumulative IPC: 0.732555 (Simulation time: 0 hr 29 min 41 sec) 
Heartbeat CPU 0 instructions: 67000002 cycles: 87432895 heartbeat IPC: 0.712322 cumulative IPC: 0.73219 (Simulation time: 0 hr 30 min 11 sec) 
Heartbeat CPU 0 instructions: 68000000 cycles: 88796566 heartbeat IPC: 0.733313 cumulative IPC: 0.73221 (Simulation time: 0 hr 30 min 39 sec) 
Heartbeat CPU 0 instructions: 69000000 cycles: 90135990 heartbeat IPC: 0.74659 cumulative IPC: 0.732449 (Simulation time: 0 hr 31 min 7 sec) 
Heartbeat CPU 0 instructions: 70000000 cycles: 91476138 heartbeat IPC: 0.746186 cumulative IPC: 0.732673 (Simulation time: 0 hr 31 min 33 sec) 
Heartbeat CPU 0 instructions: 71000003 cycles: 92833917 heartbeat IPC: 0.736499 cumulative IPC: 0.732736 (Simulation time: 0 hr 31 min 59 sec) 
Heartbeat CPU 0 instructions: 72000000 cycles: 94189389 heartbeat IPC: 0.737748 cumulative IPC: 0.732816 (Simulation time: 0 hr 32 min 24 sec) 
Heartbeat CPU 0 instructions: 73000003 cycles: 95576812 heartbeat IPC: 0.720763 cumulative IPC: 0.732622 (Simulation time: 0 hr 32 min 49 sec) 
Heartbeat CPU 0 instructions: 74000001 cycles: 96992234 heartbeat IPC: 0.706502 cumulative IPC: 0.732199 (Simulation time: 0 hr 33 min 15 sec) 
Heartbeat CPU 0 instructions: 75000003 cycles: 98381767 heartbeat IPC: 0.719668 cumulative IPC: 0.732003 (Simulation time: 0 hr 33 min 39 sec) 
Heartbeat CPU 0 instructions: 76000000 cycles: 99738004 heartbeat IPC: 0.737332 cumulative IPC: 0.732083 (Simulation time: 0 hr 34 min 9 sec) 
Heartbeat CPU 0 instructions: 77000003 cycles: 101086509 heartbeat IPC: 0.741564 cumulative IPC: 0.732222 (Simulation time: 0 hr 34 min 35 sec) 
Heartbeat CPU 0 instructions: 78000001 cycles: 102432657 heartbeat IPC: 0.742859 cumulative IPC: 0.732377 (Simulation time: 0 hr 35 min 1 sec) 
Heartbeat CPU 0 instructions: 79000000 cycles: 103805890 heartbeat IPC: 0.728208 cumulative IPC: 0.732316 (Simulation time: 0 hr 35 min 22 sec) 
Heartbeat CPU 0 instructions: 80000000 cycles: 105169089 heartbeat IPC: 0.733569 cumulative IPC: 0.732334 (Simulation time: 0 hr 35 min 44 sec) 
Heartbeat CPU 0 instructions: 81000002 cycles: 106565461 heartbeat IPC: 0.716143 cumulative IPC: 0.732101 (Simulation time: 0 hr 36 min 6 sec) 
Heartbeat CPU 0 instructions: 82000000 cycles: 107953127 heartbeat IPC: 0.720633 cumulative IPC: 0.731939 (Simulation time: 0 hr 36 min 25 sec) 
Heartbeat CPU 0 instructions: 83000003 cycles: 109300930 heartbeat IPC: 0.74195 cumulative IPC: 0.732074 (Simulation time: 0 hr 36 min 45 sec) 
Heartbeat CPU 0 instructions: 84000000 cycles: 110659964 heartbeat IPC: 0.735815 cumulative IPC: 0.732125 (Simulation time: 0 hr 37 min 3 sec) 
Heartbeat CPU 0 instructions: 85000002 cycles: 111987959 heartbeat IPC: 0.753016 cumulative IPC: 0.732395 (Simulation time: 0 hr 37 min 24 sec) 
Heartbeat CPU 0 instructions: 86000003 cycles: 113306371 heartbeat IPC: 0.758489 cumulative IPC: 0.732727 (Simulation time: 0 hr 37 min 43 sec) 
Heartbeat CPU 0 instructions: 87000000 cycles: 114706818 heartbeat IPC: 0.714056 cumulative IPC: 0.732478 (Simulation time: 0 hr 38 min 1 sec) 
Heartbeat CPU 0 instructions: 88000000 cycles: 116069862 heartbeat IPC: 0.733652 cumulative IPC: 0.732493 (Simulation time: 0 hr 38 min 21 sec) 
Heartbeat CPU 0 instructions: 89000000 cycles: 117446029 heartbeat IPC: 0.726656 cumulative IPC: 0.732419 (Simulation time: 0 hr 38 min 40 sec) 
Heartbeat CPU 0 instructions: 90000000 cycles: 118776590 heartbeat IPC: 0.751563 cumulative IPC: 0.732652 (Simulation time: 0 hr 39 min 1 sec) 
Heartbeat CPU 0 instructions: 91000001 cycles: 120098117 heartbeat IPC: 0.756701 cumulative IPC: 0.73294 (Simulation time: 0 hr 39 min 19 sec) 
Heartbeat CPU 0 instructions: 92000000 cycles: 121433056 heartbeat IPC: 0.749097 cumulative IPC: 0.733133 (Simulation time: 0 hr 39 min 36 sec) 
Heartbeat CPU 0 instructions: 93000003 cycles: 122836138 heartbeat IPC: 0.712719 cumulative IPC: 0.73288 (Simulation time: 0 hr 39 min 52 sec) 
Heartbeat CPU 0 instructions: 94000000 cycles: 124193435 heartbeat IPC: 0.736756 cumulative IPC: 0.732926 (Simulation time: 0 hr 40 min 7 sec) 
Heartbeat CPU 0 instructions: 95000000 cycles: 125560032 heartbeat IPC: 0.731745 cumulative IPC: 0.732912 (Simulation time: 0 hr 40 min 22 sec) 
Heartbeat CPU 0 instructions: 96000000 cycles: 126907794 heartbeat IPC: 0.741971 cumulative IPC: 0.733016 (Simulation time: 0 hr 40 min 37 sec) 
Heartbeat CPU 0 instructions: 97000000 cycles: 128231798 heartbeat IPC: 0.755285 cumulative IPC: 0.733264 (Simulation time: 0 hr 40 min 52 sec) 
Heartbeat CPU 0 instructions: 98000003 cycles: 129558302 heartbeat IPC: 0.753864 cumulative IPC: 0.733492 (Simulation time: 0 hr 41 min 6 sec) 
Heartbeat CPU 0 instructions: 99000000 cycles: 130967325 heartbeat IPC: 0.709709 cumulative IPC: 0.733216 (Simulation time: 0 hr 41 min 19 sec) 
Heartbeat CPU 0 instructions: 100000000 cycles: 132329066 heartbeat IPC: 0.734354 cumulative IPC: 0.733229 (Simulation time: 0 hr 41 min 33 sec) 
Heartbeat CPU 0 instructions: 101000000 cycles: 133693528 heartbeat IPC: 0.73289 cumulative IPC: 0.733225 (Simulation time: 0 hr 41 min 46 sec) 
Heartbeat CPU 0 instructions: 102000001 cycles: 135020144 heartbeat IPC: 0.753798 cumulative IPC: 0.733442 (Simulation time: 0 hr 42 min 0 sec) 
Heartbeat CPU 0 instructions: 103000001 cycles: 136336555 heartbeat IPC: 0.759641 cumulative IPC: 0.733715 (Simulation time: 0 hr 42 min 13 sec) 
Heartbeat CPU 0 instructions: 104000000 cycles: 137653272 heartbeat IPC: 0.759464 cumulative IPC: 0.733979 (Simulation time: 0 hr 42 min 26 sec) 
Heartbeat CPU 0 instructions: 105000002 cycles: 139053200 heartbeat IPC: 0.714324 cumulative IPC: 0.733767 (Simulation time: 0 hr 42 min 38 sec) 
Heartbeat CPU 0 instructions: 106000000 cycles: 140480290 heartbeat IPC: 0.700725 cumulative IPC: 0.733407 (Simulation time: 0 hr 42 min 50 sec) 
Heartbeat CPU 0 instructions: 107000002 cycles: 141889000 heartbeat IPC: 0.709871 cumulative IPC: 0.733156 (Simulation time: 0 hr 43 min 1 sec) 
Heartbeat CPU 0 instructions: 108000000 cycles: 143258752 heartbeat IPC: 0.730058 cumulative IPC: 0.733124 (Simulation time: 0 hr 43 min 11 sec) 
Heartbeat CPU 0 instructions: 109000000 cycles: 144609524 heartbeat IPC: 0.740317 cumulative IPC: 0.733196 (Simulation time: 0 hr 43 min 21 sec) 
Heartbeat CPU 0 instructions: 110000000 cycles: 145954977 heartbeat IPC: 0.743244 cumulative IPC: 0.733295 (Simulation time: 0 hr 43 min 31 sec) 
Finished CPU 0 instructions: 100000003 cycles: 136370714 cummulative IPC: 0.733295 (Simulation time: 0 hr 43 min 31 sec) 

ChampSim completed all CPUs

Region of Interest Statistics

CPU 0 cummulative IPC: 0.733295 instructions: 100000003 cycles: 136370714
LLC TOTAL     ACCESS:   21200174  HIT:   21146166  MISS:      54008
LLC LOAD      ACCESS:     194764  HIT:     150691  MISS:      44073
LLC RFO       ACCESS:   10471722  HIT:   10461787  MISS:       9935
LLC PREFETCH  ACCESS:          0  HIT:          0  MISS:          0
LLC WRITEBACK ACCESS:   10533688  HIT:   10533688  MISS:          0
