
*** ChampSim Multicore Out-of-Order Simulator ***

Warmup Instructions: 10000000
Simulation Instructions: 100000000
Configuration: 1
Number of CPUs: 1
LLC sets: 2048
LLC ways: 16
Off-chip DRAM Channels: 1 Width: 64-bit Data Rate: 1600 MT/s

CPU 0 runs /datasets/cs240c-wi22-a00-public/data/Assignment2-gz/bzip2_281B.trace.gz
Initialize LRU replacement state
Heartbeat CPU 0 instructions: 1000000 cycles: 445723 heartbeat IPC: 2.24355 cumulative IPC: 2.24355 (Simulation time: 0 hr 0 min 24 sec) 
Heartbeat CPU 0 instructions: 2000003 cycles: 899728 heartbeat IPC: 2.20263 cumulative IPC: 2.2229 (Simulation time: 0 hr 0 min 45 sec) 
Heartbeat CPU 0 instructions: 3000002 cycles: 1314511 heartbeat IPC: 2.4109 cumulative IPC: 2.28222 (Simulation time: 0 hr 1 min 10 sec) 
Heartbeat CPU 0 instructions: 4000000 cycles: 1753073 heartbeat IPC: 2.28017 cumulative IPC: 2.28171 (Simulation time: 0 hr 1 min 29 sec) 
Heartbeat CPU 0 instructions: 5000002 cycles: 2174914 heartbeat IPC: 2.37057 cumulative IPC: 2.29894 (Simulation time: 0 hr 1 min 47 sec) 
Heartbeat CPU 0 instructions: 6000003 cycles: 2666767 heartbeat IPC: 2.03313 cumulative IPC: 2.24992 (Simulation time: 0 hr 2 min 7 sec) 
Heartbeat CPU 0 instructions: 7000001 cycles: 3194549 heartbeat IPC: 1.89472 cumulative IPC: 2.19123 (Simulation time: 0 hr 2 min 29 sec) 
Heartbeat CPU 0 instructions: 8000000 cycles: 3727554 heartbeat IPC: 1.87615 cumulative IPC: 2.14618 (Simulation time: 0 hr 2 min 50 sec) 
Heartbeat CPU 0 instructions: 9000003 cycles: 4234473 heartbeat IPC: 1.97271 cumulative IPC: 2.12541 (Simulation time: 0 hr 3 min 12 sec) 
Heartbeat CPU 0 instructions: 10000002 cycles: 4687206 heartbeat IPC: 2.20881 cumulative IPC: 2.13347 (Simulation time: 0 hr 3 min 32 sec) 

Warmup complete CPU 0 instructions: 10000002 cycles: 4687206 (Simulation time: 0 hr 3 min 32 sec) 

Heartbeat CPU 0 instructions: 11000000 cycles: 6213491 heartbeat IPC: 0.655184 cumulative IPC: 0.655184 (Simulation time: 0 hr 3 min 51 sec) 
Heartbeat CPU 0 instructions: 12000000 cycles: 7560717 heartbeat IPC: 0.742266 cumulative IPC: 0.696012 (Simulation time: 0 hr 4 min 14 sec) 
Heartbeat CPU 0 instructions: 13000001 cycles: 9076409 heartbeat IPC: 0.659765 cumulative IPC: 0.683495 (Simulation time: 0 hr 4 min 39 sec) 
Heartbeat CPU 0 instructions: 14000000 cycles: 10528465 heartbeat IPC: 0.688678 cumulative IPC: 0.684784 (Simulation time: 0 hr 4 min 57 sec) 
Heartbeat CPU 0 instructions: 15000000 cycles: 12231896 heartbeat IPC: 0.58705 cumulative IPC: 0.662717 (Simulation time: 0 hr 5 min 21 sec) 
Heartbeat CPU 0 instructions: 16000000 cycles: 14014901 heartbeat IPC: 0.560851 cumulative IPC: 0.643246 (Simulation time: 0 hr 5 min 47 sec) 
Heartbeat CPU 0 instructions: 17000003 cycles: 15585629 heartbeat IPC: 0.636649 cumulative IPC: 0.642295 (Simulation time: 0 hr 6 min 10 sec) 
Heartbeat CPU 0 instructions: 18000002 cycles: 17319953 heartbeat IPC: 0.576593 cumulative IPC: 0.633275 (Simulation time: 0 hr 6 min 30 sec) 
Heartbeat CPU 0 instructions: 19000001 cycles: 18759600 heartbeat IPC: 0.694614 cumulative IPC: 0.63955 (Simulation time: 0 hr 6 min 47 sec) 
Heartbeat CPU 0 instructions: 20000000 cycles: 20587585 heartbeat IPC: 0.54705 cumulative IPC: 0.628916 (Simulation time: 0 hr 7 min 9 sec) 
Heartbeat CPU 0 instructions: 21000001 cycles: 22367185 heartbeat IPC: 0.561925 cumulative IPC: 0.622173 (Simulation time: 0 hr 7 min 37 sec) 
Heartbeat CPU 0 instructions: 22000000 cycles: 24765638 heartbeat IPC: 0.416935 cumulative IPC: 0.597656 (Simulation time: 0 hr 8 min 5 sec) 
Heartbeat CPU 0 instructions: 23000001 cycles: 26357751 heartbeat IPC: 0.628097 cumulative IPC: 0.599893 (Simulation time: 0 hr 8 min 23 sec) 
Heartbeat CPU 0 instructions: 24000000 cycles: 28565760 heartbeat IPC: 0.452896 cumulative IPC: 0.5863 (Simulation time: 0 hr 8 min 49 sec) 
Heartbeat CPU 0 instructions: 25000002 cycles: 30623210 heartbeat IPC: 0.48604 cumulative IPC: 0.578347 (Simulation time: 0 hr 9 min 14 sec) 
Heartbeat CPU 0 instructions: 26000003 cycles: 32018541 heartbeat IPC: 0.716677 cumulative IPC: 0.585409 (Simulation time: 0 hr 9 min 43 sec) 
Heartbeat CPU 0 instructions: 27000002 cycles: 33872861 heartbeat IPC: 0.539281 cumulative IPC: 0.582478 (Simulation time: 0 hr 10 min 12 sec) 
Heartbeat CPU 0 instructions: 28000000 cycles: 35214110 heartbeat IPC: 0.745572 cumulative IPC: 0.589644 (Simulation time: 0 hr 10 min 35 sec) 
Heartbeat CPU 0 instructions: 29000001 cycles: 36507621 heartbeat IPC: 0.77309 cumulative IPC: 0.597101 (Simulation time: 0 hr 10 min 57 sec) 
Heartbeat CPU 0 instructions: 30000000 cycles: 38265697 heartbeat IPC: 0.568803 cumulative IPC: 0.595619 (Simulation time: 0 hr 11 min 21 sec) 
Heartbeat CPU 0 instructions: 31000003 cycles: 39994002 heartbeat IPC: 0.578603 cumulative IPC: 0.594786 (Simulation time: 0 hr 11 min 42 sec) 
Heartbeat CPU 0 instructions: 32000000 cycles: 41064350 heartbeat IPC: 0.934273 cumulative IPC: 0.604775 (Simulation time: 0 hr 12 min 2 sec) 
Heartbeat CPU 0 instructions: 33000002 cycles: 42180708 heartbeat IPC: 0.895772 cumulative IPC: 0.61344 (Simulation time: 0 hr 12 min 25 sec) 
Heartbeat CPU 0 instructions: 34000001 cycles: 43211971 heartbeat IPC: 0.969684 cumulative IPC: 0.622976 (Simulation time: 0 hr 12 min 44 sec) 
Heartbeat CPU 0 instructions: 35000000 cycles: 44132649 heartbeat IPC: 1.08615 cumulative IPC: 0.633787 (Simulation time: 0 hr 13 min 2 sec) 
Heartbeat CPU 0 instructions: 36000000 cycles: 45047660 heartbeat IPC: 1.09288 cumulative IPC: 0.644195 (Simulation time: 0 hr 13 min 19 sec) 
Heartbeat CPU 0 instructions: 37000000 cycles: 45949638 heartbeat IPC: 1.10867 cumulative IPC: 0.654348 (Simulation time: 0 hr 13 min 39 sec) 
Heartbeat CPU 0 instructions: 38000000 cycles: 46804955 heartbeat IPC: 1.16916 cumulative IPC: 0.664803 (Simulation time: 0 hr 13 min 56 sec) 
Heartbeat CPU 0 instructions: 39000001 cycles: 47785776 heartbeat IPC: 1.01956 cumulative IPC: 0.672876 (Simulation time: 0 hr 14 min 13 sec) 
Heartbeat CPU 0 instructions: 40000000 cycles: 48824917 heartbeat IPC: 0.962332 cumulative IPC: 0.679691 (Simulation time: 0 hr 14 min 32 sec) 
Heartbeat CPU 0 instructions: 41000002 cycles: 49861900 heartbeat IPC: 0.964338 cumulative IPC: 0.686225 (Simulation time: 0 hr 14 min 51 sec) 
Heartbeat CPU 0 instructions: 42000001 cycles: 50910895 heartbeat IPC: 0.953292 cumulative IPC: 0.692286 (Simulation time: 0 hr 15 min 12 sec) 
Heartbeat CPU 0 instructions: 43000001 cycles: 51933852 heartbeat IPC: 0.977558 cumulative IPC: 0.698462 (Simulation time: 0 hr 15 min 31 sec) 
Heartbeat CPU 0 instructions: 44000000 cycles: 53047149 heartbeat IPC: 0.898232 cumulative IPC: 0.703061 (Simulation time: 0 hr 15 min 51 sec) 
Heartbeat CPU 0 instructions: 45000000 cycles: 54067536 heartbeat IPC: 0.98002 cumulative IPC: 0.708784 (Simulation time: 0 hr 16 min 11 sec) 
Heartbeat CPU 0 instructions: 46000000 cycles: 55150500 heartbeat IPC: 0.923392 cumulative IPC: 0.71339 (Simulation time: 0 hr 16 min 32 sec) 
Heartbeat CPU 0 instructions: 47000000 cycles: 56174164 heartbeat IPC: 0.976883 cumulative IPC: 0.718629 (Simulation time: 0 hr 16 min 52 sec) 
Heartbeat CPU 0 instructions: 48000000 cycles: 57219561 heartbeat IPC: 0.956574 cumulative IPC: 0.723364 (Simulation time: 0 hr 17 min 12 sec) 
Heartbeat CPU 0 instructions: 49000001 cycles: 58305899 heartbeat IPC: 0.920525 cumulative IPC: 0.727358 (Simulation time: 0 hr 17 min 31 sec) 
Heartbeat CPU 0 instructions: 50000003 cycles: 59400500 heartbeat IPC: 0.913577 cumulative IPC: 0.731084 (Simulation time: 0 hr 17 min 50 sec) 
Heartbeat CPU 0 instructions: 51000002 cycles: 60478373 heartbeat IPC: 0.927752 cumulative IPC: 0.734883 (Simulation time: 0 hr 18 min 12 sec) 
Heartbeat CPU 0 instructions: 52000000 cycles: 61596775 heartbeat IPC: 0.894131 cumulative IPC: 0.738013 (Simulation time: 0 hr 18 min 31 sec) 
Heartbeat CPU 0 instructions: 53000000 cycles: 62706530 heartbeat IPC: 0.9011 cumulative IPC: 0.741132 (Simulation time: 0 hr 18 min 50 sec) 
Heartbeat CPU 0 instructions: 54000003 cycles: 63829053 heartbeat IPC: 0.890853 cumulative IPC: 0.743974 (Simulation time: 0 hr 19 min 11 sec) 
Heartbeat CPU 0 instructions: 55000000 cycles: 64928171 heartbeat IPC: 0.909818 cumulative IPC: 0.747 (Simulation time: 0 hr 19 min 30 sec) 
Heartbeat CPU 0 instructions: 56000000 cycles: 66028410 heartbeat IPC: 0.908893 cumulative IPC: 0.749904 (Simulation time: 0 hr 19 min 49 sec) 
Heartbeat CPU 0 instructions: 57000002 cycles: 67121821 heartbeat IPC: 0.914571 cumulative IPC: 0.752788 (Simulation time: 0 hr 20 min 9 sec) 
Heartbeat CPU 0 instructions: 58000003 cycles: 68230426 heartbeat IPC: 0.902035 cumulative IPC: 0.755391 (Simulation time: 0 hr 20 min 28 sec) 
Heartbeat CPU 0 instructions: 59000003 cycles: 69349552 heartbeat IPC: 0.893554 cumulative IPC: 0.757783 (Simulation time: 0 hr 20 min 50 sec) 
Heartbeat CPU 0 instructions: 60000000 cycles: 70579259 heartbeat IPC: 0.813199 cumulative IPC: 0.758817 (Simulation time: 0 hr 21 min 16 sec) 
Heartbeat CPU 0 instructions: 61000000 cycles: 71804168 heartbeat IPC: 0.816387 cumulative IPC: 0.759867 (Simulation time: 0 hr 21 min 41 sec) 
Heartbeat CPU 0 instructions: 62000003 cycles: 73043996 heartbeat IPC: 0.806566 cumulative IPC: 0.760714 (Simulation time: 0 hr 22 min 8 sec) 
Heartbeat CPU 0 instructions: 63000001 cycles: 74282944 heartbeat IPC: 0.807135 cumulative IPC: 0.761541 (Simulation time: 0 hr 22 min 30 sec) 
Heartbeat CPU 0 instructions: 64000000 cycles: 75604524 heartbeat IPC: 0.756669 cumulative IPC: 0.76145 (Simulation time: 0 hr 22 min 53 sec) 
Heartbeat CPU 0 instructions: 65000001 cycles: 76808764 heartbeat IPC: 0.8304 cumulative IPC: 0.762601 (Simulation time: 0 hr 23 min 20 sec) 
Heartbeat CPU 0 instructions: 66000003 cycles: 78010725 heartbeat IPC: 0.831975 cumulative IPC: 0.763739 (Simulation time: 0 hr 23 min 43 sec) 
Heartbeat CPU 0 instructions: 67000000 cycles: 79221894 heartbeat IPC: 0.825646 cumulative IPC: 0.764745 (Simulation time: 0 hr 24 min 7 sec) 
Heartbeat CPU 0 instructions: 68000000 cycles: 80535887 heartbeat IPC: 0.761039 cumulative IPC: 0.76468 (Simulation time: 0 hr 24 min 28 sec) 
Heartbeat CPU 0 instructions: 69000000 cycles: 81732508 heartbeat IPC: 0.835687 cumulative IPC: 0.765783 (Simulation time: 0 hr 24 min 52 sec) 
Heartbeat CPU 0 instructions: 70000002 cycles: 82934947 heartbeat IPC: 0.831645 cumulative IPC: 0.766795 (Simulation time: 0 hr 25 min 15 sec) 
Heartbeat CPU 0 instructions: 71000003 cycles: 84141882 heartbeat IPC: 0.828546 cumulative IPC: 0.767733 (Simulation time: 0 hr 25 min 38 sec) 
Heartbeat CPU 0 instructions: 72000000 cycles: 85349910 heartbeat IPC: 0.827793 cumulative IPC: 0.768633 (Simulation time: 0 hr 26 min 1 sec) 
Heartbeat CPU 0 instructions: 73000002 cycles: 86653568 heartbeat IPC: 0.767074 cumulative IPC: 0.768608 (Simulation time: 0 hr 26 min 23 sec) 
Heartbeat CPU 0 instructions: 74000000 cycles: 87853253 heartbeat IPC: 0.83355 cumulative IPC: 0.769545 (Simulation time: 0 hr 26 min 46 sec) 
Heartbeat CPU 0 instructions: 75000001 cycles: 89054896 heartbeat IPC: 0.832195 cumulative IPC: 0.770437 (Simulation time: 0 hr 27 min 13 sec) 
Heartbeat CPU 0 instructions: 76000000 cycles: 90264287 heartbeat IPC: 0.826862 cumulative IPC: 0.771235 (Simulation time: 0 hr 27 min 39 sec) 
Heartbeat CPU 0 instructions: 77000001 cycles: 91521666 heartbeat IPC: 0.795306 cumulative IPC: 0.771583 (Simulation time: 0 hr 28 min 4 sec) 
Heartbeat CPU 0 instructions: 78000003 cycles: 92688789 heartbeat IPC: 0.856809 cumulative IPC: 0.772713 (Simulation time: 0 hr 28 min 21 sec) 
Heartbeat CPU 0 instructions: 79000000 cycles: 93610167 heartbeat IPC: 1.08533 cumulative IPC: 0.775953 (Simulation time: 0 hr 28 min 38 sec) 
Heartbeat CPU 0 instructions: 80000000 cycles: 94516797 heartbeat IPC: 1.10299 cumulative IPC: 0.779253 (Simulation time: 0 hr 28 min 55 sec) 
Heartbeat CPU 0 instructions: 81000000 cycles: 95365479 heartbeat IPC: 1.1783 cumulative IPC: 0.782988 (Simulation time: 0 hr 29 min 12 sec) 
Heartbeat CPU 0 instructions: 82000001 cycles: 96260403 heartbeat IPC: 1.11741 cumulative IPC: 0.786256 (Simulation time: 0 hr 29 min 30 sec) 
Heartbeat CPU 0 instructions: 83000000 cycles: 97187657 heartbeat IPC: 1.07845 cumulative IPC: 0.789185 (Simulation time: 0 hr 29 min 45 sec) 
Heartbeat CPU 0 instructions: 84000000 cycles: 98107692 heartbeat IPC: 1.08692 cumulative IPC: 0.792117 (Simulation time: 0 hr 30 min 2 sec) 
Heartbeat CPU 0 instructions: 85000002 cycles: 99044147 heartbeat IPC: 1.06786 cumulative IPC: 0.794854 (Simulation time: 0 hr 30 min 24 sec) 
Heartbeat CPU 0 instructions: 86000002 cycles: 99979612 heartbeat IPC: 1.06899 cumulative IPC: 0.797545 (Simulation time: 0 hr 30 min 48 sec) 
Heartbeat CPU 0 instructions: 87000002 cycles: 100915062 heartbeat IPC: 1.069 cumulative IPC: 0.800184 (Simulation time: 0 hr 31 min 11 sec) 
Heartbeat CPU 0 instructions: 88000000 cycles: 101998877 heartbeat IPC: 0.922665 cumulative IPC: 0.801548 (Simulation time: 0 hr 31 min 32 sec) 
Heartbeat CPU 0 instructions: 89000002 cycles: 103134605 heartbeat IPC: 0.880494 cumulative IPC: 0.802459 (Simulation time: 0 hr 31 min 53 sec) 
Heartbeat CPU 0 instructions: 90000001 cycles: 104267254 heartbeat IPC: 0.882885 cumulative IPC: 0.803374 (Simulation time: 0 hr 32 min 14 sec) 
Heartbeat CPU 0 instructions: 91000001 cycles: 105416558 heartbeat IPC: 0.870092 cumulative IPC: 0.804135 (Simulation time: 0 hr 32 min 35 sec) 
Heartbeat CPU 0 instructions: 92000000 cycles: 106546077 heartbeat IPC: 0.885332 cumulative IPC: 0.805035 (Simulation time: 0 hr 32 min 58 sec) 
Heartbeat CPU 0 instructions: 93000001 cycles: 107673957 heartbeat IPC: 0.88662 cumulative IPC: 0.805929 (Simulation time: 0 hr 33 min 19 sec) 
Heartbeat CPU 0 instructions: 94000001 cycles: 108799572 heartbeat IPC: 0.888403 cumulative IPC: 0.806821 (Simulation time: 0 hr 33 min 44 sec) 
Heartbeat CPU 0 instructions: 95000000 cycles: 109929702 heartbeat IPC: 0.884853 cumulative IPC: 0.807658 (Simulation time: 0 hr 34 min 5 sec) 
Heartbeat CPU 0 instructions: 96000000 cycles: 111055742 heartbeat IPC: 0.888068 cumulative IPC: 0.80851 (Simulation time: 0 hr 34 min 25 sec) 
Heartbeat CPU 0 instructions: 97000002 cycles: 112183958 heartbeat IPC: 0.886357 cumulative IPC: 0.809327 (Simulation time: 0 hr 34 min 46 sec) 
Heartbeat CPU 0 instructions: 98000002 cycles: 113312301 heartbeat IPC: 0.886255 cumulative IPC: 0.810126 (Simulation time: 0 hr 35 min 6 sec) 
Heartbeat CPU 0 instructions: 99000000 cycles: 114440157 heartbeat IPC: 0.886636 cumulative IPC: 0.810912 (Simulation time: 0 hr 35 min 24 sec) 
Heartbeat CPU 0 instructions: 100000000 cycles: 115571334 heartbeat IPC: 0.884035 cumulative IPC: 0.811658 (Simulation time: 0 hr 35 min 42 sec) 
Heartbeat CPU 0 instructions: 101000000 cycles: 116703680 heartbeat IPC: 0.883122 cumulative IPC: 0.81238 (Simulation time: 0 hr 36 min 0 sec) 
Heartbeat CPU 0 instructions: 102000000 cycles: 117840292 heartbeat IPC: 0.879808 cumulative IPC: 0.813058 (Simulation time: 0 hr 36 min 17 sec) 
Heartbeat CPU 0 instructions: 103000002 cycles: 118974452 heartbeat IPC: 0.881712 cumulative IPC: 0.813739 (Simulation time: 0 hr 36 min 33 sec) 
Heartbeat CPU 0 instructions: 104000000 cycles: 120109059 heartbeat IPC: 0.881361 cumulative IPC: 0.814404 (Simulation time: 0 hr 36 min 50 sec) 
Heartbeat CPU 0 instructions: 105000003 cycles: 121248466 heartbeat IPC: 0.877652 cumulative IPC: 0.815022 (Simulation time: 0 hr 37 min 6 sec) 
Heartbeat CPU 0 instructions: 106000002 cycles: 122390453 heartbeat IPC: 0.875666 cumulative IPC: 0.81561 (Simulation time: 0 hr 37 min 22 sec) 
Heartbeat CPU 0 instructions: 107000001 cycles: 123519467 heartbeat IPC: 0.885728 cumulative IPC: 0.816277 (Simulation time: 0 hr 37 min 40 sec) 
Heartbeat CPU 0 instructions: 108000000 cycles: 124660594 heartbeat IPC: 0.876326 cumulative IPC: 0.816848 (Simulation time: 0 hr 37 min 56 sec) 
Heartbeat CPU 0 instructions: 109000001 cycles: 125800928 heartbeat IPC: 0.876937 cumulative IPC: 0.817414 (Simulation time: 0 hr 38 min 13 sec) 
Heartbeat CPU 0 instructions: 110000002 cycles: 126954391 heartbeat IPC: 0.866955 cumulative IPC: 0.817881 (Simulation time: 0 hr 38 min 30 sec) 
Finished CPU 0 instructions: 100000000 cycles: 122267185 cummulative IPC: 0.817881 (Simulation time: 0 hr 38 min 30 sec) 

ChampSim completed all CPUs

Region of Interest Statistics

CPU 0 cummulative IPC: 0.817881 instructions: 100000000 cycles: 122267185
LLC TOTAL     ACCESS:    1432065  HIT:    1195628  MISS:     236437
LLC LOAD      ACCESS:    1067514  HIT:     910707  MISS:     156807
LLC RFO       ACCESS:     180726  HIT:     101098  MISS:      79628
LLC PREFETCH  ACCESS:          0  HIT:          0  MISS:          0
LLC WRITEBACK ACCESS:     183825  HIT:     183823  MISS:          2
