
*** ChampSim Multicore Out-of-Order Simulator ***

Warmup Instructions: 10000000
Simulation Instructions: 100000000
Configuration: 1
Number of CPUs: 1
LLC sets: 2048
LLC ways: 16
Off-chip DRAM Channels: 1 Width: 64-bit Data Rate: 1600 MT/s

CPU 0 runs /datasets/cs240c-wi22-a00-public/data/Assignment2-gz/wrf_1228B.trace.gz
Initialize LRU replacement state
Heartbeat CPU 0 instructions: 1000003 cycles: 590333 heartbeat IPC: 1.69396 cumulative IPC: 1.69396 (Simulation time: 0 hr 0 min 26 sec) 
Heartbeat CPU 0 instructions: 2000002 cycles: 1100524 heartbeat IPC: 1.96005 cumulative IPC: 1.81732 (Simulation time: 0 hr 0 min 50 sec) 
Heartbeat CPU 0 instructions: 3000000 cycles: 1708670 heartbeat IPC: 1.64434 cumulative IPC: 1.75575 (Simulation time: 0 hr 1 min 16 sec) 
Heartbeat CPU 0 instructions: 4000000 cycles: 2319468 heartbeat IPC: 1.6372 cumulative IPC: 1.72453 (Simulation time: 0 hr 1 min 42 sec) 
Heartbeat CPU 0 instructions: 5000000 cycles: 3014419 heartbeat IPC: 1.43895 cumulative IPC: 1.65869 (Simulation time: 0 hr 2 min 8 sec) 
Heartbeat CPU 0 instructions: 6000000 cycles: 3573794 heartbeat IPC: 1.78771 cumulative IPC: 1.67889 (Simulation time: 0 hr 2 min 30 sec) 
Heartbeat CPU 0 instructions: 7000001 cycles: 4126276 heartbeat IPC: 1.81002 cumulative IPC: 1.69645 (Simulation time: 0 hr 2 min 53 sec) 
Heartbeat CPU 0 instructions: 8000000 cycles: 4677252 heartbeat IPC: 1.81496 cumulative IPC: 1.71041 (Simulation time: 0 hr 3 min 15 sec) 
Heartbeat CPU 0 instructions: 9000002 cycles: 5226774 heartbeat IPC: 1.81977 cumulative IPC: 1.7219 (Simulation time: 0 hr 3 min 36 sec) 
Heartbeat CPU 0 instructions: 10000001 cycles: 5779107 heartbeat IPC: 1.8105 cumulative IPC: 1.73037 (Simulation time: 0 hr 3 min 58 sec) 

Warmup complete CPU 0 instructions: 10000001 cycles: 5779107 (Simulation time: 0 hr 3 min 58 sec) 

Heartbeat CPU 0 instructions: 11000003 cycles: 7389593 heartbeat IPC: 0.620932 cumulative IPC: 0.620932 (Simulation time: 0 hr 4 min 22 sec) 
Heartbeat CPU 0 instructions: 12000000 cycles: 9037780 heartbeat IPC: 0.606725 cumulative IPC: 0.613746 (Simulation time: 0 hr 4 min 48 sec) 
Heartbeat CPU 0 instructions: 13000003 cycles: 10660664 heartbeat IPC: 0.616189 cumulative IPC: 0.614558 (Simulation time: 0 hr 5 min 14 sec) 
Heartbeat CPU 0 instructions: 14000002 cycles: 12296601 heartbeat IPC: 0.61127 cumulative IPC: 0.613733 (Simulation time: 0 hr 5 min 39 sec) 
Heartbeat CPU 0 instructions: 15000001 cycles: 13852875 heartbeat IPC: 0.64256 cumulative IPC: 0.61929 (Simulation time: 0 hr 6 min 0 sec) 
Heartbeat CPU 0 instructions: 16000000 cycles: 15408370 heartbeat IPC: 0.642882 cumulative IPC: 0.623101 (Simulation time: 0 hr 6 min 24 sec) 
Heartbeat CPU 0 instructions: 17000002 cycles: 17000548 heartbeat IPC: 0.628072 cumulative IPC: 0.623806 (Simulation time: 0 hr 6 min 48 sec) 
Heartbeat CPU 0 instructions: 18000000 cycles: 18576088 heartbeat IPC: 0.634702 cumulative IPC: 0.625147 (Simulation time: 0 hr 7 min 14 sec) 
Heartbeat CPU 0 instructions: 19000000 cycles: 20138970 heartbeat IPC: 0.639844 cumulative IPC: 0.626747 (Simulation time: 0 hr 7 min 42 sec) 
Heartbeat CPU 0 instructions: 20000000 cycles: 21718304 heartbeat IPC: 0.633178 cumulative IPC: 0.627384 (Simulation time: 0 hr 8 min 6 sec) 
Heartbeat CPU 0 instructions: 21000000 cycles: 23264268 heartbeat IPC: 0.646846 cumulative IPC: 0.629105 (Simulation time: 0 hr 8 min 34 sec) 
Heartbeat CPU 0 instructions: 22000003 cycles: 24864213 heartbeat IPC: 0.625023 cumulative IPC: 0.628763 (Simulation time: 0 hr 9 min 0 sec) 
Heartbeat CPU 0 instructions: 23000003 cycles: 26636372 heartbeat IPC: 0.564283 cumulative IPC: 0.623284 (Simulation time: 0 hr 9 min 27 sec) 
Heartbeat CPU 0 instructions: 24000000 cycles: 28373073 heartbeat IPC: 0.575803 cumulative IPC: 0.619634 (Simulation time: 0 hr 9 min 54 sec) 
Heartbeat CPU 0 instructions: 25000000 cycles: 30146794 heartbeat IPC: 0.563787 cumulative IPC: 0.615569 (Simulation time: 0 hr 10 min 18 sec) 
Heartbeat CPU 0 instructions: 26000002 cycles: 31926634 heartbeat IPC: 0.561849 cumulative IPC: 0.611913 (Simulation time: 0 hr 10 min 45 sec) 
Heartbeat CPU 0 instructions: 27000003 cycles: 33735696 heartbeat IPC: 0.552773 cumulative IPC: 0.608086 (Simulation time: 0 hr 11 min 13 sec) 
Heartbeat CPU 0 instructions: 28000000 cycles: 35592617 heartbeat IPC: 0.538524 cumulative IPC: 0.603753 (Simulation time: 0 hr 11 min 41 sec) 
Heartbeat CPU 0 instructions: 29000003 cycles: 37642990 heartbeat IPC: 0.487718 cumulative IPC: 0.596286 (Simulation time: 0 hr 12 min 11 sec) 
Heartbeat CPU 0 instructions: 30000000 cycles: 40179003 heartbeat IPC: 0.394319 cumulative IPC: 0.581397 (Simulation time: 0 hr 12 min 39 sec) 
Heartbeat CPU 0 instructions: 31000003 cycles: 43232833 heartbeat IPC: 0.327459 cumulative IPC: 0.560692 (Simulation time: 0 hr 13 min 8 sec) 
Heartbeat CPU 0 instructions: 32000000 cycles: 46362485 heartbeat IPC: 0.319523 cumulative IPC: 0.542094 (Simulation time: 0 hr 13 min 37 sec) 
Heartbeat CPU 0 instructions: 33000001 cycles: 48731638 heartbeat IPC: 0.422092 cumulative IPC: 0.535475 (Simulation time: 0 hr 14 min 6 sec) 
Heartbeat CPU 0 instructions: 34000002 cycles: 51036113 heartbeat IPC: 0.433939 cumulative IPC: 0.530305 (Simulation time: 0 hr 14 min 33 sec) 
Heartbeat CPU 0 instructions: 35000001 cycles: 53334489 heartbeat IPC: 0.435089 cumulative IPC: 0.525703 (Simulation time: 0 hr 15 min 1 sec) 
Heartbeat CPU 0 instructions: 36000000 cycles: 55109346 heartbeat IPC: 0.563425 cumulative IPC: 0.52706 (Simulation time: 0 hr 15 min 25 sec) 
Heartbeat CPU 0 instructions: 37000001 cycles: 56911448 heartbeat IPC: 0.554908 cumulative IPC: 0.528042 (Simulation time: 0 hr 15 min 48 sec) 
Heartbeat CPU 0 instructions: 38000001 cycles: 58612118 heartbeat IPC: 0.588004 cumulative IPC: 0.529972 (Simulation time: 0 hr 16 min 13 sec) 
Heartbeat CPU 0 instructions: 39000002 cycles: 60250275 heartbeat IPC: 0.610443 cumulative IPC: 0.532392 (Simulation time: 0 hr 16 min 37 sec) 
Heartbeat CPU 0 instructions: 40000000 cycles: 61865695 heartbeat IPC: 0.619033 cumulative IPC: 0.534887 (Simulation time: 0 hr 17 min 2 sec) 
Heartbeat CPU 0 instructions: 41000000 cycles: 63498478 heartbeat IPC: 0.612451 cumulative IPC: 0.537081 (Simulation time: 0 hr 17 min 26 sec) 
Heartbeat CPU 0 instructions: 42000002 cycles: 65128502 heartbeat IPC: 0.613489 cumulative IPC: 0.53918 (Simulation time: 0 hr 17 min 50 sec) 
Heartbeat CPU 0 instructions: 43000000 cycles: 66762948 heartbeat IPC: 0.611827 cumulative IPC: 0.541127 (Simulation time: 0 hr 18 min 16 sec) 
Heartbeat CPU 0 instructions: 44000000 cycles: 68337516 heartbeat IPC: 0.635095 cumulative IPC: 0.543492 (Simulation time: 0 hr 18 min 44 sec) 
Heartbeat CPU 0 instructions: 45000000 cycles: 69882361 heartbeat IPC: 0.647314 cumulative IPC: 0.545994 (Simulation time: 0 hr 19 min 6 sec) 
Heartbeat CPU 0 instructions: 46000002 cycles: 71427920 heartbeat IPC: 0.647016 cumulative IPC: 0.548372 (Simulation time: 0 hr 19 min 29 sec) 
Heartbeat CPU 0 instructions: 47000001 cycles: 72993803 heartbeat IPC: 0.638617 cumulative IPC: 0.550475 (Simulation time: 0 hr 19 min 51 sec) 
Heartbeat CPU 0 instructions: 48000000 cycles: 74540521 heartbeat IPC: 0.64653 cumulative IPC: 0.552635 (Simulation time: 0 hr 20 min 13 sec) 
Heartbeat CPU 0 instructions: 49000001 cycles: 76117293 heartbeat IPC: 0.634208 cumulative IPC: 0.554464 (Simulation time: 0 hr 20 min 35 sec) 
Heartbeat CPU 0 instructions: 50000002 cycles: 77690388 heartbeat IPC: 0.63569 cumulative IPC: 0.556241 (Simulation time: 0 hr 20 min 57 sec) 
Heartbeat CPU 0 instructions: 51000001 cycles: 79242349 heartbeat IPC: 0.644345 cumulative IPC: 0.558102 (Simulation time: 0 hr 21 min 20 sec) 
Heartbeat CPU 0 instructions: 52000000 cycles: 80895850 heartbeat IPC: 0.604777 cumulative IPC: 0.55913 (Simulation time: 0 hr 21 min 44 sec) 
Heartbeat CPU 0 instructions: 53000002 cycles: 82647475 heartbeat IPC: 0.5709 cumulative IPC: 0.559398 (Simulation time: 0 hr 22 min 9 sec) 
Heartbeat CPU 0 instructions: 54000001 cycles: 84390452 heartbeat IPC: 0.57373 cumulative IPC: 0.559716 (Simulation time: 0 hr 22 min 35 sec) 
Heartbeat CPU 0 instructions: 55000001 cycles: 86127817 heartbeat IPC: 0.575584 cumulative IPC: 0.560059 (Simulation time: 0 hr 23 min 1 sec) 
Heartbeat CPU 0 instructions: 56000000 cycles: 87878939 heartbeat IPC: 0.571062 cumulative IPC: 0.560293 (Simulation time: 0 hr 23 min 27 sec) 
Heartbeat CPU 0 instructions: 57000001 cycles: 89628532 heartbeat IPC: 0.571562 cumulative IPC: 0.560529 (Simulation time: 0 hr 23 min 52 sec) 
Heartbeat CPU 0 instructions: 58000003 cycles: 91383844 heartbeat IPC: 0.5697 cumulative IPC: 0.560717 (Simulation time: 0 hr 24 min 16 sec) 
Heartbeat CPU 0 instructions: 59000001 cycles: 93610344 heartbeat IPC: 0.449135 cumulative IPC: 0.557888 (Simulation time: 0 hr 24 min 43 sec) 
Heartbeat CPU 0 instructions: 60000000 cycles: 96145549 heartbeat IPC: 0.394445 cumulative IPC: 0.553303 (Simulation time: 0 hr 25 min 13 sec) 
Heartbeat CPU 0 instructions: 61000000 cycles: 99616279 heartbeat IPC: 0.288124 cumulative IPC: 0.543495 (Simulation time: 0 hr 25 min 43 sec) 
Heartbeat CPU 0 instructions: 62000003 cycles: 102343884 heartbeat IPC: 0.366623 cumulative IPC: 0.538499 (Simulation time: 0 hr 26 min 12 sec) 
Heartbeat CPU 0 instructions: 63000001 cycles: 104654882 heartbeat IPC: 0.432713 cumulative IPC: 0.536026 (Simulation time: 0 hr 26 min 40 sec) 
Heartbeat CPU 0 instructions: 64000000 cycles: 106979910 heartbeat IPC: 0.430102 cumulative IPC: 0.533593 (Simulation time: 0 hr 27 min 8 sec) 
Heartbeat CPU 0 instructions: 65000003 cycles: 108607339 heartbeat IPC: 0.614468 cumulative IPC: 0.534873 (Simulation time: 0 hr 27 min 33 sec) 
Heartbeat CPU 0 instructions: 66000000 cycles: 110236495 heartbeat IPC: 0.613813 cumulative IPC: 0.536104 (Simulation time: 0 hr 27 min 58 sec) 
Heartbeat CPU 0 instructions: 67000000 cycles: 111860971 heartbeat IPC: 0.615583 cumulative IPC: 0.537321 (Simulation time: 0 hr 28 min 25 sec) 
Heartbeat CPU 0 instructions: 68000000 cycles: 113497210 heartbeat IPC: 0.611158 cumulative IPC: 0.538442 (Simulation time: 0 hr 28 min 50 sec) 
Heartbeat CPU 0 instructions: 69000000 cycles: 115154889 heartbeat IPC: 0.603253 cumulative IPC: 0.539425 (Simulation time: 0 hr 29 min 15 sec) 
Heartbeat CPU 0 instructions: 70000001 cycles: 116807042 heartbeat IPC: 0.605271 cumulative IPC: 0.540405 (Simulation time: 0 hr 29 min 42 sec) 
Heartbeat CPU 0 instructions: 71000001 cycles: 118444434 heartbeat IPC: 0.610727 cumulative IPC: 0.541427 (Simulation time: 0 hr 30 min 11 sec) 
Heartbeat CPU 0 instructions: 72000000 cycles: 120081815 heartbeat IPC: 0.610731 cumulative IPC: 0.542419 (Simulation time: 0 hr 30 min 37 sec) 
Heartbeat CPU 0 instructions: 73000003 cycles: 121712057 heartbeat IPC: 0.613408 cumulative IPC: 0.543418 (Simulation time: 0 hr 31 min 3 sec) 
Heartbeat CPU 0 instructions: 74000000 cycles: 123345084 heartbeat IPC: 0.612358 cumulative IPC: 0.544375 (Simulation time: 0 hr 31 min 29 sec) 
Heartbeat CPU 0 instructions: 75000001 cycles: 124982983 heartbeat IPC: 0.610539 cumulative IPC: 0.545284 (Simulation time: 0 hr 31 min 54 sec) 
Heartbeat CPU 0 instructions: 76000000 cycles: 126644393 heartbeat IPC: 0.601898 cumulative IPC: 0.546062 (Simulation time: 0 hr 32 min 19 sec) 
Heartbeat CPU 0 instructions: 77000003 cycles: 128286720 heartbeat IPC: 0.608894 cumulative IPC: 0.546905 (Simulation time: 0 hr 32 min 44 sec) 
Heartbeat CPU 0 instructions: 78000001 cycles: 129915641 heartbeat IPC: 0.613902 cumulative IPC: 0.547784 (Simulation time: 0 hr 33 min 8 sec) 
Heartbeat CPU 0 instructions: 79000000 cycles: 131553948 heartbeat IPC: 0.610386 cumulative IPC: 0.548599 (Simulation time: 0 hr 33 min 32 sec) 
Heartbeat CPU 0 instructions: 80000000 cycles: 133186188 heartbeat IPC: 0.612655 cumulative IPC: 0.54942 (Simulation time: 0 hr 33 min 56 sec) 
Heartbeat CPU 0 instructions: 81000001 cycles: 134812843 heartbeat IPC: 0.614759 cumulative IPC: 0.550244 (Simulation time: 0 hr 34 min 18 sec) 
Heartbeat CPU 0 instructions: 82000000 cycles: 136448561 heartbeat IPC: 0.611352 cumulative IPC: 0.551009 (Simulation time: 0 hr 34 min 42 sec) 
Heartbeat CPU 0 instructions: 83000000 cycles: 138085276 heartbeat IPC: 0.61098 cumulative IPC: 0.551751 (Simulation time: 0 hr 35 min 4 sec) 
Heartbeat CPU 0 instructions: 84000000 cycles: 139740573 heartbeat IPC: 0.604121 cumulative IPC: 0.552398 (Simulation time: 0 hr 35 min 25 sec) 
Heartbeat CPU 0 instructions: 85000000 cycles: 141390793 heartbeat IPC: 0.60598 cumulative IPC: 0.55305 (Simulation time: 0 hr 35 min 48 sec) 
Heartbeat CPU 0 instructions: 86000000 cycles: 143027157 heartbeat IPC: 0.611111 cumulative IPC: 0.553742 (Simulation time: 0 hr 36 min 8 sec) 
Heartbeat CPU 0 instructions: 87000000 cycles: 144658545 heartbeat IPC: 0.612975 cumulative IPC: 0.554438 (Simulation time: 0 hr 36 min 28 sec) 
Heartbeat CPU 0 instructions: 88000000 cycles: 146302208 heartbeat IPC: 0.608397 cumulative IPC: 0.555069 (Simulation time: 0 hr 36 min 47 sec) 
Heartbeat CPU 0 instructions: 89000002 cycles: 147943817 heartbeat IPC: 0.60916 cumulative IPC: 0.555693 (Simulation time: 0 hr 37 min 6 sec) 
Heartbeat CPU 0 instructions: 90000000 cycles: 149553525 heartbeat IPC: 0.621229 cumulative IPC: 0.556427 (Simulation time: 0 hr 37 min 25 sec) 
Heartbeat CPU 0 instructions: 91000000 cycles: 151194215 heartbeat IPC: 0.6095 cumulative IPC: 0.557026 (Simulation time: 0 hr 37 min 50 sec) 
Heartbeat CPU 0 instructions: 92000000 cycles: 152830191 heartbeat IPC: 0.611256 cumulative IPC: 0.557629 (Simulation time: 0 hr 38 min 8 sec) 
Heartbeat CPU 0 instructions: 93000000 cycles: 154462069 heartbeat IPC: 0.612791 cumulative IPC: 0.558235 (Simulation time: 0 hr 38 min 28 sec) 
Heartbeat CPU 0 instructions: 94000003 cycles: 156078008 heartbeat IPC: 0.618837 cumulative IPC: 0.558886 (Simulation time: 0 hr 38 min 47 sec) 
Heartbeat CPU 0 instructions: 95000000 cycles: 157711342 heartbeat IPC: 0.612243 cumulative IPC: 0.55946 (Simulation time: 0 hr 39 min 5 sec) 
Heartbeat CPU 0 instructions: 96000000 cycles: 159335136 heartbeat IPC: 0.615842 cumulative IPC: 0.560056 (Simulation time: 0 hr 39 min 23 sec) 
Heartbeat CPU 0 instructions: 97000001 cycles: 160985163 heartbeat IPC: 0.606051 cumulative IPC: 0.560545 (Simulation time: 0 hr 39 min 41 sec) 
Heartbeat CPU 0 instructions: 98000003 cycles: 162633048 heartbeat IPC: 0.60684 cumulative IPC: 0.561032 (Simulation time: 0 hr 39 min 58 sec) 
Heartbeat CPU 0 instructions: 99000000 cycles: 164274853 heartbeat IPC: 0.609084 cumulative IPC: 0.561529 (Simulation time: 0 hr 40 min 13 sec) 
Heartbeat CPU 0 instructions: 100000000 cycles: 165899601 heartbeat IPC: 0.61548 cumulative IPC: 0.562077 (Simulation time: 0 hr 40 min 30 sec) 
Heartbeat CPU 0 instructions: 101000000 cycles: 167519186 heartbeat IPC: 0.617442 cumulative IPC: 0.562631 (Simulation time: 0 hr 40 min 45 sec) 
Heartbeat CPU 0 instructions: 102000003 cycles: 169149265 heartbeat IPC: 0.613469 cumulative IPC: 0.563138 (Simulation time: 0 hr 40 min 59 sec) 
Heartbeat CPU 0 instructions: 103000000 cycles: 170778362 heartbeat IPC: 0.613835 cumulative IPC: 0.563639 (Simulation time: 0 hr 41 min 14 sec) 
Heartbeat CPU 0 instructions: 104000000 cycles: 172415988 heartbeat IPC: 0.61064 cumulative IPC: 0.564101 (Simulation time: 0 hr 41 min 28 sec) 
Heartbeat CPU 0 instructions: 105000000 cycles: 174054706 heartbeat IPC: 0.610233 cumulative IPC: 0.56455 (Simulation time: 0 hr 41 min 42 sec) 
Heartbeat CPU 0 instructions: 106000000 cycles: 175677870 heartbeat IPC: 0.616081 cumulative IPC: 0.565042 (Simulation time: 0 hr 41 min 56 sec) 
Heartbeat CPU 0 instructions: 107000000 cycles: 177312626 heartbeat IPC: 0.611712 cumulative IPC: 0.565487 (Simulation time: 0 hr 42 min 10 sec) 
Heartbeat CPU 0 instructions: 108000000 cycles: 178947120 heartbeat IPC: 0.61181 cumulative IPC: 0.565924 (Simulation time: 0 hr 42 min 23 sec) 
Heartbeat CPU 0 instructions: 109000003 cycles: 180578363 heartbeat IPC: 0.613031 cumulative IPC: 0.566364 (Simulation time: 0 hr 42 min 36 sec) 
Heartbeat CPU 0 instructions: 110000001 cycles: 182198133 heartbeat IPC: 0.61737 cumulative IPC: 0.566832 (Simulation time: 0 hr 42 min 49 sec) 
Finished CPU 0 instructions: 100000000 cycles: 176419026 cummulative IPC: 0.566832 (Simulation time: 0 hr 42 min 49 sec) 

ChampSim completed all CPUs

Region of Interest Statistics

CPU 0 cummulative IPC: 0.566832 instructions: 100000000 cycles: 176419026
LLC TOTAL     ACCESS:    1490753  HIT:     474081  MISS:    1016672
LLC LOAD      ACCESS:     835383  HIT:      26353  MISS:     809030
LLC RFO       ACCESS:     219225  HIT:      13188  MISS:     206037
LLC PREFETCH  ACCESS:          0  HIT:          0  MISS:          0
LLC WRITEBACK ACCESS:     436145  HIT:     434540  MISS:       1605
