
*** ChampSim Multicore Out-of-Order Simulator ***

Warmup Instructions: 10000000
Simulation Instructions: 100000000
Configuration: 1
Number of CPUs: 1
LLC sets: 2048
LLC ways: 16
Off-chip DRAM Channels: 1 Width: 64-bit Data Rate: 1600 MT/s

CPU 0 runs /datasets/cs240c-wi22-a00-public/data/Assignment2-gz/calculix_3812B.trace.gz
Initialize LRU replacement state
Heartbeat CPU 0 instructions: 1000001 cycles: 475279 heartbeat IPC: 2.10403 cumulative IPC: 2.10403 (Simulation time: 0 hr 0 min 20 sec) 
Heartbeat CPU 0 instructions: 2000002 cycles: 949743 heartbeat IPC: 2.10764 cumulative IPC: 2.10583 (Simulation time: 0 hr 0 min 39 sec) 
Heartbeat CPU 0 instructions: 3000002 cycles: 1425613 heartbeat IPC: 2.10141 cumulative IPC: 2.10436 (Simulation time: 0 hr 0 min 58 sec) 
Heartbeat CPU 0 instructions: 4000000 cycles: 1895811 heartbeat IPC: 2.12676 cumulative IPC: 2.10992 (Simulation time: 0 hr 1 min 17 sec) 
Heartbeat CPU 0 instructions: 5000000 cycles: 2346967 heartbeat IPC: 2.21653 cumulative IPC: 2.13041 (Simulation time: 0 hr 1 min 35 sec) 
Heartbeat CPU 0 instructions: 6000003 cycles: 2742337 heartbeat IPC: 2.52928 cumulative IPC: 2.18792 (Simulation time: 0 hr 1 min 49 sec) 
Heartbeat CPU 0 instructions: 7000002 cycles: 3124774 heartbeat IPC: 2.61481 cumulative IPC: 2.24016 (Simulation time: 0 hr 2 min 2 sec) 
Heartbeat CPU 0 instructions: 8000000 cycles: 3507537 heartbeat IPC: 2.61258 cumulative IPC: 2.2808 (Simulation time: 0 hr 2 min 14 sec) 
Heartbeat CPU 0 instructions: 9000000 cycles: 3889328 heartbeat IPC: 2.61923 cumulative IPC: 2.31402 (Simulation time: 0 hr 2 min 28 sec) 
Heartbeat CPU 0 instructions: 10000003 cycles: 4271479 heartbeat IPC: 2.61677 cumulative IPC: 2.34111 (Simulation time: 0 hr 2 min 40 sec) 

Warmup complete CPU 0 instructions: 10000003 cycles: 4271479 (Simulation time: 0 hr 2 min 40 sec) 

Heartbeat CPU 0 instructions: 11000001 cycles: 4831795 heartbeat IPC: 1.7847 cumulative IPC: 1.7847 (Simulation time: 0 hr 2 min 57 sec) 
Heartbeat CPU 0 instructions: 12000000 cycles: 5383700 heartbeat IPC: 1.8119 cumulative IPC: 1.7982 (Simulation time: 0 hr 3 min 14 sec) 
Heartbeat CPU 0 instructions: 13000003 cycles: 5936646 heartbeat IPC: 1.8085 cumulative IPC: 1.80162 (Simulation time: 0 hr 3 min 30 sec) 
Heartbeat CPU 0 instructions: 14000000 cycles: 6980879 heartbeat IPC: 0.957638 cumulative IPC: 1.47634 (Simulation time: 0 hr 3 min 50 sec) 
Heartbeat CPU 0 instructions: 15000003 cycles: 7677352 heartbeat IPC: 1.43581 cumulative IPC: 1.46805 (Simulation time: 0 hr 4 min 6 sec) 
Heartbeat CPU 0 instructions: 16000000 cycles: 8279902 heartbeat IPC: 1.65961 cumulative IPC: 1.49685 (Simulation time: 0 hr 4 min 22 sec) 
Heartbeat CPU 0 instructions: 17000001 cycles: 8868659 heartbeat IPC: 1.6985 cumulative IPC: 1.52267 (Simulation time: 0 hr 4 min 38 sec) 
Heartbeat CPU 0 instructions: 18000001 cycles: 9430161 heartbeat IPC: 1.78094 cumulative IPC: 1.55078 (Simulation time: 0 hr 4 min 54 sec) 
Heartbeat CPU 0 instructions: 19000001 cycles: 9997392 heartbeat IPC: 1.76295 cumulative IPC: 1.5718 (Simulation time: 0 hr 5 min 11 sec) 
Heartbeat CPU 0 instructions: 20000000 cycles: 10843691 heartbeat IPC: 1.18161 cumulative IPC: 1.52156 (Simulation time: 0 hr 5 min 28 sec) 
Heartbeat CPU 0 instructions: 21000003 cycles: 11432789 heartbeat IPC: 1.69752 cumulative IPC: 1.53603 (Simulation time: 0 hr 5 min 44 sec) 
Heartbeat CPU 0 instructions: 22000000 cycles: 12028378 heartbeat IPC: 1.67901 cumulative IPC: 1.54701 (Simulation time: 0 hr 6 min 1 sec) 
Heartbeat CPU 0 instructions: 23000002 cycles: 12618525 heartbeat IPC: 1.6945 cumulative IPC: 1.55744 (Simulation time: 0 hr 6 min 18 sec) 
Heartbeat CPU 0 instructions: 24000000 cycles: 13216243 heartbeat IPC: 1.67303 cumulative IPC: 1.56516 (Simulation time: 0 hr 6 min 34 sec) 
Heartbeat CPU 0 instructions: 25000003 cycles: 13883683 heartbeat IPC: 1.49827 cumulative IPC: 1.56052 (Simulation time: 0 hr 6 min 51 sec) 
Heartbeat CPU 0 instructions: 26000001 cycles: 14516020 heartbeat IPC: 1.58143 cumulative IPC: 1.56181 (Simulation time: 0 hr 7 min 10 sec) 
Heartbeat CPU 0 instructions: 27000000 cycles: 15109970 heartbeat IPC: 1.68364 cumulative IPC: 1.56848 (Simulation time: 0 hr 7 min 27 sec) 
Heartbeat CPU 0 instructions: 28000000 cycles: 15909343 heartbeat IPC: 1.25098 cumulative IPC: 1.54668 (Simulation time: 0 hr 7 min 45 sec) 
Heartbeat CPU 0 instructions: 29000002 cycles: 16447166 heartbeat IPC: 1.85935 cumulative IPC: 1.56049 (Simulation time: 0 hr 8 min 5 sec) 
Heartbeat CPU 0 instructions: 30000001 cycles: 17083137 heartbeat IPC: 1.5724 cumulative IPC: 1.56108 (Simulation time: 0 hr 8 min 22 sec) 
Heartbeat CPU 0 instructions: 31000001 cycles: 17688861 heartbeat IPC: 1.65092 cumulative IPC: 1.56513 (Simulation time: 0 hr 8 min 40 sec) 
Heartbeat CPU 0 instructions: 32000000 cycles: 18525712 heartbeat IPC: 1.19495 cumulative IPC: 1.5434 (Simulation time: 0 hr 9 min 2 sec) 
Heartbeat CPU 0 instructions: 33000003 cycles: 19354624 heartbeat IPC: 1.2064 cumulative IPC: 1.52488 (Simulation time: 0 hr 9 min 22 sec) 
Heartbeat CPU 0 instructions: 34000000 cycles: 20178872 heartbeat IPC: 1.21322 cumulative IPC: 1.50873 (Simulation time: 0 hr 9 min 42 sec) 
Heartbeat CPU 0 instructions: 35000000 cycles: 20948081 heartbeat IPC: 1.30004 cumulative IPC: 1.49911 (Simulation time: 0 hr 10 min 2 sec) 
Heartbeat CPU 0 instructions: 36000000 cycles: 21666723 heartbeat IPC: 1.39151 cumulative IPC: 1.49466 (Simulation time: 0 hr 10 min 22 sec) 
Heartbeat CPU 0 instructions: 37000003 cycles: 22356028 heartbeat IPC: 1.45074 cumulative IPC: 1.49299 (Simulation time: 0 hr 10 min 41 sec) 
Heartbeat CPU 0 instructions: 38000003 cycles: 23047710 heartbeat IPC: 1.44575 cumulative IPC: 1.49125 (Simulation time: 0 hr 11 min 2 sec) 
Heartbeat CPU 0 instructions: 39000003 cycles: 23978900 heartbeat IPC: 1.07389 cumulative IPC: 1.47153 (Simulation time: 0 hr 11 min 22 sec) 
Heartbeat CPU 0 instructions: 40000000 cycles: 24903853 heartbeat IPC: 1.08113 cumulative IPC: 1.45403 (Simulation time: 0 hr 11 min 42 sec) 
Heartbeat CPU 0 instructions: 41000000 cycles: 25947739 heartbeat IPC: 0.957959 cumulative IPC: 1.43014 (Simulation time: 0 hr 12 min 2 sec) 
Heartbeat CPU 0 instructions: 42000001 cycles: 26606343 heartbeat IPC: 1.51836 cumulative IPC: 1.43274 (Simulation time: 0 hr 12 min 22 sec) 
Heartbeat CPU 0 instructions: 43000001 cycles: 27283149 heartbeat IPC: 1.47753 cumulative IPC: 1.43405 (Simulation time: 0 hr 12 min 47 sec) 
Heartbeat CPU 0 instructions: 44000000 cycles: 28060542 heartbeat IPC: 1.28635 cumulative IPC: 1.42923 (Simulation time: 0 hr 13 min 6 sec) 
Heartbeat CPU 0 instructions: 45000002 cycles: 28820363 heartbeat IPC: 1.3161 cumulative IPC: 1.42573 (Simulation time: 0 hr 13 min 25 sec) 
Heartbeat CPU 0 instructions: 46000002 cycles: 29598038 heartbeat IPC: 1.28588 cumulative IPC: 1.42143 (Simulation time: 0 hr 13 min 44 sec) 
Heartbeat CPU 0 instructions: 47000002 cycles: 30582961 heartbeat IPC: 1.01531 cumulative IPC: 1.40623 (Simulation time: 0 hr 14 min 2 sec) 
Heartbeat CPU 0 instructions: 48000000 cycles: 31101212 heartbeat IPC: 1.92956 cumulative IPC: 1.41634 (Simulation time: 0 hr 14 min 17 sec) 
Heartbeat CPU 0 instructions: 49000000 cycles: 31620288 heartbeat IPC: 1.9265 cumulative IPC: 1.42602 (Simulation time: 0 hr 14 min 33 sec) 
Heartbeat CPU 0 instructions: 50000000 cycles: 32169696 heartbeat IPC: 1.82014 cumulative IPC: 1.43378 (Simulation time: 0 hr 14 min 52 sec) 
Heartbeat CPU 0 instructions: 51000000 cycles: 32809538 heartbeat IPC: 1.56289 cumulative IPC: 1.43668 (Simulation time: 0 hr 15 min 12 sec) 
Heartbeat CPU 0 instructions: 52000000 cycles: 33520682 heartbeat IPC: 1.40618 cumulative IPC: 1.43594 (Simulation time: 0 hr 15 min 32 sec) 
Heartbeat CPU 0 instructions: 53000000 cycles: 34091765 heartbeat IPC: 1.75106 cumulative IPC: 1.44197 (Simulation time: 0 hr 15 min 51 sec) 
Heartbeat CPU 0 instructions: 54000001 cycles: 34663111 heartbeat IPC: 1.75025 cumulative IPC: 1.44777 (Simulation time: 0 hr 16 min 10 sec) 
Heartbeat CPU 0 instructions: 55000001 cycles: 35230661 heartbeat IPC: 1.76196 cumulative IPC: 1.45353 (Simulation time: 0 hr 16 min 27 sec) 
Heartbeat CPU 0 instructions: 56000000 cycles: 35799342 heartbeat IPC: 1.75845 cumulative IPC: 1.45903 (Simulation time: 0 hr 16 min 43 sec) 
Heartbeat CPU 0 instructions: 57000003 cycles: 36366053 heartbeat IPC: 1.76457 cumulative IPC: 1.46442 (Simulation time: 0 hr 17 min 0 sec) 
Heartbeat CPU 0 instructions: 58000002 cycles: 36976518 heartbeat IPC: 1.63809 cumulative IPC: 1.46766 (Simulation time: 0 hr 17 min 18 sec) 
Heartbeat CPU 0 instructions: 59000001 cycles: 37833084 heartbeat IPC: 1.16745 cumulative IPC: 1.46 (Simulation time: 0 hr 17 min 36 sec) 
Heartbeat CPU 0 instructions: 60000000 cycles: 38388763 heartbeat IPC: 1.7996 cumulative IPC: 1.46553 (Simulation time: 0 hr 17 min 54 sec) 
Heartbeat CPU 0 instructions: 61000003 cycles: 38952342 heartbeat IPC: 1.77438 cumulative IPC: 1.47055 (Simulation time: 0 hr 18 min 18 sec) 
Heartbeat CPU 0 instructions: 62000000 cycles: 39516392 heartbeat IPC: 1.77289 cumulative IPC: 1.47539 (Simulation time: 0 hr 18 min 37 sec) 
Heartbeat CPU 0 instructions: 63000001 cycles: 40081398 heartbeat IPC: 1.76989 cumulative IPC: 1.48004 (Simulation time: 0 hr 18 min 56 sec) 
Heartbeat CPU 0 instructions: 64000000 cycles: 40643326 heartbeat IPC: 1.77959 cumulative IPC: 1.48466 (Simulation time: 0 hr 19 min 17 sec) 
Heartbeat CPU 0 instructions: 65000000 cycles: 41418505 heartbeat IPC: 1.29002 cumulative IPC: 1.4806 (Simulation time: 0 hr 19 min 37 sec) 
Heartbeat CPU 0 instructions: 66000002 cycles: 42291286 heartbeat IPC: 1.14577 cumulative IPC: 1.47292 (Simulation time: 0 hr 19 min 55 sec) 
Heartbeat CPU 0 instructions: 67000002 cycles: 42850757 heartbeat IPC: 1.7874 cumulative IPC: 1.47748 (Simulation time: 0 hr 20 min 12 sec) 
Heartbeat CPU 0 instructions: 68000000 cycles: 43401370 heartbeat IPC: 1.81615 cumulative IPC: 1.48224 (Simulation time: 0 hr 20 min 28 sec) 
Heartbeat CPU 0 instructions: 69000003 cycles: 44248769 heartbeat IPC: 1.18009 cumulative IPC: 1.47584 (Simulation time: 0 hr 20 min 46 sec) 
Heartbeat CPU 0 instructions: 70000002 cycles: 44825780 heartbeat IPC: 1.73307 cumulative IPC: 1.4795 (Simulation time: 0 hr 21 min 2 sec) 
Heartbeat CPU 0 instructions: 71000002 cycles: 45405079 heartbeat IPC: 1.72622 cumulative IPC: 1.48297 (Simulation time: 0 hr 21 min 19 sec) 
Heartbeat CPU 0 instructions: 72000000 cycles: 46045955 heartbeat IPC: 1.56036 cumulative IPC: 1.48416 (Simulation time: 0 hr 21 min 36 sec) 
Heartbeat CPU 0 instructions: 73000001 cycles: 46708642 heartbeat IPC: 1.50901 cumulative IPC: 1.48455 (Simulation time: 0 hr 21 min 53 sec) 
Heartbeat CPU 0 instructions: 74000003 cycles: 47515267 heartbeat IPC: 1.23974 cumulative IPC: 1.47998 (Simulation time: 0 hr 22 min 12 sec) 
Heartbeat CPU 0 instructions: 75000000 cycles: 48164446 heartbeat IPC: 1.5404 cumulative IPC: 1.48088 (Simulation time: 0 hr 22 min 31 sec) 
Heartbeat CPU 0 instructions: 76000000 cycles: 49073677 heartbeat IPC: 1.09983 cumulative IPC: 1.47314 (Simulation time: 0 hr 22 min 53 sec) 
Heartbeat CPU 0 instructions: 77000000 cycles: 49927121 heartbeat IPC: 1.17172 cumulative IPC: 1.46751 (Simulation time: 0 hr 23 min 14 sec) 
Heartbeat CPU 0 instructions: 78000003 cycles: 50779969 heartbeat IPC: 1.17255 cumulative IPC: 1.4621 (Simulation time: 0 hr 23 min 35 sec) 
Heartbeat CPU 0 instructions: 79000001 cycles: 51617894 heartbeat IPC: 1.19342 cumulative IPC: 1.45734 (Simulation time: 0 hr 23 min 56 sec) 
Heartbeat CPU 0 instructions: 80000000 cycles: 52407814 heartbeat IPC: 1.26595 cumulative IPC: 1.4542 (Simulation time: 0 hr 24 min 16 sec) 
Heartbeat CPU 0 instructions: 81000001 cycles: 53163948 heartbeat IPC: 1.32252 cumulative IPC: 1.45217 (Simulation time: 0 hr 24 min 37 sec) 
Heartbeat CPU 0 instructions: 82000002 cycles: 53870172 heartbeat IPC: 1.41598 cumulative IPC: 1.45165 (Simulation time: 0 hr 24 min 56 sec) 
Heartbeat CPU 0 instructions: 83000002 cycles: 54868326 heartbeat IPC: 1.00185 cumulative IPC: 1.44278 (Simulation time: 0 hr 25 min 16 sec) 
Heartbeat CPU 0 instructions: 84000000 cycles: 55663254 heartbeat IPC: 1.25797 cumulative IPC: 1.43992 (Simulation time: 0 hr 25 min 33 sec) 
Heartbeat CPU 0 instructions: 85000000 cycles: 56325251 heartbeat IPC: 1.51058 cumulative IPC: 1.44082 (Simulation time: 0 hr 25 min 50 sec) 
Heartbeat CPU 0 instructions: 86000001 cycles: 56989445 heartbeat IPC: 1.50559 cumulative IPC: 1.44163 (Simulation time: 0 hr 26 min 7 sec) 
Heartbeat CPU 0 instructions: 87000002 cycles: 57650732 heartbeat IPC: 1.5122 cumulative IPC: 1.44251 (Simulation time: 0 hr 26 min 25 sec) 
Heartbeat CPU 0 instructions: 88000000 cycles: 58304313 heartbeat IPC: 1.53003 cumulative IPC: 1.44357 (Simulation time: 0 hr 26 min 42 sec) 
Heartbeat CPU 0 instructions: 89000001 cycles: 58954073 heartbeat IPC: 1.53903 cumulative IPC: 1.4447 (Simulation time: 0 hr 26 min 59 sec) 
Heartbeat CPU 0 instructions: 90000001 cycles: 59599585 heartbeat IPC: 1.54916 cumulative IPC: 1.44592 (Simulation time: 0 hr 27 min 17 sec) 
Heartbeat CPU 0 instructions: 91000002 cycles: 60284346 heartbeat IPC: 1.46037 cumulative IPC: 1.4461 (Simulation time: 0 hr 27 min 34 sec) 
Heartbeat CPU 0 instructions: 92000000 cycles: 60905864 heartbeat IPC: 1.60896 cumulative IPC: 1.44788 (Simulation time: 0 hr 27 min 52 sec) 
Heartbeat CPU 0 instructions: 93000003 cycles: 61420217 heartbeat IPC: 1.9442 cumulative IPC: 1.45235 (Simulation time: 0 hr 28 min 8 sec) 
Heartbeat CPU 0 instructions: 94000003 cycles: 61931727 heartbeat IPC: 1.955 cumulative IPC: 1.45681 (Simulation time: 0 hr 28 min 24 sec) 
Heartbeat CPU 0 instructions: 95000001 cycles: 62659871 heartbeat IPC: 1.37335 cumulative IPC: 1.45577 (Simulation time: 0 hr 28 min 41 sec) 
Heartbeat CPU 0 instructions: 96000000 cycles: 63507148 heartbeat IPC: 1.18025 cumulative IPC: 1.45183 (Simulation time: 0 hr 28 min 59 sec) 
Heartbeat CPU 0 instructions: 97000000 cycles: 64078798 heartbeat IPC: 1.74932 cumulative IPC: 1.45467 (Simulation time: 0 hr 29 min 15 sec) 
Heartbeat CPU 0 instructions: 98000001 cycles: 64651175 heartbeat IPC: 1.7471 cumulative IPC: 1.45744 (Simulation time: 0 hr 29 min 32 sec) 
Heartbeat CPU 0 instructions: 99000000 cycles: 65218478 heartbeat IPC: 1.76272 cumulative IPC: 1.46029 (Simulation time: 0 hr 29 min 49 sec) 
Heartbeat CPU 0 instructions: 100000000 cycles: 65790762 heartbeat IPC: 1.74738 cumulative IPC: 1.46296 (Simulation time: 0 hr 30 min 7 sec) 
Heartbeat CPU 0 instructions: 101000003 cycles: 66359287 heartbeat IPC: 1.75894 cumulative IPC: 1.46567 (Simulation time: 0 hr 30 min 24 sec) 
Heartbeat CPU 0 instructions: 102000000 cycles: 67178577 heartbeat IPC: 1.22057 cumulative IPC: 1.46247 (Simulation time: 0 hr 30 min 42 sec) 
Heartbeat CPU 0 instructions: 103000000 cycles: 67735477 heartbeat IPC: 1.79565 cumulative IPC: 1.4654 (Simulation time: 0 hr 30 min 59 sec) 
Heartbeat CPU 0 instructions: 104000000 cycles: 68292581 heartbeat IPC: 1.795 cumulative IPC: 1.46827 (Simulation time: 0 hr 31 min 14 sec) 
Heartbeat CPU 0 instructions: 105000000 cycles: 68853993 heartbeat IPC: 1.78122 cumulative IPC: 1.47099 (Simulation time: 0 hr 31 min 30 sec) 
Heartbeat CPU 0 instructions: 106000003 cycles: 69416216 heartbeat IPC: 1.77866 cumulative IPC: 1.47364 (Simulation time: 0 hr 31 min 47 sec) 
Heartbeat CPU 0 instructions: 107000000 cycles: 69976068 heartbeat IPC: 1.78618 cumulative IPC: 1.4763 (Simulation time: 0 hr 32 min 2 sec) 
Heartbeat CPU 0 instructions: 108000000 cycles: 70622755 heartbeat IPC: 1.54634 cumulative IPC: 1.47699 (Simulation time: 0 hr 32 min 19 sec) 
Heartbeat CPU 0 instructions: 109000002 cycles: 71532561 heartbeat IPC: 1.09914 cumulative IPC: 1.47188 (Simulation time: 0 hr 32 min 36 sec) 
Heartbeat CPU 0 instructions: 110000002 cycles: 72068106 heartbeat IPC: 1.86726 cumulative IPC: 1.475 (Simulation time: 0 hr 32 min 51 sec) 
Finished CPU 0 instructions: 100000003 cycles: 67796628 cummulative IPC: 1.475 (Simulation time: 0 hr 32 min 51 sec) 

ChampSim completed all CPUs

Region of Interest Statistics

CPU 0 cummulative IPC: 1.475 instructions: 100000003 cycles: 67796628
LLC TOTAL     ACCESS:    1133161  HIT:    1050164  MISS:      82997
LLC LOAD      ACCESS:     790337  HIT:     734979  MISS:      55358
LLC RFO       ACCESS:      47630  HIT:      19999  MISS:      27631
LLC PREFETCH  ACCESS:          0  HIT:          0  MISS:          0
LLC WRITEBACK ACCESS:     295194  HIT:     295186  MISS:          8
