
*** ChampSim Multicore Out-of-Order Simulator ***

Warmup Instructions: 10000000
Simulation Instructions: 100000000
Configuration: 1
Number of CPUs: 1
LLC sets: 2048
LLC ways: 16
Off-chip DRAM Channels: 1 Width: 64-bit Data Rate: 1600 MT/s

CPU 0 runs /datasets/cs240c-wi22-a00-public/data/Assignment2-gz/omnetpp_17B.trace.gz
Initialize LRU replacement state
Heartbeat CPU 0 instructions: 1000000 cycles: 559778 heartbeat IPC: 1.78642 cumulative IPC: 1.78642 (Simulation time: 0 hr 0 min 21 sec) 
Heartbeat CPU 0 instructions: 2000002 cycles: 1133992 heartbeat IPC: 1.74151 cumulative IPC: 1.76368 (Simulation time: 0 hr 0 min 41 sec) 
Heartbeat CPU 0 instructions: 3000001 cycles: 1769256 heartbeat IPC: 1.57415 cumulative IPC: 1.69563 (Simulation time: 0 hr 0 min 58 sec) 
Heartbeat CPU 0 instructions: 4000000 cycles: 2334564 heartbeat IPC: 1.76895 cumulative IPC: 1.71338 (Simulation time: 0 hr 1 min 16 sec) 
Heartbeat CPU 0 instructions: 5000002 cycles: 2893982 heartbeat IPC: 1.78758 cumulative IPC: 1.72772 (Simulation time: 0 hr 1 min 33 sec) 
Heartbeat CPU 0 instructions: 6000000 cycles: 3472922 heartbeat IPC: 1.72729 cumulative IPC: 1.72765 (Simulation time: 0 hr 1 min 53 sec) 
Heartbeat CPU 0 instructions: 7000000 cycles: 4037536 heartbeat IPC: 1.77112 cumulative IPC: 1.73373 (Simulation time: 0 hr 2 min 12 sec) 
Heartbeat CPU 0 instructions: 8000000 cycles: 4699278 heartbeat IPC: 1.51116 cumulative IPC: 1.70239 (Simulation time: 0 hr 2 min 29 sec) 
Heartbeat CPU 0 instructions: 9000000 cycles: 5361109 heartbeat IPC: 1.51096 cumulative IPC: 1.67876 (Simulation time: 0 hr 2 min 46 sec) 
Heartbeat CPU 0 instructions: 10000001 cycles: 6022700 heartbeat IPC: 1.51151 cumulative IPC: 1.66039 (Simulation time: 0 hr 3 min 4 sec) 

Warmup complete CPU 0 instructions: 10000001 cycles: 6022700 (Simulation time: 0 hr 3 min 4 sec) 

Heartbeat CPU 0 instructions: 11000001 cycles: 7068962 heartbeat IPC: 0.955784 cumulative IPC: 0.955784 (Simulation time: 0 hr 3 min 22 sec) 
Heartbeat CPU 0 instructions: 12000000 cycles: 8114666 heartbeat IPC: 0.956293 cumulative IPC: 0.956038 (Simulation time: 0 hr 3 min 41 sec) 
Heartbeat CPU 0 instructions: 13000000 cycles: 9185558 heartbeat IPC: 0.933801 cumulative IPC: 0.948509 (Simulation time: 0 hr 4 min 2 sec) 
Heartbeat CPU 0 instructions: 14000001 cycles: 10231191 heartbeat IPC: 0.956359 cumulative IPC: 0.950459 (Simulation time: 0 hr 4 min 20 sec) 
Heartbeat CPU 0 instructions: 15000000 cycles: 11275877 heartbeat IPC: 0.957224 cumulative IPC: 0.951805 (Simulation time: 0 hr 4 min 37 sec) 
Heartbeat CPU 0 instructions: 16000000 cycles: 12321150 heartbeat IPC: 0.956688 cumulative IPC: 0.952615 (Simulation time: 0 hr 4 min 54 sec) 
Heartbeat CPU 0 instructions: 17000000 cycles: 13368321 heartbeat IPC: 0.954954 cumulative IPC: 0.952949 (Simulation time: 0 hr 5 min 14 sec) 
Heartbeat CPU 0 instructions: 18000001 cycles: 14410705 heartbeat IPC: 0.95934 cumulative IPC: 0.953743 (Simulation time: 0 hr 5 min 32 sec) 
Heartbeat CPU 0 instructions: 19000002 cycles: 15446681 heartbeat IPC: 0.965274 cumulative IPC: 0.955011 (Simulation time: 0 hr 5 min 51 sec) 
Heartbeat CPU 0 instructions: 20000000 cycles: 19077051 heartbeat IPC: 0.275453 cumulative IPC: 0.766028 (Simulation time: 0 hr 6 min 14 sec) 
Heartbeat CPU 0 instructions: 21000000 cycles: 21765004 heartbeat IPC: 0.37203 cumulative IPC: 0.698754 (Simulation time: 0 hr 6 min 37 sec) 
Heartbeat CPU 0 instructions: 22000002 cycles: 23683359 heartbeat IPC: 0.521281 cumulative IPC: 0.679476 (Simulation time: 0 hr 6 min 58 sec) 
Heartbeat CPU 0 instructions: 23000000 cycles: 27257814 heartbeat IPC: 0.279762 cumulative IPC: 0.612194 (Simulation time: 0 hr 7 min 22 sec) 
Heartbeat CPU 0 instructions: 24000000 cycles: 30817798 heartbeat IPC: 0.2809 cumulative IPC: 0.564628 (Simulation time: 0 hr 7 min 47 sec) 
Heartbeat CPU 0 instructions: 25000001 cycles: 33668861 heartbeat IPC: 0.350747 cumulative IPC: 0.542571 (Simulation time: 0 hr 8 min 7 sec) 
Heartbeat CPU 0 instructions: 26000001 cycles: 35411541 heartbeat IPC: 0.573829 cumulative IPC: 0.544424 (Simulation time: 0 hr 8 min 25 sec) 
Heartbeat CPU 0 instructions: 27000000 cycles: 38974827 heartbeat IPC: 0.28064 cumulative IPC: 0.5159 (Simulation time: 0 hr 8 min 47 sec) 
Heartbeat CPU 0 instructions: 28000000 cycles: 42532698 heartbeat IPC: 0.281067 cumulative IPC: 0.493016 (Simulation time: 0 hr 9 min 8 sec) 
Heartbeat CPU 0 instructions: 29000000 cycles: 45571431 heartbeat IPC: 0.329085 cumulative IPC: 0.48042 (Simulation time: 0 hr 9 min 30 sec) 
Heartbeat CPU 0 instructions: 30000000 cycles: 47118279 heartbeat IPC: 0.646476 cumulative IPC: 0.48667 (Simulation time: 0 hr 9 min 49 sec) 
Heartbeat CPU 0 instructions: 31000000 cycles: 50679920 heartbeat IPC: 0.280769 cumulative IPC: 0.470249 (Simulation time: 0 hr 10 min 12 sec) 
Heartbeat CPU 0 instructions: 32000000 cycles: 54246222 heartbeat IPC: 0.280403 cumulative IPC: 0.456209 (Simulation time: 0 hr 10 min 34 sec) 
Heartbeat CPU 0 instructions: 33000001 cycles: 57487916 heartbeat IPC: 0.308481 cumulative IPC: 0.446904 (Simulation time: 0 hr 10 min 56 sec) 
Heartbeat CPU 0 instructions: 34000000 cycles: 58822036 heartbeat IPC: 0.749557 cumulative IPC: 0.454551 (Simulation time: 0 hr 11 min 13 sec) 
Heartbeat CPU 0 instructions: 35000003 cycles: 62371350 heartbeat IPC: 0.281745 cumulative IPC: 0.443666 (Simulation time: 0 hr 11 min 37 sec) 
Heartbeat CPU 0 instructions: 36000000 cycles: 65976763 heartbeat IPC: 0.27736 cumulative IPC: 0.433665 (Simulation time: 0 hr 12 min 0 sec) 
Heartbeat CPU 0 instructions: 37000001 cycles: 69111616 heartbeat IPC: 0.318995 cumulative IPC: 0.427967 (Simulation time: 0 hr 12 min 22 sec) 
Heartbeat CPU 0 instructions: 38000000 cycles: 70574542 heartbeat IPC: 0.683561 cumulative IPC: 0.43376 (Simulation time: 0 hr 12 min 40 sec) 
Heartbeat CPU 0 instructions: 39000000 cycles: 74134859 heartbeat IPC: 0.280874 cumulative IPC: 0.425768 (Simulation time: 0 hr 13 min 4 sec) 
Heartbeat CPU 0 instructions: 40000000 cycles: 77711071 heartbeat IPC: 0.279625 cumulative IPC: 0.418478 (Simulation time: 0 hr 13 min 33 sec) 
Heartbeat CPU 0 instructions: 41000002 cycles: 80727660 heartbeat IPC: 0.331501 cumulative IPC: 0.414966 (Simulation time: 0 hr 13 min 54 sec) 
Heartbeat CPU 0 instructions: 42000000 cycles: 82297384 heartbeat IPC: 0.637053 cumulative IPC: 0.419536 (Simulation time: 0 hr 14 min 12 sec) 
Heartbeat CPU 0 instructions: 43000003 cycles: 88147180 heartbeat IPC: 0.170947 cumulative IPC: 0.401829 (Simulation time: 0 hr 14 min 37 sec) 
Heartbeat CPU 0 instructions: 44000000 cycles: 89195221 heartbeat IPC: 0.954158 cumulative IPC: 0.408789 (Simulation time: 0 hr 14 min 55 sec) 
Heartbeat CPU 0 instructions: 45000003 cycles: 90239250 heartbeat IPC: 0.957831 cumulative IPC: 0.415595 (Simulation time: 0 hr 15 min 13 sec) 
Heartbeat CPU 0 instructions: 46000001 cycles: 91283195 heartbeat IPC: 0.957903 cumulative IPC: 0.422235 (Simulation time: 0 hr 15 min 31 sec) 
Heartbeat CPU 0 instructions: 47000001 cycles: 92328446 heartbeat IPC: 0.956708 cumulative IPC: 0.428708 (Simulation time: 0 hr 15 min 48 sec) 
Heartbeat CPU 0 instructions: 48000000 cycles: 93373356 heartbeat IPC: 0.957019 cumulative IPC: 0.435028 (Simulation time: 0 hr 16 min 9 sec) 
Heartbeat CPU 0 instructions: 49000000 cycles: 94416884 heartbeat IPC: 0.958288 cumulative IPC: 0.441206 (Simulation time: 0 hr 16 min 30 sec) 
Heartbeat CPU 0 instructions: 50000000 cycles: 95460979 heartbeat IPC: 0.957767 cumulative IPC: 0.447236 (Simulation time: 0 hr 16 min 49 sec) 
Heartbeat CPU 0 instructions: 51000002 cycles: 96505833 heartbeat IPC: 0.957073 cumulative IPC: 0.453123 (Simulation time: 0 hr 17 min 5 sec) 
Heartbeat CPU 0 instructions: 52000000 cycles: 97551212 heartbeat IPC: 0.956589 cumulative IPC: 0.458873 (Simulation time: 0 hr 17 min 23 sec) 
Heartbeat CPU 0 instructions: 53000001 cycles: 98595850 heartbeat IPC: 0.95727 cumulative IPC: 0.464498 (Simulation time: 0 hr 17 min 42 sec) 
Heartbeat CPU 0 instructions: 54000002 cycles: 99665325 heartbeat IPC: 0.935039 cumulative IPC: 0.469871 (Simulation time: 0 hr 18 min 0 sec) 
Heartbeat CPU 0 instructions: 55000003 cycles: 100706171 heartbeat IPC: 0.960758 cumulative IPC: 0.475268 (Simulation time: 0 hr 18 min 17 sec) 
Heartbeat CPU 0 instructions: 56000000 cycles: 103150726 heartbeat IPC: 0.409071 cumulative IPC: 0.473602 (Simulation time: 0 hr 18 min 35 sec) 
Heartbeat CPU 0 instructions: 57000003 cycles: 105336915 heartbeat IPC: 0.457418 cumulative IPC: 0.473245 (Simulation time: 0 hr 18 min 55 sec) 
Heartbeat CPU 0 instructions: 58000000 cycles: 108908757 heartbeat IPC: 0.279967 cumulative IPC: 0.466536 (Simulation time: 0 hr 19 min 16 sec) 
Heartbeat CPU 0 instructions: 59000003 cycles: 112479092 heartbeat IPC: 0.280087 cumulative IPC: 0.460282 (Simulation time: 0 hr 19 min 39 sec) 
Heartbeat CPU 0 instructions: 60000000 cycles: 115073845 heartbeat IPC: 0.385392 cumulative IPC: 0.4585 (Simulation time: 0 hr 20 min 2 sec) 
Heartbeat CPU 0 instructions: 61000001 cycles: 117059575 heartbeat IPC: 0.503594 cumulative IPC: 0.459307 (Simulation time: 0 hr 20 min 22 sec) 
Heartbeat CPU 0 instructions: 62000001 cycles: 120619557 heartbeat IPC: 0.2809 cumulative IPC: 0.453765 (Simulation time: 0 hr 20 min 46 sec) 
Heartbeat CPU 0 instructions: 63000000 cycles: 124181159 heartbeat IPC: 0.280772 cumulative IPC: 0.44855 (Simulation time: 0 hr 21 min 8 sec) 
Heartbeat CPU 0 instructions: 64000000 cycles: 126976390 heartbeat IPC: 0.357752 cumulative IPC: 0.446452 (Simulation time: 0 hr 21 min 30 sec) 
Heartbeat CPU 0 instructions: 65000000 cycles: 128779900 heartbeat IPC: 0.554474 cumulative IPC: 0.448039 (Simulation time: 0 hr 21 min 50 sec) 
Heartbeat CPU 0 instructions: 66000000 cycles: 132346248 heartbeat IPC: 0.280399 cumulative IPC: 0.443306 (Simulation time: 0 hr 22 min 15 sec) 
Heartbeat CPU 0 instructions: 67000001 cycles: 135906254 heartbeat IPC: 0.280899 cumulative IPC: 0.438855 (Simulation time: 0 hr 22 min 38 sec) 
Heartbeat CPU 0 instructions: 68000000 cycles: 138903011 heartbeat IPC: 0.333694 cumulative IPC: 0.436483 (Simulation time: 0 hr 22 min 58 sec) 
Heartbeat CPU 0 instructions: 69000001 cycles: 140496608 heartbeat IPC: 0.627512 cumulative IPC: 0.438747 (Simulation time: 0 hr 23 min 15 sec) 
Heartbeat CPU 0 instructions: 70000001 cycles: 144063990 heartbeat IPC: 0.280318 cumulative IPC: 0.434653 (Simulation time: 0 hr 23 min 37 sec) 
Heartbeat CPU 0 instructions: 71000001 cycles: 147638280 heartbeat IPC: 0.279776 cumulative IPC: 0.430744 (Simulation time: 0 hr 23 min 59 sec) 
Heartbeat CPU 0 instructions: 72000000 cycles: 150660569 heartbeat IPC: 0.330875 cumulative IPC: 0.428657 (Simulation time: 0 hr 24 min 18 sec) 
Heartbeat CPU 0 instructions: 73000000 cycles: 152268335 heartbeat IPC: 0.621981 cumulative IPC: 0.430782 (Simulation time: 0 hr 24 min 36 sec) 
Heartbeat CPU 0 instructions: 74000003 cycles: 155833894 heartbeat IPC: 0.280462 cumulative IPC: 0.427204 (Simulation time: 0 hr 24 min 58 sec) 
Heartbeat CPU 0 instructions: 75000001 cycles: 159396255 heartbeat IPC: 0.280712 cumulative IPC: 0.423802 (Simulation time: 0 hr 25 min 23 sec) 
Heartbeat CPU 0 instructions: 76000000 cycles: 162273367 heartbeat IPC: 0.34757 cumulative IPC: 0.422398 (Simulation time: 0 hr 25 min 46 sec) 
Heartbeat CPU 0 instructions: 77000001 cycles: 163984101 heartbeat IPC: 0.584545 cumulative IPC: 0.424154 (Simulation time: 0 hr 26 min 6 sec) 
Heartbeat CPU 0 instructions: 78000000 cycles: 167557579 heartbeat IPC: 0.279839 cumulative IPC: 0.420962 (Simulation time: 0 hr 26 min 28 sec) 
Heartbeat CPU 0 instructions: 79000000 cycles: 171294811 heartbeat IPC: 0.267578 cumulative IPC: 0.417493 (Simulation time: 0 hr 26 min 51 sec) 
Heartbeat CPU 0 instructions: 80000000 cycles: 173257693 heartbeat IPC: 0.509455 cumulative IPC: 0.418573 (Simulation time: 0 hr 27 min 9 sec) 
Heartbeat CPU 0 instructions: 81000001 cycles: 175898729 heartbeat IPC: 0.37864 cumulative IPC: 0.417952 (Simulation time: 0 hr 27 min 27 sec) 
Heartbeat CPU 0 instructions: 82000000 cycles: 179459032 heartbeat IPC: 0.280875 cumulative IPC: 0.415138 (Simulation time: 0 hr 27 min 47 sec) 
Heartbeat CPU 0 instructions: 83000000 cycles: 183023040 heartbeat IPC: 0.280583 cumulative IPC: 0.412429 (Simulation time: 0 hr 28 min 7 sec) 
Heartbeat CPU 0 instructions: 84000000 cycles: 184951998 heartbeat IPC: 0.518415 cumulative IPC: 0.413571 (Simulation time: 0 hr 28 min 24 sec) 
Heartbeat CPU 0 instructions: 85000003 cycles: 187630851 heartbeat IPC: 0.373295 cumulative IPC: 0.412977 (Simulation time: 0 hr 28 min 44 sec) 
Heartbeat CPU 0 instructions: 86000001 cycles: 191188243 heartbeat IPC: 0.281104 cumulative IPC: 0.410444 (Simulation time: 0 hr 29 min 6 sec) 
Heartbeat CPU 0 instructions: 87000000 cycles: 194748143 heartbeat IPC: 0.280906 cumulative IPC: 0.408 (Simulation time: 0 hr 29 min 28 sec) 
Heartbeat CPU 0 instructions: 88000000 cycles: 196494441 heartbeat IPC: 0.57264 cumulative IPC: 0.40951 (Simulation time: 0 hr 29 min 46 sec) 
Heartbeat CPU 0 instructions: 89000000 cycles: 201648389 heartbeat IPC: 0.194026 cumulative IPC: 0.403832 (Simulation time: 0 hr 30 min 12 sec) 
Heartbeat CPU 0 instructions: 90000002 cycles: 202693666 heartbeat IPC: 0.956686 cumulative IPC: 0.406771 (Simulation time: 0 hr 30 min 29 sec) 
Heartbeat CPU 0 instructions: 91000001 cycles: 203739264 heartbeat IPC: 0.95639 cumulative IPC: 0.409677 (Simulation time: 0 hr 30 min 46 sec) 
Heartbeat CPU 0 instructions: 92000000 cycles: 204784502 heartbeat IPC: 0.956719 cumulative IPC: 0.412554 (Simulation time: 0 hr 31 min 4 sec) 
Heartbeat CPU 0 instructions: 93000002 cycles: 205829825 heartbeat IPC: 0.956644 cumulative IPC: 0.415401 (Simulation time: 0 hr 31 min 21 sec) 
Heartbeat CPU 0 instructions: 94000001 cycles: 206874280 heartbeat IPC: 0.957436 cumulative IPC: 0.418219 (Simulation time: 0 hr 31 min 38 sec) 
Heartbeat CPU 0 instructions: 95000000 cycles: 207919567 heartbeat IPC: 0.956674 cumulative IPC: 0.421007 (Simulation time: 0 hr 31 min 56 sec) 
Heartbeat CPU 0 instructions: 96000000 cycles: 208965717 heartbeat IPC: 0.955886 cumulative IPC: 0.423764 (Simulation time: 0 hr 32 min 15 sec) 
Heartbeat CPU 0 instructions: 97000002 cycles: 210038298 heartbeat IPC: 0.932332 cumulative IPC: 0.426438 (Simulation time: 0 hr 32 min 32 sec) 
Heartbeat CPU 0 instructions: 98000000 cycles: 211085008 heartbeat IPC: 0.955373 cumulative IPC: 0.429138 (Simulation time: 0 hr 32 min 48 sec) 
Heartbeat CPU 0 instructions: 99000003 cycles: 212125145 heartbeat IPC: 0.961415 cumulative IPC: 0.431824 (Simulation time: 0 hr 33 min 3 sec) 
Heartbeat CPU 0 instructions: 100000000 cycles: 213163134 heartbeat IPC: 0.963398 cumulative IPC: 0.434488 (Simulation time: 0 hr 33 min 18 sec) 
Heartbeat CPU 0 instructions: 101000001 cycles: 214205939 heartbeat IPC: 0.958953 cumulative IPC: 0.437115 (Simulation time: 0 hr 33 min 33 sec) 
Heartbeat CPU 0 instructions: 102000001 cycles: 217783130 heartbeat IPC: 0.279549 cumulative IPC: 0.434453 (Simulation time: 0 hr 33 min 52 sec) 
Heartbeat CPU 0 instructions: 103000000 cycles: 219234313 heartbeat IPC: 0.689092 cumulative IPC: 0.436186 (Simulation time: 0 hr 34 min 7 sec) 
Heartbeat CPU 0 instructions: 104000000 cycles: 222429074 heartbeat IPC: 0.313012 cumulative IPC: 0.434368 (Simulation time: 0 hr 34 min 26 sec) 
Heartbeat CPU 0 instructions: 105000000 cycles: 225979931 heartbeat IPC: 0.281622 cumulative IPC: 0.431902 (Simulation time: 0 hr 34 min 44 sec) 
Heartbeat CPU 0 instructions: 106000000 cycles: 229501526 heartbeat IPC: 0.283962 cumulative IPC: 0.429571 (Simulation time: 0 hr 35 min 1 sec) 
Heartbeat CPU 0 instructions: 107000001 cycles: 231123626 heartbeat IPC: 0.616485 cumulative IPC: 0.430918 (Simulation time: 0 hr 35 min 16 sec) 
Heartbeat CPU 0 instructions: 108000000 cycles: 234145856 heartbeat IPC: 0.330881 cumulative IPC: 0.429593 (Simulation time: 0 hr 35 min 33 sec) 
Heartbeat CPU 0 instructions: 109000000 cycles: 237722150 heartbeat IPC: 0.279619 cumulative IPC: 0.427278 (Simulation time: 0 hr 35 min 51 sec) 
Heartbeat CPU 0 instructions: 110000000 cycles: 241262057 heartbeat IPC: 0.282493 cumulative IPC: 0.425099 (Simulation time: 0 hr 36 min 9 sec) 
Finished CPU 0 instructions: 100000003 cycles: 235239362 cummulative IPC: 0.425099 (Simulation time: 0 hr 36 min 9 sec) 

ChampSim completed all CPUs

Region of Interest Statistics

CPU 0 cummulative IPC: 0.425099 instructions: 100000003 cycles: 235239362
LLC TOTAL     ACCESS:    1769069  HIT:     772331  MISS:     996738
LLC LOAD      ACCESS:    1739414  HIT:     753503  MISS:     985911
LLC RFO       ACCESS:      12908  HIT:       2081  MISS:      10827
LLC PREFETCH  ACCESS:          0  HIT:          0  MISS:          0
LLC WRITEBACK ACCESS:      16747  HIT:      16747  MISS:          0
