
*** ChampSim Multicore Out-of-Order Simulator ***

Warmup Instructions: 10000000
Simulation Instructions: 100000000
Configuration: 1
Number of CPUs: 1
LLC sets: 2048
LLC ways: 16
Off-chip DRAM Channels: 1 Width: 64-bit Data Rate: 1600 MT/s

CPU 0 runs /datasets/cs240c-wi22-a00-public/data/Assignment2-gz/cactusADM_1495B.trace.gz
Initialize LRU replacement state
Heartbeat CPU 0 instructions: 1000003 cycles: 593354 heartbeat IPC: 1.68534 cumulative IPC: 1.68534 (Simulation time: 0 hr 0 min 30 sec) 
Heartbeat CPU 0 instructions: 2000000 cycles: 1186182 heartbeat IPC: 1.68682 cumulative IPC: 1.68608 (Simulation time: 0 hr 0 min 55 sec) 
Heartbeat CPU 0 instructions: 3000003 cycles: 1779362 heartbeat IPC: 1.68583 cumulative IPC: 1.686 (Simulation time: 0 hr 1 min 20 sec) 
Heartbeat CPU 0 instructions: 4000000 cycles: 2372043 heartbeat IPC: 1.68724 cumulative IPC: 1.68631 (Simulation time: 0 hr 1 min 47 sec) 
Heartbeat CPU 0 instructions: 5000000 cycles: 2964991 heartbeat IPC: 1.68649 cumulative IPC: 1.68635 (Simulation time: 0 hr 2 min 14 sec) 
Heartbeat CPU 0 instructions: 6000001 cycles: 3558170 heartbeat IPC: 1.68583 cumulative IPC: 1.68626 (Simulation time: 0 hr 2 min 37 sec) 
Heartbeat CPU 0 instructions: 7000000 cycles: 4150994 heartbeat IPC: 1.68684 cumulative IPC: 1.68634 (Simulation time: 0 hr 2 min 59 sec) 
Heartbeat CPU 0 instructions: 8000000 cycles: 4904103 heartbeat IPC: 1.32783 cumulative IPC: 1.63129 (Simulation time: 0 hr 3 min 27 sec) 
Heartbeat CPU 0 instructions: 9000002 cycles: 5497062 heartbeat IPC: 1.68646 cumulative IPC: 1.63724 (Simulation time: 0 hr 3 min 56 sec) 
Heartbeat CPU 0 instructions: 10000002 cycles: 6089728 heartbeat IPC: 1.68729 cumulative IPC: 1.64211 (Simulation time: 0 hr 4 min 19 sec) 

Warmup complete CPU 0 instructions: 10000002 cycles: 6089728 (Simulation time: 0 hr 4 min 19 sec) 

Heartbeat CPU 0 instructions: 11000000 cycles: 8174069 heartbeat IPC: 0.479767 cumulative IPC: 0.479767 (Simulation time: 0 hr 4 min 49 sec) 
Heartbeat CPU 0 instructions: 12000000 cycles: 10272567 heartbeat IPC: 0.476531 cumulative IPC: 0.478144 (Simulation time: 0 hr 5 min 20 sec) 
Heartbeat CPU 0 instructions: 13000002 cycles: 12394957 heartbeat IPC: 0.471168 cumulative IPC: 0.475796 (Simulation time: 0 hr 5 min 49 sec) 
Heartbeat CPU 0 instructions: 14000001 cycles: 14495925 heartbeat IPC: 0.475971 cumulative IPC: 0.475839 (Simulation time: 0 hr 6 min 17 sec) 
Heartbeat CPU 0 instructions: 15000001 cycles: 16529648 heartbeat IPC: 0.491709 cumulative IPC: 0.478931 (Simulation time: 0 hr 6 min 47 sec) 
Heartbeat CPU 0 instructions: 16000000 cycles: 18636627 heartbeat IPC: 0.474613 cumulative IPC: 0.478206 (Simulation time: 0 hr 7 min 15 sec) 
Heartbeat CPU 0 instructions: 17000003 cycles: 20759368 heartbeat IPC: 0.47109 cumulative IPC: 0.477176 (Simulation time: 0 hr 7 min 47 sec) 
Heartbeat CPU 0 instructions: 18000000 cycles: 22874980 heartbeat IPC: 0.472675 cumulative IPC: 0.476609 (Simulation time: 0 hr 8 min 16 sec) 
Heartbeat CPU 0 instructions: 19000003 cycles: 24969192 heartbeat IPC: 0.477508 cumulative IPC: 0.476709 (Simulation time: 0 hr 8 min 42 sec) 
Heartbeat CPU 0 instructions: 20000000 cycles: 26999289 heartbeat IPC: 0.492586 cumulative IPC: 0.47825 (Simulation time: 0 hr 9 min 10 sec) 
Heartbeat CPU 0 instructions: 21000001 cycles: 33802690 heartbeat IPC: 0.146985 cumulative IPC: 0.396926 (Simulation time: 0 hr 9 min 42 sec) 
Heartbeat CPU 0 instructions: 22000000 cycles: 36306326 heartbeat IPC: 0.399419 cumulative IPC: 0.397133 (Simulation time: 0 hr 10 min 12 sec) 
Heartbeat CPU 0 instructions: 23000001 cycles: 38426199 heartbeat IPC: 0.471727 cumulative IPC: 0.402023 (Simulation time: 0 hr 10 min 42 sec) 
Heartbeat CPU 0 instructions: 24000000 cycles: 40468016 heartbeat IPC: 0.489759 cumulative IPC: 0.407234 (Simulation time: 0 hr 11 min 6 sec) 
Heartbeat CPU 0 instructions: 25000002 cycles: 42558730 heartbeat IPC: 0.478306 cumulative IPC: 0.411308 (Simulation time: 0 hr 11 min 35 sec) 
Heartbeat CPU 0 instructions: 26000000 cycles: 44688029 heartbeat IPC: 0.469637 cumulative IPC: 0.414526 (Simulation time: 0 hr 12 min 3 sec) 
Heartbeat CPU 0 instructions: 27000002 cycles: 46800735 heartbeat IPC: 0.473328 cumulative IPC: 0.417577 (Simulation time: 0 hr 12 min 34 sec) 
Heartbeat CPU 0 instructions: 28000000 cycles: 48883758 heartbeat IPC: 0.480071 cumulative IPC: 0.420619 (Simulation time: 0 hr 13 min 1 sec) 
Heartbeat CPU 0 instructions: 29000003 cycles: 50918268 heartbeat IPC: 0.49152 cumulative IPC: 0.423837 (Simulation time: 0 hr 13 min 28 sec) 
Heartbeat CPU 0 instructions: 30000002 cycles: 53051877 heartbeat IPC: 0.468689 cumulative IPC: 0.425875 (Simulation time: 0 hr 13 min 55 sec) 
Heartbeat CPU 0 instructions: 31000003 cycles: 55178515 heartbeat IPC: 0.470226 cumulative IPC: 0.427796 (Simulation time: 0 hr 14 min 21 sec) 
Heartbeat CPU 0 instructions: 32000000 cycles: 57308819 heartbeat IPC: 0.469415 cumulative IPC: 0.429527 (Simulation time: 0 hr 14 min 47 sec) 
Heartbeat CPU 0 instructions: 33000001 cycles: 59346088 heartbeat IPC: 0.490854 cumulative IPC: 0.431873 (Simulation time: 0 hr 15 min 16 sec) 
Heartbeat CPU 0 instructions: 34000002 cycles: 65194359 heartbeat IPC: 0.170991 cumulative IPC: 0.40606 (Simulation time: 0 hr 15 min 47 sec) 
Heartbeat CPU 0 instructions: 35000002 cycles: 68619142 heartbeat IPC: 0.291989 cumulative IPC: 0.399812 (Simulation time: 0 hr 16 min 18 sec) 
Heartbeat CPU 0 instructions: 36000000 cycles: 70742768 heartbeat IPC: 0.470892 cumulative IPC: 0.402147 (Simulation time: 0 hr 16 min 46 sec) 
Heartbeat CPU 0 instructions: 37000001 cycles: 72836604 heartbeat IPC: 0.477593 cumulative IPC: 0.404513 (Simulation time: 0 hr 17 min 13 sec) 
Heartbeat CPU 0 instructions: 38000003 cycles: 74868148 heartbeat IPC: 0.492237 cumulative IPC: 0.407104 (Simulation time: 0 hr 17 min 39 sec) 
Heartbeat CPU 0 instructions: 39000003 cycles: 76983186 heartbeat IPC: 0.472805 cumulative IPC: 0.409065 (Simulation time: 0 hr 18 min 6 sec) 
Heartbeat CPU 0 instructions: 40000000 cycles: 79121074 heartbeat IPC: 0.46775 cumulative IPC: 0.410782 (Simulation time: 0 hr 18 min 33 sec) 
Heartbeat CPU 0 instructions: 41000002 cycles: 81244561 heartbeat IPC: 0.470924 cumulative IPC: 0.412482 (Simulation time: 0 hr 18 min 59 sec) 
Heartbeat CPU 0 instructions: 42000000 cycles: 83294414 heartbeat IPC: 0.487839 cumulative IPC: 0.414483 (Simulation time: 0 hr 19 min 26 sec) 
Heartbeat CPU 0 instructions: 43000000 cycles: 85350064 heartbeat IPC: 0.486464 cumulative IPC: 0.416349 (Simulation time: 0 hr 19 min 52 sec) 
Heartbeat CPU 0 instructions: 44000000 cycles: 87458977 heartbeat IPC: 0.474178 cumulative IPC: 0.417848 (Simulation time: 0 hr 20 min 18 sec) 
Heartbeat CPU 0 instructions: 45000003 cycles: 89576732 heartbeat IPC: 0.4722 cumulative IPC: 0.419227 (Simulation time: 0 hr 20 min 45 sec) 
Heartbeat CPU 0 instructions: 46000002 cycles: 91673613 heartbeat IPC: 0.476898 cumulative IPC: 0.42064 (Simulation time: 0 hr 21 min 12 sec) 
Heartbeat CPU 0 instructions: 47000002 cycles: 96475425 heartbeat IPC: 0.208255 cumulative IPC: 0.409357 (Simulation time: 0 hr 21 min 42 sec) 
Heartbeat CPU 0 instructions: 48000000 cycles: 100884009 heartbeat IPC: 0.22683 cumulative IPC: 0.400868 (Simulation time: 0 hr 22 min 10 sec) 
Heartbeat CPU 0 instructions: 49000000 cycles: 102998829 heartbeat IPC: 0.472853 cumulative IPC: 0.402439 (Simulation time: 0 hr 22 min 37 sec) 
Heartbeat CPU 0 instructions: 50000000 cycles: 105152463 heartbeat IPC: 0.464331 cumulative IPC: 0.403785 (Simulation time: 0 hr 23 min 3 sec) 
Heartbeat CPU 0 instructions: 51000001 cycles: 107214061 heartbeat IPC: 0.485061 cumulative IPC: 0.405441 (Simulation time: 0 hr 23 min 31 sec) 
Heartbeat CPU 0 instructions: 52000000 cycles: 109263219 heartbeat IPC: 0.488005 cumulative IPC: 0.407081 (Simulation time: 0 hr 23 min 57 sec) 
Heartbeat CPU 0 instructions: 53000003 cycles: 111382141 heartbeat IPC: 0.47194 cumulative IPC: 0.408386 (Simulation time: 0 hr 24 min 25 sec) 
Heartbeat CPU 0 instructions: 54000001 cycles: 113495089 heartbeat IPC: 0.473271 cumulative IPC: 0.409663 (Simulation time: 0 hr 24 min 52 sec) 
Heartbeat CPU 0 instructions: 55000000 cycles: 115605848 heartbeat IPC: 0.473763 cumulative IPC: 0.410898 (Simulation time: 0 hr 25 min 18 sec) 
Heartbeat CPU 0 instructions: 56000000 cycles: 117657251 heartbeat IPC: 0.487471 cumulative IPC: 0.412306 (Simulation time: 0 hr 25 min 45 sec) 
Heartbeat CPU 0 instructions: 57000000 cycles: 119752006 heartbeat IPC: 0.477383 cumulative IPC: 0.413506 (Simulation time: 0 hr 26 min 11 sec) 
Heartbeat CPU 0 instructions: 58000002 cycles: 121875272 heartbeat IPC: 0.470973 cumulative IPC: 0.41456 (Simulation time: 0 hr 26 min 38 sec) 
Heartbeat CPU 0 instructions: 59000001 cycles: 123983365 heartbeat IPC: 0.474362 cumulative IPC: 0.415629 (Simulation time: 0 hr 27 min 4 sec) 
Heartbeat CPU 0 instructions: 60000000 cycles: 127751677 heartbeat IPC: 0.265371 cumulative IPC: 0.410975 (Simulation time: 0 hr 27 min 34 sec) 
Heartbeat CPU 0 instructions: 61000001 cycles: 133201317 heartbeat IPC: 0.183499 cumulative IPC: 0.401222 (Simulation time: 0 hr 28 min 6 sec) 
Heartbeat CPU 0 instructions: 62000000 cycles: 135311168 heartbeat IPC: 0.473967 cumulative IPC: 0.40241 (Simulation time: 0 hr 28 min 35 sec) 
Heartbeat CPU 0 instructions: 63000001 cycles: 137453088 heartbeat IPC: 0.466871 cumulative IPC: 0.403461 (Simulation time: 0 hr 29 min 2 sec) 
Heartbeat CPU 0 instructions: 64000000 cycles: 139570896 heartbeat IPC: 0.472186 cumulative IPC: 0.404551 (Simulation time: 0 hr 29 min 29 sec) 
Heartbeat CPU 0 instructions: 65000002 cycles: 141598076 heartbeat IPC: 0.493297 cumulative IPC: 0.405879 (Simulation time: 0 hr 29 min 56 sec) 
Heartbeat CPU 0 instructions: 66000003 cycles: 143694578 heartbeat IPC: 0.476985 cumulative IPC: 0.406962 (Simulation time: 0 hr 30 min 23 sec) 
Heartbeat CPU 0 instructions: 67000001 cycles: 145808305 heartbeat IPC: 0.473097 cumulative IPC: 0.407963 (Simulation time: 0 hr 30 min 50 sec) 
Heartbeat CPU 0 instructions: 68000000 cycles: 147930995 heartbeat IPC: 0.4711 cumulative IPC: 0.408908 (Simulation time: 0 hr 31 min 16 sec) 
Heartbeat CPU 0 instructions: 69000003 cycles: 150022491 heartbeat IPC: 0.478128 cumulative IPC: 0.409914 (Simulation time: 0 hr 31 min 42 sec) 
Heartbeat CPU 0 instructions: 70000000 cycles: 152050702 heartbeat IPC: 0.493044 cumulative IPC: 0.411069 (Simulation time: 0 hr 32 min 8 sec) 
Heartbeat CPU 0 instructions: 71000000 cycles: 154185540 heartbeat IPC: 0.46842 cumulative IPC: 0.411895 (Simulation time: 0 hr 32 min 33 sec) 
Heartbeat CPU 0 instructions: 72000000 cycles: 156290582 heartbeat IPC: 0.47505 cumulative IPC: 0.412781 (Simulation time: 0 hr 33 min 2 sec) 
Heartbeat CPU 0 instructions: 73000001 cycles: 159138863 heartbeat IPC: 0.351089 cumulative IPC: 0.411633 (Simulation time: 0 hr 33 min 28 sec) 
Heartbeat CPU 0 instructions: 74000002 cycles: 165561290 heartbeat IPC: 0.155705 cumulative IPC: 0.401325 (Simulation time: 0 hr 33 min 57 sec) 
Heartbeat CPU 0 instructions: 75000002 cycles: 167639828 heartbeat IPC: 0.481107 cumulative IPC: 0.402352 (Simulation time: 0 hr 34 min 20 sec) 
Heartbeat CPU 0 instructions: 76000000 cycles: 169766553 heartbeat IPC: 0.470206 cumulative IPC: 0.403234 (Simulation time: 0 hr 34 min 43 sec) 
Heartbeat CPU 0 instructions: 77000001 cycles: 171875296 heartbeat IPC: 0.474217 cumulative IPC: 0.404137 (Simulation time: 0 hr 35 min 6 sec) 
Heartbeat CPU 0 instructions: 78000000 cycles: 173974402 heartbeat IPC: 0.476393 cumulative IPC: 0.40504 (Simulation time: 0 hr 35 min 28 sec) 
Heartbeat CPU 0 instructions: 79000003 cycles: 176028177 heartbeat IPC: 0.48691 cumulative IPC: 0.406029 (Simulation time: 0 hr 35 min 50 sec) 
Heartbeat CPU 0 instructions: 80000000 cycles: 178133312 heartbeat IPC: 0.475028 cumulative IPC: 0.406874 (Simulation time: 0 hr 36 min 10 sec) 
Heartbeat CPU 0 instructions: 81000002 cycles: 180255680 heartbeat IPC: 0.471173 cumulative IPC: 0.407657 (Simulation time: 0 hr 36 min 30 sec) 
Heartbeat CPU 0 instructions: 82000000 cycles: 182364352 heartbeat IPC: 0.474231 cumulative IPC: 0.408454 (Simulation time: 0 hr 36 min 50 sec) 
Heartbeat CPU 0 instructions: 83000000 cycles: 184422786 heartbeat IPC: 0.485806 cumulative IPC: 0.409346 (Simulation time: 0 hr 37 min 10 sec) 
Heartbeat CPU 0 instructions: 84000000 cycles: 186478402 heartbeat IPC: 0.486472 cumulative IPC: 0.410225 (Simulation time: 0 hr 37 min 29 sec) 
Heartbeat CPU 0 instructions: 85000003 cycles: 188612268 heartbeat IPC: 0.468634 cumulative IPC: 0.410908 (Simulation time: 0 hr 37 min 49 sec) 
Heartbeat CPU 0 instructions: 86000000 cycles: 190729799 heartbeat IPC: 0.472247 cumulative IPC: 0.411612 (Simulation time: 0 hr 38 min 9 sec) 
Heartbeat CPU 0 instructions: 87000001 cycles: 197963731 heartbeat IPC: 0.138238 cumulative IPC: 0.401305 (Simulation time: 0 hr 38 min 34 sec) 
Heartbeat CPU 0 instructions: 88000000 cycles: 199991625 heartbeat IPC: 0.493122 cumulative IPC: 0.402265 (Simulation time: 0 hr 38 min 52 sec) 
Heartbeat CPU 0 instructions: 89000002 cycles: 202118960 heartbeat IPC: 0.470073 cumulative IPC: 0.403001 (Simulation time: 0 hr 39 min 11 sec) 
Heartbeat CPU 0 instructions: 90000001 cycles: 204269872 heartbeat IPC: 0.464919 cumulative IPC: 0.403673 (Simulation time: 0 hr 39 min 29 sec) 
Heartbeat CPU 0 instructions: 91000002 cycles: 206374789 heartbeat IPC: 0.475079 cumulative IPC: 0.404424 (Simulation time: 0 hr 39 min 46 sec) 
Heartbeat CPU 0 instructions: 92000000 cycles: 208459683 heartbeat IPC: 0.47964 cumulative IPC: 0.405198 (Simulation time: 0 hr 40 min 3 sec) 
Heartbeat CPU 0 instructions: 93000002 cycles: 210500143 heartbeat IPC: 0.490087 cumulative IPC: 0.406046 (Simulation time: 0 hr 40 min 20 sec) 
Heartbeat CPU 0 instructions: 94000002 cycles: 212616056 heartbeat IPC: 0.472609 cumulative IPC: 0.406728 (Simulation time: 0 hr 40 min 36 sec) 
Heartbeat CPU 0 instructions: 95000003 cycles: 214747963 heartbeat IPC: 0.469064 cumulative IPC: 0.407365 (Simulation time: 0 hr 40 min 52 sec) 
Heartbeat CPU 0 instructions: 96000000 cycles: 216860968 heartbeat IPC: 0.473258 cumulative IPC: 0.408025 (Simulation time: 0 hr 41 min 7 sec) 
Heartbeat CPU 0 instructions: 97000003 cycles: 218906193 heartbeat IPC: 0.488945 cumulative IPC: 0.408803 (Simulation time: 0 hr 41 min 21 sec) 
Heartbeat CPU 0 instructions: 98000003 cycles: 220982028 heartbeat IPC: 0.481734 cumulative IPC: 0.409507 (Simulation time: 0 hr 41 min 36 sec) 
Heartbeat CPU 0 instructions: 99000000 cycles: 223090585 heartbeat IPC: 0.474257 cumulative IPC: 0.410137 (Simulation time: 0 hr 41 min 50 sec) 
Heartbeat CPU 0 instructions: 100000000 cycles: 230329895 heartbeat IPC: 0.138135 cumulative IPC: 0.401355 (Simulation time: 0 hr 42 min 7 sec) 
Heartbeat CPU 0 instructions: 101000000 cycles: 232404961 heartbeat IPC: 0.481912 cumulative IPC: 0.402094 (Simulation time: 0 hr 42 min 20 sec) 
Heartbeat CPU 0 instructions: 102000002 cycles: 234471191 heartbeat IPC: 0.483974 cumulative IPC: 0.402835 (Simulation time: 0 hr 42 min 33 sec) 
Heartbeat CPU 0 instructions: 103000000 cycles: 236595534 heartbeat IPC: 0.470733 cumulative IPC: 0.403461 (Simulation time: 0 hr 42 min 46 sec) 
Heartbeat CPU 0 instructions: 104000000 cycles: 238704359 heartbeat IPC: 0.474198 cumulative IPC: 0.404102 (Simulation time: 0 hr 42 min 58 sec) 
Heartbeat CPU 0 instructions: 105000001 cycles: 240824038 heartbeat IPC: 0.47177 cumulative IPC: 0.404713 (Simulation time: 0 hr 43 min 9 sec) 
Heartbeat CPU 0 instructions: 106000000 cycles: 242860552 heartbeat IPC: 0.491035 cumulative IPC: 0.405455 (Simulation time: 0 hr 43 min 19 sec) 
Heartbeat CPU 0 instructions: 107000001 cycles: 244944411 heartbeat IPC: 0.479879 cumulative IPC: 0.406105 (Simulation time: 0 hr 43 min 29 sec) 
Heartbeat CPU 0 instructions: 108000000 cycles: 247065735 heartbeat IPC: 0.471403 cumulative IPC: 0.406679 (Simulation time: 0 hr 43 min 39 sec) 
Heartbeat CPU 0 instructions: 109000002 cycles: 249179509 heartbeat IPC: 0.473088 cumulative IPC: 0.407257 (Simulation time: 0 hr 43 min 47 sec) 
Heartbeat CPU 0 instructions: 110000001 cycles: 251306352 heartbeat IPC: 0.47018 cumulative IPC: 0.407803 (Simulation time: 0 hr 43 min 55 sec) 
Finished CPU 0 instructions: 100000003 cycles: 245216625 cummulative IPC: 0.407803 (Simulation time: 0 hr 43 min 55 sec) 

ChampSim completed all CPUs

Region of Interest Statistics

CPU 0 cummulative IPC: 0.407803 instructions: 100000003 cycles: 245216625
LLC TOTAL     ACCESS:    1105154  HIT:     248274  MISS:     856880
LLC LOAD      ACCESS:     614444  HIT:       2276  MISS:     612168
LLC RFO       ACCESS:     245232  HIT:        848  MISS:     244384
LLC PREFETCH  ACCESS:          0  HIT:          0  MISS:          0
LLC WRITEBACK ACCESS:     245478  HIT:     245150  MISS:        328
