Initialize SIGNATURE TABLE
ST_SET: 1
ST_WAY: 256
ST_TAG_BIT: 16
ST_TAG_MASK: ffff

Initialize PATTERN TABLE
PT_SET: 512
PT_WAY: 4
SIG_DELTA_BIT: 7
C_SIG_BIT: 4
C_DELTA_BIT: 4

Initialize PREFETCH FILTER
FILTER_SET: 1024

*** ChampSim Multicore Out-of-Order Simulator ***

Warmup Instructions: 50000000
Simulation Instructions: 50000000
Number of CPUs: 1
LLC sets: 2048
LLC ways: 16
Off-chip DRAM Size: 4096 MB Channels: 1 Width: 64-bit Data Rate: 3200 MT/s

CPU 0 runs /Users/gandhardeshpande/Desktop/CSE240C/HW1/ChampSim/ipc1_public/client_001.champsimtrace.xz
L1I Barca has been initializedCPU 0 L1D next line prefetcher
Heartbeat CPU 0 instructions: 10000003 cycles: 3410101 heartbeat IPC: 2.93247 cumulative IPC: 2.93247 (Simulation time: 0 hr 0 min 19 sec) 
Heartbeat CPU 0 instructions: 20000001 cycles: 7118256 heartbeat IPC: 2.69676 cumulative IPC: 2.80968 (Simulation time: 0 hr 0 min 39 sec) 
Heartbeat CPU 0 instructions: 30000001 cycles: 10480681 heartbeat IPC: 2.97404 cumulative IPC: 2.86241 (Simulation time: 0 hr 0 min 56 sec) 
Heartbeat CPU 0 instructions: 40000003 cycles: 14350221 heartbeat IPC: 2.58429 cumulative IPC: 2.78741 (Simulation time: 0 hr 1 min 16 sec) 
Heartbeat CPU 0 instructions: 50000003 cycles: 17646974 heartbeat IPC: 3.03329 cumulative IPC: 2.83335 (Simulation time: 0 hr 1 min 33 sec) 

Warmup complete CPU 0 instructions: 50000003 cycles: 17646974 (Simulation time: 0 hr 1 min 33 sec) 

Heartbeat CPU 0 instructions: 60000000 cycles: 26664038 heartbeat IPC: 1.10901 cumulative IPC: 1.10901 (Simulation time: 0 hr 1 min 54 sec) 
Heartbeat CPU 0 instructions: 70000000 cycles: 32964767 heartbeat IPC: 1.58712 cumulative IPC: 1.30567 (Simulation time: 0 hr 2 min 8 sec) 
Heartbeat CPU 0 instructions: 80000002 cycles: 42286240 heartbeat IPC: 1.07279 cumulative IPC: 1.21757 (Simulation time: 0 hr 2 min 34 sec) 
Heartbeat CPU 0 instructions: 90000000 cycles: 48442003 heartbeat IPC: 1.62449 cumulative IPC: 1.29891 (Simulation time: 0 hr 2 min 47 sec) 
Heartbeat CPU 0 instructions: 100000002 cycles: 57305345 heartbeat IPC: 1.12824 cumulative IPC: 1.26077 (Simulation time: 0 hr 3 min 8 sec) 
Finished CPU 0 instructions: 50000003 cycles: 39658372 cumulative IPC: 1.26077 (Simulation time: 0 hr 3 min 8 sec) 

ChampSim completed all CPUs

Region of Interest Statistics

CPU 0 cumulative IPC: 1.26077 instructions: 50000003 cycles: 39658372
L1D TOTAL     ACCESS:   21238834  HIT:   20402411  MISS:     836423
L1D LOAD      ACCESS:    8821114  HIT:    8426417  MISS:     394697
L1D RFO       ACCESS:    4039919  HIT:    3980853  MISS:      59066
L1D PREFETCH  ACCESS:    8377801  HIT:    7995141  MISS:     382660
L1D WRITEBACK ACCESS:          0  HIT:          0  MISS:          0
L1D PREFETCH  REQUESTED:    8866657  ISSUED:    8557113  USEFUL:     129663  USELESS:     252971
L1D AVERAGE MISS LATENCY: 47.5066 cycles
L1I TOTAL     ACCESS:    9359952  HIT:    8983862  MISS:     376090
L1I LOAD      ACCESS:    8918016  HIT:    8898377  MISS:      19639
L1I RFO       ACCESS:          0  HIT:          0  MISS:          0
L1I PREFETCH  ACCESS:     441936  HIT:      85485  MISS:     356451
L1I WRITEBACK ACCESS:          0  HIT:          0  MISS:          0
L1I PREFETCH  REQUESTED:     490944  ISSUED:     490944  USEFUL:     282714  USELESS:      73764
L1I AVERAGE MISS LATENCY: 21.1526 cycles
L2C TOTAL     ACCESS:    1860056  HIT:    1553719  MISS:     306337
L2C LOAD      ACCESS:     381721  HIT:     268806  MISS:     112915
L2C RFO       ACCESS:      58302  HIT:      21072  MISS:      37230
L2C PREFETCH  ACCESS:    1230448  HIT:    1074460  MISS:     155988
L2C WRITEBACK ACCESS:     189585  HIT:     189381  MISS:        204
L2C PREFETCH  REQUESTED:    1465181  ISSUED:    1460487  USEFUL:      13670  USELESS:     141320
L2C AVERAGE MISS LATENCY: 104.418 cycles
LLC TOTAL     ACCESS:     808233  HIT:     611496  MISS:     196737
LLC LOAD      ACCESS:     112606  HIT:      71252  MISS:      41354
LLC RFO       ACCESS:      37229  HIT:       9036  MISS:      28193
LLC PREFETCH  ACCESS:     551862  HIT:     425290  MISS:     126572
LLC WRITEBACK ACCESS:     106536  HIT:     105918  MISS:        618
LLC PREFETCH  REQUESTED:          0  ISSUED:          0  USEFUL:      28653  USELESS:      99930
LLC AVERAGE MISS LATENCY: 187.886 cycles
Major fault: 0 Minor fault: 3433
CPU 0 L1D next line prefetcher final stats

DRAM Statistics
 CHANNEL 0
 RQ ROW_BUFFER_HIT:      48069  ROW_BUFFER_MISS:     148041
 DBUS_CONGESTED:     117630
 WQ ROW_BUFFER_HIT:      16031  ROW_BUFFER_MISS:      64976  FULL:          0

 AVG_CONGESTED_CYCLE: 5

CPU 0 Branch Prediction Accuracy: 97.9037% MPKI: 3.63418 Average ROB Occupancy at Mispredict: 86.8472

Branch types
NOT_BRANCH: 41331383 82.6628%
BRANCH_DIRECT_JUMP: 455615 0.91123%
BRANCH_INDIRECT: 20390 0.04078%
BRANCH_CONDITIONAL: 6745374 13.4907%
BRANCH_DIRECT_CALL: 494532 0.989064%
BRANCH_INDIRECT_CALL: 228815 0.45763%
BRANCH_RETURN: 723560 1.44712%
BRANCH_OTHER: 0 0%

