
*** ChampSim Multicore Out-of-Order Simulator ***

Warmup Instructions: 10000000
Simulation Instructions: 100000000
Configuration: 2
Number of CPUs: 1
LLC sets: 2048
LLC ways: 16
Off-chip DRAM Channels: 1 Width: 64-bit Data Rate: 1600 MT/s

CPU 0 runs /datasets/cs240c-wi22-a00-public/data/Assignment2-gz/perlbench_53B.trace.gz
CPU 0 L1D next line prefetcher
CPU 0 L2C IP-based stride prefetcher
Initialize SRRIP state
Heartbeat CPU 0 instructions: 1000000 cycles: 615802 heartbeat IPC: 1.6239 cumulative IPC: 1.6239 (Simulation time: 0 hr 0 min 53 sec) 
Heartbeat CPU 0 instructions: 2000001 cycles: 1252973 heartbeat IPC: 1.56944 cumulative IPC: 1.5962 (Simulation time: 0 hr 1 min 44 sec) 
Heartbeat CPU 0 instructions: 3000002 cycles: 1908459 heartbeat IPC: 1.52559 cumulative IPC: 1.57195 (Simulation time: 0 hr 2 min 31 sec) 
Heartbeat CPU 0 instructions: 4000000 cycles: 2523972 heartbeat IPC: 1.62466 cumulative IPC: 1.5848 (Simulation time: 0 hr 3 min 16 sec) 
Heartbeat CPU 0 instructions: 5000001 cycles: 3151982 heartbeat IPC: 1.59233 cumulative IPC: 1.5863 (Simulation time: 0 hr 4 min 2 sec) 
Heartbeat CPU 0 instructions: 6000001 cycles: 3767489 heartbeat IPC: 1.62468 cumulative IPC: 1.59257 (Simulation time: 0 hr 4 min 47 sec) 
Heartbeat CPU 0 instructions: 7000002 cycles: 4390289 heartbeat IPC: 1.60565 cumulative IPC: 1.59443 (Simulation time: 0 hr 5 min 34 sec) 
Heartbeat CPU 0 instructions: 8000000 cycles: 5000666 heartbeat IPC: 1.63833 cumulative IPC: 1.59979 (Simulation time: 0 hr 6 min 18 sec) 
Heartbeat CPU 0 instructions: 9000000 cycles: 5652371 heartbeat IPC: 1.53444 cumulative IPC: 1.59225 (Simulation time: 0 hr 7 min 2 sec) 
Heartbeat CPU 0 instructions: 10000001 cycles: 6287601 heartbeat IPC: 1.57423 cumulative IPC: 1.59043 (Simulation time: 0 hr 7 min 48 sec) 

Warmup complete CPU 0 instructions: 10000001 cycles: 6287601 (Simulation time: 0 hr 7 min 48 sec) 

Heartbeat CPU 0 instructions: 11000000 cycles: 9158067 heartbeat IPC: 0.348375 cumulative IPC: 0.348375 (Simulation time: 0 hr 8 min 40 sec) 
Heartbeat CPU 0 instructions: 12000000 cycles: 12020302 heartbeat IPC: 0.349377 cumulative IPC: 0.348876 (Simulation time: 0 hr 9 min 36 sec) 
Heartbeat CPU 0 instructions: 13000000 cycles: 14373109 heartbeat IPC: 0.425024 cumulative IPC: 0.371034 (Simulation time: 0 hr 10 min 25 sec) 
Heartbeat CPU 0 instructions: 14000000 cycles: 16882745 heartbeat IPC: 0.398464 cumulative IPC: 0.377531 (Simulation time: 0 hr 11 min 17 sec) 
Heartbeat CPU 0 instructions: 15000001 cycles: 19637537 heartbeat IPC: 0.363004 cumulative IPC: 0.374534 (Simulation time: 0 hr 12 min 8 sec) 
Heartbeat CPU 0 instructions: 16000000 cycles: 22302508 heartbeat IPC: 0.375238 cumulative IPC: 0.374651 (Simulation time: 0 hr 13 min 2 sec) 
Heartbeat CPU 0 instructions: 17000001 cycles: 24976508 heartbeat IPC: 0.373972 cumulative IPC: 0.374554 (Simulation time: 0 hr 13 min 59 sec) 
Heartbeat CPU 0 instructions: 18000002 cycles: 27831182 heartbeat IPC: 0.350303 cumulative IPC: 0.37134 (Simulation time: 0 hr 14 min 55 sec) 
Heartbeat CPU 0 instructions: 19000000 cycles: 30653058 heartbeat IPC: 0.354373 cumulative IPC: 0.369375 (Simulation time: 0 hr 15 min 44 sec) 
Heartbeat CPU 0 instructions: 20000000 cycles: 33507673 heartbeat IPC: 0.35031 cumulative IPC: 0.367376 (Simulation time: 0 hr 16 min 44 sec) 
Heartbeat CPU 0 instructions: 21000000 cycles: 35866827 heartbeat IPC: 0.423881 cumulative IPC: 0.371883 (Simulation time: 0 hr 17 min 40 sec) 
Heartbeat CPU 0 instructions: 22000000 cycles: 37943536 heartbeat IPC: 0.481531 cumulative IPC: 0.379076 (Simulation time: 0 hr 18 min 33 sec) 
Heartbeat CPU 0 instructions: 23000001 cycles: 39873335 heartbeat IPC: 0.518189 cumulative IPC: 0.387069 (Simulation time: 0 hr 19 min 20 sec) 
Heartbeat CPU 0 instructions: 24000000 cycles: 42269525 heartbeat IPC: 0.417329 cumulative IPC: 0.389084 (Simulation time: 0 hr 20 min 23 sec) 
Heartbeat CPU 0 instructions: 25000000 cycles: 44281253 heartbeat IPC: 0.497085 cumulative IPC: 0.394803 (Simulation time: 0 hr 21 min 9 sec) 
Heartbeat CPU 0 instructions: 26000001 cycles: 46266180 heartbeat IPC: 0.503797 cumulative IPC: 0.400214 (Simulation time: 0 hr 21 min 52 sec) 
Heartbeat CPU 0 instructions: 27000002 cycles: 48559883 heartbeat IPC: 0.435977 cumulative IPC: 0.402155 (Simulation time: 0 hr 22 min 42 sec) 
Heartbeat CPU 0 instructions: 28000000 cycles: 51128908 heartbeat IPC: 0.389252 cumulative IPC: 0.401416 (Simulation time: 0 hr 23 min 39 sec) 
Heartbeat CPU 0 instructions: 29000000 cycles: 53448985 heartbeat IPC: 0.43102 cumulative IPC: 0.402872 (Simulation time: 0 hr 24 min 34 sec) 
Heartbeat CPU 0 instructions: 30000000 cycles: 55491815 heartbeat IPC: 0.489517 cumulative IPC: 0.406469 (Simulation time: 0 hr 25 min 15 sec) 
Heartbeat CPU 0 instructions: 31000001 cycles: 57478869 heartbeat IPC: 0.503258 cumulative IPC: 0.410226 (Simulation time: 0 hr 25 min 53 sec) 
Heartbeat CPU 0 instructions: 32000000 cycles: 59476279 heartbeat IPC: 0.500648 cumulative IPC: 0.413622 (Simulation time: 0 hr 26 min 29 sec) 
Heartbeat CPU 0 instructions: 33000003 cycles: 61931067 heartbeat IPC: 0.407368 cumulative IPC: 0.413346 (Simulation time: 0 hr 27 min 11 sec) 
Heartbeat CPU 0 instructions: 34000000 cycles: 64628823 heartbeat IPC: 0.370677 cumulative IPC: 0.411373 (Simulation time: 0 hr 27 min 51 sec) 
Heartbeat CPU 0 instructions: 35000000 cycles: 67177976 heartbeat IPC: 0.392287 cumulative IPC: 0.410574 (Simulation time: 0 hr 28 min 31 sec) 
Heartbeat CPU 0 instructions: 36000000 cycles: 69968114 heartbeat IPC: 0.358405 cumulative IPC: 0.408288 (Simulation time: 0 hr 29 min 14 sec) 
Heartbeat CPU 0 instructions: 37000002 cycles: 72812608 heartbeat IPC: 0.351557 cumulative IPC: 0.405862 (Simulation time: 0 hr 29 min 58 sec) 
Heartbeat CPU 0 instructions: 38000000 cycles: 75681021 heartbeat IPC: 0.348624 cumulative IPC: 0.403496 (Simulation time: 0 hr 30 min 37 sec) 
Heartbeat CPU 0 instructions: 39000001 cycles: 78350852 heartbeat IPC: 0.374556 cumulative IPC: 0.402424 (Simulation time: 0 hr 31 min 22 sec) 
Heartbeat CPU 0 instructions: 40000000 cycles: 80949738 heartbeat IPC: 0.38478 cumulative IPC: 0.40181 (Simulation time: 0 hr 32 min 6 sec) 
Heartbeat CPU 0 instructions: 41000002 cycles: 83822424 heartbeat IPC: 0.348107 cumulative IPC: 0.39982 (Simulation time: 0 hr 32 min 50 sec) 
Heartbeat CPU 0 instructions: 42000000 cycles: 86425177 heartbeat IPC: 0.384208 cumulative IPC: 0.399313 (Simulation time: 0 hr 33 min 34 sec) 
Heartbeat CPU 0 instructions: 43000002 cycles: 89262799 heartbeat IPC: 0.352408 cumulative IPC: 0.397709 (Simulation time: 0 hr 34 min 15 sec) 
Heartbeat CPU 0 instructions: 44000000 cycles: 91926719 heartbeat IPC: 0.375386 cumulative IPC: 0.397015 (Simulation time: 0 hr 34 min 59 sec) 
Heartbeat CPU 0 instructions: 45000001 cycles: 93386950 heartbeat IPC: 0.684824 cumulative IPC: 0.40184 (Simulation time: 0 hr 35 min 33 sec) 
Heartbeat CPU 0 instructions: 46000000 cycles: 95410577 heartbeat IPC: 0.494162 cumulative IPC: 0.403936 (Simulation time: 0 hr 36 min 9 sec) 
Heartbeat CPU 0 instructions: 47000002 cycles: 97325980 heartbeat IPC: 0.522084 cumulative IPC: 0.406422 (Simulation time: 0 hr 36 min 45 sec) 
Heartbeat CPU 0 instructions: 48000000 cycles: 99246195 heartbeat IPC: 0.520774 cumulative IPC: 0.408784 (Simulation time: 0 hr 37 min 21 sec) 
Heartbeat CPU 0 instructions: 49000000 cycles: 101593976 heartbeat IPC: 0.425934 cumulative IPC: 0.409207 (Simulation time: 0 hr 38 min 0 sec) 
Heartbeat CPU 0 instructions: 50000002 cycles: 103457491 heartbeat IPC: 0.536621 cumulative IPC: 0.41165 (Simulation time: 0 hr 38 min 44 sec) 
Heartbeat CPU 0 instructions: 51000000 cycles: 105388143 heartbeat IPC: 0.517959 cumulative IPC: 0.413721 (Simulation time: 0 hr 39 min 19 sec) 
Heartbeat CPU 0 instructions: 52000000 cycles: 107303148 heartbeat IPC: 0.522192 cumulative IPC: 0.415778 (Simulation time: 0 hr 39 min 57 sec) 
Heartbeat CPU 0 instructions: 53000002 cycles: 109254103 heartbeat IPC: 0.512571 cumulative IPC: 0.417612 (Simulation time: 0 hr 40 min 38 sec) 
Heartbeat CPU 0 instructions: 54000000 cycles: 112145412 heartbeat IPC: 0.345863 cumulative IPC: 0.415652 (Simulation time: 0 hr 41 min 19 sec) 
Heartbeat CPU 0 instructions: 55000000 cycles: 114631939 heartbeat IPC: 0.402167 cumulative IPC: 0.415342 (Simulation time: 0 hr 42 min 0 sec) 
Heartbeat CPU 0 instructions: 56000000 cycles: 117433975 heartbeat IPC: 0.356883 cumulative IPC: 0.413869 (Simulation time: 0 hr 42 min 39 sec) 
Heartbeat CPU 0 instructions: 57000001 cycles: 120424811 heartbeat IPC: 0.334355 cumulative IPC: 0.411785 (Simulation time: 0 hr 43 min 24 sec) 
Heartbeat CPU 0 instructions: 58000003 cycles: 123394037 heartbeat IPC: 0.336789 cumulative IPC: 0.409884 (Simulation time: 0 hr 44 min 17 sec) 
Heartbeat CPU 0 instructions: 59000002 cycles: 126209392 heartbeat IPC: 0.355195 cumulative IPC: 0.4086 (Simulation time: 0 hr 44 min 57 sec) 
Heartbeat CPU 0 instructions: 60000000 cycles: 128971866 heartbeat IPC: 0.361994 cumulative IPC: 0.40755 (Simulation time: 0 hr 45 min 42 sec) 
Heartbeat CPU 0 instructions: 61000002 cycles: 131605427 heartbeat IPC: 0.379715 cumulative IPC: 0.406965 (Simulation time: 0 hr 46 min 22 sec) 
Heartbeat CPU 0 instructions: 62000002 cycles: 134289336 heartbeat IPC: 0.372591 cumulative IPC: 0.406244 (Simulation time: 0 hr 47 min 4 sec) 
Heartbeat CPU 0 instructions: 63000001 cycles: 136959180 heartbeat IPC: 0.374553 cumulative IPC: 0.405597 (Simulation time: 0 hr 47 min 46 sec) 
Heartbeat CPU 0 instructions: 64000000 cycles: 139617605 heartbeat IPC: 0.376162 cumulative IPC: 0.40501 (Simulation time: 0 hr 48 min 26 sec) 
Heartbeat CPU 0 instructions: 65000003 cycles: 142255452 heartbeat IPC: 0.379098 cumulative IPC: 0.404507 (Simulation time: 0 hr 49 min 8 sec) 
Heartbeat CPU 0 instructions: 66000001 cycles: 144883964 heartbeat IPC: 0.380443 cumulative IPC: 0.404051 (Simulation time: 0 hr 49 min 48 sec) 
Heartbeat CPU 0 instructions: 67000001 cycles: 147497298 heartbeat IPC: 0.382653 cumulative IPC: 0.403655 (Simulation time: 0 hr 50 min 28 sec) 
Heartbeat CPU 0 instructions: 68000000 cycles: 150165281 heartbeat IPC: 0.374815 cumulative IPC: 0.40312 (Simulation time: 0 hr 51 min 9 sec) 
Heartbeat CPU 0 instructions: 69000001 cycles: 152804546 heartbeat IPC: 0.378894 cumulative IPC: 0.402684 (Simulation time: 0 hr 51 min 52 sec) 
Heartbeat CPU 0 instructions: 70000001 cycles: 155416252 heartbeat IPC: 0.382891 cumulative IPC: 0.402337 (Simulation time: 0 hr 52 min 32 sec) 
Heartbeat CPU 0 instructions: 71000001 cycles: 158133396 heartbeat IPC: 0.368033 cumulative IPC: 0.401723 (Simulation time: 0 hr 53 min 16 sec) 
Heartbeat CPU 0 instructions: 72000000 cycles: 160739981 heartbeat IPC: 0.383643 cumulative IPC: 0.401418 (Simulation time: 0 hr 54 min 2 sec) 
Heartbeat CPU 0 instructions: 73000002 cycles: 163396891 heartbeat IPC: 0.376378 cumulative IPC: 0.400995 (Simulation time: 0 hr 54 min 46 sec) 
Heartbeat CPU 0 instructions: 74000001 cycles: 166078457 heartbeat IPC: 0.372916 cumulative IPC: 0.400524 (Simulation time: 0 hr 55 min 26 sec) 
Heartbeat CPU 0 instructions: 75000001 cycles: 168738516 heartbeat IPC: 0.375932 cumulative IPC: 0.400121 (Simulation time: 0 hr 56 min 5 sec) 
Heartbeat CPU 0 instructions: 76000000 cycles: 171379867 heartbeat IPC: 0.378594 cumulative IPC: 0.399776 (Simulation time: 0 hr 56 min 42 sec) 
Heartbeat CPU 0 instructions: 77000002 cycles: 174052431 heartbeat IPC: 0.374173 cumulative IPC: 0.399369 (Simulation time: 0 hr 57 min 20 sec) 
Heartbeat CPU 0 instructions: 78000000 cycles: 176706146 heartbeat IPC: 0.376829 cumulative IPC: 0.399018 (Simulation time: 0 hr 57 min 58 sec) 
Heartbeat CPU 0 instructions: 79000002 cycles: 179367256 heartbeat IPC: 0.375784 cumulative IPC: 0.39866 (Simulation time: 0 hr 58 min 36 sec) 
Heartbeat CPU 0 instructions: 80000000 cycles: 182001984 heartbeat IPC: 0.379545 cumulative IPC: 0.398374 (Simulation time: 0 hr 59 min 13 sec) 
Heartbeat CPU 0 instructions: 81000000 cycles: 184616330 heartbeat IPC: 0.382505 cumulative IPC: 0.398141 (Simulation time: 0 hr 59 min 42 sec) 
Heartbeat CPU 0 instructions: 82000002 cycles: 187293234 heartbeat IPC: 0.373567 cumulative IPC: 0.397778 (Simulation time: 1 hr 0 min 11 sec) 
Heartbeat CPU 0 instructions: 83000000 cycles: 189939337 heartbeat IPC: 0.377913 cumulative IPC: 0.397491 (Simulation time: 1 hr 0 min 39 sec) 
Heartbeat CPU 0 instructions: 84000000 cycles: 192595370 heartbeat IPC: 0.376501 cumulative IPC: 0.397192 (Simulation time: 1 hr 1 min 5 sec) 
Heartbeat CPU 0 instructions: 85000001 cycles: 195271750 heartbeat IPC: 0.373639 cumulative IPC: 0.396859 (Simulation time: 1 hr 1 min 34 sec) 
Heartbeat CPU 0 instructions: 86000000 cycles: 197767558 heartbeat IPC: 0.400671 cumulative IPC: 0.396908 (Simulation time: 1 hr 2 min 3 sec) 
Heartbeat CPU 0 instructions: 87000000 cycles: 199899096 heartbeat IPC: 0.469145 cumulative IPC: 0.397704 (Simulation time: 1 hr 2 min 27 sec) 
Heartbeat CPU 0 instructions: 88000000 cycles: 201896277 heartbeat IPC: 0.500706 cumulative IPC: 0.398755 (Simulation time: 1 hr 2 min 49 sec) 
Heartbeat CPU 0 instructions: 89000001 cycles: 203971824 heartbeat IPC: 0.481801 cumulative IPC: 0.399627 (Simulation time: 1 hr 3 min 12 sec) 
Heartbeat CPU 0 instructions: 90000000 cycles: 206637552 heartbeat IPC: 0.375132 cumulative IPC: 0.399301 (Simulation time: 1 hr 3 min 40 sec) 
Heartbeat CPU 0 instructions: 91000001 cycles: 209402989 heartbeat IPC: 0.361607 cumulative IPC: 0.398788 (Simulation time: 1 hr 4 min 9 sec) 
Heartbeat CPU 0 instructions: 92000000 cycles: 212085776 heartbeat IPC: 0.372746 cumulative IPC: 0.398449 (Simulation time: 1 hr 4 min 33 sec) 
Heartbeat CPU 0 instructions: 93000000 cycles: 214738661 heartbeat IPC: 0.376948 cumulative IPC: 0.398175 (Simulation time: 1 hr 4 min 57 sec) 
Heartbeat CPU 0 instructions: 94000002 cycles: 217386313 heartbeat IPC: 0.377694 cumulative IPC: 0.397918 (Simulation time: 1 hr 5 min 22 sec) 
Heartbeat CPU 0 instructions: 95000000 cycles: 220005543 heartbeat IPC: 0.381791 cumulative IPC: 0.39772 (Simulation time: 1 hr 5 min 46 sec) 
Heartbeat CPU 0 instructions: 96000000 cycles: 222669782 heartbeat IPC: 0.375342 cumulative IPC: 0.397445 (Simulation time: 1 hr 6 min 10 sec) 
Heartbeat CPU 0 instructions: 97000000 cycles: 225310242 heartbeat IPC: 0.378722 cumulative IPC: 0.397219 (Simulation time: 1 hr 6 min 32 sec) 
Heartbeat CPU 0 instructions: 98000000 cycles: 227932603 heartbeat IPC: 0.381336 cumulative IPC: 0.397031 (Simulation time: 1 hr 6 min 53 sec) 
Heartbeat CPU 0 instructions: 99000002 cycles: 230541792 heartbeat IPC: 0.383262 cumulative IPC: 0.396871 (Simulation time: 1 hr 7 min 13 sec) 
Heartbeat CPU 0 instructions: 100000000 cycles: 233167815 heartbeat IPC: 0.380803 cumulative IPC: 0.396685 (Simulation time: 1 hr 7 min 31 sec) 
Heartbeat CPU 0 instructions: 101000002 cycles: 235822521 heartbeat IPC: 0.37669 cumulative IPC: 0.396454 (Simulation time: 1 hr 7 min 48 sec) 
Heartbeat CPU 0 instructions: 102000000 cycles: 238453012 heartbeat IPC: 0.380156 cumulative IPC: 0.396269 (Simulation time: 1 hr 8 min 4 sec) 
Heartbeat CPU 0 instructions: 103000000 cycles: 241078584 heartbeat IPC: 0.380869 cumulative IPC: 0.396097 (Simulation time: 1 hr 8 min 19 sec) 
Heartbeat CPU 0 instructions: 104000000 cycles: 243740633 heartbeat IPC: 0.37565 cumulative IPC: 0.395868 (Simulation time: 1 hr 8 min 34 sec) 
Heartbeat CPU 0 instructions: 105000003 cycles: 245919955 heartbeat IPC: 0.45886 cumulative IPC: 0.396441 (Simulation time: 1 hr 8 min 47 sec) 
Heartbeat CPU 0 instructions: 106000000 cycles: 247897326 heartbeat IPC: 0.50572 cumulative IPC: 0.397335 (Simulation time: 1 hr 8 min 57 sec) 
Heartbeat CPU 0 instructions: 107000003 cycles: 249872831 heartbeat IPC: 0.506201 cumulative IPC: 0.398218 (Simulation time: 1 hr 9 min 7 sec) 
Heartbeat CPU 0 instructions: 108000000 cycles: 252620427 heartbeat IPC: 0.363953 cumulative IPC: 0.397836 (Simulation time: 1 hr 9 min 19 sec) 
Heartbeat CPU 0 instructions: 109000001 cycles: 255321202 heartbeat IPC: 0.370264 cumulative IPC: 0.397537 (Simulation time: 1 hr 9 min 29 sec) 
Heartbeat CPU 0 instructions: 110000000 cycles: 257834499 heartbeat IPC: 0.397883 cumulative IPC: 0.39754 (Simulation time: 1 hr 9 min 38 sec) 
Finished CPU 0 instructions: 100000000 cycles: 251546899 cummulative IPC: 0.39754 (Simulation time: 1 hr 9 min 38 sec) 

ChampSim completed all CPUs

Region of Interest Statistics

CPU 0 cummulative IPC: 0.39754 instructions: 100000000 cycles: 251546899
LLC TOTAL     ACCESS:     656691  HIT:     613880  MISS:      42811
LLC LOAD      ACCESS:     310896  HIT:     302927  MISS:       7969
LLC RFO       ACCESS:      30805  HIT:      26596  MISS:       4209
LLC PREFETCH  ACCESS:     212708  HIT:     182691  MISS:      30017
LLC WRITEBACK ACCESS:     102282  HIT:     101666  MISS:        616
Insertion Distribution: 
	LOAD 4326 0 16988 218 
	RFO 697 0 5182 135 
	PREF 0 672 26181 15536 
	WRITEBACK 0 0 0 887 
Total Prefetch Downgrades: 3412
