
*** ChampSim Multicore Out-of-Order Simulator ***

Warmup Instructions: 10000000
Simulation Instructions: 100000000
Configuration: 2
Number of CPUs: 1
LLC sets: 2048
LLC ways: 16
Off-chip DRAM Channels: 1 Width: 64-bit Data Rate: 1600 MT/s

CPU 0 runs /datasets/cs240c-wi22-a00-public/data/Assignment2-gz/lbm_1004B.trace.gz
CPU 0 L1D next line prefetcher
CPU 0 L2C IP-based stride prefetcher
Initialize SRRIP state
Heartbeat CPU 0 instructions: 1000002 cycles: 391414 heartbeat IPC: 2.55484 cumulative IPC: 2.55484 (Simulation time: 0 hr 0 min 39 sec) 
Heartbeat CPU 0 instructions: 2000001 cycles: 782838 heartbeat IPC: 2.55477 cumulative IPC: 2.55481 (Simulation time: 0 hr 1 min 17 sec) 
Heartbeat CPU 0 instructions: 3000001 cycles: 1174187 heartbeat IPC: 2.55526 cumulative IPC: 2.55496 (Simulation time: 0 hr 1 min 53 sec) 
Heartbeat CPU 0 instructions: 4000000 cycles: 1570372 heartbeat IPC: 2.52407 cumulative IPC: 2.54717 (Simulation time: 0 hr 2 min 29 sec) 
Heartbeat CPU 0 instructions: 5000002 cycles: 1961791 heartbeat IPC: 2.55481 cumulative IPC: 2.54869 (Simulation time: 0 hr 3 min 6 sec) 
Heartbeat CPU 0 instructions: 6000002 cycles: 2353159 heartbeat IPC: 2.55514 cumulative IPC: 2.54976 (Simulation time: 0 hr 3 min 43 sec) 
Heartbeat CPU 0 instructions: 7000003 cycles: 2749265 heartbeat IPC: 2.52458 cumulative IPC: 2.54614 (Simulation time: 0 hr 4 min 19 sec) 
Heartbeat CPU 0 instructions: 8000000 cycles: 3140616 heartbeat IPC: 2.55524 cumulative IPC: 2.54727 (Simulation time: 0 hr 4 min 55 sec) 
Heartbeat CPU 0 instructions: 9000003 cycles: 3532061 heartbeat IPC: 2.55465 cumulative IPC: 2.54809 (Simulation time: 0 hr 5 min 32 sec) 
Heartbeat CPU 0 instructions: 10000000 cycles: 3923435 heartbeat IPC: 2.55509 cumulative IPC: 2.54879 (Simulation time: 0 hr 6 min 9 sec) 

Warmup complete CPU 0 instructions: 10000004 cycles: 3923436 (Simulation time: 0 hr 6 min 9 sec) 

Heartbeat CPU 0 instructions: 11000002 cycles: 5468799 heartbeat IPC: 0.647098 cumulative IPC: 0.647096 (Simulation time: 0 hr 6 min 52 sec) 
Heartbeat CPU 0 instructions: 12000000 cycles: 6912527 heartbeat IPC: 0.69265 cumulative IPC: 0.669098 (Simulation time: 0 hr 7 min 34 sec) 
Heartbeat CPU 0 instructions: 13000002 cycles: 8402958 heartbeat IPC: 0.670948 cumulative IPC: 0.669714 (Simulation time: 0 hr 8 min 18 sec) 
Heartbeat CPU 0 instructions: 14000003 cycles: 9942990 heartbeat IPC: 0.649338 cumulative IPC: 0.664501 (Simulation time: 0 hr 9 min 3 sec) 
Heartbeat CPU 0 instructions: 15000003 cycles: 11391466 heartbeat IPC: 0.690381 cumulative IPC: 0.66952 (Simulation time: 0 hr 9 min 45 sec) 
Heartbeat CPU 0 instructions: 16000000 cycles: 12835770 heartbeat IPC: 0.692373 cumulative IPC: 0.673224 (Simulation time: 0 hr 10 min 30 sec) 
Heartbeat CPU 0 instructions: 17000000 cycles: 14380431 heartbeat IPC: 0.647391 cumulative IPC: 0.669408 (Simulation time: 0 hr 11 min 14 sec) 
Heartbeat CPU 0 instructions: 18000002 cycles: 15860005 heartbeat IPC: 0.675872 cumulative IPC: 0.670209 (Simulation time: 0 hr 12 min 0 sec) 
Heartbeat CPU 0 instructions: 19000002 cycles: 17314695 heartbeat IPC: 0.687432 cumulative IPC: 0.67208 (Simulation time: 0 hr 12 min 45 sec) 
Heartbeat CPU 0 instructions: 20000000 cycles: 18764167 heartbeat IPC: 0.689905 cumulative IPC: 0.673821 (Simulation time: 0 hr 13 min 33 sec) 
Heartbeat CPU 0 instructions: 21000003 cycles: 20281890 heartbeat IPC: 0.658884 cumulative IPC: 0.672435 (Simulation time: 0 hr 14 min 19 sec) 
Heartbeat CPU 0 instructions: 22000002 cycles: 21702854 heartbeat IPC: 0.703747 cumulative IPC: 0.674938 (Simulation time: 0 hr 15 min 4 sec) 
Heartbeat CPU 0 instructions: 23000001 cycles: 23136985 heartbeat IPC: 0.697286 cumulative IPC: 0.676606 (Simulation time: 0 hr 15 min 50 sec) 
Heartbeat CPU 0 instructions: 24000000 cycles: 24621526 heartbeat IPC: 0.673608 cumulative IPC: 0.676391 (Simulation time: 0 hr 16 min 33 sec) 
Heartbeat CPU 0 instructions: 25000003 cycles: 26079183 heartbeat IPC: 0.686035 cumulative IPC: 0.677025 (Simulation time: 0 hr 17 min 16 sec) 
Heartbeat CPU 0 instructions: 26000002 cycles: 27552027 heartbeat IPC: 0.678958 cumulative IPC: 0.677146 (Simulation time: 0 hr 17 min 59 sec) 
Heartbeat CPU 0 instructions: 27000001 cycles: 28991502 heartbeat IPC: 0.694697 cumulative IPC: 0.678154 (Simulation time: 0 hr 18 min 44 sec) 
Heartbeat CPU 0 instructions: 28000000 cycles: 30534292 heartbeat IPC: 0.648176 cumulative IPC: 0.676416 (Simulation time: 0 hr 19 min 24 sec) 
Heartbeat CPU 0 instructions: 29000002 cycles: 31975928 heartbeat IPC: 0.693658 cumulative IPC: 0.677302 (Simulation time: 0 hr 20 min 1 sec) 
Heartbeat CPU 0 instructions: 30000003 cycles: 33451583 heartbeat IPC: 0.677666 cumulative IPC: 0.67732 (Simulation time: 0 hr 20 min 41 sec) 
Heartbeat CPU 0 instructions: 31000001 cycles: 34922704 heartbeat IPC: 0.679752 cumulative IPC: 0.677435 (Simulation time: 0 hr 21 min 14 sec) 
Heartbeat CPU 0 instructions: 32000000 cycles: 36370508 heartbeat IPC: 0.690701 cumulative IPC: 0.678027 (Simulation time: 0 hr 21 min 51 sec) 
Heartbeat CPU 0 instructions: 33000000 cycles: 37875197 heartbeat IPC: 0.664589 cumulative IPC: 0.677432 (Simulation time: 0 hr 22 min 26 sec) 
Heartbeat CPU 0 instructions: 34000002 cycles: 39372174 heartbeat IPC: 0.668014 cumulative IPC: 0.677034 (Simulation time: 0 hr 23 min 3 sec) 
Heartbeat CPU 0 instructions: 35000001 cycles: 40854199 heartbeat IPC: 0.674752 cumulative IPC: 0.676942 (Simulation time: 0 hr 23 min 40 sec) 
Heartbeat CPU 0 instructions: 36000000 cycles: 42346136 heartbeat IPC: 0.670269 cumulative IPC: 0.676683 (Simulation time: 0 hr 24 min 19 sec) 
Heartbeat CPU 0 instructions: 37000002 cycles: 43793461 heartbeat IPC: 0.690931 cumulative IPC: 0.6772 (Simulation time: 0 hr 24 min 54 sec) 
Heartbeat CPU 0 instructions: 38000000 cycles: 45267116 heartbeat IPC: 0.678584 cumulative IPC: 0.67725 (Simulation time: 0 hr 25 min 32 sec) 
Heartbeat CPU 0 instructions: 39000003 cycles: 46753326 heartbeat IPC: 0.672854 cumulative IPC: 0.677097 (Simulation time: 0 hr 26 min 9 sec) 
Heartbeat CPU 0 instructions: 40000000 cycles: 48188341 heartbeat IPC: 0.696855 cumulative IPC: 0.677738 (Simulation time: 0 hr 26 min 49 sec) 
Heartbeat CPU 0 instructions: 41000002 cycles: 49663488 heartbeat IPC: 0.6779 cumulative IPC: 0.677743 (Simulation time: 0 hr 27 min 27 sec) 
Heartbeat CPU 0 instructions: 42000000 cycles: 51114198 heartbeat IPC: 0.689316 cumulative IPC: 0.678099 (Simulation time: 0 hr 28 min 6 sec) 
Heartbeat CPU 0 instructions: 43000002 cycles: 52577411 heartbeat IPC: 0.683429 cumulative IPC: 0.678259 (Simulation time: 0 hr 28 min 45 sec) 
Heartbeat CPU 0 instructions: 44000000 cycles: 54105506 heartbeat IPC: 0.654408 cumulative IPC: 0.677533 (Simulation time: 0 hr 29 min 22 sec) 
Heartbeat CPU 0 instructions: 45000000 cycles: 55564581 heartbeat IPC: 0.685366 cumulative IPC: 0.677754 (Simulation time: 0 hr 30 min 6 sec) 
Heartbeat CPU 0 instructions: 46000003 cycles: 57038969 heartbeat IPC: 0.67825 cumulative IPC: 0.677768 (Simulation time: 0 hr 30 min 44 sec) 
Heartbeat CPU 0 instructions: 47000002 cycles: 58512139 heartbeat IPC: 0.678808 cumulative IPC: 0.677796 (Simulation time: 0 hr 31 min 20 sec) 
Heartbeat CPU 0 instructions: 48000000 cycles: 60050578 heartbeat IPC: 0.650008 cumulative IPC: 0.677034 (Simulation time: 0 hr 31 min 59 sec) 
Heartbeat CPU 0 instructions: 49000000 cycles: 61492483 heartbeat IPC: 0.693527 cumulative IPC: 0.677447 (Simulation time: 0 hr 32 min 34 sec) 
Heartbeat CPU 0 instructions: 50000003 cycles: 62950456 heartbeat IPC: 0.685886 cumulative IPC: 0.677656 (Simulation time: 0 hr 33 min 15 sec) 
Heartbeat CPU 0 instructions: 51000001 cycles: 64486374 heartbeat IPC: 0.651075 cumulative IPC: 0.676982 (Simulation time: 0 hr 33 min 56 sec) 
Heartbeat CPU 0 instructions: 52000000 cycles: 65933093 heartbeat IPC: 0.691219 cumulative IPC: 0.677314 (Simulation time: 0 hr 34 min 32 sec) 
Heartbeat CPU 0 instructions: 53000002 cycles: 67369351 heartbeat IPC: 0.696255 cumulative IPC: 0.677743 (Simulation time: 0 hr 35 min 7 sec) 
Heartbeat CPU 0 instructions: 54000002 cycles: 68846647 heartbeat IPC: 0.676912 cumulative IPC: 0.677724 (Simulation time: 0 hr 35 min 49 sec) 
Heartbeat CPU 0 instructions: 55000001 cycles: 70337599 heartbeat IPC: 0.670712 cumulative IPC: 0.677566 (Simulation time: 0 hr 36 min 25 sec) 
Heartbeat CPU 0 instructions: 56000000 cycles: 71823413 heartbeat IPC: 0.673031 cumulative IPC: 0.677467 (Simulation time: 0 hr 37 min 4 sec) 
Heartbeat CPU 0 instructions: 57000003 cycles: 73258371 heartbeat IPC: 0.696887 cumulative IPC: 0.677869 (Simulation time: 0 hr 37 min 37 sec) 
Heartbeat CPU 0 instructions: 58000003 cycles: 74785334 heartbeat IPC: 0.654895 cumulative IPC: 0.677374 (Simulation time: 0 hr 38 min 15 sec) 
Heartbeat CPU 0 instructions: 59000002 cycles: 76283622 heartbeat IPC: 0.667428 cumulative IPC: 0.677168 (Simulation time: 0 hr 38 min 51 sec) 
Heartbeat CPU 0 instructions: 60000000 cycles: 77771595 heartbeat IPC: 0.672054 cumulative IPC: 0.677065 (Simulation time: 0 hr 39 min 28 sec) 
Heartbeat CPU 0 instructions: 61000003 cycles: 79272518 heartbeat IPC: 0.666259 cumulative IPC: 0.67685 (Simulation time: 0 hr 40 min 2 sec) 
Heartbeat CPU 0 instructions: 62000001 cycles: 80729324 heartbeat IPC: 0.686432 cumulative IPC: 0.677031 (Simulation time: 0 hr 40 min 39 sec) 
Heartbeat CPU 0 instructions: 63000001 cycles: 82186951 heartbeat IPC: 0.686047 cumulative IPC: 0.677199 (Simulation time: 0 hr 41 min 15 sec) 
Heartbeat CPU 0 instructions: 64000000 cycles: 83616650 heartbeat IPC: 0.699447 cumulative IPC: 0.677598 (Simulation time: 0 hr 41 min 57 sec) 
Heartbeat CPU 0 instructions: 65000000 cycles: 85127684 heartbeat IPC: 0.661798 cumulative IPC: 0.677304 (Simulation time: 0 hr 42 min 31 sec) 
Heartbeat CPU 0 instructions: 66000000 cycles: 86575541 heartbeat IPC: 0.690676 cumulative IPC: 0.677539 (Simulation time: 0 hr 43 min 3 sec) 
Heartbeat CPU 0 instructions: 67000000 cycles: 88023464 heartbeat IPC: 0.690644 cumulative IPC: 0.677764 (Simulation time: 0 hr 43 min 38 sec) 
Heartbeat CPU 0 instructions: 68000000 cycles: 89497844 heartbeat IPC: 0.678251 cumulative IPC: 0.677773 (Simulation time: 0 hr 44 min 12 sec) 
Heartbeat CPU 0 instructions: 69000000 cycles: 90957469 heartbeat IPC: 0.685107 cumulative IPC: 0.677896 (Simulation time: 0 hr 44 min 46 sec) 
Heartbeat CPU 0 instructions: 70000000 cycles: 92403652 heartbeat IPC: 0.691475 cumulative IPC: 0.678118 (Simulation time: 0 hr 45 min 28 sec) 
Heartbeat CPU 0 instructions: 71000002 cycles: 93885753 heartbeat IPC: 0.674719 cumulative IPC: 0.678062 (Simulation time: 0 hr 46 min 2 sec) 
Heartbeat CPU 0 instructions: 72000000 cycles: 96188924 heartbeat IPC: 0.434183 cumulative IPC: 0.671974 (Simulation time: 0 hr 46 min 52 sec) 
Heartbeat CPU 0 instructions: 73000002 cycles: 99311909 heartbeat IPC: 0.320207 cumulative IPC: 0.660457 (Simulation time: 0 hr 47 min 41 sec) 
Heartbeat CPU 0 instructions: 74000002 cycles: 105625522 heartbeat IPC: 0.158388 cumulative IPC: 0.629289 (Simulation time: 0 hr 49 min 10 sec) 
Heartbeat CPU 0 instructions: 75000003 cycles: 108045454 heartbeat IPC: 0.413235 cumulative IPC: 0.624268 (Simulation time: 0 hr 49 min 56 sec) 
Heartbeat CPU 0 instructions: 76000000 cycles: 110114415 heartbeat IPC: 0.483333 cumulative IPC: 0.621522 (Simulation time: 0 hr 50 min 35 sec) 
Heartbeat CPU 0 instructions: 77000000 cycles: 111472285 heartbeat IPC: 0.736448 cumulative IPC: 0.622973 (Simulation time: 0 hr 51 min 8 sec) 
Heartbeat CPU 0 instructions: 78000002 cycles: 112817036 heartbeat IPC: 0.743634 cumulative IPC: 0.624463 (Simulation time: 0 hr 51 min 43 sec) 
Heartbeat CPU 0 instructions: 79000000 cycles: 114274793 heartbeat IPC: 0.685984 cumulative IPC: 0.625275 (Simulation time: 0 hr 52 min 17 sec) 
Heartbeat CPU 0 instructions: 80000000 cycles: 115741530 heartbeat IPC: 0.681785 cumulative IPC: 0.626017 (Simulation time: 0 hr 52 min 49 sec) 
Heartbeat CPU 0 instructions: 81000001 cycles: 117168096 heartbeat IPC: 0.700985 cumulative IPC: 0.626961 (Simulation time: 0 hr 53 min 22 sec) 
Heartbeat CPU 0 instructions: 82000002 cycles: 118605228 heartbeat IPC: 0.695831 cumulative IPC: 0.627824 (Simulation time: 0 hr 53 min 57 sec) 
Heartbeat CPU 0 instructions: 83000003 cycles: 120122609 heartbeat IPC: 0.659031 cumulative IPC: 0.628232 (Simulation time: 0 hr 54 min 32 sec) 
Heartbeat CPU 0 instructions: 84000000 cycles: 121590669 heartbeat IPC: 0.681169 cumulative IPC: 0.628892 (Simulation time: 0 hr 55 min 6 sec) 
Heartbeat CPU 0 instructions: 85000000 cycles: 123045742 heartbeat IPC: 0.687251 cumulative IPC: 0.629605 (Simulation time: 0 hr 55 min 43 sec) 
Heartbeat CPU 0 instructions: 86000000 cycles: 124604514 heartbeat IPC: 0.641531 cumulative IPC: 0.629759 (Simulation time: 0 hr 56 min 18 sec) 
Heartbeat CPU 0 instructions: 87000002 cycles: 126089730 heartbeat IPC: 0.673304 cumulative IPC: 0.630288 (Simulation time: 0 hr 56 min 58 sec) 
Heartbeat CPU 0 instructions: 88000000 cycles: 127531338 heartbeat IPC: 0.693668 cumulative IPC: 0.631028 (Simulation time: 0 hr 57 min 30 sec) 
Heartbeat CPU 0 instructions: 89000003 cycles: 129015449 heartbeat IPC: 0.673806 cumulative IPC: 0.631535 (Simulation time: 0 hr 58 min 1 sec) 
Heartbeat CPU 0 instructions: 90000002 cycles: 130530250 heartbeat IPC: 0.660152 cumulative IPC: 0.631877 (Simulation time: 0 hr 58 min 32 sec) 
Heartbeat CPU 0 instructions: 91000001 cycles: 131998342 heartbeat IPC: 0.681156 cumulative IPC: 0.632442 (Simulation time: 0 hr 59 min 0 sec) 
Heartbeat CPU 0 instructions: 92000000 cycles: 133453568 heartbeat IPC: 0.687178 cumulative IPC: 0.633057 (Simulation time: 0 hr 59 min 35 sec) 
Heartbeat CPU 0 instructions: 93000003 cycles: 134995115 heartbeat IPC: 0.648701 cumulative IPC: 0.633241 (Simulation time: 1 hr 0 min 3 sec) 
Heartbeat CPU 0 instructions: 94000003 cycles: 136434357 heartbeat IPC: 0.69481 cumulative IPC: 0.63391 (Simulation time: 1 hr 0 min 27 sec) 
Heartbeat CPU 0 instructions: 95000000 cycles: 137857564 heartbeat IPC: 0.702636 cumulative IPC: 0.63464 (Simulation time: 1 hr 0 min 50 sec) 
Heartbeat CPU 0 instructions: 96000000 cycles: 139381855 heartbeat IPC: 0.656043 cumulative IPC: 0.634881 (Simulation time: 1 hr 1 min 12 sec) 
Heartbeat CPU 0 instructions: 97000002 cycles: 140867361 heartbeat IPC: 0.673173 cumulative IPC: 0.635297 (Simulation time: 1 hr 1 min 34 sec) 
Heartbeat CPU 0 instructions: 98000001 cycles: 142273909 heartbeat IPC: 0.71096 cumulative IPC: 0.636066 (Simulation time: 1 hr 1 min 55 sec) 
Heartbeat CPU 0 instructions: 99000000 cycles: 143723058 heartbeat IPC: 0.690059 cumulative IPC: 0.636625 (Simulation time: 1 hr 2 min 16 sec) 
Heartbeat CPU 0 instructions: 100000000 cycles: 145269419 heartbeat IPC: 0.64668 cumulative IPC: 0.636735 (Simulation time: 1 hr 2 min 39 sec) 
Heartbeat CPU 0 instructions: 101000000 cycles: 146695053 heartbeat IPC: 0.701442 cumulative IPC: 0.637382 (Simulation time: 1 hr 3 min 0 sec) 
Heartbeat CPU 0 instructions: 102000000 cycles: 148175630 heartbeat IPC: 0.675412 cumulative IPC: 0.637772 (Simulation time: 1 hr 3 min 23 sec) 
Heartbeat CPU 0 instructions: 103000001 cycles: 149746269 heartbeat IPC: 0.636684 cumulative IPC: 0.63776 (Simulation time: 1 hr 3 min 44 sec) 
Heartbeat CPU 0 instructions: 104000000 cycles: 151217722 heartbeat IPC: 0.6796 cumulative IPC: 0.638178 (Simulation time: 1 hr 4 min 5 sec) 
Heartbeat CPU 0 instructions: 105000001 cycles: 152663885 heartbeat IPC: 0.691486 cumulative IPC: 0.638696 (Simulation time: 1 hr 4 min 25 sec) 
Heartbeat CPU 0 instructions: 106000000 cycles: 154080339 heartbeat IPC: 0.705988 cumulative IPC: 0.639331 (Simulation time: 1 hr 4 min 45 sec) 
Heartbeat CPU 0 instructions: 107000000 cycles: 155631701 heartbeat IPC: 0.644595 cumulative IPC: 0.639385 (Simulation time: 1 hr 5 min 6 sec) 
Heartbeat CPU 0 instructions: 108000000 cycles: 157093670 heartbeat IPC: 0.684009 cumulative IPC: 0.639811 (Simulation time: 1 hr 5 min 26 sec) 
Heartbeat CPU 0 instructions: 109000003 cycles: 158499198 heartbeat IPC: 0.711479 cumulative IPC: 0.640463 (Simulation time: 1 hr 5 min 45 sec) 
Heartbeat CPU 0 instructions: 110000001 cycles: 160010646 heartbeat IPC: 0.661616 cumulative IPC: 0.640667 (Simulation time: 1 hr 6 min 3 sec) 
Finished CPU 0 instructions: 100000001 cycles: 156087211 cummulative IPC: 0.640667 (Simulation time: 1 hr 6 min 3 sec) 

ChampSim completed all CPUs

Region of Interest Statistics

CPU 0 cummulative IPC: 0.640667 instructions: 100000001 cycles: 156087211
LLC TOTAL     ACCESS:    5796887  HIT:    1460730  MISS:    4336157
LLC LOAD      ACCESS:     418136  HIT:      19259  MISS:     398877
LLC RFO       ACCESS:    2473111  HIT:     357214  MISS:    2115897
LLC PREFETCH  ACCESS:     432522  HIT:      25130  MISS:     407392
LLC WRITEBACK ACCESS:    2473118  HIT:    1059127  MISS:    1413991
Insertion Distribution: 
	LOAD 0 0 4017 425015 
	RFO 182580 0 495152 1633224 
	PREF 0 12594 55829 382425 
	WRITEBACK 0 0 0 1528755 
Total Prefetch Downgrades: 19235
