
*** ChampSim Multicore Out-of-Order Simulator ***

Warmup Instructions: 10000000
Simulation Instructions: 100000000
Configuration: 2
Number of CPUs: 1
LLC sets: 2048
LLC ways: 16
Off-chip DRAM Channels: 1 Width: 64-bit Data Rate: 1600 MT/s

CPU 0 runs /datasets/cs240c-wi22-a00-public/data/Assignment2-gz/wrf_1228B.trace.gz
CPU 0 L1D next line prefetcher
CPU 0 L2C IP-based stride prefetcher
Initialize SRRIP state
Heartbeat CPU 0 instructions: 1000003 cycles: 591063 heartbeat IPC: 1.69187 cumulative IPC: 1.69187 (Simulation time: 0 hr 0 min 47 sec) 
Heartbeat CPU 0 instructions: 2000003 cycles: 1111225 heartbeat IPC: 1.92248 cumulative IPC: 1.79982 (Simulation time: 0 hr 1 min 29 sec) 
Heartbeat CPU 0 instructions: 3000000 cycles: 1729191 heartbeat IPC: 1.61821 cumulative IPC: 1.73492 (Simulation time: 0 hr 2 min 13 sec) 
Heartbeat CPU 0 instructions: 4000000 cycles: 2349843 heartbeat IPC: 1.61121 cumulative IPC: 1.70224 (Simulation time: 0 hr 3 min 0 sec) 
Heartbeat CPU 0 instructions: 5000000 cycles: 3052207 heartbeat IPC: 1.42376 cumulative IPC: 1.63816 (Simulation time: 0 hr 3 min 45 sec) 
Heartbeat CPU 0 instructions: 6000000 cycles: 3612295 heartbeat IPC: 1.78543 cumulative IPC: 1.66099 (Simulation time: 0 hr 4 min 28 sec) 
Heartbeat CPU 0 instructions: 7000001 cycles: 4165054 heartbeat IPC: 1.80911 cumulative IPC: 1.68065 (Simulation time: 0 hr 5 min 11 sec) 
Heartbeat CPU 0 instructions: 8000000 cycles: 4716418 heartbeat IPC: 1.81368 cumulative IPC: 1.6962 (Simulation time: 0 hr 5 min 54 sec) 
Heartbeat CPU 0 instructions: 9000002 cycles: 5266604 heartbeat IPC: 1.81757 cumulative IPC: 1.70888 (Simulation time: 0 hr 6 min 35 sec) 
Heartbeat CPU 0 instructions: 10000001 cycles: 5819502 heartbeat IPC: 1.80865 cumulative IPC: 1.71836 (Simulation time: 0 hr 7 min 14 sec) 

Warmup complete CPU 0 instructions: 10000001 cycles: 5819502 (Simulation time: 0 hr 7 min 14 sec) 

Heartbeat CPU 0 instructions: 11000003 cycles: 6770258 heartbeat IPC: 1.0518 cumulative IPC: 1.0518 (Simulation time: 0 hr 7 min 55 sec) 
Heartbeat CPU 0 instructions: 12000000 cycles: 7760463 heartbeat IPC: 1.00989 cumulative IPC: 1.03042 (Simulation time: 0 hr 8 min 36 sec) 
Heartbeat CPU 0 instructions: 13000003 cycles: 8757308 heartbeat IPC: 1.00317 cumulative IPC: 1.02117 (Simulation time: 0 hr 9 min 18 sec) 
Heartbeat CPU 0 instructions: 14000002 cycles: 9710235 heartbeat IPC: 1.0494 cumulative IPC: 1.02808 (Simulation time: 0 hr 9 min 57 sec) 
Heartbeat CPU 0 instructions: 15000001 cycles: 10554552 heartbeat IPC: 1.18439 cumulative IPC: 1.05596 (Simulation time: 0 hr 10 min 36 sec) 
Heartbeat CPU 0 instructions: 16000000 cycles: 11402691 heartbeat IPC: 1.17905 cumulative IPC: 1.07465 (Simulation time: 0 hr 11 min 16 sec) 
Heartbeat CPU 0 instructions: 17000002 cycles: 12305255 heartbeat IPC: 1.10796 cumulative IPC: 1.07929 (Simulation time: 0 hr 11 min 53 sec) 
Heartbeat CPU 0 instructions: 18000003 cycles: 13199456 heartbeat IPC: 1.11832 cumulative IPC: 1.08402 (Simulation time: 0 hr 12 min 29 sec) 
Heartbeat CPU 0 instructions: 19000000 cycles: 14085275 heartbeat IPC: 1.1289 cumulative IPC: 1.08883 (Simulation time: 0 hr 13 min 8 sec) 
Heartbeat CPU 0 instructions: 20000000 cycles: 14985317 heartbeat IPC: 1.11106 cumulative IPC: 1.09101 (Simulation time: 0 hr 13 min 48 sec) 
Heartbeat CPU 0 instructions: 21000000 cycles: 15899506 heartbeat IPC: 1.09387 cumulative IPC: 1.09127 (Simulation time: 0 hr 14 min 28 sec) 
Heartbeat CPU 0 instructions: 22000000 cycles: 16831099 heartbeat IPC: 1.07343 cumulative IPC: 1.08976 (Simulation time: 0 hr 15 min 6 sec) 
Heartbeat CPU 0 instructions: 23000003 cycles: 17740283 heartbeat IPC: 1.09989 cumulative IPC: 1.09053 (Simulation time: 0 hr 15 min 49 sec) 
Heartbeat CPU 0 instructions: 24000000 cycles: 18698233 heartbeat IPC: 1.04389 cumulative IPC: 1.08706 (Simulation time: 0 hr 16 min 26 sec) 
Heartbeat CPU 0 instructions: 25000000 cycles: 19703415 heartbeat IPC: 0.994845 cumulative IPC: 1.08039 (Simulation time: 0 hr 17 min 7 sec) 
Heartbeat CPU 0 instructions: 26000003 cycles: 20713496 heartbeat IPC: 0.990023 cumulative IPC: 1.07426 (Simulation time: 0 hr 17 min 49 sec) 
Heartbeat CPU 0 instructions: 27000003 cycles: 21757095 heartbeat IPC: 0.958222 cumulative IPC: 1.06666 (Simulation time: 0 hr 18 min 27 sec) 
Heartbeat CPU 0 instructions: 28000000 cycles: 22829382 heartbeat IPC: 0.932583 cumulative IPC: 1.05821 (Simulation time: 0 hr 19 min 5 sec) 
Heartbeat CPU 0 instructions: 29000003 cycles: 24316962 heartbeat IPC: 0.672235 cumulative IPC: 1.02717 (Simulation time: 0 hr 19 min 49 sec) 
Heartbeat CPU 0 instructions: 30000000 cycles: 25850145 heartbeat IPC: 0.652236 cumulative IPC: 0.99847 (Simulation time: 0 hr 20 min 26 sec) 
Heartbeat CPU 0 instructions: 31000003 cycles: 27578702 heartbeat IPC: 0.578519 cumulative IPC: 0.965109 (Simulation time: 0 hr 21 min 10 sec) 
Heartbeat CPU 0 instructions: 32000000 cycles: 29401801 heartbeat IPC: 0.548515 cumulative IPC: 0.932903 (Simulation time: 0 hr 21 min 58 sec) 
Heartbeat CPU 0 instructions: 33000001 cycles: 30773080 heartbeat IPC: 0.729247 cumulative IPC: 0.921712 (Simulation time: 0 hr 22 min 42 sec) 
Heartbeat CPU 0 instructions: 34000002 cycles: 32239248 heartbeat IPC: 0.682051 cumulative IPC: 0.908412 (Simulation time: 0 hr 23 min 19 sec) 
Heartbeat CPU 0 instructions: 35000001 cycles: 34043665 heartbeat IPC: 0.554195 cumulative IPC: 0.885766 (Simulation time: 0 hr 24 min 2 sec) 
Heartbeat CPU 0 instructions: 36000000 cycles: 34998053 heartbeat IPC: 1.04779 cumulative IPC: 0.891065 (Simulation time: 0 hr 24 min 40 sec) 
Heartbeat CPU 0 instructions: 37000001 cycles: 35932998 heartbeat IPC: 1.06958 cumulative IPC: 0.896608 (Simulation time: 0 hr 25 min 20 sec) 
Heartbeat CPU 0 instructions: 38000003 cycles: 36857907 heartbeat IPC: 1.08119 cumulative IPC: 0.902108 (Simulation time: 0 hr 25 min 54 sec) 
Heartbeat CPU 0 instructions: 39000002 cycles: 37801864 heartbeat IPC: 1.05937 cumulative IPC: 0.90675 (Simulation time: 0 hr 26 min 26 sec) 
Heartbeat CPU 0 instructions: 40000000 cycles: 38735641 heartbeat IPC: 1.07092 cumulative IPC: 0.911407 (Simulation time: 0 hr 26 min 59 sec) 
Heartbeat CPU 0 instructions: 41000000 cycles: 39693228 heartbeat IPC: 1.04429 cumulative IPC: 0.915164 (Simulation time: 0 hr 27 min 32 sec) 
Heartbeat CPU 0 instructions: 42000002 cycles: 40645556 heartbeat IPC: 1.05006 cumulative IPC: 0.918852 (Simulation time: 0 hr 28 min 4 sec) 
Heartbeat CPU 0 instructions: 43000000 cycles: 41593979 heartbeat IPC: 1.05438 cumulative IPC: 0.922445 (Simulation time: 0 hr 28 min 38 sec) 
Heartbeat CPU 0 instructions: 44000000 cycles: 42435985 heartbeat IPC: 1.18764 cumulative IPC: 0.928544 (Simulation time: 0 hr 29 min 9 sec) 
Heartbeat CPU 0 instructions: 45000000 cycles: 43266768 heartbeat IPC: 1.20368 cumulative IPC: 0.934648 (Simulation time: 0 hr 29 min 37 sec) 
Heartbeat CPU 0 instructions: 46000001 cycles: 44132278 heartbeat IPC: 1.15539 cumulative IPC: 0.939634 (Simulation time: 0 hr 30 min 7 sec) 
Heartbeat CPU 0 instructions: 47000001 cycles: 45005326 heartbeat IPC: 1.14541 cumulative IPC: 0.944219 (Simulation time: 0 hr 30 min 40 sec) 
Heartbeat CPU 0 instructions: 48000000 cycles: 45865437 heartbeat IPC: 1.16264 cumulative IPC: 0.94891 (Simulation time: 0 hr 31 min 15 sec) 
Heartbeat CPU 0 instructions: 49000001 cycles: 46756429 heartbeat IPC: 1.12235 cumulative IPC: 0.952685 (Simulation time: 0 hr 31 min 45 sec) 
Heartbeat CPU 0 instructions: 50000002 cycles: 47653733 heartbeat IPC: 1.11445 cumulative IPC: 0.956155 (Simulation time: 0 hr 32 min 14 sec) 
Heartbeat CPU 0 instructions: 51000001 cycles: 48537235 heartbeat IPC: 1.13186 cumulative IPC: 0.959789 (Simulation time: 0 hr 32 min 45 sec) 
Heartbeat CPU 0 instructions: 52000000 cycles: 49465705 heartbeat IPC: 1.07704 cumulative IPC: 0.962283 (Simulation time: 0 hr 33 min 19 sec) 
Heartbeat CPU 0 instructions: 53000002 cycles: 50467761 heartbeat IPC: 0.99795 cumulative IPC: 0.963084 (Simulation time: 0 hr 33 min 52 sec) 
Heartbeat CPU 0 instructions: 54000001 cycles: 51467628 heartbeat IPC: 1.00013 cumulative IPC: 0.963895 (Simulation time: 0 hr 34 min 26 sec) 
Heartbeat CPU 0 instructions: 55000003 cycles: 52436149 heartbeat IPC: 1.0325 cumulative IPC: 0.96532 (Simulation time: 0 hr 35 min 1 sec) 
Heartbeat CPU 0 instructions: 56000000 cycles: 53434983 heartbeat IPC: 1.00116 cumulative IPC: 0.966072 (Simulation time: 0 hr 35 min 35 sec) 
Heartbeat CPU 0 instructions: 57000001 cycles: 54442753 heartbeat IPC: 0.992291 cumulative IPC: 0.966616 (Simulation time: 0 hr 36 min 9 sec) 
Heartbeat CPU 0 instructions: 58000000 cycles: 55435743 heartbeat IPC: 1.00706 cumulative IPC: 0.967425 (Simulation time: 0 hr 36 min 42 sec) 
Heartbeat CPU 0 instructions: 59000001 cycles: 57190004 heartbeat IPC: 0.570041 cumulative IPC: 0.953855 (Simulation time: 0 hr 37 min 23 sec) 
Heartbeat CPU 0 instructions: 60000000 cycles: 58865397 heartbeat IPC: 0.596874 cumulative IPC: 0.94258 (Simulation time: 0 hr 38 min 3 sec) 
Heartbeat CPU 0 instructions: 61000000 cycles: 60641175 heartbeat IPC: 0.563133 cumulative IPC: 0.930289 (Simulation time: 0 hr 38 min 45 sec) 
Heartbeat CPU 0 instructions: 62000000 cycles: 62267417 heartbeat IPC: 0.614915 cumulative IPC: 0.921203 (Simulation time: 0 hr 39 min 23 sec) 
Heartbeat CPU 0 instructions: 63000001 cycles: 63675352 heartbeat IPC: 0.710261 cumulative IPC: 0.91607 (Simulation time: 0 hr 40 min 7 sec) 
Heartbeat CPU 0 instructions: 64000000 cycles: 65185152 heartbeat IPC: 0.662339 cumulative IPC: 0.909617 (Simulation time: 0 hr 40 min 46 sec) 
Heartbeat CPU 0 instructions: 65000003 cycles: 66679977 heartbeat IPC: 0.668977 cumulative IPC: 0.903706 (Simulation time: 0 hr 41 min 28 sec) 
Heartbeat CPU 0 instructions: 66000000 cycles: 68175525 heartbeat IPC: 0.668649 cumulative IPC: 0.898069 (Simulation time: 0 hr 42 min 10 sec) 
Heartbeat CPU 0 instructions: 67000000 cycles: 69670047 heartbeat IPC: 0.66911 cumulative IPC: 0.89271 (Simulation time: 0 hr 42 min 48 sec) 
Heartbeat CPU 0 instructions: 68000000 cycles: 71164496 heartbeat IPC: 0.669143 cumulative IPC: 0.887597 (Simulation time: 0 hr 43 min 27 sec) 
Heartbeat CPU 0 instructions: 69000000 cycles: 72671831 heartbeat IPC: 0.663423 cumulative IPC: 0.882542 (Simulation time: 0 hr 44 min 6 sec) 
Heartbeat CPU 0 instructions: 70000001 cycles: 74168410 heartbeat IPC: 0.668191 cumulative IPC: 0.877849 (Simulation time: 0 hr 44 min 49 sec) 
Heartbeat CPU 0 instructions: 71000001 cycles: 75662584 heartbeat IPC: 0.669266 cumulative IPC: 0.873386 (Simulation time: 0 hr 45 min 34 sec) 
Heartbeat CPU 0 instructions: 72000000 cycles: 77145537 heartbeat IPC: 0.67433 cumulative IPC: 0.869248 (Simulation time: 0 hr 46 min 20 sec) 
Heartbeat CPU 0 instructions: 73000003 cycles: 78633243 heartbeat IPC: 0.672178 cumulative IPC: 0.865221 (Simulation time: 0 hr 46 min 59 sec) 
Heartbeat CPU 0 instructions: 74000000 cycles: 80130770 heartbeat IPC: 0.667766 cumulative IPC: 0.861242 (Simulation time: 0 hr 47 min 36 sec) 
Heartbeat CPU 0 instructions: 75000001 cycles: 81624741 heartbeat IPC: 0.669358 cumulative IPC: 0.85746 (Simulation time: 0 hr 48 min 17 sec) 
Heartbeat CPU 0 instructions: 76000000 cycles: 83121305 heartbeat IPC: 0.668197 cumulative IPC: 0.853796 (Simulation time: 0 hr 48 min 58 sec) 
Heartbeat CPU 0 instructions: 77000003 cycles: 84615225 heartbeat IPC: 0.669382 cumulative IPC: 0.8503 (Simulation time: 0 hr 49 min 41 sec) 
Heartbeat CPU 0 instructions: 78000001 cycles: 86109916 heartbeat IPC: 0.669033 cumulative IPC: 0.846925 (Simulation time: 0 hr 50 min 23 sec) 
Heartbeat CPU 0 instructions: 79000000 cycles: 87606347 heartbeat IPC: 0.668256 cumulative IPC: 0.843656 (Simulation time: 0 hr 51 min 3 sec) 
Heartbeat CPU 0 instructions: 80000000 cycles: 89096729 heartbeat IPC: 0.670969 cumulative IPC: 0.840566 (Simulation time: 0 hr 51 min 51 sec) 
Heartbeat CPU 0 instructions: 81000001 cycles: 90580662 heartbeat IPC: 0.673886 cumulative IPC: 0.837648 (Simulation time: 0 hr 52 min 30 sec) 
Heartbeat CPU 0 instructions: 82000000 cycles: 92063625 heartbeat IPC: 0.674325 cumulative IPC: 0.834839 (Simulation time: 0 hr 53 min 16 sec) 
Heartbeat CPU 0 instructions: 83000000 cycles: 93546978 heartbeat IPC: 0.674148 cumulative IPC: 0.832122 (Simulation time: 0 hr 53 min 55 sec) 
Heartbeat CPU 0 instructions: 84000000 cycles: 95041877 heartbeat IPC: 0.668941 cumulative IPC: 0.829388 (Simulation time: 0 hr 54 min 37 sec) 
Heartbeat CPU 0 instructions: 85000000 cycles: 96536758 heartbeat IPC: 0.66895 cumulative IPC: 0.826745 (Simulation time: 0 hr 55 min 17 sec) 
Heartbeat CPU 0 instructions: 86000000 cycles: 98030849 heartbeat IPC: 0.669303 cumulative IPC: 0.824194 (Simulation time: 0 hr 55 min 56 sec) 
Heartbeat CPU 0 instructions: 87000000 cycles: 99525702 heartbeat IPC: 0.668962 cumulative IPC: 0.821717 (Simulation time: 0 hr 56 min 33 sec) 
Heartbeat CPU 0 instructions: 88000000 cycles: 101020917 heartbeat IPC: 0.6688 cumulative IPC: 0.819316 (Simulation time: 0 hr 57 min 15 sec) 
Heartbeat CPU 0 instructions: 89000002 cycles: 102516544 heartbeat IPC: 0.668617 cumulative IPC: 0.816985 (Simulation time: 0 hr 58 min 0 sec) 
Heartbeat CPU 0 instructions: 90000000 cycles: 104000880 heartbeat IPC: 0.673701 cumulative IPC: 0.814818 (Simulation time: 0 hr 58 min 39 sec) 
Heartbeat CPU 0 instructions: 91000000 cycles: 105484499 heartbeat IPC: 0.674028 cumulative IPC: 0.812723 (Simulation time: 0 hr 59 min 14 sec) 
Heartbeat CPU 0 instructions: 92000000 cycles: 106968578 heartbeat IPC: 0.673819 cumulative IPC: 0.810685 (Simulation time: 0 hr 59 min 46 sec) 
Heartbeat CPU 0 instructions: 93000000 cycles: 108458320 heartbeat IPC: 0.671257 cumulative IPC: 0.808661 (Simulation time: 1 hr 0 min 14 sec) 
Heartbeat CPU 0 instructions: 94000003 cycles: 109952173 heartbeat IPC: 0.669412 cumulative IPC: 0.806663 (Simulation time: 1 hr 0 min 42 sec) 
Heartbeat CPU 0 instructions: 95000000 cycles: 111448320 heartbeat IPC: 0.668382 cumulative IPC: 0.804705 (Simulation time: 1 hr 1 min 8 sec) 
Heartbeat CPU 0 instructions: 96000000 cycles: 112942273 heartbeat IPC: 0.669365 cumulative IPC: 0.802817 (Simulation time: 1 hr 1 min 33 sec) 
Heartbeat CPU 0 instructions: 97000001 cycles: 114437826 heartbeat IPC: 0.66865 cumulative IPC: 0.80097 (Simulation time: 1 hr 1 min 58 sec) 
Heartbeat CPU 0 instructions: 98000003 cycles: 115933183 heartbeat IPC: 0.668738 cumulative IPC: 0.799174 (Simulation time: 1 hr 2 min 21 sec) 
Heartbeat CPU 0 instructions: 99000000 cycles: 117422286 heartbeat IPC: 0.671543 cumulative IPC: 0.797471 (Simulation time: 1 hr 2 min 46 sec) 
Heartbeat CPU 0 instructions: 100000000 cycles: 118905678 heartbeat IPC: 0.674131 cumulative IPC: 0.795853 (Simulation time: 1 hr 3 min 10 sec) 
Heartbeat CPU 0 instructions: 101000000 cycles: 120388885 heartbeat IPC: 0.674215 cumulative IPC: 0.794279 (Simulation time: 1 hr 3 min 33 sec) 
Heartbeat CPU 0 instructions: 102000003 cycles: 121872473 heartbeat IPC: 0.674044 cumulative IPC: 0.792741 (Simulation time: 1 hr 3 min 56 sec) 
Heartbeat CPU 0 instructions: 103000003 cycles: 123368734 heartbeat IPC: 0.668333 cumulative IPC: 0.791158 (Simulation time: 1 hr 4 min 19 sec) 
Heartbeat CPU 0 instructions: 104000000 cycles: 124863271 heartbeat IPC: 0.669102 cumulative IPC: 0.789626 (Simulation time: 1 hr 4 min 41 sec) 
Heartbeat CPU 0 instructions: 105000000 cycles: 126358081 heartbeat IPC: 0.668981 cumulative IPC: 0.788129 (Simulation time: 1 hr 5 min 4 sec) 
Heartbeat CPU 0 instructions: 106000000 cycles: 127853139 heartbeat IPC: 0.66887 cumulative IPC: 0.786668 (Simulation time: 1 hr 5 min 25 sec) 
Heartbeat CPU 0 instructions: 107000000 cycles: 129348985 heartbeat IPC: 0.668518 cumulative IPC: 0.785238 (Simulation time: 1 hr 5 min 46 sec) 
Heartbeat CPU 0 instructions: 108000000 cycles: 130844566 heartbeat IPC: 0.668636 cumulative IPC: 0.783843 (Simulation time: 1 hr 6 min 6 sec) 
Heartbeat CPU 0 instructions: 109000003 cycles: 132327424 heartbeat IPC: 0.674375 cumulative IPC: 0.78256 (Simulation time: 1 hr 6 min 25 sec) 
Heartbeat CPU 0 instructions: 110000001 cycles: 133810621 heartbeat IPC: 0.674218 cumulative IPC: 0.781304 (Simulation time: 1 hr 6 min 43 sec) 
Finished CPU 0 instructions: 100000000 cycles: 127991119 cummulative IPC: 0.781304 (Simulation time: 1 hr 6 min 43 sec) 

ChampSim completed all CPUs

Region of Interest Statistics

CPU 0 cummulative IPC: 0.781304 instructions: 100000000 cycles: 127991119
LLC TOTAL     ACCESS:    1495358  HIT:     459583  MISS:    1035775
LLC LOAD      ACCESS:      89336  HIT:      25026  MISS:      64310
LLC RFO       ACCESS:     219210  HIT:      36265  MISS:     182945
LLC PREFETCH  ACCESS:     750665  HIT:     158456  MISS:     592209
LLC WRITEBACK ACCESS:     436147  HIT:     239836  MISS:     196311
Insertion Distribution: 
	LOAD 3602 0 13170 52329 
	RFO 33358 0 66439 158251 
	PREF 0 2961 118366 635096 
	WRITEBACK 0 0 0 251680 
Total Prefetch Downgrades: 3581
