
*** ChampSim Multicore Out-of-Order Simulator ***

Warmup Instructions: 10000000
Simulation Instructions: 100000000
Configuration: 2
Number of CPUs: 1
LLC sets: 2048
LLC ways: 16
Off-chip DRAM Channels: 1 Width: 64-bit Data Rate: 1600 MT/s

CPU 0 runs /datasets/cs240c-wi22-a00-public/data/Assignment2-gz/sphinx3_883B.trace.gz
CPU 0 L1D next line prefetcher
CPU 0 L2C IP-based stride prefetcher
Initialize SRRIP state
Heartbeat CPU 0 instructions: 1000003 cycles: 414388 heartbeat IPC: 2.4132 cumulative IPC: 2.4132 (Simulation time: 0 hr 0 min 42 sec) 
Heartbeat CPU 0 instructions: 2000000 cycles: 823942 heartbeat IPC: 2.44167 cumulative IPC: 2.42736 (Simulation time: 0 hr 1 min 20 sec) 
Heartbeat CPU 0 instructions: 3000003 cycles: 1298782 heartbeat IPC: 2.10598 cumulative IPC: 2.30986 (Simulation time: 0 hr 1 min 55 sec) 
Heartbeat CPU 0 instructions: 4000000 cycles: 1637672 heartbeat IPC: 2.9508 cumulative IPC: 2.44249 (Simulation time: 0 hr 2 min 29 sec) 
Heartbeat CPU 0 instructions: 5000000 cycles: 1992321 heartbeat IPC: 2.81969 cumulative IPC: 2.50964 (Simulation time: 0 hr 3 min 2 sec) 
Heartbeat CPU 0 instructions: 6000003 cycles: 2406755 heartbeat IPC: 2.41294 cumulative IPC: 2.49298 (Simulation time: 0 hr 3 min 42 sec) 
Heartbeat CPU 0 instructions: 7000002 cycles: 2815530 heartbeat IPC: 2.44633 cumulative IPC: 2.48621 (Simulation time: 0 hr 4 min 19 sec) 
Heartbeat CPU 0 instructions: 8000000 cycles: 3291734 heartbeat IPC: 2.09994 cumulative IPC: 2.43033 (Simulation time: 0 hr 4 min 56 sec) 
Heartbeat CPU 0 instructions: 9000001 cycles: 3630735 heartbeat IPC: 2.94985 cumulative IPC: 2.47884 (Simulation time: 0 hr 5 min 32 sec) 
Heartbeat CPU 0 instructions: 10000000 cycles: 3984804 heartbeat IPC: 2.82431 cumulative IPC: 2.50953 (Simulation time: 0 hr 6 min 11 sec) 

Warmup complete CPU 0 instructions: 10000004 cycles: 3984805 (Simulation time: 0 hr 6 min 11 sec) 

Heartbeat CPU 0 instructions: 11000002 cycles: 5683828 heartbeat IPC: 0.588574 cumulative IPC: 0.588572 (Simulation time: 0 hr 6 min 54 sec) 
Heartbeat CPU 0 instructions: 12000000 cycles: 7301654 heartbeat IPC: 0.618112 cumulative IPC: 0.602981 (Simulation time: 0 hr 7 min 36 sec) 
Heartbeat CPU 0 instructions: 13000001 cycles: 8459682 heartbeat IPC: 0.863538 cumulative IPC: 0.670409 (Simulation time: 0 hr 8 min 11 sec) 
Heartbeat CPU 0 instructions: 14000002 cycles: 9191149 heartbeat IPC: 1.36712 cumulative IPC: 0.768293 (Simulation time: 0 hr 8 min 49 sec) 
Heartbeat CPU 0 instructions: 15000000 cycles: 10048458 heartbeat IPC: 1.16644 cumulative IPC: 0.824585 (Simulation time: 0 hr 9 min 28 sec) 
Heartbeat CPU 0 instructions: 16000000 cycles: 11732139 heartbeat IPC: 0.593937 cumulative IPC: 0.774459 (Simulation time: 0 hr 10 min 12 sec) 
Heartbeat CPU 0 instructions: 17000000 cycles: 13333567 heartbeat IPC: 0.624443 cumulative IPC: 0.748762 (Simulation time: 0 hr 10 min 56 sec) 
Heartbeat CPU 0 instructions: 18000002 cycles: 14599599 heartbeat IPC: 0.789871 cumulative IPC: 0.753665 (Simulation time: 0 hr 11 min 32 sec) 
Heartbeat CPU 0 instructions: 19000003 cycles: 15388249 heartbeat IPC: 1.26799 cumulative IPC: 0.789235 (Simulation time: 0 hr 12 min 10 sec) 
Heartbeat CPU 0 instructions: 20000000 cycles: 16145590 heartbeat IPC: 1.32041 cumulative IPC: 0.822315 (Simulation time: 0 hr 12 min 49 sec) 
Heartbeat CPU 0 instructions: 21000000 cycles: 17748768 heartbeat IPC: 0.623761 cumulative IPC: 0.799188 (Simulation time: 0 hr 13 min 31 sec) 
Heartbeat CPU 0 instructions: 22000002 cycles: 19401112 heartbeat IPC: 0.605202 cumulative IPC: 0.778396 (Simulation time: 0 hr 14 min 12 sec) 
Heartbeat CPU 0 instructions: 23000001 cycles: 20914355 heartbeat IPC: 0.660832 cumulative IPC: 0.767888 (Simulation time: 0 hr 14 min 53 sec) 
Heartbeat CPU 0 instructions: 24000000 cycles: 21820227 heartbeat IPC: 1.10391 cumulative IPC: 0.784955 (Simulation time: 0 hr 15 min 32 sec) 
Heartbeat CPU 0 instructions: 25000001 cycles: 22609409 heartbeat IPC: 1.26714 cumulative IPC: 0.805386 (Simulation time: 0 hr 16 min 7 sec) 
Heartbeat CPU 0 instructions: 26000001 cycles: 23844897 heartbeat IPC: 0.809397 cumulative IPC: 0.805636 (Simulation time: 0 hr 16 min 42 sec) 
Heartbeat CPU 0 instructions: 27000001 cycles: 25482566 heartbeat IPC: 0.610624 cumulative IPC: 0.79078 (Simulation time: 0 hr 17 min 23 sec) 
Heartbeat CPU 0 instructions: 28000000 cycles: 27075885 heartbeat IPC: 0.62762 cumulative IPC: 0.779522 (Simulation time: 0 hr 18 min 4 sec) 
Heartbeat CPU 0 instructions: 29000000 cycles: 28090133 heartbeat IPC: 0.985952 cumulative IPC: 0.788207 (Simulation time: 0 hr 18 min 42 sec) 
Heartbeat CPU 0 instructions: 30000002 cycles: 28875453 heartbeat IPC: 1.27337 cumulative IPC: 0.803515 (Simulation time: 0 hr 19 min 17 sec) 
Heartbeat CPU 0 instructions: 31000003 cycles: 29953536 heartbeat IPC: 0.927573 cumulative IPC: 0.808665 (Simulation time: 0 hr 19 min 52 sec) 
Heartbeat CPU 0 instructions: 32000000 cycles: 31586261 heartbeat IPC: 0.612471 cumulative IPC: 0.797059 (Simulation time: 0 hr 20 min 27 sec) 
Heartbeat CPU 0 instructions: 33000000 cycles: 33143032 heartbeat IPC: 0.642355 cumulative IPC: 0.7888 (Simulation time: 0 hr 21 min 3 sec) 
Heartbeat CPU 0 instructions: 34000000 cycles: 34257230 heartbeat IPC: 0.897507 cumulative IPC: 0.792801 (Simulation time: 0 hr 21 min 33 sec) 
Heartbeat CPU 0 instructions: 35000003 cycles: 35052600 heartbeat IPC: 1.25728 cumulative IPC: 0.804692 (Simulation time: 0 hr 22 min 12 sec) 
Heartbeat CPU 0 instructions: 36000000 cycles: 36077011 heartbeat IPC: 0.976168 cumulative IPC: 0.810165 (Simulation time: 0 hr 22 min 48 sec) 
Heartbeat CPU 0 instructions: 37000001 cycles: 37723758 heartbeat IPC: 0.607258 cumulative IPC: 0.800262 (Simulation time: 0 hr 23 min 23 sec) 
Heartbeat CPU 0 instructions: 38000000 cycles: 39286098 heartbeat IPC: 0.640065 cumulative IPC: 0.793172 (Simulation time: 0 hr 24 min 4 sec) 
Heartbeat CPU 0 instructions: 39000003 cycles: 40390963 heartbeat IPC: 0.905091 cumulative IPC: 0.796569 (Simulation time: 0 hr 24 min 39 sec) 
Heartbeat CPU 0 instructions: 40000000 cycles: 41188680 heartbeat IPC: 1.25357 cumulative IPC: 0.806368 (Simulation time: 0 hr 25 min 13 sec) 
Heartbeat CPU 0 instructions: 41000003 cycles: 42209055 heartbeat IPC: 0.980035 cumulative IPC: 0.811003 (Simulation time: 0 hr 25 min 45 sec) 
Heartbeat CPU 0 instructions: 42000000 cycles: 43869171 heartbeat IPC: 0.602366 cumulative IPC: 0.802319 (Simulation time: 0 hr 26 min 19 sec) 
Heartbeat CPU 0 instructions: 43000003 cycles: 45457769 heartbeat IPC: 0.629488 cumulative IPC: 0.795699 (Simulation time: 0 hr 26 min 52 sec) 
Heartbeat CPU 0 instructions: 44000000 cycles: 46495571 heartbeat IPC: 0.963572 cumulative IPC: 0.799797 (Simulation time: 0 hr 27 min 25 sec) 
Heartbeat CPU 0 instructions: 45000002 cycles: 47305932 heartbeat IPC: 1.23402 cumulative IPC: 0.80792 (Simulation time: 0 hr 27 min 55 sec) 
Heartbeat CPU 0 instructions: 46000001 cycles: 48357197 heartbeat IPC: 0.951234 cumulative IPC: 0.811315 (Simulation time: 0 hr 28 min 27 sec) 
Heartbeat CPU 0 instructions: 47000002 cycles: 49996363 heartbeat IPC: 0.610067 cumulative IPC: 0.804146 (Simulation time: 0 hr 29 min 1 sec) 
Heartbeat CPU 0 instructions: 48000000 cycles: 51580317 heartbeat IPC: 0.63133 cumulative IPC: 0.798395 (Simulation time: 0 hr 29 min 35 sec) 
Heartbeat CPU 0 instructions: 49000001 cycles: 52534697 heartbeat IPC: 1.0478 cumulative IPC: 0.803297 (Simulation time: 0 hr 30 min 4 sec) 
Heartbeat CPU 0 instructions: 50000000 cycles: 53342770 heartbeat IPC: 1.23751 cumulative IPC: 0.810406 (Simulation time: 0 hr 30 min 35 sec) 
Heartbeat CPU 0 instructions: 51000003 cycles: 54449118 heartbeat IPC: 0.903877 cumulative IPC: 0.812455 (Simulation time: 0 hr 31 min 12 sec) 
Heartbeat CPU 0 instructions: 52000000 cycles: 56124191 heartbeat IPC: 0.596987 cumulative IPC: 0.805533 (Simulation time: 0 hr 31 min 45 sec) 
Heartbeat CPU 0 instructions: 53000000 cycles: 57895410 heartbeat IPC: 0.564583 cumulative IPC: 0.797617 (Simulation time: 0 hr 32 min 28 sec) 
Heartbeat CPU 0 instructions: 54000003 cycles: 59179043 heartbeat IPC: 0.779041 cumulative IPC: 0.797185 (Simulation time: 0 hr 33 min 0 sec) 
Heartbeat CPU 0 instructions: 55000003 cycles: 60063212 heartbeat IPC: 1.13101 cumulative IPC: 0.802448 (Simulation time: 0 hr 33 min 31 sec) 
Heartbeat CPU 0 instructions: 56000000 cycles: 60938498 heartbeat IPC: 1.14248 cumulative IPC: 0.807674 (Simulation time: 0 hr 34 min 1 sec) 
Heartbeat CPU 0 instructions: 57000002 cycles: 62120119 heartbeat IPC: 0.846297 cumulative IPC: 0.808459 (Simulation time: 0 hr 34 min 35 sec) 
Heartbeat CPU 0 instructions: 58000001 cycles: 63176463 heartbeat IPC: 0.94666 cumulative IPC: 0.810925 (Simulation time: 0 hr 35 min 4 sec) 
Heartbeat CPU 0 instructions: 59000003 cycles: 63995733 heartbeat IPC: 1.2206 cumulative IPC: 0.816518 (Simulation time: 0 hr 35 min 35 sec) 
Heartbeat CPU 0 instructions: 60000000 cycles: 64879392 heartbeat IPC: 1.13165 cumulative IPC: 0.821091 (Simulation time: 0 hr 36 min 6 sec) 
Heartbeat CPU 0 instructions: 61000001 cycles: 66119008 heartbeat IPC: 0.806702 cumulative IPC: 0.820804 (Simulation time: 0 hr 36 min 37 sec) 
Heartbeat CPU 0 instructions: 62000001 cycles: 66949760 heartbeat IPC: 1.20373 cumulative IPC: 0.825856 (Simulation time: 0 hr 37 min 7 sec) 
Heartbeat CPU 0 instructions: 63000000 cycles: 67774397 heartbeat IPC: 1.21265 cumulative IPC: 0.830857 (Simulation time: 0 hr 37 min 37 sec) 
Heartbeat CPU 0 instructions: 64000000 cycles: 69073347 heartbeat IPC: 0.769853 cumulative IPC: 0.829639 (Simulation time: 0 hr 38 min 9 sec) 
Heartbeat CPU 0 instructions: 65000003 cycles: 69911235 heartbeat IPC: 1.19348 cumulative IPC: 0.834263 (Simulation time: 0 hr 38 min 41 sec) 
Heartbeat CPU 0 instructions: 66000002 cycles: 70749333 heartbeat IPC: 1.19318 cumulative IPC: 0.838769 (Simulation time: 0 hr 39 min 10 sec) 
Heartbeat CPU 0 instructions: 67000000 cycles: 72022707 heartbeat IPC: 0.785314 cumulative IPC: 0.837768 (Simulation time: 0 hr 39 min 42 sec) 
Heartbeat CPU 0 instructions: 68000000 cycles: 73692610 heartbeat IPC: 0.598837 cumulative IPC: 0.832044 (Simulation time: 0 hr 40 min 20 sec) 
Heartbeat CPU 0 instructions: 69000003 cycles: 74540066 heartbeat IPC: 1.18001 cumulative IPC: 0.836224 (Simulation time: 0 hr 40 min 51 sec) 
Heartbeat CPU 0 instructions: 70000000 cycles: 75376312 heartbeat IPC: 1.19582 cumulative IPC: 0.840436 (Simulation time: 0 hr 41 min 22 sec) 
Heartbeat CPU 0 instructions: 71000000 cycles: 76565477 heartbeat IPC: 0.840926 cumulative IPC: 0.840444 (Simulation time: 0 hr 41 min 54 sec) 
Heartbeat CPU 0 instructions: 72000000 cycles: 78101618 heartbeat IPC: 0.650982 cumulative IPC: 0.836517 (Simulation time: 0 hr 42 min 34 sec) 
Heartbeat CPU 0 instructions: 73000000 cycles: 78928641 heartbeat IPC: 1.20916 cumulative IPC: 0.840629 (Simulation time: 0 hr 43 min 3 sec) 
Heartbeat CPU 0 instructions: 74000000 cycles: 79769892 heartbeat IPC: 1.18871 cumulative IPC: 0.844493 (Simulation time: 0 hr 43 min 38 sec) 
Heartbeat CPU 0 instructions: 75000000 cycles: 81018610 heartbeat IPC: 0.800821 cumulative IPC: 0.843785 (Simulation time: 0 hr 44 min 12 sec) 
Heartbeat CPU 0 instructions: 76000000 cycles: 82374901 heartbeat IPC: 0.737305 cumulative IPC: 0.841943 (Simulation time: 0 hr 44 min 45 sec) 
Heartbeat CPU 0 instructions: 77000003 cycles: 83214637 heartbeat IPC: 1.19085 cumulative IPC: 0.845641 (Simulation time: 0 hr 45 min 15 sec) 
Heartbeat CPU 0 instructions: 78000000 cycles: 84048159 heartbeat IPC: 1.19972 cumulative IPC: 0.849327 (Simulation time: 0 hr 45 min 46 sec) 
Heartbeat CPU 0 instructions: 79000001 cycles: 85468010 heartbeat IPC: 0.7043 cumulative IPC: 0.8468 (Simulation time: 0 hr 46 min 22 sec) 
Heartbeat CPU 0 instructions: 80000000 cycles: 86660832 heartbeat IPC: 0.838347 cumulative IPC: 0.846678 (Simulation time: 0 hr 46 min 52 sec) 
Heartbeat CPU 0 instructions: 81000000 cycles: 87502127 heartbeat IPC: 1.18864 cumulative IPC: 0.850123 (Simulation time: 0 hr 47 min 28 sec) 
Heartbeat CPU 0 instructions: 82000000 cycles: 88319988 heartbeat IPC: 1.2227 cumulative IPC: 0.853736 (Simulation time: 0 hr 47 min 58 sec) 
Heartbeat CPU 0 instructions: 83000000 cycles: 89881104 heartbeat IPC: 0.640567 cumulative IPC: 0.849862 (Simulation time: 0 hr 48 min 33 sec) 
Heartbeat CPU 0 instructions: 84000000 cycles: 90785237 heartbeat IPC: 1.10603 cumulative IPC: 0.85253 (Simulation time: 0 hr 49 min 2 sec) 
Heartbeat CPU 0 instructions: 85000001 cycles: 91597245 heartbeat IPC: 1.23152 cumulative IPC: 0.856043 (Simulation time: 0 hr 49 min 34 sec) 
Heartbeat CPU 0 instructions: 86000001 cycles: 92673392 heartbeat IPC: 0.929241 cumulative IPC: 0.856931 (Simulation time: 0 hr 50 min 5 sec) 
Heartbeat CPU 0 instructions: 87000000 cycles: 93931205 heartbeat IPC: 0.79503 cumulative IPC: 0.856065 (Simulation time: 0 hr 50 min 39 sec) 
Heartbeat CPU 0 instructions: 88000000 cycles: 94771006 heartbeat IPC: 1.19076 cumulative IPC: 0.859161 (Simulation time: 0 hr 51 min 10 sec) 
Heartbeat CPU 0 instructions: 89000000 cycles: 95580223 heartbeat IPC: 1.23576 cumulative IPC: 0.862489 (Simulation time: 0 hr 51 min 42 sec) 
Heartbeat CPU 0 instructions: 90000000 cycles: 97000537 heartbeat IPC: 0.70407 cumulative IPC: 0.86007 (Simulation time: 0 hr 52 min 15 sec) 
Heartbeat CPU 0 instructions: 91000003 cycles: 98248535 heartbeat IPC: 0.801286 cumulative IPC: 0.859291 (Simulation time: 0 hr 52 min 48 sec) 
Heartbeat CPU 0 instructions: 92000000 cycles: 99200205 heartbeat IPC: 1.05078 cumulative IPC: 0.861205 (Simulation time: 0 hr 53 min 20 sec) 
Heartbeat CPU 0 instructions: 93000000 cycles: 100019660 heartbeat IPC: 1.22032 cumulative IPC: 0.864269 (Simulation time: 0 hr 53 min 54 sec) 
Heartbeat CPU 0 instructions: 94000002 cycles: 100836868 heartbeat IPC: 1.22368 cumulative IPC: 0.867302 (Simulation time: 0 hr 54 min 23 sec) 
Heartbeat CPU 0 instructions: 95000001 cycles: 102292891 heartbeat IPC: 0.686802 cumulative IPC: 0.864629 (Simulation time: 0 hr 54 min 52 sec) 
Heartbeat CPU 0 instructions: 96000000 cycles: 103131674 heartbeat IPC: 1.1922 cumulative IPC: 0.8674 (Simulation time: 0 hr 55 min 19 sec) 
Heartbeat CPU 0 instructions: 97000002 cycles: 103969956 heartbeat IPC: 1.19292 cumulative IPC: 0.870129 (Simulation time: 0 hr 55 min 52 sec) 
Heartbeat CPU 0 instructions: 98000003 cycles: 105200852 heartbeat IPC: 0.812417 cumulative IPC: 0.869427 (Simulation time: 0 hr 56 min 22 sec) 
Heartbeat CPU 0 instructions: 99000000 cycles: 106288125 heartbeat IPC: 0.919729 cumulative IPC: 0.869962 (Simulation time: 0 hr 56 min 50 sec) 
Heartbeat CPU 0 instructions: 100000000 cycles: 107091456 heartbeat IPC: 1.24482 cumulative IPC: 0.872883 (Simulation time: 0 hr 57 min 15 sec) 
Heartbeat CPU 0 instructions: 101000002 cycles: 107915359 heartbeat IPC: 1.21374 cumulative IPC: 0.875585 (Simulation time: 0 hr 57 min 42 sec) 
Heartbeat CPU 0 instructions: 102000003 cycles: 109481004 heartbeat IPC: 0.638715 cumulative IPC: 0.872069 (Simulation time: 0 hr 58 min 9 sec) 
Heartbeat CPU 0 instructions: 103000001 cycles: 110417265 heartbeat IPC: 1.06808 cumulative IPC: 0.873794 (Simulation time: 0 hr 58 min 36 sec) 
Heartbeat CPU 0 instructions: 104000000 cycles: 111248312 heartbeat IPC: 1.2033 cumulative IPC: 0.876346 (Simulation time: 0 hr 59 min 1 sec) 
Heartbeat CPU 0 instructions: 105000002 cycles: 112348920 heartbeat IPC: 0.90859 cumulative IPC: 0.876674 (Simulation time: 0 hr 59 min 23 sec) 
Heartbeat CPU 0 instructions: 106000003 cycles: 113883821 heartbeat IPC: 0.651508 cumulative IPC: 0.873529 (Simulation time: 0 hr 59 min 46 sec) 
Heartbeat CPU 0 instructions: 107000000 cycles: 114728985 heartbeat IPC: 1.1832 cumulative IPC: 0.875893 (Simulation time: 1 hr 0 min 6 sec) 
Heartbeat CPU 0 instructions: 108000000 cycles: 115548173 heartbeat IPC: 1.22072 cumulative IPC: 0.878425 (Simulation time: 1 hr 0 min 26 sec) 
Heartbeat CPU 0 instructions: 109000001 cycles: 116724731 heartbeat IPC: 0.849938 cumulative IPC: 0.878127 (Simulation time: 1 hr 0 min 49 sec) 
Heartbeat CPU 0 instructions: 110000000 cycles: 118138934 heartbeat IPC: 0.707111 cumulative IPC: 0.876009 (Simulation time: 1 hr 1 min 10 sec) 
Finished CPU 0 instructions: 100000000 cycles: 114154130 cummulative IPC: 0.876009 (Simulation time: 1 hr 1 min 10 sec) 

ChampSim completed all CPUs

Region of Interest Statistics

CPU 0 cummulative IPC: 0.876009 instructions: 100000000 cycles: 114154130
LLC TOTAL     ACCESS:    1795794  HIT:     710911  MISS:    1084883
LLC LOAD      ACCESS:     315626  HIT:     196645  MISS:     118981
LLC RFO       ACCESS:      99624  HIT:      79360  MISS:      20264
LLC PREFETCH  ACCESS:    1239123  HIT:     301860  MISS:     937263
LLC WRITEBACK ACCESS:     141421  HIT:     133046  MISS:       8375
Insertion Distribution: 
	LOAD 8632 0 26893 108059 
	RFO 10449 0 3811 9943 
	PREF 0 3970 76881 965135 
	WRITEBACK 0 0 0 9151 
Total Prefetch Downgrades: 6283
