
*** ChampSim Multicore Out-of-Order Simulator ***

Warmup Instructions: 10000000
Simulation Instructions: 100000000
Configuration: 2
Number of CPUs: 1
LLC sets: 2048
LLC ways: 16
Off-chip DRAM Channels: 1 Width: 64-bit Data Rate: 1600 MT/s

CPU 0 runs /datasets/cs240c-wi22-a00-public/data/Assignment2-gz/perlbench_135B.trace.gz
CPU 0 L1D next line prefetcher
CPU 0 L2C IP-based stride prefetcher
Initialize SRRIP state
Heartbeat CPU 0 instructions: 1000000 cycles: 600033 heartbeat IPC: 1.66657 cumulative IPC: 1.66657 (Simulation time: 0 hr 0 min 45 sec) 
Heartbeat CPU 0 instructions: 2000000 cycles: 1209304 heartbeat IPC: 1.64131 cumulative IPC: 1.65384 (Simulation time: 0 hr 1 min 28 sec) 
Heartbeat CPU 0 instructions: 3000000 cycles: 1832837 heartbeat IPC: 1.60376 cumulative IPC: 1.63681 (Simulation time: 0 hr 2 min 11 sec) 
Heartbeat CPU 0 instructions: 4000000 cycles: 2492645 heartbeat IPC: 1.51559 cumulative IPC: 1.60472 (Simulation time: 0 hr 2 min 58 sec) 
Heartbeat CPU 0 instructions: 5000001 cycles: 3079308 heartbeat IPC: 1.70456 cumulative IPC: 1.62374 (Simulation time: 0 hr 3 min 43 sec) 
Heartbeat CPU 0 instructions: 6000002 cycles: 3681733 heartbeat IPC: 1.65996 cumulative IPC: 1.62967 (Simulation time: 0 hr 4 min 33 sec) 
Heartbeat CPU 0 instructions: 7000001 cycles: 4282494 heartbeat IPC: 1.66455 cumulative IPC: 1.63456 (Simulation time: 0 hr 5 min 21 sec) 
Heartbeat CPU 0 instructions: 8000000 cycles: 4892986 heartbeat IPC: 1.63802 cumulative IPC: 1.63499 (Simulation time: 0 hr 6 min 7 sec) 
Heartbeat CPU 0 instructions: 9000001 cycles: 5534101 heartbeat IPC: 1.55978 cumulative IPC: 1.62628 (Simulation time: 0 hr 6 min 52 sec) 
Heartbeat CPU 0 instructions: 10000000 cycles: 6192790 heartbeat IPC: 1.51817 cumulative IPC: 1.61478 (Simulation time: 0 hr 7 min 38 sec) 

Warmup complete CPU 0 instructions: 10000004 cycles: 6192791 (Simulation time: 0 hr 7 min 38 sec) 

Heartbeat CPU 0 instructions: 11000003 cycles: 8935306 heartbeat IPC: 0.36463 cumulative IPC: 0.364628 (Simulation time: 0 hr 8 min 44 sec) 
Heartbeat CPU 0 instructions: 12000000 cycles: 11272600 heartbeat IPC: 0.427844 cumulative IPC: 0.393715 (Simulation time: 0 hr 9 min 43 sec) 
Heartbeat CPU 0 instructions: 13000000 cycles: 13822901 heartbeat IPC: 0.392111 cumulative IPC: 0.393179 (Simulation time: 0 hr 10 min 44 sec) 
Heartbeat CPU 0 instructions: 14000000 cycles: 16831305 heartbeat IPC: 0.332402 cumulative IPC: 0.375992 (Simulation time: 0 hr 11 min 34 sec) 
Heartbeat CPU 0 instructions: 15000003 cycles: 19513536 heartbeat IPC: 0.372825 cumulative IPC: 0.375354 (Simulation time: 0 hr 12 min 29 sec) 
Heartbeat CPU 0 instructions: 16000000 cycles: 22150815 heartbeat IPC: 0.379178 cumulative IPC: 0.375986 (Simulation time: 0 hr 13 min 21 sec) 
Heartbeat CPU 0 instructions: 17000000 cycles: 24856760 heartbeat IPC: 0.369557 cumulative IPC: 0.375054 (Simulation time: 0 hr 14 min 10 sec) 
Heartbeat CPU 0 instructions: 18000000 cycles: 27543105 heartbeat IPC: 0.372253 cumulative IPC: 0.374702 (Simulation time: 0 hr 15 min 0 sec) 
Heartbeat CPU 0 instructions: 19000003 cycles: 30176624 heartbeat IPC: 0.379721 cumulative IPC: 0.375253 (Simulation time: 0 hr 15 min 48 sec) 
Heartbeat CPU 0 instructions: 20000000 cycles: 32814169 heartbeat IPC: 0.379139 cumulative IPC: 0.375638 (Simulation time: 0 hr 16 min 33 sec) 
Heartbeat CPU 0 instructions: 21000000 cycles: 35441069 heartbeat IPC: 0.380677 cumulative IPC: 0.37609 (Simulation time: 0 hr 17 min 17 sec) 
Heartbeat CPU 0 instructions: 22000002 cycles: 38068506 heartbeat IPC: 0.3806 cumulative IPC: 0.376462 (Simulation time: 0 hr 17 min 59 sec) 
Heartbeat CPU 0 instructions: 23000003 cycles: 40726385 heartbeat IPC: 0.37624 cumulative IPC: 0.376445 (Simulation time: 0 hr 18 min 48 sec) 
Heartbeat CPU 0 instructions: 24000000 cycles: 42822866 heartbeat IPC: 0.476988 cumulative IPC: 0.382199 (Simulation time: 0 hr 19 min 28 sec) 
Heartbeat CPU 0 instructions: 25000000 cycles: 45428841 heartbeat IPC: 0.383734 cumulative IPC: 0.382301 (Simulation time: 0 hr 20 min 18 sec) 
Heartbeat CPU 0 instructions: 26000001 cycles: 47988767 heartbeat IPC: 0.390637 cumulative IPC: 0.382812 (Simulation time: 0 hr 20 min 56 sec) 
Heartbeat CPU 0 instructions: 27000000 cycles: 50653592 heartbeat IPC: 0.375259 cumulative IPC: 0.382359 (Simulation time: 0 hr 21 min 36 sec) 
Heartbeat CPU 0 instructions: 28000000 cycles: 53293588 heartbeat IPC: 0.378788 cumulative IPC: 0.382159 (Simulation time: 0 hr 22 min 18 sec) 
Heartbeat CPU 0 instructions: 29000000 cycles: 55920451 heartbeat IPC: 0.380682 cumulative IPC: 0.382081 (Simulation time: 0 hr 22 min 57 sec) 
Heartbeat CPU 0 instructions: 30000000 cycles: 58635911 heartbeat IPC: 0.368262 cumulative IPC: 0.381365 (Simulation time: 0 hr 23 min 34 sec) 
Heartbeat CPU 0 instructions: 31000001 cycles: 61273629 heartbeat IPC: 0.379116 cumulative IPC: 0.381258 (Simulation time: 0 hr 24 min 14 sec) 
Heartbeat CPU 0 instructions: 32000000 cycles: 63924915 heartbeat IPC: 0.377175 cumulative IPC: 0.38107 (Simulation time: 0 hr 24 min 58 sec) 
Heartbeat CPU 0 instructions: 33000000 cycles: 66552358 heartbeat IPC: 0.380598 cumulative IPC: 0.38105 (Simulation time: 0 hr 25 min 36 sec) 
Heartbeat CPU 0 instructions: 34000001 cycles: 69162337 heartbeat IPC: 0.383145 cumulative IPC: 0.381137 (Simulation time: 0 hr 26 min 16 sec) 
Heartbeat CPU 0 instructions: 35000003 cycles: 71813190 heartbeat IPC: 0.377238 cumulative IPC: 0.380979 (Simulation time: 0 hr 27 min 1 sec) 
Heartbeat CPU 0 instructions: 36000000 cycles: 74115068 heartbeat IPC: 0.434427 cumulative IPC: 0.38279 (Simulation time: 0 hr 27 min 44 sec) 
Heartbeat CPU 0 instructions: 37000000 cycles: 76403564 heartbeat IPC: 0.436968 cumulative IPC: 0.384556 (Simulation time: 0 hr 28 min 30 sec) 
Heartbeat CPU 0 instructions: 38000000 cycles: 78491191 heartbeat IPC: 0.479013 cumulative IPC: 0.387284 (Simulation time: 0 hr 29 min 14 sec) 
Heartbeat CPU 0 instructions: 39000000 cycles: 80786312 heartbeat IPC: 0.435707 cumulative IPC: 0.388774 (Simulation time: 0 hr 29 min 57 sec) 
Heartbeat CPU 0 instructions: 40000000 cycles: 82739695 heartbeat IPC: 0.511932 cumulative IPC: 0.391917 (Simulation time: 0 hr 30 min 34 sec) 
Heartbeat CPU 0 instructions: 41000001 cycles: 84820699 heartbeat IPC: 0.480538 cumulative IPC: 0.394262 (Simulation time: 0 hr 31 min 11 sec) 
Heartbeat CPU 0 instructions: 42000003 cycles: 87439149 heartbeat IPC: 0.381906 cumulative IPC: 0.393864 (Simulation time: 0 hr 31 min 58 sec) 
Heartbeat CPU 0 instructions: 43000001 cycles: 90001722 heartbeat IPC: 0.390232 cumulative IPC: 0.393753 (Simulation time: 0 hr 32 min 42 sec) 
Heartbeat CPU 0 instructions: 44000000 cycles: 92296356 heartbeat IPC: 0.435799 cumulative IPC: 0.394873 (Simulation time: 0 hr 33 min 22 sec) 
Heartbeat CPU 0 instructions: 45000003 cycles: 94927095 heartbeat IPC: 0.380122 cumulative IPC: 0.394436 (Simulation time: 0 hr 34 min 8 sec) 
Heartbeat CPU 0 instructions: 46000003 cycles: 97599709 heartbeat IPC: 0.374166 cumulative IPC: 0.393843 (Simulation time: 0 hr 34 min 47 sec) 
Heartbeat CPU 0 instructions: 47000000 cycles: 100227298 heartbeat IPC: 0.380576 cumulative IPC: 0.393473 (Simulation time: 0 hr 35 min 31 sec) 
Heartbeat CPU 0 instructions: 48000000 cycles: 102840375 heartbeat IPC: 0.382691 cumulative IPC: 0.393181 (Simulation time: 0 hr 36 min 9 sec) 
Heartbeat CPU 0 instructions: 49000000 cycles: 105509537 heartbeat IPC: 0.374649 cumulative IPC: 0.392683 (Simulation time: 0 hr 36 min 46 sec) 
Heartbeat CPU 0 instructions: 50000001 cycles: 108135143 heartbeat IPC: 0.380865 cumulative IPC: 0.392379 (Simulation time: 0 hr 37 min 29 sec) 
Heartbeat CPU 0 instructions: 51000000 cycles: 110753764 heartbeat IPC: 0.38188 cumulative IPC: 0.392116 (Simulation time: 0 hr 38 min 12 sec) 
Heartbeat CPU 0 instructions: 52000000 cycles: 113364719 heartbeat IPC: 0.383002 cumulative IPC: 0.391894 (Simulation time: 0 hr 38 min 50 sec) 
Heartbeat CPU 0 instructions: 53000000 cycles: 115949134 heartbeat IPC: 0.386935 cumulative IPC: 0.391777 (Simulation time: 0 hr 39 min 32 sec) 
Heartbeat CPU 0 instructions: 54000001 cycles: 118588662 heartbeat IPC: 0.378856 cumulative IPC: 0.391473 (Simulation time: 0 hr 40 min 17 sec) 
Heartbeat CPU 0 instructions: 55000001 cycles: 121035659 heartbeat IPC: 0.408664 cumulative IPC: 0.39184 (Simulation time: 0 hr 41 min 3 sec) 
Heartbeat CPU 0 instructions: 56000000 cycles: 123159347 heartbeat IPC: 0.470878 cumulative IPC: 0.393275 (Simulation time: 0 hr 41 min 44 sec) 
Heartbeat CPU 0 instructions: 57000000 cycles: 125360637 heartbeat IPC: 0.454279 cumulative IPC: 0.394402 (Simulation time: 0 hr 42 min 26 sec) 
Heartbeat CPU 0 instructions: 58000002 cycles: 127308426 heartbeat IPC: 0.513404 cumulative IPC: 0.396315 (Simulation time: 0 hr 43 min 1 sec) 
Heartbeat CPU 0 instructions: 59000003 cycles: 129427082 heartbeat IPC: 0.471998 cumulative IPC: 0.397617 (Simulation time: 0 hr 43 min 41 sec) 
Heartbeat CPU 0 instructions: 60000000 cycles: 132378462 heartbeat IPC: 0.338824 cumulative IPC: 0.396241 (Simulation time: 0 hr 44 min 21 sec) 
Heartbeat CPU 0 instructions: 61000000 cycles: 134792286 heartbeat IPC: 0.41428 cumulative IPC: 0.39658 (Simulation time: 0 hr 44 min 58 sec) 
Heartbeat CPU 0 instructions: 62000001 cycles: 137576476 heartbeat IPC: 0.359171 cumulative IPC: 0.395787 (Simulation time: 0 hr 45 min 40 sec) 
Heartbeat CPU 0 instructions: 63000000 cycles: 140511521 heartbeat IPC: 0.34071 cumulative IPC: 0.394584 (Simulation time: 0 hr 46 min 20 sec) 
Heartbeat CPU 0 instructions: 64000000 cycles: 143429075 heartbeat IPC: 0.342753 cumulative IPC: 0.393482 (Simulation time: 0 hr 47 min 0 sec) 
Heartbeat CPU 0 instructions: 65000001 cycles: 146315028 heartbeat IPC: 0.346506 cumulative IPC: 0.392514 (Simulation time: 0 hr 47 min 38 sec) 
Heartbeat CPU 0 instructions: 66000001 cycles: 149174419 heartbeat IPC: 0.349725 cumulative IPC: 0.391659 (Simulation time: 0 hr 48 min 19 sec) 
Heartbeat CPU 0 instructions: 67000001 cycles: 151899697 heartbeat IPC: 0.366935 cumulative IPC: 0.391196 (Simulation time: 0 hr 49 min 0 sec) 
Heartbeat CPU 0 instructions: 68000000 cycles: 154629550 heartbeat IPC: 0.36632 cumulative IPC: 0.390739 (Simulation time: 0 hr 49 min 41 sec) 
Heartbeat CPU 0 instructions: 69000002 cycles: 157578677 heartbeat IPC: 0.339084 cumulative IPC: 0.389732 (Simulation time: 0 hr 50 min 27 sec) 
Heartbeat CPU 0 instructions: 70000003 cycles: 159382044 heartbeat IPC: 0.554519 cumulative IPC: 0.391672 (Simulation time: 0 hr 51 min 3 sec) 
Heartbeat CPU 0 instructions: 71000000 cycles: 161301789 heartbeat IPC: 0.520901 cumulative IPC: 0.393272 (Simulation time: 0 hr 51 min 39 sec) 
Heartbeat CPU 0 instructions: 72000000 cycles: 163288930 heartbeat IPC: 0.503236 cumulative IPC: 0.394663 (Simulation time: 0 hr 52 min 14 sec) 
Heartbeat CPU 0 instructions: 73000000 cycles: 165558146 heartbeat IPC: 0.440681 cumulative IPC: 0.395318 (Simulation time: 0 hr 52 min 53 sec) 
Heartbeat CPU 0 instructions: 74000000 cycles: 167476692 heartbeat IPC: 0.521228 cumulative IPC: 0.396816 (Simulation time: 0 hr 53 min 32 sec) 
Heartbeat CPU 0 instructions: 75000003 cycles: 169710089 heartbeat IPC: 0.44775 cumulative IPC: 0.397511 (Simulation time: 0 hr 54 min 8 sec) 
Heartbeat CPU 0 instructions: 76000000 cycles: 172447983 heartbeat IPC: 0.365243 cumulative IPC: 0.39698 (Simulation time: 0 hr 54 min 47 sec) 
Heartbeat CPU 0 instructions: 77000000 cycles: 175138505 heartbeat IPC: 0.371675 cumulative IPC: 0.396577 (Simulation time: 0 hr 55 min 24 sec) 
Heartbeat CPU 0 instructions: 78000000 cycles: 178089296 heartbeat IPC: 0.338892 cumulative IPC: 0.395587 (Simulation time: 0 hr 56 min 5 sec) 
Heartbeat CPU 0 instructions: 79000000 cycles: 179945512 heartbeat IPC: 0.53873 cumulative IPC: 0.397116 (Simulation time: 0 hr 56 min 41 sec) 
Heartbeat CPU 0 instructions: 80000000 cycles: 181729217 heartbeat IPC: 0.560631 cumulative IPC: 0.398778 (Simulation time: 0 hr 57 min 9 sec) 
Heartbeat CPU 0 instructions: 81000000 cycles: 183650613 heartbeat IPC: 0.520455 cumulative IPC: 0.400095 (Simulation time: 0 hr 57 min 38 sec) 
Heartbeat CPU 0 instructions: 82000000 cycles: 185568152 heartbeat IPC: 0.521502 cumulative IPC: 0.401393 (Simulation time: 0 hr 58 min 10 sec) 
Heartbeat CPU 0 instructions: 83000000 cycles: 187894161 heartbeat IPC: 0.429921 cumulative IPC: 0.401758 (Simulation time: 0 hr 58 min 44 sec) 
Heartbeat CPU 0 instructions: 84000000 cycles: 189847088 heartbeat IPC: 0.512052 cumulative IPC: 0.402931 (Simulation time: 0 hr 59 min 19 sec) 
Heartbeat CPU 0 instructions: 85000000 cycles: 191768103 heartbeat IPC: 0.520558 cumulative IPC: 0.404149 (Simulation time: 0 hr 59 min 43 sec) 
Heartbeat CPU 0 instructions: 86000002 cycles: 193686632 heartbeat IPC: 0.521234 cumulative IPC: 0.405347 (Simulation time: 1 hr 0 min 6 sec) 
Heartbeat CPU 0 instructions: 87000003 cycles: 195852125 heartbeat IPC: 0.461789 cumulative IPC: 0.405991 (Simulation time: 1 hr 0 min 30 sec) 
Heartbeat CPU 0 instructions: 88000000 cycles: 198623784 heartbeat IPC: 0.360794 cumulative IPC: 0.40534 (Simulation time: 1 hr 0 min 56 sec) 
Heartbeat CPU 0 instructions: 89000003 cycles: 201187357 heartbeat IPC: 0.390082 cumulative IPC: 0.405139 (Simulation time: 1 hr 1 min 22 sec) 
Heartbeat CPU 0 instructions: 90000001 cycles: 204063750 heartbeat IPC: 0.347657 cumulative IPC: 0.404304 (Simulation time: 1 hr 1 min 49 sec) 
Heartbeat CPU 0 instructions: 91000000 cycles: 206542137 heartbeat IPC: 0.403488 cumulative IPC: 0.404294 (Simulation time: 1 hr 2 min 13 sec) 
Heartbeat CPU 0 instructions: 92000000 cycles: 208994343 heartbeat IPC: 0.407796 cumulative IPC: 0.404336 (Simulation time: 1 hr 2 min 37 sec) 
Heartbeat CPU 0 instructions: 93000000 cycles: 211689597 heartbeat IPC: 0.371023 cumulative IPC: 0.403899 (Simulation time: 1 hr 3 min 1 sec) 
Heartbeat CPU 0 instructions: 94000001 cycles: 214350089 heartbeat IPC: 0.375871 cumulative IPC: 0.403541 (Simulation time: 1 hr 3 min 25 sec) 
Heartbeat CPU 0 instructions: 95000000 cycles: 217195694 heartbeat IPC: 0.351419 cumulative IPC: 0.402838 (Simulation time: 1 hr 3 min 49 sec) 
Heartbeat CPU 0 instructions: 96000000 cycles: 220231820 heartbeat IPC: 0.329367 cumulative IPC: 0.401796 (Simulation time: 1 hr 4 min 13 sec) 
Heartbeat CPU 0 instructions: 97000001 cycles: 223165382 heartbeat IPC: 0.340883 cumulative IPC: 0.400972 (Simulation time: 1 hr 4 min 39 sec) 
Heartbeat CPU 0 instructions: 98000000 cycles: 225822023 heartbeat IPC: 0.376415 cumulative IPC: 0.400675 (Simulation time: 1 hr 5 min 5 sec) 
Heartbeat CPU 0 instructions: 99000000 cycles: 228420940 heartbeat IPC: 0.384776 cumulative IPC: 0.400489 (Simulation time: 1 hr 5 min 31 sec) 
Heartbeat CPU 0 instructions: 100000000 cycles: 231044191 heartbeat IPC: 0.381206 cumulative IPC: 0.400264 (Simulation time: 1 hr 5 min 54 sec) 
Heartbeat CPU 0 instructions: 101000001 cycles: 233646863 heartbeat IPC: 0.384221 cumulative IPC: 0.400081 (Simulation time: 1 hr 6 min 16 sec) 
Heartbeat CPU 0 instructions: 102000000 cycles: 236274450 heartbeat IPC: 0.380577 cumulative IPC: 0.399858 (Simulation time: 1 hr 6 min 37 sec) 
Heartbeat CPU 0 instructions: 103000000 cycles: 238921112 heartbeat IPC: 0.377834 cumulative IPC: 0.399608 (Simulation time: 1 hr 7 min 1 sec) 
Heartbeat CPU 0 instructions: 104000000 cycles: 241650588 heartbeat IPC: 0.366371 cumulative IPC: 0.399222 (Simulation time: 1 hr 7 min 20 sec) 
Heartbeat CPU 0 instructions: 105000001 cycles: 244254845 heartbeat IPC: 0.383987 cumulative IPC: 0.399056 (Simulation time: 1 hr 7 min 37 sec) 
Heartbeat CPU 0 instructions: 106000001 cycles: 246872739 heartbeat IPC: 0.381986 cumulative IPC: 0.39887 (Simulation time: 1 hr 7 min 53 sec) 
Heartbeat CPU 0 instructions: 107000000 cycles: 249487809 heartbeat IPC: 0.382399 cumulative IPC: 0.398693 (Simulation time: 1 hr 8 min 8 sec) 
Heartbeat CPU 0 instructions: 108000000 cycles: 252098729 heartbeat IPC: 0.383007 cumulative IPC: 0.398526 (Simulation time: 1 hr 8 min 23 sec) 
Heartbeat CPU 0 instructions: 109000001 cycles: 254673599 heartbeat IPC: 0.38837 cumulative IPC: 0.398421 (Simulation time: 1 hr 8 min 37 sec) 
Heartbeat CPU 0 instructions: 110000003 cycles: 256827998 heartbeat IPC: 0.464168 cumulative IPC: 0.398986 (Simulation time: 1 hr 8 min 50 sec) 
Finished CPU 0 instructions: 100000003 cycles: 250635208 cummulative IPC: 0.398986 (Simulation time: 1 hr 8 min 50 sec) 

ChampSim completed all CPUs

Region of Interest Statistics

CPU 0 cummulative IPC: 0.398986 instructions: 100000003 cycles: 250635208
LLC TOTAL     ACCESS:     635542  HIT:     577222  MISS:      58320
LLC LOAD      ACCESS:     295074  HIT:     285317  MISS:       9757
LLC RFO       ACCESS:      30365  HIT:      25509  MISS:       4856
LLC PREFETCH  ACCESS:     206822  HIT:     164685  MISS:      42137
LLC WRITEBACK ACCESS:     103281  HIT:     101711  MISS:       1570
Insertion Distribution: 
	LOAD 4719 0 18306 909 
	RFO 243 0 4557 1820 
	PREF 0 2201 25027 27765 
	WRITEBACK 0 0 0 1877 
Total Prefetch Downgrades: 3444
