
*** ChampSim Multicore Out-of-Order Simulator ***

Warmup Instructions: 10000000
Simulation Instructions: 100000000
Configuration: 2
Number of CPUs: 1
LLC sets: 2048
LLC ways: 16
Off-chip DRAM Channels: 1 Width: 64-bit Data Rate: 1600 MT/s

CPU 0 runs /datasets/cs240c-wi22-a00-public/data/Assignment2-gz/omnetpp_340B.trace.gz
CPU 0 L1D next line prefetcher
CPU 0 L2C IP-based stride prefetcher
Initialize SRRIP state
Heartbeat CPU 0 instructions: 1000001 cycles: 576944 heartbeat IPC: 1.73327 cumulative IPC: 1.73327 (Simulation time: 0 hr 0 min 44 sec) 
Heartbeat CPU 0 instructions: 2000000 cycles: 1160914 heartbeat IPC: 1.71241 cumulative IPC: 1.72278 (Simulation time: 0 hr 1 min 26 sec) 
Heartbeat CPU 0 instructions: 3000001 cycles: 1758226 heartbeat IPC: 1.67417 cumulative IPC: 1.70627 (Simulation time: 0 hr 2 min 13 sec) 
Heartbeat CPU 0 instructions: 4000000 cycles: 2379184 heartbeat IPC: 1.61041 cumulative IPC: 1.68125 (Simulation time: 0 hr 3 min 1 sec) 
Heartbeat CPU 0 instructions: 5000002 cycles: 2954502 heartbeat IPC: 1.73817 cumulative IPC: 1.69233 (Simulation time: 0 hr 3 min 47 sec) 
Heartbeat CPU 0 instructions: 6000003 cycles: 3555985 heartbeat IPC: 1.66256 cumulative IPC: 1.6873 (Simulation time: 0 hr 4 min 33 sec) 
Heartbeat CPU 0 instructions: 7000003 cycles: 4205423 heartbeat IPC: 1.53979 cumulative IPC: 1.66452 (Simulation time: 0 hr 5 min 16 sec) 
Heartbeat CPU 0 instructions: 8000000 cycles: 4800058 heartbeat IPC: 1.6817 cumulative IPC: 1.66665 (Simulation time: 0 hr 6 min 2 sec) 
Heartbeat CPU 0 instructions: 9000002 cycles: 5433510 heartbeat IPC: 1.57865 cumulative IPC: 1.65639 (Simulation time: 0 hr 6 min 46 sec) 
Heartbeat CPU 0 instructions: 10000002 cycles: 6028025 heartbeat IPC: 1.68204 cumulative IPC: 1.65892 (Simulation time: 0 hr 7 min 30 sec) 

Warmup complete CPU 0 instructions: 10000002 cycles: 6028025 (Simulation time: 0 hr 7 min 30 sec) 

Heartbeat CPU 0 instructions: 11000000 cycles: 9682270 heartbeat IPC: 0.273654 cumulative IPC: 0.273654 (Simulation time: 0 hr 8 min 30 sec) 
Heartbeat CPU 0 instructions: 12000000 cycles: 13162685 heartbeat IPC: 0.287322 cumulative IPC: 0.280321 (Simulation time: 0 hr 9 min 25 sec) 
Heartbeat CPU 0 instructions: 13000000 cycles: 17002503 heartbeat IPC: 0.260429 cumulative IPC: 0.273361 (Simulation time: 0 hr 10 min 24 sec) 
Heartbeat CPU 0 instructions: 14000001 cycles: 20818029 heartbeat IPC: 0.262087 cumulative IPC: 0.270453 (Simulation time: 0 hr 11 min 23 sec) 
Heartbeat CPU 0 instructions: 15000003 cycles: 24655423 heartbeat IPC: 0.260594 cumulative IPC: 0.268422 (Simulation time: 0 hr 12 min 26 sec) 
Heartbeat CPU 0 instructions: 16000000 cycles: 28769407 heartbeat IPC: 0.243073 cumulative IPC: 0.263836 (Simulation time: 0 hr 13 min 26 sec) 
Heartbeat CPU 0 instructions: 17000000 cycles: 32465168 heartbeat IPC: 0.27058 cumulative IPC: 0.264779 (Simulation time: 0 hr 14 min 29 sec) 
Heartbeat CPU 0 instructions: 18000000 cycles: 36341964 heartbeat IPC: 0.257945 cumulative IPC: 0.263905 (Simulation time: 0 hr 15 min 31 sec) 
Heartbeat CPU 0 instructions: 19000000 cycles: 40609181 heartbeat IPC: 0.234345 cumulative IPC: 0.260257 (Simulation time: 0 hr 16 min 24 sec) 
Heartbeat CPU 0 instructions: 20000000 cycles: 44628559 heartbeat IPC: 0.248795 cumulative IPC: 0.259064 (Simulation time: 0 hr 17 min 18 sec) 
Heartbeat CPU 0 instructions: 21000000 cycles: 48096733 heartbeat IPC: 0.288336 cumulative IPC: 0.261477 (Simulation time: 0 hr 18 min 8 sec) 
Heartbeat CPU 0 instructions: 22000001 cycles: 51939380 heartbeat IPC: 0.260238 cumulative IPC: 0.261373 (Simulation time: 0 hr 19 min 0 sec) 
Heartbeat CPU 0 instructions: 23000001 cycles: 55764216 heartbeat IPC: 0.261449 cumulative IPC: 0.261379 (Simulation time: 0 hr 19 min 56 sec) 
Heartbeat CPU 0 instructions: 24000000 cycles: 59545033 heartbeat IPC: 0.264493 cumulative IPC: 0.261599 (Simulation time: 0 hr 20 min 52 sec) 
Heartbeat CPU 0 instructions: 25000000 cycles: 63542475 heartbeat IPC: 0.25016 cumulative IPC: 0.260804 (Simulation time: 0 hr 21 min 41 sec) 
Heartbeat CPU 0 instructions: 26000001 cycles: 67561170 heartbeat IPC: 0.248837 cumulative IPC: 0.260022 (Simulation time: 0 hr 22 min 27 sec) 
Heartbeat CPU 0 instructions: 27000000 cycles: 71582806 heartbeat IPC: 0.248655 cumulative IPC: 0.259325 (Simulation time: 0 hr 23 min 17 sec) 
Heartbeat CPU 0 instructions: 28000000 cycles: 75627426 heartbeat IPC: 0.247242 cumulative IPC: 0.258623 (Simulation time: 0 hr 24 min 9 sec) 
Heartbeat CPU 0 instructions: 29000003 cycles: 79681443 heartbeat IPC: 0.24667 cumulative IPC: 0.257965 (Simulation time: 0 hr 24 min 59 sec) 
Heartbeat CPU 0 instructions: 30000000 cycles: 83301573 heartbeat IPC: 0.276232 cumulative IPC: 0.258821 (Simulation time: 0 hr 25 min 48 sec) 
Heartbeat CPU 0 instructions: 31000000 cycles: 87152094 heartbeat IPC: 0.259705 cumulative IPC: 0.258863 (Simulation time: 0 hr 26 min 36 sec) 
Heartbeat CPU 0 instructions: 32000000 cycles: 90922893 heartbeat IPC: 0.265196 cumulative IPC: 0.259144 (Simulation time: 0 hr 27 min 23 sec) 
Heartbeat CPU 0 instructions: 33000003 cycles: 94653721 heartbeat IPC: 0.268038 cumulative IPC: 0.259518 (Simulation time: 0 hr 28 min 8 sec) 
Heartbeat CPU 0 instructions: 34000001 cycles: 98764092 heartbeat IPC: 0.243287 cumulative IPC: 0.258799 (Simulation time: 0 hr 28 min 55 sec) 
Heartbeat CPU 0 instructions: 35000002 cycles: 102263956 heartbeat IPC: 0.285726 cumulative IPC: 0.259778 (Simulation time: 0 hr 29 min 40 sec) 
Heartbeat CPU 0 instructions: 36000000 cycles: 106508118 heartbeat IPC: 0.235617 cumulative IPC: 0.258758 (Simulation time: 0 hr 30 min 29 sec) 
Heartbeat CPU 0 instructions: 37000000 cycles: 110826416 heartbeat IPC: 0.231573 cumulative IPC: 0.257638 (Simulation time: 0 hr 31 min 23 sec) 
Heartbeat CPU 0 instructions: 38000000 cycles: 114570907 heartbeat IPC: 0.267059 cumulative IPC: 0.257963 (Simulation time: 0 hr 32 min 12 sec) 
Heartbeat CPU 0 instructions: 39000001 cycles: 118715608 heartbeat IPC: 0.241272 cumulative IPC: 0.257349 (Simulation time: 0 hr 32 min 59 sec) 
Heartbeat CPU 0 instructions: 40000000 cycles: 122172934 heartbeat IPC: 0.289241 cumulative IPC: 0.258298 (Simulation time: 0 hr 33 min 44 sec) 
Heartbeat CPU 0 instructions: 41000000 cycles: 125830475 heartbeat IPC: 0.273408 cumulative IPC: 0.258759 (Simulation time: 0 hr 34 min 29 sec) 
Heartbeat CPU 0 instructions: 42000001 cycles: 130046177 heartbeat IPC: 0.237209 cumulative IPC: 0.258027 (Simulation time: 0 hr 35 min 16 sec) 
Heartbeat CPU 0 instructions: 43000001 cycles: 134132814 heartbeat IPC: 0.2447 cumulative IPC: 0.257602 (Simulation time: 0 hr 36 min 3 sec) 
Heartbeat CPU 0 instructions: 44000000 cycles: 137824341 heartbeat IPC: 0.27089 cumulative IPC: 0.257974 (Simulation time: 0 hr 36 min 50 sec) 
Heartbeat CPU 0 instructions: 45000003 cycles: 141712061 heartbeat IPC: 0.257221 cumulative IPC: 0.257952 (Simulation time: 0 hr 37 min 35 sec) 
Heartbeat CPU 0 instructions: 46000003 cycles: 145839957 heartbeat IPC: 0.242254 cumulative IPC: 0.257489 (Simulation time: 0 hr 38 min 21 sec) 
Heartbeat CPU 0 instructions: 47000000 cycles: 149075011 heartbeat IPC: 0.309113 cumulative IPC: 0.258656 (Simulation time: 0 hr 39 min 3 sec) 
Heartbeat CPU 0 instructions: 48000000 cycles: 153110749 heartbeat IPC: 0.247786 cumulative IPC: 0.258358 (Simulation time: 0 hr 39 min 49 sec) 
Heartbeat CPU 0 instructions: 49000000 cycles: 156184925 heartbeat IPC: 0.32529 cumulative IPC: 0.259728 (Simulation time: 0 hr 40 min 31 sec) 
Heartbeat CPU 0 instructions: 50000001 cycles: 160272063 heartbeat IPC: 0.24467 cumulative IPC: 0.259329 (Simulation time: 0 hr 41 min 17 sec) 
Heartbeat CPU 0 instructions: 51000003 cycles: 164047074 heartbeat IPC: 0.2649 cumulative IPC: 0.259462 (Simulation time: 0 hr 42 min 2 sec) 
Heartbeat CPU 0 instructions: 52000000 cycles: 168083300 heartbeat IPC: 0.247755 cumulative IPC: 0.259171 (Simulation time: 0 hr 42 min 53 sec) 
Heartbeat CPU 0 instructions: 53000000 cycles: 172534626 heartbeat IPC: 0.224652 cumulative IPC: 0.258248 (Simulation time: 0 hr 43 min 49 sec) 
Heartbeat CPU 0 instructions: 54000002 cycles: 176679806 heartbeat IPC: 0.241245 cumulative IPC: 0.257835 (Simulation time: 0 hr 44 min 44 sec) 
Heartbeat CPU 0 instructions: 55000001 cycles: 180571475 heartbeat IPC: 0.256959 cumulative IPC: 0.257815 (Simulation time: 0 hr 45 min 34 sec) 
Heartbeat CPU 0 instructions: 56000000 cycles: 184836696 heartbeat IPC: 0.234454 cumulative IPC: 0.257258 (Simulation time: 0 hr 46 min 28 sec) 
Heartbeat CPU 0 instructions: 57000001 cycles: 188922469 heartbeat IPC: 0.244752 cumulative IPC: 0.256979 (Simulation time: 0 hr 47 min 19 sec) 
Heartbeat CPU 0 instructions: 58000000 cycles: 192263771 heartbeat IPC: 0.299284 cumulative IPC: 0.257738 (Simulation time: 0 hr 48 min 3 sec) 
Heartbeat CPU 0 instructions: 59000003 cycles: 196178426 heartbeat IPC: 0.255451 cumulative IPC: 0.257691 (Simulation time: 0 hr 48 min 49 sec) 
Heartbeat CPU 0 instructions: 60000000 cycles: 200504056 heartbeat IPC: 0.23118 cumulative IPC: 0.257101 (Simulation time: 0 hr 49 min 39 sec) 
Heartbeat CPU 0 instructions: 61000001 cycles: 204729528 heartbeat IPC: 0.23666 cumulative IPC: 0.256666 (Simulation time: 0 hr 50 min 26 sec) 
Heartbeat CPU 0 instructions: 62000000 cycles: 208953406 heartbeat IPC: 0.236749 cumulative IPC: 0.256252 (Simulation time: 0 hr 51 min 13 sec) 
Heartbeat CPU 0 instructions: 63000001 cycles: 212624396 heartbeat IPC: 0.272406 cumulative IPC: 0.256539 (Simulation time: 0 hr 51 min 59 sec) 
Heartbeat CPU 0 instructions: 64000000 cycles: 216439495 heartbeat IPC: 0.262116 cumulative IPC: 0.25664 (Simulation time: 0 hr 52 min 43 sec) 
Heartbeat CPU 0 instructions: 65000001 cycles: 219967839 heartbeat IPC: 0.283419 cumulative IPC: 0.257082 (Simulation time: 0 hr 53 min 25 sec) 
Heartbeat CPU 0 instructions: 66000002 cycles: 224022319 heartbeat IPC: 0.246641 cumulative IPC: 0.256887 (Simulation time: 0 hr 54 min 8 sec) 
Heartbeat CPU 0 instructions: 67000002 cycles: 227914608 heartbeat IPC: 0.256918 cumulative IPC: 0.256888 (Simulation time: 0 hr 54 min 51 sec) 
Heartbeat CPU 0 instructions: 68000000 cycles: 231765176 heartbeat IPC: 0.259701 cumulative IPC: 0.256936 (Simulation time: 0 hr 55 min 35 sec) 
Heartbeat CPU 0 instructions: 69000000 cycles: 235779683 heartbeat IPC: 0.249097 cumulative IPC: 0.256799 (Simulation time: 0 hr 56 min 22 sec) 
Heartbeat CPU 0 instructions: 70000001 cycles: 239448532 heartbeat IPC: 0.272565 cumulative IPC: 0.257047 (Simulation time: 0 hr 57 min 1 sec) 
Heartbeat CPU 0 instructions: 71000003 cycles: 243352560 heartbeat IPC: 0.256146 cumulative IPC: 0.257032 (Simulation time: 0 hr 57 min 43 sec) 
Heartbeat CPU 0 instructions: 72000000 cycles: 247736363 heartbeat IPC: 0.228112 cumulative IPC: 0.256507 (Simulation time: 0 hr 58 min 26 sec) 
Heartbeat CPU 0 instructions: 73000002 cycles: 251730676 heartbeat IPC: 0.250356 cumulative IPC: 0.256407 (Simulation time: 0 hr 59 min 4 sec) 
Heartbeat CPU 0 instructions: 74000000 cycles: 255518468 heartbeat IPC: 0.264006 cumulative IPC: 0.256523 (Simulation time: 0 hr 59 min 40 sec) 
Heartbeat CPU 0 instructions: 75000003 cycles: 259518294 heartbeat IPC: 0.250012 cumulative IPC: 0.25642 (Simulation time: 1 hr 0 min 16 sec) 
Heartbeat CPU 0 instructions: 76000000 cycles: 263321962 heartbeat IPC: 0.262903 cumulative IPC: 0.256516 (Simulation time: 1 hr 0 min 49 sec) 
Heartbeat CPU 0 instructions: 77000002 cycles: 267754293 heartbeat IPC: 0.225615 cumulative IPC: 0.255993 (Simulation time: 1 hr 1 min 21 sec) 
Heartbeat CPU 0 instructions: 78000003 cycles: 271567394 heartbeat IPC: 0.262254 cumulative IPC: 0.256083 (Simulation time: 1 hr 1 min 52 sec) 
Heartbeat CPU 0 instructions: 79000002 cycles: 275426837 heartbeat IPC: 0.259104 cumulative IPC: 0.256126 (Simulation time: 1 hr 2 min 22 sec) 
Heartbeat CPU 0 instructions: 80000000 cycles: 279280068 heartbeat IPC: 0.259522 cumulative IPC: 0.256174 (Simulation time: 1 hr 2 min 50 sec) 
Heartbeat CPU 0 instructions: 81000002 cycles: 283400346 heartbeat IPC: 0.242703 cumulative IPC: 0.255974 (Simulation time: 1 hr 3 min 21 sec) 
Heartbeat CPU 0 instructions: 82000000 cycles: 287852205 heartbeat IPC: 0.224625 cumulative IPC: 0.255478 (Simulation time: 1 hr 3 min 50 sec) 
Heartbeat CPU 0 instructions: 83000002 cycles: 291622047 heartbeat IPC: 0.265264 cumulative IPC: 0.255608 (Simulation time: 1 hr 4 min 16 sec) 
Heartbeat CPU 0 instructions: 84000000 cycles: 295567323 heartbeat IPC: 0.253467 cumulative IPC: 0.255578 (Simulation time: 1 hr 4 min 44 sec) 
Heartbeat CPU 0 instructions: 85000000 cycles: 299452868 heartbeat IPC: 0.257364 cumulative IPC: 0.255602 (Simulation time: 1 hr 5 min 11 sec) 
Heartbeat CPU 0 instructions: 86000000 cycles: 303499017 heartbeat IPC: 0.247149 cumulative IPC: 0.255487 (Simulation time: 1 hr 5 min 39 sec) 
Heartbeat CPU 0 instructions: 87000001 cycles: 307294463 heartbeat IPC: 0.263474 cumulative IPC: 0.255588 (Simulation time: 1 hr 6 min 5 sec) 
Heartbeat CPU 0 instructions: 88000000 cycles: 311136632 heartbeat IPC: 0.260269 cumulative IPC: 0.255647 (Simulation time: 1 hr 6 min 29 sec) 
Heartbeat CPU 0 instructions: 89000003 cycles: 314683930 heartbeat IPC: 0.281906 cumulative IPC: 0.255948 (Simulation time: 1 hr 6 min 53 sec) 
Heartbeat CPU 0 instructions: 90000000 cycles: 318587424 heartbeat IPC: 0.25618 cumulative IPC: 0.255951 (Simulation time: 1 hr 7 min 15 sec) 
Heartbeat CPU 0 instructions: 91000001 cycles: 322130361 heartbeat IPC: 0.282252 cumulative IPC: 0.256246 (Simulation time: 1 hr 7 min 36 sec) 
Heartbeat CPU 0 instructions: 92000000 cycles: 326160966 heartbeat IPC: 0.248101 cumulative IPC: 0.256144 (Simulation time: 1 hr 7 min 55 sec) 
Heartbeat CPU 0 instructions: 93000001 cycles: 330537264 heartbeat IPC: 0.228504 cumulative IPC: 0.255771 (Simulation time: 1 hr 8 min 14 sec) 
Heartbeat CPU 0 instructions: 94000001 cycles: 334328019 heartbeat IPC: 0.2638 cumulative IPC: 0.255864 (Simulation time: 1 hr 8 min 32 sec) 
Heartbeat CPU 0 instructions: 95000000 cycles: 338294147 heartbeat IPC: 0.252135 cumulative IPC: 0.255819 (Simulation time: 1 hr 8 min 50 sec) 
Heartbeat CPU 0 instructions: 96000000 cycles: 342616133 heartbeat IPC: 0.231375 cumulative IPC: 0.255505 (Simulation time: 1 hr 9 min 5 sec) 
Heartbeat CPU 0 instructions: 97000000 cycles: 346233267 heartbeat IPC: 0.276462 cumulative IPC: 0.255728 (Simulation time: 1 hr 9 min 18 sec) 
Heartbeat CPU 0 instructions: 98000000 cycles: 350422843 heartbeat IPC: 0.238688 cumulative IPC: 0.255521 (Simulation time: 1 hr 9 min 32 sec) 
Heartbeat CPU 0 instructions: 99000000 cycles: 354819346 heartbeat IPC: 0.227454 cumulative IPC: 0.255167 (Simulation time: 1 hr 9 min 42 sec) 
Heartbeat CPU 0 instructions: 100000000 cycles: 358914790 heartbeat IPC: 0.244174 cumulative IPC: 0.255039 (Simulation time: 1 hr 9 min 51 sec) 
Heartbeat CPU 0 instructions: 101000000 cycles: 362841507 heartbeat IPC: 0.254666 cumulative IPC: 0.255035 (Simulation time: 1 hr 9 min 59 sec) 
Heartbeat CPU 0 instructions: 102000003 cycles: 367046633 heartbeat IPC: 0.237806 cumulative IPC: 0.254835 (Simulation time: 1 hr 10 min 7 sec) 
Heartbeat CPU 0 instructions: 103000000 cycles: 370932421 heartbeat IPC: 0.257347 cumulative IPC: 0.254861 (Simulation time: 1 hr 10 min 14 sec) 
Heartbeat CPU 0 instructions: 104000000 cycles: 374723192 heartbeat IPC: 0.263799 cumulative IPC: 0.254953 (Simulation time: 1 hr 10 min 22 sec) 
Heartbeat CPU 0 instructions: 105000003 cycles: 378814613 heartbeat IPC: 0.244415 cumulative IPC: 0.254837 (Simulation time: 1 hr 10 min 28 sec) 
Heartbeat CPU 0 instructions: 106000001 cycles: 382442582 heartbeat IPC: 0.275636 cumulative IPC: 0.255038 (Simulation time: 1 hr 10 min 34 sec) 
Heartbeat CPU 0 instructions: 107000000 cycles: 386593822 heartbeat IPC: 0.240892 cumulative IPC: 0.254884 (Simulation time: 1 hr 10 min 40 sec) 
Heartbeat CPU 0 instructions: 108000000 cycles: 390530573 heartbeat IPC: 0.254017 cumulative IPC: 0.254875 (Simulation time: 1 hr 10 min 45 sec) 
Heartbeat CPU 0 instructions: 109000000 cycles: 394893881 heartbeat IPC: 0.229184 cumulative IPC: 0.254586 (Simulation time: 1 hr 10 min 51 sec) 
Heartbeat CPU 0 instructions: 110000000 cycles: 398522407 heartbeat IPC: 0.275594 cumulative IPC: 0.254781 (Simulation time: 1 hr 10 min 56 sec) 
Finished CPU 0 instructions: 100000000 cycles: 392494386 cummulative IPC: 0.254781 (Simulation time: 1 hr 10 min 56 sec) 

ChampSim completed all CPUs

Region of Interest Statistics

CPU 0 cummulative IPC: 0.254781 instructions: 100000000 cycles: 392494386
LLC TOTAL     ACCESS:    4309292  HIT:    1367754  MISS:    2941538
LLC LOAD      ACCESS:    1522796  HIT:     451259  MISS:    1071537
LLC RFO       ACCESS:     250420  HIT:      85402  MISS:     165018
LLC PREFETCH  ACCESS:    1530035  HIT:     184099  MISS:    1345936
LLC WRITEBACK ACCESS:    1006041  HIT:     646994  MISS:     359047
Insertion Distribution: 
	LOAD 212014 0 171055 786915 
	RFO 68533 0 49791 63016 
	PREF 0 12514 64331 1416465 
	WRITEBACK 0 0 0 388179 
Total Prefetch Downgrades: 19279
