
*** ChampSim Multicore Out-of-Order Simulator ***

Warmup Instructions: 10000000
Simulation Instructions: 100000000
Configuration: 2
Number of CPUs: 1
LLC sets: 2048
LLC ways: 16
Off-chip DRAM Channels: 1 Width: 64-bit Data Rate: 1600 MT/s

CPU 0 runs /datasets/cs240c-wi22-a00-public/data/Assignment2-gz/bzip2_259B.trace.gz
CPU 0 L1D next line prefetcher
CPU 0 L2C IP-based stride prefetcher
Initialize SRRIP state
Heartbeat CPU 0 instructions: 1000002 cycles: 428875 heartbeat IPC: 2.33169 cumulative IPC: 2.33169 (Simulation time: 0 hr 0 min 42 sec) 
Heartbeat CPU 0 instructions: 2000003 cycles: 861057 heartbeat IPC: 2.31384 cumulative IPC: 2.32273 (Simulation time: 0 hr 1 min 21 sec) 
Heartbeat CPU 0 instructions: 3000001 cycles: 1286790 heartbeat IPC: 2.34889 cumulative IPC: 2.33138 (Simulation time: 0 hr 2 min 4 sec) 
Heartbeat CPU 0 instructions: 4000000 cycles: 1685062 heartbeat IPC: 2.51084 cumulative IPC: 2.3738 (Simulation time: 0 hr 2 min 40 sec) 
Heartbeat CPU 0 instructions: 5000001 cycles: 2103495 heartbeat IPC: 2.38987 cumulative IPC: 2.377 (Simulation time: 0 hr 3 min 20 sec) 
Heartbeat CPU 0 instructions: 6000001 cycles: 2532858 heartbeat IPC: 2.32903 cumulative IPC: 2.36887 (Simulation time: 0 hr 4 min 2 sec) 
Heartbeat CPU 0 instructions: 7000003 cycles: 2961906 heartbeat IPC: 2.33075 cumulative IPC: 2.36334 (Simulation time: 0 hr 4 min 48 sec) 
Heartbeat CPU 0 instructions: 8000000 cycles: 3391719 heartbeat IPC: 2.32659 cumulative IPC: 2.35869 (Simulation time: 0 hr 5 min 27 sec) 
Heartbeat CPU 0 instructions: 9000000 cycles: 3819845 heartbeat IPC: 2.33576 cumulative IPC: 2.35612 (Simulation time: 0 hr 6 min 9 sec) 
Heartbeat CPU 0 instructions: 10000002 cycles: 4193917 heartbeat IPC: 2.67329 cumulative IPC: 2.38441 (Simulation time: 0 hr 6 min 42 sec) 

Warmup complete CPU 0 instructions: 10000002 cycles: 4193917 (Simulation time: 0 hr 6 min 42 sec) 

Heartbeat CPU 0 instructions: 11000002 cycles: 5034789 heartbeat IPC: 1.18924 cumulative IPC: 1.18924 (Simulation time: 0 hr 7 min 18 sec) 
Heartbeat CPU 0 instructions: 12000000 cycles: 6140435 heartbeat IPC: 0.904447 cumulative IPC: 1.02747 (Simulation time: 0 hr 8 min 1 sec) 
Heartbeat CPU 0 instructions: 13000002 cycles: 7084320 heartbeat IPC: 1.05945 cumulative IPC: 1.03792 (Simulation time: 0 hr 8 min 46 sec) 
Heartbeat CPU 0 instructions: 14000003 cycles: 7998237 heartbeat IPC: 1.09419 cumulative IPC: 1.05144 (Simulation time: 0 hr 9 min 31 sec) 
Heartbeat CPU 0 instructions: 15000002 cycles: 9024453 heartbeat IPC: 0.974453 cumulative IPC: 1.03508 (Simulation time: 0 hr 10 min 17 sec) 
Heartbeat CPU 0 instructions: 16000000 cycles: 10020024 heartbeat IPC: 1.00445 cumulative IPC: 1.02985 (Simulation time: 0 hr 11 min 4 sec) 
Heartbeat CPU 0 instructions: 17000002 cycles: 11142547 heartbeat IPC: 0.890852 cumulative IPC: 1.00739 (Simulation time: 0 hr 11 min 49 sec) 
Heartbeat CPU 0 instructions: 18000001 cycles: 12234927 heartbeat IPC: 0.915431 cumulative IPC: 0.9949 (Simulation time: 0 hr 12 min 31 sec) 
Heartbeat CPU 0 instructions: 19000003 cycles: 13203936 heartbeat IPC: 1.03198 cumulative IPC: 0.998888 (Simulation time: 0 hr 13 min 7 sec) 
Heartbeat CPU 0 instructions: 20000000 cycles: 14212986 heartbeat IPC: 0.991028 cumulative IPC: 0.998097 (Simulation time: 0 hr 13 min 45 sec) 
Heartbeat CPU 0 instructions: 21000001 cycles: 15122115 heartbeat IPC: 1.09995 cumulative IPC: 1.00657 (Simulation time: 0 hr 14 min 22 sec) 
Heartbeat CPU 0 instructions: 22000001 cycles: 16033369 heartbeat IPC: 1.09739 cumulative IPC: 1.01356 (Simulation time: 0 hr 14 min 57 sec) 
Heartbeat CPU 0 instructions: 23000002 cycles: 16939609 heartbeat IPC: 1.10346 cumulative IPC: 1.01995 (Simulation time: 0 hr 15 min 35 sec) 
Heartbeat CPU 0 instructions: 24000000 cycles: 17841934 heartbeat IPC: 1.10825 cumulative IPC: 1.02579 (Simulation time: 0 hr 16 min 14 sec) 
Heartbeat CPU 0 instructions: 25000000 cycles: 18742966 heartbeat IPC: 1.10984 cumulative IPC: 1.031 (Simulation time: 0 hr 16 min 49 sec) 
Heartbeat CPU 0 instructions: 26000000 cycles: 19665502 heartbeat IPC: 1.08397 cumulative IPC: 1.03415 (Simulation time: 0 hr 17 min 25 sec) 
Heartbeat CPU 0 instructions: 27000003 cycles: 20604248 heartbeat IPC: 1.06525 cumulative IPC: 1.03593 (Simulation time: 0 hr 18 min 1 sec) 
Heartbeat CPU 0 instructions: 28000000 cycles: 21517775 heartbeat IPC: 1.09466 cumulative IPC: 1.03903 (Simulation time: 0 hr 18 min 34 sec) 
Heartbeat CPU 0 instructions: 29000000 cycles: 22425761 heartbeat IPC: 1.10134 cumulative IPC: 1.04213 (Simulation time: 0 hr 19 min 12 sec) 
Heartbeat CPU 0 instructions: 30000000 cycles: 23380213 heartbeat IPC: 1.04772 cumulative IPC: 1.04241 (Simulation time: 0 hr 19 min 47 sec) 
Heartbeat CPU 0 instructions: 31000001 cycles: 24281783 heartbeat IPC: 1.10918 cumulative IPC: 1.04541 (Simulation time: 0 hr 20 min 17 sec) 
Heartbeat CPU 0 instructions: 32000000 cycles: 25174731 heartbeat IPC: 1.11988 cumulative IPC: 1.04858 (Simulation time: 0 hr 20 min 49 sec) 
Heartbeat CPU 0 instructions: 33000002 cycles: 26277877 heartbeat IPC: 0.9065 cumulative IPC: 1.04148 (Simulation time: 0 hr 21 min 22 sec) 
Heartbeat CPU 0 instructions: 34000003 cycles: 27465928 heartbeat IPC: 0.841716 cumulative IPC: 1.03128 (Simulation time: 0 hr 22 min 0 sec) 
Heartbeat CPU 0 instructions: 35000001 cycles: 28498351 heartbeat IPC: 0.968593 cumulative IPC: 1.02862 (Simulation time: 0 hr 22 min 45 sec) 
Heartbeat CPU 0 instructions: 36000000 cycles: 29673218 heartbeat IPC: 0.851159 cumulative IPC: 1.02044 (Simulation time: 0 hr 23 min 26 sec) 
Heartbeat CPU 0 instructions: 37000002 cycles: 30716227 heartbeat IPC: 0.958766 cumulative IPC: 1.01801 (Simulation time: 0 hr 24 min 2 sec) 
Heartbeat CPU 0 instructions: 38000003 cycles: 31831464 heartbeat IPC: 0.896671 cumulative IPC: 1.01311 (Simulation time: 0 hr 24 min 26 sec) 
Heartbeat CPU 0 instructions: 39000001 cycles: 32975437 heartbeat IPC: 0.874145 cumulative IPC: 1.00759 (Simulation time: 0 hr 24 min 54 sec) 
Heartbeat CPU 0 instructions: 40000000 cycles: 34044913 heartbeat IPC: 0.935036 cumulative IPC: 1.00499 (Simulation time: 0 hr 25 min 20 sec) 
Heartbeat CPU 0 instructions: 41000001 cycles: 35234599 heartbeat IPC: 0.840559 cumulative IPC: 0.998689 (Simulation time: 0 hr 25 min 48 sec) 
Heartbeat CPU 0 instructions: 42000000 cycles: 36443831 heartbeat IPC: 0.82697 cumulative IPC: 0.992251 (Simulation time: 0 hr 26 min 17 sec) 
Heartbeat CPU 0 instructions: 43000003 cycles: 37660343 heartbeat IPC: 0.822025 cumulative IPC: 0.986063 (Simulation time: 0 hr 26 min 47 sec) 
Heartbeat CPU 0 instructions: 44000000 cycles: 38874288 heartbeat IPC: 0.823758 cumulative IPC: 0.980382 (Simulation time: 0 hr 27 min 15 sec) 
Heartbeat CPU 0 instructions: 45000000 cycles: 40096029 heartbeat IPC: 0.818504 cumulative IPC: 0.974873 (Simulation time: 0 hr 27 min 40 sec) 
Heartbeat CPU 0 instructions: 46000002 cycles: 41335370 heartbeat IPC: 0.806882 cumulative IPC: 0.969267 (Simulation time: 0 hr 28 min 7 sec) 
Heartbeat CPU 0 instructions: 47000000 cycles: 42567572 heartbeat IPC: 0.811554 cumulative IPC: 0.964203 (Simulation time: 0 hr 28 min 34 sec) 
Heartbeat CPU 0 instructions: 48000000 cycles: 43805746 heartbeat IPC: 0.807641 cumulative IPC: 0.959309 (Simulation time: 0 hr 29 min 3 sec) 
Heartbeat CPU 0 instructions: 49000003 cycles: 45075956 heartbeat IPC: 0.787274 cumulative IPC: 0.953964 (Simulation time: 0 hr 29 min 34 sec) 
Heartbeat CPU 0 instructions: 50000001 cycles: 46115137 heartbeat IPC: 0.962294 cumulative IPC: 0.954171 (Simulation time: 0 hr 30 min 3 sec) 
Heartbeat CPU 0 instructions: 51000002 cycles: 47280465 heartbeat IPC: 0.858128 cumulative IPC: 0.951573 (Simulation time: 0 hr 30 min 29 sec) 
Heartbeat CPU 0 instructions: 52000000 cycles: 48398626 heartbeat IPC: 0.894324 cumulative IPC: 0.950125 (Simulation time: 0 hr 30 min 59 sec) 
Heartbeat CPU 0 instructions: 53000001 cycles: 49594216 heartbeat IPC: 0.836408 cumulative IPC: 0.94713 (Simulation time: 0 hr 31 min 28 sec) 
Heartbeat CPU 0 instructions: 54000000 cycles: 50819856 heartbeat IPC: 0.815899 cumulative IPC: 0.943681 (Simulation time: 0 hr 31 min 53 sec) 
Heartbeat CPU 0 instructions: 55000000 cycles: 51971463 heartbeat IPC: 0.868352 cumulative IPC: 0.941865 (Simulation time: 0 hr 32 min 23 sec) 
Heartbeat CPU 0 instructions: 56000000 cycles: 53196318 heartbeat IPC: 0.816423 cumulative IPC: 0.938729 (Simulation time: 0 hr 32 min 54 sec) 
Heartbeat CPU 0 instructions: 57000000 cycles: 54417376 heartbeat IPC: 0.818962 cumulative IPC: 0.935818 (Simulation time: 0 hr 33 min 24 sec) 
Heartbeat CPU 0 instructions: 58000002 cycles: 55449906 heartbeat IPC: 0.968497 cumulative IPC: 0.936476 (Simulation time: 0 hr 33 min 50 sec) 
Heartbeat CPU 0 instructions: 59000000 cycles: 56550989 heartbeat IPC: 0.908195 cumulative IPC: 0.935881 (Simulation time: 0 hr 34 min 21 sec) 
Heartbeat CPU 0 instructions: 60000000 cycles: 57730889 heartbeat IPC: 0.847529 cumulative IPC: 0.933934 (Simulation time: 0 hr 34 min 51 sec) 
Heartbeat CPU 0 instructions: 61000000 cycles: 58875219 heartbeat IPC: 0.873874 cumulative IPC: 0.932677 (Simulation time: 0 hr 35 min 18 sec) 
Heartbeat CPU 0 instructions: 62000002 cycles: 59721034 heartbeat IPC: 1.18229 cumulative IPC: 0.936479 (Simulation time: 0 hr 35 min 46 sec) 
Heartbeat CPU 0 instructions: 63000001 cycles: 60652348 heartbeat IPC: 1.07375 cumulative IPC: 0.938744 (Simulation time: 0 hr 36 min 16 sec) 
Heartbeat CPU 0 instructions: 64000000 cycles: 61735211 heartbeat IPC: 0.923477 cumulative IPC: 0.938456 (Simulation time: 0 hr 36 min 50 sec) 
Heartbeat CPU 0 instructions: 65000003 cycles: 62746685 heartbeat IPC: 0.988659 cumulative IPC: 0.939324 (Simulation time: 0 hr 37 min 24 sec) 
Heartbeat CPU 0 instructions: 66000003 cycles: 63690113 heartbeat IPC: 1.05996 cumulative IPC: 0.941237 (Simulation time: 0 hr 37 min 56 sec) 
Heartbeat CPU 0 instructions: 67000003 cycles: 64732476 heartbeat IPC: 0.959359 cumulative IPC: 0.941549 (Simulation time: 0 hr 38 min 32 sec) 
Heartbeat CPU 0 instructions: 68000000 cycles: 65810668 heartbeat IPC: 0.927476 cumulative IPC: 0.941302 (Simulation time: 0 hr 39 min 6 sec) 
Heartbeat CPU 0 instructions: 69000003 cycles: 66928787 heartbeat IPC: 0.894362 cumulative IPC: 0.940466 (Simulation time: 0 hr 39 min 44 sec) 
Heartbeat CPU 0 instructions: 70000003 cycles: 68181919 heartbeat IPC: 0.798001 cumulative IPC: 0.937676 (Simulation time: 0 hr 40 min 19 sec) 
Heartbeat CPU 0 instructions: 71000000 cycles: 69489267 heartbeat IPC: 0.764905 cumulative IPC: 0.934217 (Simulation time: 0 hr 40 min 52 sec) 
Heartbeat CPU 0 instructions: 72000000 cycles: 70652628 heartbeat IPC: 0.859578 cumulative IPC: 0.93291 (Simulation time: 0 hr 41 min 24 sec) 
Heartbeat CPU 0 instructions: 73000003 cycles: 71958053 heartbeat IPC: 0.766036 cumulative IPC: 0.929695 (Simulation time: 0 hr 42 min 0 sec) 
Heartbeat CPU 0 instructions: 74000001 cycles: 73196677 heartbeat IPC: 0.807346 cumulative IPC: 0.927499 (Simulation time: 0 hr 42 min 33 sec) 
Heartbeat CPU 0 instructions: 75000000 cycles: 74359720 heartbeat IPC: 0.859813 cumulative IPC: 0.926377 (Simulation time: 0 hr 43 min 4 sec) 
Heartbeat CPU 0 instructions: 76000000 cycles: 75441892 heartbeat IPC: 0.924067 cumulative IPC: 0.926342 (Simulation time: 0 hr 43 min 35 sec) 
Heartbeat CPU 0 instructions: 77000003 cycles: 76402203 heartbeat IPC: 1.04133 cumulative IPC: 0.927871 (Simulation time: 0 hr 44 min 4 sec) 
Heartbeat CPU 0 instructions: 78000000 cycles: 77359428 heartbeat IPC: 1.04468 cumulative IPC: 0.9294 (Simulation time: 0 hr 44 min 35 sec) 
Heartbeat CPU 0 instructions: 79000003 cycles: 78436115 heartbeat IPC: 0.928778 cumulative IPC: 0.929391 (Simulation time: 0 hr 45 min 5 sec) 
Heartbeat CPU 0 instructions: 80000000 cycles: 79668668 heartbeat IPC: 0.811322 cumulative IPC: 0.927462 (Simulation time: 0 hr 45 min 37 sec) 
Heartbeat CPU 0 instructions: 81000001 cycles: 80827837 heartbeat IPC: 0.862688 cumulative IPC: 0.926483 (Simulation time: 0 hr 46 min 14 sec) 
Heartbeat CPU 0 instructions: 82000003 cycles: 81943276 heartbeat IPC: 0.89651 cumulative IPC: 0.926053 (Simulation time: 0 hr 46 min 47 sec) 
Heartbeat CPU 0 instructions: 83000002 cycles: 82993058 heartbeat IPC: 0.952578 cumulative IPC: 0.926406 (Simulation time: 0 hr 47 min 18 sec) 
Heartbeat CPU 0 instructions: 84000000 cycles: 83937236 heartbeat IPC: 1.05912 cumulative IPC: 0.927977 (Simulation time: 0 hr 47 min 47 sec) 
Heartbeat CPU 0 instructions: 85000003 cycles: 84880858 heartbeat IPC: 1.05975 cumulative IPC: 0.929518 (Simulation time: 0 hr 48 min 16 sec) 
Heartbeat CPU 0 instructions: 86000003 cycles: 85919045 heartbeat IPC: 0.963218 cumulative IPC: 0.929947 (Simulation time: 0 hr 48 min 45 sec) 
Heartbeat CPU 0 instructions: 87000002 cycles: 86988172 heartbeat IPC: 0.935342 cumulative IPC: 0.930016 (Simulation time: 0 hr 49 min 16 sec) 
Heartbeat CPU 0 instructions: 88000000 cycles: 88092995 heartbeat IPC: 0.905121 cumulative IPC: 0.929688 (Simulation time: 0 hr 49 min 42 sec) 
Heartbeat CPU 0 instructions: 89000002 cycles: 89099550 heartbeat IPC: 0.99349 cumulative IPC: 0.930445 (Simulation time: 0 hr 50 min 7 sec) 
Heartbeat CPU 0 instructions: 90000001 cycles: 90222600 heartbeat IPC: 0.890431 cumulative IPC: 0.929922 (Simulation time: 0 hr 50 min 33 sec) 
Heartbeat CPU 0 instructions: 91000002 cycles: 91336470 heartbeat IPC: 0.897772 cumulative IPC: 0.929511 (Simulation time: 0 hr 51 min 0 sec) 
Heartbeat CPU 0 instructions: 92000000 cycles: 92375328 heartbeat IPC: 0.962594 cumulative IPC: 0.929901 (Simulation time: 0 hr 51 min 27 sec) 
Heartbeat CPU 0 instructions: 93000000 cycles: 93562872 heartbeat IPC: 0.842074 cumulative IPC: 0.928734 (Simulation time: 0 hr 51 min 53 sec) 
Heartbeat CPU 0 instructions: 94000003 cycles: 94739073 heartbeat IPC: 0.850197 cumulative IPC: 0.927714 (Simulation time: 0 hr 52 min 20 sec) 
Heartbeat CPU 0 instructions: 95000002 cycles: 95924092 heartbeat IPC: 0.843867 cumulative IPC: 0.926631 (Simulation time: 0 hr 52 min 46 sec) 
Heartbeat CPU 0 instructions: 96000000 cycles: 97094439 heartbeat IPC: 0.854446 cumulative IPC: 0.925721 (Simulation time: 0 hr 53 min 15 sec) 
Heartbeat CPU 0 instructions: 97000002 cycles: 98311540 heartbeat IPC: 0.821626 cumulative IPC: 0.924375 (Simulation time: 0 hr 53 min 40 sec) 
Heartbeat CPU 0 instructions: 98000000 cycles: 99545336 heartbeat IPC: 0.810505 cumulative IPC: 0.922902 (Simulation time: 0 hr 54 min 5 sec) 
Heartbeat CPU 0 instructions: 99000000 cycles: 100785312 heartbeat IPC: 0.806467 cumulative IPC: 0.921407 (Simulation time: 0 hr 54 min 31 sec) 
Heartbeat CPU 0 instructions: 100000000 cycles: 102027372 heartbeat IPC: 0.805114 cumulative IPC: 0.919931 (Simulation time: 0 hr 54 min 56 sec) 
Heartbeat CPU 0 instructions: 101000003 cycles: 103175992 heartbeat IPC: 0.870613 cumulative IPC: 0.919358 (Simulation time: 0 hr 55 min 21 sec) 
Heartbeat CPU 0 instructions: 102000000 cycles: 104295305 heartbeat IPC: 0.893402 cumulative IPC: 0.919068 (Simulation time: 0 hr 55 min 47 sec) 
Heartbeat CPU 0 instructions: 103000000 cycles: 105396661 heartbeat IPC: 0.907972 cumulative IPC: 0.918947 (Simulation time: 0 hr 56 min 13 sec) 
Heartbeat CPU 0 instructions: 104000000 cycles: 106550027 heartbeat IPC: 0.867027 cumulative IPC: 0.918362 (Simulation time: 0 hr 56 min 38 sec) 
Heartbeat CPU 0 instructions: 105000002 cycles: 107761590 heartbeat IPC: 0.825382 cumulative IPC: 0.917275 (Simulation time: 0 hr 57 min 3 sec) 
Heartbeat CPU 0 instructions: 106000001 cycles: 108895149 heartbeat IPC: 0.882176 cumulative IPC: 0.916895 (Simulation time: 0 hr 57 min 27 sec) 
Heartbeat CPU 0 instructions: 107000000 cycles: 110098450 heartbeat IPC: 0.831046 cumulative IPC: 0.915919 (Simulation time: 0 hr 57 min 53 sec) 
Heartbeat CPU 0 instructions: 108000000 cycles: 111297265 heartbeat IPC: 0.834157 cumulative IPC: 0.915004 (Simulation time: 0 hr 58 min 24 sec) 
Heartbeat CPU 0 instructions: 109000000 cycles: 112309612 heartbeat IPC: 0.987804 cumulative IPC: 0.915686 (Simulation time: 0 hr 58 min 49 sec) 
Heartbeat CPU 0 instructions: 110000000 cycles: 113471162 heartbeat IPC: 0.860919 cumulative IPC: 0.915104 (Simulation time: 0 hr 59 min 11 sec) 
Finished CPU 0 instructions: 100000002 cycles: 109277247 cummulative IPC: 0.915104 (Simulation time: 0 hr 59 min 11 sec) 

ChampSim completed all CPUs

Region of Interest Statistics

CPU 0 cummulative IPC: 0.915104 instructions: 100000002 cycles: 109277247
LLC TOTAL     ACCESS:    1373539  HIT:    1059518  MISS:     314021
LLC LOAD      ACCESS:     396213  HIT:     349860  MISS:      46353
LLC RFO       ACCESS:     104385  HIT:      39715  MISS:      64670
LLC PREFETCH  ACCESS:     675958  HIT:     509377  MISS:     166581
LLC WRITEBACK ACCESS:     196983  HIT:     160566  MISS:      36417
Insertion Distribution: 
	LOAD 37303 0 8542 654 
	RFO 21393 0 29360 29871 
	PREF 0 24713 58820 83528 
	WRITEBACK 0 0 0 36421 
Total Prefetch Downgrades: 32387
