
*** ChampSim Multicore Out-of-Order Simulator ***

Warmup Instructions: 10000000
Simulation Instructions: 100000000
Configuration: 2
Number of CPUs: 1
LLC sets: 2048
LLC ways: 16
Off-chip DRAM Channels: 1 Width: 64-bit Data Rate: 1600 MT/s

CPU 0 runs /datasets/cs240c-wi22-a00-public/data/Assignment2-gz/milc_409B.trace.gz
CPU 0 L1D next line prefetcher
CPU 0 L2C IP-based stride prefetcher
Initialize SRRIP state
Heartbeat CPU 0 instructions: 1000002 cycles: 407040 heartbeat IPC: 2.45677 cumulative IPC: 2.45677 (Simulation time: 0 hr 0 min 45 sec) 
Heartbeat CPU 0 instructions: 2000002 cycles: 889868 heartbeat IPC: 2.07113 cumulative IPC: 2.24753 (Simulation time: 0 hr 1 min 31 sec) 
Heartbeat CPU 0 instructions: 3000003 cycles: 1672035 heartbeat IPC: 1.2785 cumulative IPC: 1.79422 (Simulation time: 0 hr 2 min 28 sec) 
Heartbeat CPU 0 instructions: 4000000 cycles: 2454292 heartbeat IPC: 1.27835 cumulative IPC: 1.6298 (Simulation time: 0 hr 3 min 20 sec) 
Heartbeat CPU 0 instructions: 5000000 cycles: 3135412 heartbeat IPC: 1.46817 cumulative IPC: 1.59469 (Simulation time: 0 hr 4 min 16 sec) 
Heartbeat CPU 0 instructions: 6000003 cycles: 3679804 heartbeat IPC: 1.83692 cumulative IPC: 1.63052 (Simulation time: 0 hr 5 min 3 sec) 
Heartbeat CPU 0 instructions: 7000002 cycles: 4224110 heartbeat IPC: 1.8372 cumulative IPC: 1.65715 (Simulation time: 0 hr 5 min 45 sec) 
Heartbeat CPU 0 instructions: 8000000 cycles: 4768518 heartbeat IPC: 1.83685 cumulative IPC: 1.67767 (Simulation time: 0 hr 6 min 26 sec) 
Heartbeat CPU 0 instructions: 9000003 cycles: 5312844 heartbeat IPC: 1.83714 cumulative IPC: 1.69401 (Simulation time: 0 hr 7 min 7 sec) 
Heartbeat CPU 0 instructions: 10000000 cycles: 5857232 heartbeat IPC: 1.83692 cumulative IPC: 1.70729 (Simulation time: 0 hr 7 min 49 sec) 

Warmup complete CPU 0 instructions: 10000002 cycles: 5857233 (Simulation time: 0 hr 7 min 49 sec) 

Heartbeat CPU 0 instructions: 11000002 cycles: 7518962 heartbeat IPC: 0.601784 cumulative IPC: 0.601783 (Simulation time: 0 hr 8 min 38 sec) 
Heartbeat CPU 0 instructions: 12000000 cycles: 9179472 heartbeat IPC: 0.602223 cumulative IPC: 0.602003 (Simulation time: 0 hr 9 min 27 sec) 
Heartbeat CPU 0 instructions: 13000003 cycles: 10837245 heartbeat IPC: 0.603221 cumulative IPC: 0.602408 (Simulation time: 0 hr 10 min 13 sec) 
Heartbeat CPU 0 instructions: 14000002 cycles: 12495797 heartbeat IPC: 0.602935 cumulative IPC: 0.60254 (Simulation time: 0 hr 10 min 59 sec) 
Heartbeat CPU 0 instructions: 15000001 cycles: 14151771 heartbeat IPC: 0.603874 cumulative IPC: 0.602806 (Simulation time: 0 hr 11 min 46 sec) 
Heartbeat CPU 0 instructions: 16000000 cycles: 15812122 heartbeat IPC: 0.602282 cumulative IPC: 0.602719 (Simulation time: 0 hr 12 min 34 sec) 
Heartbeat CPU 0 instructions: 17000002 cycles: 17472888 heartbeat IPC: 0.602133 cumulative IPC: 0.602635 (Simulation time: 0 hr 13 min 24 sec) 
Heartbeat CPU 0 instructions: 18000000 cycles: 19131878 heartbeat IPC: 0.602775 cumulative IPC: 0.602652 (Simulation time: 0 hr 14 min 9 sec) 
Heartbeat CPU 0 instructions: 19000003 cycles: 20788527 heartbeat IPC: 0.60363 cumulative IPC: 0.602761 (Simulation time: 0 hr 14 min 57 sec) 
Heartbeat CPU 0 instructions: 20000000 cycles: 22445651 heartbeat IPC: 0.603453 cumulative IPC: 0.60283 (Simulation time: 0 hr 15 min 44 sec) 
Heartbeat CPU 0 instructions: 21000001 cycles: 24098450 heartbeat IPC: 0.605035 cumulative IPC: 0.60303 (Simulation time: 0 hr 16 min 33 sec) 
Heartbeat CPU 0 instructions: 22000002 cycles: 25757764 heartbeat IPC: 0.602659 cumulative IPC: 0.602999 (Simulation time: 0 hr 17 min 21 sec) 
Heartbeat CPU 0 instructions: 23000002 cycles: 27416214 heartbeat IPC: 0.602973 cumulative IPC: 0.602997 (Simulation time: 0 hr 18 min 9 sec) 
Heartbeat CPU 0 instructions: 24000000 cycles: 29071288 heartbeat IPC: 0.604201 cumulative IPC: 0.603083 (Simulation time: 0 hr 18 min 56 sec) 
Heartbeat CPU 0 instructions: 25000002 cycles: 30732008 heartbeat IPC: 0.60215 cumulative IPC: 0.603021 (Simulation time: 0 hr 19 min 39 sec) 
Heartbeat CPU 0 instructions: 26000000 cycles: 32386326 heartbeat IPC: 0.604477 cumulative IPC: 0.603111 (Simulation time: 0 hr 20 min 21 sec) 
Heartbeat CPU 0 instructions: 27000002 cycles: 34038076 heartbeat IPC: 0.60542 cumulative IPC: 0.603247 (Simulation time: 0 hr 21 min 1 sec) 
Heartbeat CPU 0 instructions: 28000000 cycles: 35700017 heartbeat IPC: 0.601705 cumulative IPC: 0.603161 (Simulation time: 0 hr 21 min 41 sec) 
Heartbeat CPU 0 instructions: 29000002 cycles: 37348689 heartbeat IPC: 0.60655 cumulative IPC: 0.603338 (Simulation time: 0 hr 22 min 21 sec) 
Heartbeat CPU 0 instructions: 30000000 cycles: 39001601 heartbeat IPC: 0.604992 cumulative IPC: 0.603421 (Simulation time: 0 hr 23 min 3 sec) 
Heartbeat CPU 0 instructions: 31000000 cycles: 40658279 heartbeat IPC: 0.603618 cumulative IPC: 0.60343 (Simulation time: 0 hr 23 min 55 sec) 
Heartbeat CPU 0 instructions: 32000000 cycles: 42315448 heartbeat IPC: 0.603439 cumulative IPC: 0.60343 (Simulation time: 0 hr 24 min 38 sec) 
Heartbeat CPU 0 instructions: 33000000 cycles: 43973948 heartbeat IPC: 0.602954 cumulative IPC: 0.60341 (Simulation time: 0 hr 25 min 12 sec) 
Heartbeat CPU 0 instructions: 34000000 cycles: 45634768 heartbeat IPC: 0.602112 cumulative IPC: 0.603356 (Simulation time: 0 hr 25 min 50 sec) 
Heartbeat CPU 0 instructions: 35000002 cycles: 47287933 heartbeat IPC: 0.604901 cumulative IPC: 0.603417 (Simulation time: 0 hr 26 min 25 sec) 
Heartbeat CPU 0 instructions: 36000000 cycles: 48942326 heartbeat IPC: 0.60445 cumulative IPC: 0.603457 (Simulation time: 0 hr 27 min 1 sec) 
Heartbeat CPU 0 instructions: 37000000 cycles: 50599233 heartbeat IPC: 0.603534 cumulative IPC: 0.60346 (Simulation time: 0 hr 27 min 43 sec) 
Heartbeat CPU 0 instructions: 38000002 cycles: 52253307 heartbeat IPC: 0.604569 cumulative IPC: 0.603499 (Simulation time: 0 hr 28 min 19 sec) 
Heartbeat CPU 0 instructions: 39000001 cycles: 53910244 heartbeat IPC: 0.603523 cumulative IPC: 0.6035 (Simulation time: 0 hr 28 min 55 sec) 
Heartbeat CPU 0 instructions: 40000000 cycles: 55568190 heartbeat IPC: 0.603155 cumulative IPC: 0.603489 (Simulation time: 0 hr 29 min 30 sec) 
Heartbeat CPU 0 instructions: 41000002 cycles: 57221565 heartbeat IPC: 0.604825 cumulative IPC: 0.603532 (Simulation time: 0 hr 30 min 5 sec) 
Heartbeat CPU 0 instructions: 42000001 cycles: 58878031 heartbeat IPC: 0.603694 cumulative IPC: 0.603537 (Simulation time: 0 hr 30 min 42 sec) 
Heartbeat CPU 0 instructions: 43000000 cycles: 60533906 heartbeat IPC: 0.60391 cumulative IPC: 0.603548 (Simulation time: 0 hr 31 min 21 sec) 
Heartbeat CPU 0 instructions: 44000000 cycles: 62194494 heartbeat IPC: 0.602196 cumulative IPC: 0.603508 (Simulation time: 0 hr 31 min 57 sec) 
Heartbeat CPU 0 instructions: 45000000 cycles: 63850182 heartbeat IPC: 0.603979 cumulative IPC: 0.603522 (Simulation time: 0 hr 32 min 35 sec) 
Heartbeat CPU 0 instructions: 46000000 cycles: 65506524 heartbeat IPC: 0.60374 cumulative IPC: 0.603528 (Simulation time: 0 hr 33 min 12 sec) 
Heartbeat CPU 0 instructions: 47000002 cycles: 67164977 heartbeat IPC: 0.602973 cumulative IPC: 0.603513 (Simulation time: 0 hr 33 min 49 sec) 
Heartbeat CPU 0 instructions: 48000000 cycles: 68821837 heartbeat IPC: 0.60355 cumulative IPC: 0.603514 (Simulation time: 0 hr 34 min 25 sec) 
Heartbeat CPU 0 instructions: 49000000 cycles: 70472417 heartbeat IPC: 0.605848 cumulative IPC: 0.603573 (Simulation time: 0 hr 35 min 2 sec) 
Heartbeat CPU 0 instructions: 50000001 cycles: 72129088 heartbeat IPC: 0.603621 cumulative IPC: 0.603574 (Simulation time: 0 hr 35 min 41 sec) 
Heartbeat CPU 0 instructions: 51000002 cycles: 73782719 heartbeat IPC: 0.60473 cumulative IPC: 0.603603 (Simulation time: 0 hr 36 min 18 sec) 
Heartbeat CPU 0 instructions: 52000000 cycles: 75646512 heartbeat IPC: 0.536539 cumulative IPC: 0.601812 (Simulation time: 0 hr 36 min 55 sec) 
Heartbeat CPU 0 instructions: 53000001 cycles: 77798869 heartbeat IPC: 0.464607 cumulative IPC: 0.597707 (Simulation time: 0 hr 37 min 35 sec) 
Heartbeat CPU 0 instructions: 54000001 cycles: 80011352 heartbeat IPC: 0.451981 cumulative IPC: 0.593359 (Simulation time: 0 hr 38 min 16 sec) 
Heartbeat CPU 0 instructions: 55000002 cycles: 82256363 heartbeat IPC: 0.445433 cumulative IPC: 0.589012 (Simulation time: 0 hr 39 min 1 sec) 
Heartbeat CPU 0 instructions: 56000000 cycles: 84500388 heartbeat IPC: 0.445627 cumulative IPC: 0.584921 (Simulation time: 0 hr 39 min 45 sec) 
Heartbeat CPU 0 instructions: 57000000 cycles: 86745870 heartbeat IPC: 0.445339 cumulative IPC: 0.581046 (Simulation time: 0 hr 40 min 32 sec) 
Heartbeat CPU 0 instructions: 58000002 cycles: 88958137 heartbeat IPC: 0.452026 cumulative IPC: 0.577611 (Simulation time: 0 hr 41 min 15 sec) 
Heartbeat CPU 0 instructions: 59000001 cycles: 90739215 heartbeat IPC: 0.561457 cumulative IPC: 0.577272 (Simulation time: 0 hr 41 min 55 sec) 
Heartbeat CPU 0 instructions: 60000000 cycles: 92395590 heartbeat IPC: 0.603727 cumulative IPC: 0.577778 (Simulation time: 0 hr 42 min 30 sec) 
Heartbeat CPU 0 instructions: 61000000 cycles: 94053106 heartbeat IPC: 0.603312 cumulative IPC: 0.578258 (Simulation time: 0 hr 43 min 5 sec) 
Heartbeat CPU 0 instructions: 62000000 cycles: 95708894 heartbeat IPC: 0.603942 cumulative IPC: 0.578732 (Simulation time: 0 hr 43 min 41 sec) 
Heartbeat CPU 0 instructions: 63000003 cycles: 97372777 heartbeat IPC: 0.601006 cumulative IPC: 0.579137 (Simulation time: 0 hr 44 min 20 sec) 
Heartbeat CPU 0 instructions: 64000000 cycles: 99038876 heartbeat IPC: 0.600203 cumulative IPC: 0.579513 (Simulation time: 0 hr 44 min 55 sec) 
Heartbeat CPU 0 instructions: 65000002 cycles: 100709067 heartbeat IPC: 0.598735 cumulative IPC: 0.579852 (Simulation time: 0 hr 45 min 32 sec) 
Heartbeat CPU 0 instructions: 66000002 cycles: 102371419 heartbeat IPC: 0.601557 cumulative IPC: 0.580226 (Simulation time: 0 hr 46 min 9 sec) 
Heartbeat CPU 0 instructions: 67000001 cycles: 104036812 heartbeat IPC: 0.600458 cumulative IPC: 0.580569 (Simulation time: 0 hr 46 min 49 sec) 
Heartbeat CPU 0 instructions: 68000000 cycles: 105704338 heartbeat IPC: 0.59969 cumulative IPC: 0.580888 (Simulation time: 0 hr 47 min 24 sec) 
Heartbeat CPU 0 instructions: 69000000 cycles: 107375255 heartbeat IPC: 0.598474 cumulative IPC: 0.581178 (Simulation time: 0 hr 48 min 1 sec) 
Heartbeat CPU 0 instructions: 70000000 cycles: 109041944 heartbeat IPC: 0.599992 cumulative IPC: 0.581481 (Simulation time: 0 hr 48 min 39 sec) 
Heartbeat CPU 0 instructions: 71000002 cycles: 110710522 heartbeat IPC: 0.599314 cumulative IPC: 0.581765 (Simulation time: 0 hr 49 min 17 sec) 
Heartbeat CPU 0 instructions: 72000000 cycles: 112379049 heartbeat IPC: 0.59933 cumulative IPC: 0.58204 (Simulation time: 0 hr 49 min 52 sec) 
Heartbeat CPU 0 instructions: 73000003 cycles: 114043379 heartbeat IPC: 0.600844 cumulative IPC: 0.58233 (Simulation time: 0 hr 50 min 32 sec) 
Heartbeat CPU 0 instructions: 74000002 cycles: 115714160 heartbeat IPC: 0.598522 cumulative IPC: 0.582576 (Simulation time: 0 hr 51 min 8 sec) 
Heartbeat CPU 0 instructions: 75000003 cycles: 117379008 heartbeat IPC: 0.600656 cumulative IPC: 0.582846 (Simulation time: 0 hr 51 min 44 sec) 
Heartbeat CPU 0 instructions: 76000000 cycles: 119049871 heartbeat IPC: 0.598491 cumulative IPC: 0.583077 (Simulation time: 0 hr 52 min 20 sec) 
Heartbeat CPU 0 instructions: 77000003 cycles: 120719130 heartbeat IPC: 0.59907 cumulative IPC: 0.583309 (Simulation time: 0 hr 52 min 58 sec) 
Heartbeat CPU 0 instructions: 78000000 cycles: 122385028 heartbeat IPC: 0.600275 cumulative IPC: 0.583552 (Simulation time: 0 hr 53 min 34 sec) 
Heartbeat CPU 0 instructions: 79000000 cycles: 124052415 heartbeat IPC: 0.599741 cumulative IPC: 0.58378 (Simulation time: 0 hr 54 min 8 sec) 
Heartbeat CPU 0 instructions: 80000000 cycles: 125717003 heartbeat IPC: 0.600749 cumulative IPC: 0.584016 (Simulation time: 0 hr 54 min 43 sec) 
Heartbeat CPU 0 instructions: 81000000 cycles: 127381972 heartbeat IPC: 0.600612 cumulative IPC: 0.584243 (Simulation time: 0 hr 55 min 18 sec) 
Heartbeat CPU 0 instructions: 82000002 cycles: 129041996 heartbeat IPC: 0.602402 cumulative IPC: 0.584488 (Simulation time: 0 hr 55 min 51 sec) 
Heartbeat CPU 0 instructions: 83000003 cycles: 130700609 heartbeat IPC: 0.602914 cumulative IPC: 0.584733 (Simulation time: 0 hr 56 min 29 sec) 
Heartbeat CPU 0 instructions: 84000000 cycles: 132359325 heartbeat IPC: 0.602874 cumulative IPC: 0.584971 (Simulation time: 0 hr 57 min 3 sec) 
Heartbeat CPU 0 instructions: 85000001 cycles: 134021719 heartbeat IPC: 0.601543 cumulative IPC: 0.585186 (Simulation time: 0 hr 57 min 38 sec) 
Heartbeat CPU 0 instructions: 86000002 cycles: 135683115 heartbeat IPC: 0.601904 cumulative IPC: 0.585399 (Simulation time: 0 hr 58 min 11 sec) 
Heartbeat CPU 0 instructions: 87000003 cycles: 137344917 heartbeat IPC: 0.601757 cumulative IPC: 0.585606 (Simulation time: 0 hr 58 min 44 sec) 
Heartbeat CPU 0 instructions: 88000000 cycles: 139010186 heartbeat IPC: 0.600502 cumulative IPC: 0.585792 (Simulation time: 0 hr 59 min 14 sec) 
Heartbeat CPU 0 instructions: 89000001 cycles: 140675912 heartbeat IPC: 0.600339 cumulative IPC: 0.585972 (Simulation time: 0 hr 59 min 41 sec) 
Heartbeat CPU 0 instructions: 90000002 cycles: 142338096 heartbeat IPC: 0.601619 cumulative IPC: 0.586163 (Simulation time: 1 hr 0 min 8 sec) 
Heartbeat CPU 0 instructions: 91000000 cycles: 143996832 heartbeat IPC: 0.602867 cumulative IPC: 0.586363 (Simulation time: 1 hr 0 min 35 sec) 
Heartbeat CPU 0 instructions: 92000000 cycles: 145655669 heartbeat IPC: 0.602832 cumulative IPC: 0.586559 (Simulation time: 1 hr 1 min 4 sec) 
Heartbeat CPU 0 instructions: 93000003 cycles: 147319875 heartbeat IPC: 0.600889 cumulative IPC: 0.586727 (Simulation time: 1 hr 1 min 29 sec) 
Heartbeat CPU 0 instructions: 94000002 cycles: 148983807 heartbeat IPC: 0.600985 cumulative IPC: 0.586893 (Simulation time: 1 hr 1 min 51 sec) 
Heartbeat CPU 0 instructions: 95000003 cycles: 150642428 heartbeat IPC: 0.602911 cumulative IPC: 0.587077 (Simulation time: 1 hr 2 min 12 sec) 
Heartbeat CPU 0 instructions: 96000000 cycles: 152304669 heartbeat IPC: 0.601596 cumulative IPC: 0.587241 (Simulation time: 1 hr 2 min 34 sec) 
Heartbeat CPU 0 instructions: 97000001 cycles: 153967435 heartbeat IPC: 0.601408 cumulative IPC: 0.5874 (Simulation time: 1 hr 2 min 57 sec) 
Heartbeat CPU 0 instructions: 98000002 cycles: 155627676 heartbeat IPC: 0.602323 cumulative IPC: 0.587566 (Simulation time: 1 hr 3 min 20 sec) 
Heartbeat CPU 0 instructions: 99000003 cycles: 157290743 heartbeat IPC: 0.601299 cumulative IPC: 0.587717 (Simulation time: 1 hr 3 min 42 sec) 
Heartbeat CPU 0 instructions: 100000000 cycles: 158950842 heartbeat IPC: 0.602372 cumulative IPC: 0.587876 (Simulation time: 1 hr 4 min 3 sec) 
Heartbeat CPU 0 instructions: 101000001 cycles: 160608010 heartbeat IPC: 0.60344 cumulative IPC: 0.588042 (Simulation time: 1 hr 4 min 23 sec) 
Heartbeat CPU 0 instructions: 102000002 cycles: 162271713 heartbeat IPC: 0.601069 cumulative IPC: 0.588181 (Simulation time: 1 hr 4 min 43 sec) 
Heartbeat CPU 0 instructions: 103000000 cycles: 163934205 heartbeat IPC: 0.601505 cumulative IPC: 0.588321 (Simulation time: 1 hr 5 min 3 sec) 
Heartbeat CPU 0 instructions: 104000000 cycles: 165595493 heartbeat IPC: 0.601943 cumulative IPC: 0.588463 (Simulation time: 1 hr 5 min 23 sec) 
Heartbeat CPU 0 instructions: 105000003 cycles: 167452276 heartbeat IPC: 0.538567 cumulative IPC: 0.587889 (Simulation time: 1 hr 5 min 43 sec) 
Heartbeat CPU 0 instructions: 106000003 cycles: 171287881 heartbeat IPC: 0.260715 cumulative IPC: 0.580304 (Simulation time: 1 hr 6 min 10 sec) 
Heartbeat CPU 0 instructions: 107000000 cycles: 173027724 heartbeat IPC: 0.574763 cumulative IPC: 0.580246 (Simulation time: 1 hr 6 min 25 sec) 
Heartbeat CPU 0 instructions: 108000000 cycles: 174754024 heartbeat IPC: 0.579274 cumulative IPC: 0.580236 (Simulation time: 1 hr 6 min 40 sec) 
Heartbeat CPU 0 instructions: 109000001 cycles: 176477541 heartbeat IPC: 0.58021 cumulative IPC: 0.580236 (Simulation time: 1 hr 6 min 52 sec) 
Heartbeat CPU 0 instructions: 110000001 cycles: 178233779 heartbeat IPC: 0.569399 cumulative IPC: 0.580125 (Simulation time: 1 hr 7 min 6 sec) 
Finished CPU 0 instructions: 100000003 cycles: 172376547 cummulative IPC: 0.580125 (Simulation time: 1 hr 7 min 6 sec) 

ChampSim completed all CPUs

Region of Interest Statistics

CPU 0 cummulative IPC: 0.580125 instructions: 100000003 cycles: 172376547
LLC TOTAL     ACCESS:    3300884  HIT:      72554  MISS:    3228330
LLC LOAD      ACCESS:     970529  HIT:        307  MISS:     970222
LLC RFO       ACCESS:     136847  HIT:      12240  MISS:     124607
LLC PREFETCH  ACCESS:    1335419  HIT:       9658  MISS:    1325761
LLC WRITEBACK ACCESS:     858089  HIT:      50349  MISS:     807740
Insertion Distribution: 
	LOAD 0 0 18037 999903 
	RFO 0 0 40242 225376 
	PREF 0 0 82981 1468684 
	WRITEBACK 0 0 0 951880 
Total Prefetch Downgrades: 0
