
*** ChampSim Multicore Out-of-Order Simulator ***

Warmup Instructions: 10000000
Simulation Instructions: 100000000
Configuration: 2
Number of CPUs: 1
LLC sets: 2048
LLC ways: 16
Off-chip DRAM Channels: 1 Width: 64-bit Data Rate: 1600 MT/s

CPU 0 runs /datasets/cs240c-wi22-a00-public/data/Assignment2-gz/zeusmp_600B.trace.gz
CPU 0 L1D next line prefetcher
CPU 0 L2C IP-based stride prefetcher
Initialize SRRIP state
Heartbeat CPU 0 instructions: 1000000 cycles: 407346 heartbeat IPC: 2.45492 cumulative IPC: 2.45492 (Simulation time: 0 hr 0 min 35 sec) 
Heartbeat CPU 0 instructions: 2000001 cycles: 814284 heartbeat IPC: 2.45738 cumulative IPC: 2.45615 (Simulation time: 0 hr 1 min 9 sec) 
Heartbeat CPU 0 instructions: 3000000 cycles: 1221753 heartbeat IPC: 2.45417 cumulative IPC: 2.45549 (Simulation time: 0 hr 1 min 43 sec) 
Heartbeat CPU 0 instructions: 4000000 cycles: 1629404 heartbeat IPC: 2.45308 cumulative IPC: 2.45489 (Simulation time: 0 hr 2 min 16 sec) 
Heartbeat CPU 0 instructions: 5000001 cycles: 2036967 heartbeat IPC: 2.45361 cumulative IPC: 2.45463 (Simulation time: 0 hr 2 min 49 sec) 
Heartbeat CPU 0 instructions: 6000000 cycles: 2444291 heartbeat IPC: 2.45505 cumulative IPC: 2.4547 (Simulation time: 0 hr 3 min 23 sec) 
Heartbeat CPU 0 instructions: 7000000 cycles: 2851775 heartbeat IPC: 2.45408 cumulative IPC: 2.45461 (Simulation time: 0 hr 3 min 55 sec) 
Heartbeat CPU 0 instructions: 8000000 cycles: 3259377 heartbeat IPC: 2.45337 cumulative IPC: 2.45446 (Simulation time: 0 hr 4 min 28 sec) 
Heartbeat CPU 0 instructions: 9000003 cycles: 3666454 heartbeat IPC: 2.45655 cumulative IPC: 2.45469 (Simulation time: 0 hr 5 min 0 sec) 
Heartbeat CPU 0 instructions: 10000001 cycles: 4073958 heartbeat IPC: 2.45396 cumulative IPC: 2.45462 (Simulation time: 0 hr 5 min 33 sec) 

Warmup complete CPU 0 instructions: 10000001 cycles: 4073958 (Simulation time: 0 hr 5 min 33 sec) 

Heartbeat CPU 0 instructions: 11000000 cycles: 4748303 heartbeat IPC: 1.48292 cumulative IPC: 1.48292 (Simulation time: 0 hr 6 min 11 sec) 
Heartbeat CPU 0 instructions: 12000000 cycles: 5422168 heartbeat IPC: 1.48398 cumulative IPC: 1.48345 (Simulation time: 0 hr 6 min 50 sec) 
Heartbeat CPU 0 instructions: 13000001 cycles: 6096788 heartbeat IPC: 1.48232 cumulative IPC: 1.48307 (Simulation time: 0 hr 7 min 28 sec) 
Heartbeat CPU 0 instructions: 14000001 cycles: 6770530 heartbeat IPC: 1.48425 cumulative IPC: 1.48336 (Simulation time: 0 hr 8 min 5 sec) 
Heartbeat CPU 0 instructions: 15000003 cycles: 7446056 heartbeat IPC: 1.48033 cumulative IPC: 1.48276 (Simulation time: 0 hr 8 min 46 sec) 
Heartbeat CPU 0 instructions: 16000000 cycles: 8168594 heartbeat IPC: 1.38401 cumulative IPC: 1.46533 (Simulation time: 0 hr 9 min 24 sec) 
Heartbeat CPU 0 instructions: 17000001 cycles: 8951605 heartbeat IPC: 1.27712 cumulative IPC: 1.43512 (Simulation time: 0 hr 10 min 2 sec) 
Heartbeat CPU 0 instructions: 18000003 cycles: 9728980 heartbeat IPC: 1.28638 cumulative IPC: 1.41467 (Simulation time: 0 hr 10 min 38 sec) 
Heartbeat CPU 0 instructions: 19000000 cycles: 10504287 heartbeat IPC: 1.28981 cumulative IPC: 1.39962 (Simulation time: 0 hr 11 min 16 sec) 
Heartbeat CPU 0 instructions: 20000000 cycles: 11274914 heartbeat IPC: 1.29764 cumulative IPC: 1.3887 (Simulation time: 0 hr 11 min 59 sec) 
Heartbeat CPU 0 instructions: 21000002 cycles: 12049016 heartbeat IPC: 1.29182 cumulative IPC: 1.3793 (Simulation time: 0 hr 12 min 38 sec) 
Heartbeat CPU 0 instructions: 22000000 cycles: 12814689 heartbeat IPC: 1.30604 cumulative IPC: 1.37288 (Simulation time: 0 hr 13 min 17 sec) 
Heartbeat CPU 0 instructions: 23000000 cycles: 13585705 heartbeat IPC: 1.29699 cumulative IPC: 1.36673 (Simulation time: 0 hr 13 min 55 sec) 
Heartbeat CPU 0 instructions: 24000000 cycles: 14357481 heartbeat IPC: 1.29571 cumulative IPC: 1.3614 (Simulation time: 0 hr 14 min 31 sec) 
Heartbeat CPU 0 instructions: 25000000 cycles: 15124559 heartbeat IPC: 1.30365 cumulative IPC: 1.35739 (Simulation time: 0 hr 15 min 10 sec) 
Heartbeat CPU 0 instructions: 26000000 cycles: 15898196 heartbeat IPC: 1.2926 cumulative IPC: 1.35315 (Simulation time: 0 hr 15 min 46 sec) 
Heartbeat CPU 0 instructions: 27000003 cycles: 16673993 heartbeat IPC: 1.289 cumulative IPC: 1.3492 (Simulation time: 0 hr 16 min 22 sec) 
Heartbeat CPU 0 instructions: 28000000 cycles: 17457015 heartbeat IPC: 1.2771 cumulative IPC: 1.34498 (Simulation time: 0 hr 16 min 58 sec) 
Heartbeat CPU 0 instructions: 29000000 cycles: 18231161 heartbeat IPC: 1.29175 cumulative IPC: 1.34207 (Simulation time: 0 hr 17 min 33 sec) 
Heartbeat CPU 0 instructions: 30000003 cycles: 19012306 heartbeat IPC: 1.28018 cumulative IPC: 1.33884 (Simulation time: 0 hr 18 min 7 sec) 
Heartbeat CPU 0 instructions: 31000002 cycles: 19800768 heartbeat IPC: 1.26829 cumulative IPC: 1.3353 (Simulation time: 0 hr 18 min 43 sec) 
Heartbeat CPU 0 instructions: 32000000 cycles: 20578036 heartbeat IPC: 1.28655 cumulative IPC: 1.333 (Simulation time: 0 hr 19 min 18 sec) 
Heartbeat CPU 0 instructions: 33000001 cycles: 21361999 heartbeat IPC: 1.27557 cumulative IPC: 1.3304 (Simulation time: 0 hr 19 min 48 sec) 
Heartbeat CPU 0 instructions: 34000000 cycles: 22142306 heartbeat IPC: 1.28155 cumulative IPC: 1.32829 (Simulation time: 0 hr 20 min 17 sec) 
Heartbeat CPU 0 instructions: 35000000 cycles: 22919266 heartbeat IPC: 1.28707 cumulative IPC: 1.32659 (Simulation time: 0 hr 20 min 46 sec) 
Heartbeat CPU 0 instructions: 36000000 cycles: 23693786 heartbeat IPC: 1.29112 cumulative IPC: 1.32519 (Simulation time: 0 hr 21 min 20 sec) 
Heartbeat CPU 0 instructions: 37000001 cycles: 24474834 heartbeat IPC: 1.28033 cumulative IPC: 1.32347 (Simulation time: 0 hr 21 min 55 sec) 
Heartbeat CPU 0 instructions: 38000001 cycles: 25263270 heartbeat IPC: 1.26833 cumulative IPC: 1.32142 (Simulation time: 0 hr 22 min 25 sec) 
Heartbeat CPU 0 instructions: 39000002 cycles: 26041128 heartbeat IPC: 1.28558 cumulative IPC: 1.32015 (Simulation time: 0 hr 22 min 58 sec) 
Heartbeat CPU 0 instructions: 40000000 cycles: 26820087 heartbeat IPC: 1.28376 cumulative IPC: 1.31891 (Simulation time: 0 hr 23 min 36 sec) 
Heartbeat CPU 0 instructions: 41000002 cycles: 27597437 heartbeat IPC: 1.28642 cumulative IPC: 1.31783 (Simulation time: 0 hr 24 min 7 sec) 
Heartbeat CPU 0 instructions: 42000000 cycles: 28373276 heartbeat IPC: 1.28892 cumulative IPC: 1.31691 (Simulation time: 0 hr 24 min 37 sec) 
Heartbeat CPU 0 instructions: 43000002 cycles: 29158056 heartbeat IPC: 1.27425 cumulative IPC: 1.31557 (Simulation time: 0 hr 25 min 7 sec) 
Heartbeat CPU 0 instructions: 44000000 cycles: 29937321 heartbeat IPC: 1.28326 cumulative IPC: 1.3146 (Simulation time: 0 hr 25 min 37 sec) 
Heartbeat CPU 0 instructions: 45000003 cycles: 30710833 heartbeat IPC: 1.29281 cumulative IPC: 1.31397 (Simulation time: 0 hr 26 min 6 sec) 
Heartbeat CPU 0 instructions: 46000000 cycles: 31484973 heartbeat IPC: 1.29175 cumulative IPC: 1.31334 (Simulation time: 0 hr 26 min 37 sec) 
Heartbeat CPU 0 instructions: 47000001 cycles: 32269200 heartbeat IPC: 1.27514 cumulative IPC: 1.31228 (Simulation time: 0 hr 27 min 6 sec) 
Heartbeat CPU 0 instructions: 48000000 cycles: 33048724 heartbeat IPC: 1.28283 cumulative IPC: 1.31149 (Simulation time: 0 hr 27 min 35 sec) 
Heartbeat CPU 0 instructions: 49000000 cycles: 33828263 heartbeat IPC: 1.28281 cumulative IPC: 1.31073 (Simulation time: 0 hr 28 min 6 sec) 
Heartbeat CPU 0 instructions: 50000000 cycles: 34606458 heartbeat IPC: 1.28503 cumulative IPC: 1.31008 (Simulation time: 0 hr 28 min 38 sec) 
Heartbeat CPU 0 instructions: 51000001 cycles: 35387699 heartbeat IPC: 1.28002 cumulative IPC: 1.30933 (Simulation time: 0 hr 29 min 7 sec) 
Heartbeat CPU 0 instructions: 52000000 cycles: 36155598 heartbeat IPC: 1.30225 cumulative IPC: 1.30916 (Simulation time: 0 hr 29 min 35 sec) 
Heartbeat CPU 0 instructions: 53000001 cycles: 36939242 heartbeat IPC: 1.27609 cumulative IPC: 1.30837 (Simulation time: 0 hr 30 min 4 sec) 
Heartbeat CPU 0 instructions: 54000000 cycles: 37722483 heartbeat IPC: 1.27674 cumulative IPC: 1.30764 (Simulation time: 0 hr 30 min 34 sec) 
Heartbeat CPU 0 instructions: 55000001 cycles: 38495137 heartbeat IPC: 1.29424 cumulative IPC: 1.30733 (Simulation time: 0 hr 31 min 5 sec) 
Heartbeat CPU 0 instructions: 56000000 cycles: 39269461 heartbeat IPC: 1.29145 cumulative IPC: 1.30699 (Simulation time: 0 hr 31 min 34 sec) 
Heartbeat CPU 0 instructions: 57000003 cycles: 40056859 heartbeat IPC: 1.27001 cumulative IPC: 1.30618 (Simulation time: 0 hr 32 min 4 sec) 
Heartbeat CPU 0 instructions: 58000001 cycles: 40827217 heartbeat IPC: 1.2981 cumulative IPC: 1.30601 (Simulation time: 0 hr 32 min 34 sec) 
Heartbeat CPU 0 instructions: 59000000 cycles: 41606295 heartbeat IPC: 1.28357 cumulative IPC: 1.30554 (Simulation time: 0 hr 33 min 5 sec) 
Heartbeat CPU 0 instructions: 60000000 cycles: 42380476 heartbeat IPC: 1.29169 cumulative IPC: 1.30526 (Simulation time: 0 hr 33 min 33 sec) 
Heartbeat CPU 0 instructions: 61000003 cycles: 43159406 heartbeat IPC: 1.28382 cumulative IPC: 1.30483 (Simulation time: 0 hr 34 min 3 sec) 
Heartbeat CPU 0 instructions: 62000001 cycles: 43940453 heartbeat IPC: 1.28033 cumulative IPC: 1.30435 (Simulation time: 0 hr 34 min 39 sec) 
Heartbeat CPU 0 instructions: 63000000 cycles: 44713700 heartbeat IPC: 1.29325 cumulative IPC: 1.30414 (Simulation time: 0 hr 35 min 7 sec) 
Heartbeat CPU 0 instructions: 64000000 cycles: 45490554 heartbeat IPC: 1.28724 cumulative IPC: 1.30383 (Simulation time: 0 hr 35 min 41 sec) 
Heartbeat CPU 0 instructions: 65000001 cycles: 46276414 heartbeat IPC: 1.27249 cumulative IPC: 1.30324 (Simulation time: 0 hr 36 min 11 sec) 
Heartbeat CPU 0 instructions: 66000000 cycles: 47062941 heartbeat IPC: 1.27141 cumulative IPC: 1.30266 (Simulation time: 0 hr 36 min 41 sec) 
Heartbeat CPU 0 instructions: 67000001 cycles: 47848508 heartbeat IPC: 1.27297 cumulative IPC: 1.30213 (Simulation time: 0 hr 37 min 11 sec) 
Heartbeat CPU 0 instructions: 68000000 cycles: 48626463 heartbeat IPC: 1.28542 cumulative IPC: 1.30183 (Simulation time: 0 hr 37 min 40 sec) 
Heartbeat CPU 0 instructions: 69000002 cycles: 49414047 heartbeat IPC: 1.26971 cumulative IPC: 1.30128 (Simulation time: 0 hr 38 min 14 sec) 
Heartbeat CPU 0 instructions: 70000000 cycles: 50191141 heartbeat IPC: 1.28684 cumulative IPC: 1.30103 (Simulation time: 0 hr 38 min 44 sec) 
Heartbeat CPU 0 instructions: 71000001 cycles: 50976761 heartbeat IPC: 1.27288 cumulative IPC: 1.30056 (Simulation time: 0 hr 39 min 12 sec) 
Heartbeat CPU 0 instructions: 72000000 cycles: 51758105 heartbeat IPC: 1.27984 cumulative IPC: 1.30022 (Simulation time: 0 hr 39 min 42 sec) 
Heartbeat CPU 0 instructions: 73000003 cycles: 52531474 heartbeat IPC: 1.29305 cumulative IPC: 1.30011 (Simulation time: 0 hr 40 min 18 sec) 
Heartbeat CPU 0 instructions: 74000002 cycles: 53309403 heartbeat IPC: 1.28546 cumulative IPC: 1.29988 (Simulation time: 0 hr 40 min 51 sec) 
Heartbeat CPU 0 instructions: 75000003 cycles: 54090005 heartbeat IPC: 1.28106 cumulative IPC: 1.29958 (Simulation time: 0 hr 41 min 21 sec) 
Heartbeat CPU 0 instructions: 76000000 cycles: 54875504 heartbeat IPC: 1.27307 cumulative IPC: 1.29917 (Simulation time: 0 hr 41 min 49 sec) 
Heartbeat CPU 0 instructions: 77000000 cycles: 55651747 heartbeat IPC: 1.28826 cumulative IPC: 1.29901 (Simulation time: 0 hr 42 min 19 sec) 
Heartbeat CPU 0 instructions: 78000003 cycles: 56430381 heartbeat IPC: 1.2843 cumulative IPC: 1.29879 (Simulation time: 0 hr 42 min 49 sec) 
Heartbeat CPU 0 instructions: 79000000 cycles: 57210906 heartbeat IPC: 1.28119 cumulative IPC: 1.29853 (Simulation time: 0 hr 43 min 20 sec) 
Heartbeat CPU 0 instructions: 80000000 cycles: 57993554 heartbeat IPC: 1.27771 cumulative IPC: 1.29823 (Simulation time: 0 hr 43 min 50 sec) 
Heartbeat CPU 0 instructions: 81000002 cycles: 58766564 heartbeat IPC: 1.29365 cumulative IPC: 1.29816 (Simulation time: 0 hr 44 min 21 sec) 
Heartbeat CPU 0 instructions: 82000002 cycles: 59546754 heartbeat IPC: 1.28174 cumulative IPC: 1.29793 (Simulation time: 0 hr 44 min 51 sec) 
Heartbeat CPU 0 instructions: 83000001 cycles: 60322123 heartbeat IPC: 1.28971 cumulative IPC: 1.29782 (Simulation time: 0 hr 45 min 21 sec) 
Heartbeat CPU 0 instructions: 84000000 cycles: 61104118 heartbeat IPC: 1.27878 cumulative IPC: 1.29756 (Simulation time: 0 hr 45 min 51 sec) 
Heartbeat CPU 0 instructions: 85000002 cycles: 61886488 heartbeat IPC: 1.27817 cumulative IPC: 1.2973 (Simulation time: 0 hr 46 min 23 sec) 
Heartbeat CPU 0 instructions: 86000002 cycles: 62663245 heartbeat IPC: 1.2874 cumulative IPC: 1.29717 (Simulation time: 0 hr 46 min 52 sec) 
Heartbeat CPU 0 instructions: 87000000 cycles: 63445171 heartbeat IPC: 1.27889 cumulative IPC: 1.29692 (Simulation time: 0 hr 47 min 22 sec) 
Heartbeat CPU 0 instructions: 88000000 cycles: 64229507 heartbeat IPC: 1.27496 cumulative IPC: 1.29664 (Simulation time: 0 hr 47 min 56 sec) 
Heartbeat CPU 0 instructions: 89000002 cycles: 65005109 heartbeat IPC: 1.28932 cumulative IPC: 1.29655 (Simulation time: 0 hr 48 min 26 sec) 
Heartbeat CPU 0 instructions: 90000002 cycles: 65778027 heartbeat IPC: 1.2938 cumulative IPC: 1.29651 (Simulation time: 0 hr 48 min 54 sec) 
Heartbeat CPU 0 instructions: 91000001 cycles: 66556253 heartbeat IPC: 1.28497 cumulative IPC: 1.29637 (Simulation time: 0 hr 49 min 25 sec) 
Heartbeat CPU 0 instructions: 92000000 cycles: 67343559 heartbeat IPC: 1.27015 cumulative IPC: 1.29604 (Simulation time: 0 hr 49 min 54 sec) 
Heartbeat CPU 0 instructions: 93000000 cycles: 68116202 heartbeat IPC: 1.29426 cumulative IPC: 1.29602 (Simulation time: 0 hr 50 min 24 sec) 
Heartbeat CPU 0 instructions: 94000002 cycles: 68894140 heartbeat IPC: 1.28545 cumulative IPC: 1.29589 (Simulation time: 0 hr 50 min 56 sec) 
Heartbeat CPU 0 instructions: 95000001 cycles: 69673787 heartbeat IPC: 1.28263 cumulative IPC: 1.29574 (Simulation time: 0 hr 51 min 28 sec) 
Heartbeat CPU 0 instructions: 96000000 cycles: 70451899 heartbeat IPC: 1.28516 cumulative IPC: 1.29561 (Simulation time: 0 hr 51 min 58 sec) 
Heartbeat CPU 0 instructions: 97000003 cycles: 71222999 heartbeat IPC: 1.29685 cumulative IPC: 1.29563 (Simulation time: 0 hr 52 min 28 sec) 
Heartbeat CPU 0 instructions: 98000002 cycles: 71998586 heartbeat IPC: 1.28934 cumulative IPC: 1.29555 (Simulation time: 0 hr 52 min 58 sec) 
Heartbeat CPU 0 instructions: 99000000 cycles: 72784917 heartbeat IPC: 1.27173 cumulative IPC: 1.29528 (Simulation time: 0 hr 53 min 27 sec) 
Heartbeat CPU 0 instructions: 100000000 cycles: 73562437 heartbeat IPC: 1.28614 cumulative IPC: 1.29518 (Simulation time: 0 hr 53 min 55 sec) 
Heartbeat CPU 0 instructions: 101000002 cycles: 74331046 heartbeat IPC: 1.30105 cumulative IPC: 1.29524 (Simulation time: 0 hr 54 min 24 sec) 
Heartbeat CPU 0 instructions: 102000002 cycles: 75117149 heartbeat IPC: 1.2721 cumulative IPC: 1.29499 (Simulation time: 0 hr 54 min 53 sec) 
Heartbeat CPU 0 instructions: 103000001 cycles: 75895626 heartbeat IPC: 1.28456 cumulative IPC: 1.29487 (Simulation time: 0 hr 55 min 19 sec) 
Heartbeat CPU 0 instructions: 104000000 cycles: 76677551 heartbeat IPC: 1.27889 cumulative IPC: 1.2947 (Simulation time: 0 hr 55 min 47 sec) 
Heartbeat CPU 0 instructions: 105000001 cycles: 77456248 heartbeat IPC: 1.2842 cumulative IPC: 1.29459 (Simulation time: 0 hr 56 min 15 sec) 
Heartbeat CPU 0 instructions: 106000000 cycles: 78236039 heartbeat IPC: 1.28239 cumulative IPC: 1.29446 (Simulation time: 0 hr 56 min 41 sec) 
Heartbeat CPU 0 instructions: 107000000 cycles: 79018271 heartbeat IPC: 1.27839 cumulative IPC: 1.29429 (Simulation time: 0 hr 57 min 7 sec) 
Heartbeat CPU 0 instructions: 108000000 cycles: 79796126 heartbeat IPC: 1.28559 cumulative IPC: 1.2942 (Simulation time: 0 hr 57 min 35 sec) 
Heartbeat CPU 0 instructions: 109000000 cycles: 80580527 heartbeat IPC: 1.27486 cumulative IPC: 1.29401 (Simulation time: 0 hr 58 min 2 sec) 
Heartbeat CPU 0 instructions: 110000002 cycles: 81365654 heartbeat IPC: 1.27368 cumulative IPC: 1.2938 (Simulation time: 0 hr 58 min 29 sec) 
Finished CPU 0 instructions: 100000001 cycles: 77291696 cummulative IPC: 1.2938 (Simulation time: 0 hr 58 min 29 sec) 

ChampSim completed all CPUs

Region of Interest Statistics

CPU 0 cummulative IPC: 1.2938 instructions: 100000001 cycles: 77291696
LLC TOTAL     ACCESS:     382566  HIT:      17752  MISS:     364814
LLC LOAD      ACCESS:      27904  HIT:        486  MISS:      27418
LLC RFO       ACCESS:       3434  HIT:          3  MISS:       3431
LLC PREFETCH  ACCESS:     287992  HIT:       4569  MISS:     283423
LLC WRITEBACK ACCESS:      63236  HIT:      12694  MISS:      50542
Insertion Distribution: 
	LOAD 0 0 8244 19907 
	RFO 0 0 4256 5170 
	PREF 0 0 42331 267235 
	WRITEBACK 0 0 0 51814 
Total Prefetch Downgrades: 321
