
*** ChampSim Multicore Out-of-Order Simulator ***

Warmup Instructions: 10000000
Simulation Instructions: 100000000
Configuration: 2
Number of CPUs: 1
LLC sets: 2048
LLC ways: 16
Off-chip DRAM Channels: 1 Width: 64-bit Data Rate: 1600 MT/s

CPU 0 runs /datasets/cs240c-wi22-a00-public/data/Assignment2-gz/gcc_56B.trace.gz
CPU 0 L1D next line prefetcher
CPU 0 L2C IP-based stride prefetcher
Initialize SRRIP state
Heartbeat CPU 0 instructions: 1000003 cycles: 954151 heartbeat IPC: 1.04806 cumulative IPC: 1.04806 (Simulation time: 0 hr 0 min 47 sec) 
Heartbeat CPU 0 instructions: 2000001 cycles: 1898349 heartbeat IPC: 1.0591 cumulative IPC: 1.05355 (Simulation time: 0 hr 1 min 33 sec) 
Heartbeat CPU 0 instructions: 3000001 cycles: 2885593 heartbeat IPC: 1.01292 cumulative IPC: 1.03965 (Simulation time: 0 hr 2 min 19 sec) 
Heartbeat CPU 0 instructions: 4000000 cycles: 3848221 heartbeat IPC: 1.03882 cumulative IPC: 1.03944 (Simulation time: 0 hr 3 min 4 sec) 
Heartbeat CPU 0 instructions: 5000002 cycles: 4737701 heartbeat IPC: 1.12425 cumulative IPC: 1.05536 (Simulation time: 0 hr 3 min 50 sec) 
Heartbeat CPU 0 instructions: 6000000 cycles: 5685656 heartbeat IPC: 1.0549 cumulative IPC: 1.05529 (Simulation time: 0 hr 4 min 35 sec) 
Heartbeat CPU 0 instructions: 7000000 cycles: 6649892 heartbeat IPC: 1.03709 cumulative IPC: 1.05265 (Simulation time: 0 hr 5 min 21 sec) 
Heartbeat CPU 0 instructions: 8000000 cycles: 7611115 heartbeat IPC: 1.04034 cumulative IPC: 1.05109 (Simulation time: 0 hr 6 min 7 sec) 
Heartbeat CPU 0 instructions: 9000000 cycles: 8622587 heartbeat IPC: 0.988658 cumulative IPC: 1.04377 (Simulation time: 0 hr 6 min 54 sec) 
Heartbeat CPU 0 instructions: 10000002 cycles: 9583098 heartbeat IPC: 1.04111 cumulative IPC: 1.0435 (Simulation time: 0 hr 7 min 36 sec) 

Warmup complete CPU 0 instructions: 10000002 cycles: 9583098 (Simulation time: 0 hr 7 min 36 sec) 

Heartbeat CPU 0 instructions: 11000000 cycles: 10925644 heartbeat IPC: 0.744852 cumulative IPC: 0.744852 (Simulation time: 0 hr 8 min 21 sec) 
Heartbeat CPU 0 instructions: 12000000 cycles: 12345245 heartbeat IPC: 0.704423 cumulative IPC: 0.724074 (Simulation time: 0 hr 9 min 9 sec) 
Heartbeat CPU 0 instructions: 13000001 cycles: 13726403 heartbeat IPC: 0.724031 cumulative IPC: 0.724059 (Simulation time: 0 hr 9 min 58 sec) 
Heartbeat CPU 0 instructions: 14000000 cycles: 15053234 heartbeat IPC: 0.753675 cumulative IPC: 0.731243 (Simulation time: 0 hr 10 min 45 sec) 
Heartbeat CPU 0 instructions: 15000003 cycles: 16421751 heartbeat IPC: 0.73072 cumulative IPC: 0.731138 (Simulation time: 0 hr 11 min 32 sec) 
Heartbeat CPU 0 instructions: 16000000 cycles: 17740013 heartbeat IPC: 0.758572 cumulative IPC: 0.735572 (Simulation time: 0 hr 12 min 18 sec) 
Heartbeat CPU 0 instructions: 17000001 cycles: 19053238 heartbeat IPC: 0.761485 cumulative IPC: 0.739165 (Simulation time: 0 hr 13 min 4 sec) 
Heartbeat CPU 0 instructions: 18000000 cycles: 20434833 heartbeat IPC: 0.7238 cumulative IPC: 0.737209 (Simulation time: 0 hr 13 min 49 sec) 
Heartbeat CPU 0 instructions: 19000000 cycles: 21802716 heartbeat IPC: 0.731057 cumulative IPC: 0.73652 (Simulation time: 0 hr 14 min 32 sec) 
Heartbeat CPU 0 instructions: 20000000 cycles: 23159320 heartbeat IPC: 0.737135 cumulative IPC: 0.736582 (Simulation time: 0 hr 15 min 17 sec) 
Heartbeat CPU 0 instructions: 21000000 cycles: 24495622 heartbeat IPC: 0.748334 cumulative IPC: 0.737635 (Simulation time: 0 hr 16 min 2 sec) 
Heartbeat CPU 0 instructions: 22000000 cycles: 25814755 heartbeat IPC: 0.758074 cumulative IPC: 0.739296 (Simulation time: 0 hr 16 min 48 sec) 
Heartbeat CPU 0 instructions: 23000000 cycles: 27141121 heartbeat IPC: 0.75394 cumulative IPC: 0.740402 (Simulation time: 0 hr 17 min 32 sec) 
Heartbeat CPU 0 instructions: 24000000 cycles: 28490863 heartbeat IPC: 0.740882 cumulative IPC: 0.740436 (Simulation time: 0 hr 18 min 23 sec) 
Heartbeat CPU 0 instructions: 25000000 cycles: 29851785 heartbeat IPC: 0.734796 cumulative IPC: 0.740058 (Simulation time: 0 hr 19 min 9 sec) 
Heartbeat CPU 0 instructions: 26000002 cycles: 31250288 heartbeat IPC: 0.715052 cumulative IPC: 0.738444 (Simulation time: 0 hr 19 min 51 sec) 
Heartbeat CPU 0 instructions: 27000000 cycles: 32626155 heartbeat IPC: 0.726813 cumulative IPC: 0.737749 (Simulation time: 0 hr 20 min 29 sec) 
Heartbeat CPU 0 instructions: 28000000 cycles: 33954241 heartbeat IPC: 0.752963 cumulative IPC: 0.738578 (Simulation time: 0 hr 21 min 8 sec) 
Heartbeat CPU 0 instructions: 29000000 cycles: 35286758 heartbeat IPC: 0.750459 cumulative IPC: 0.739194 (Simulation time: 0 hr 21 min 49 sec) 
Heartbeat CPU 0 instructions: 30000000 cycles: 36624019 heartbeat IPC: 0.747797 cumulative IPC: 0.73962 (Simulation time: 0 hr 22 min 32 sec) 
Heartbeat CPU 0 instructions: 31000000 cycles: 37968757 heartbeat IPC: 0.743639 cumulative IPC: 0.73981 (Simulation time: 0 hr 23 min 8 sec) 
Heartbeat CPU 0 instructions: 32000000 cycles: 39335800 heartbeat IPC: 0.731506 cumulative IPC: 0.739429 (Simulation time: 0 hr 23 min 44 sec) 
Heartbeat CPU 0 instructions: 33000002 cycles: 40736661 heartbeat IPC: 0.713848 cumulative IPC: 0.738278 (Simulation time: 0 hr 24 min 20 sec) 
Heartbeat CPU 0 instructions: 34000002 cycles: 42094124 heartbeat IPC: 0.736668 cumulative IPC: 0.738211 (Simulation time: 0 hr 24 min 59 sec) 
Heartbeat CPU 0 instructions: 35000002 cycles: 43437322 heartbeat IPC: 0.744492 cumulative IPC: 0.73846 (Simulation time: 0 hr 25 min 39 sec) 
Heartbeat CPU 0 instructions: 36000000 cycles: 44760505 heartbeat IPC: 0.755752 cumulative IPC: 0.739111 (Simulation time: 0 hr 26 min 14 sec) 
Heartbeat CPU 0 instructions: 37000000 cycles: 46068788 heartbeat IPC: 0.764361 cumulative IPC: 0.740016 (Simulation time: 0 hr 26 min 52 sec) 
Heartbeat CPU 0 instructions: 38000002 cycles: 47396969 heartbeat IPC: 0.752911 cumulative IPC: 0.740469 (Simulation time: 0 hr 27 min 32 sec) 
Heartbeat CPU 0 instructions: 39000000 cycles: 48794234 heartbeat IPC: 0.715682 cumulative IPC: 0.739586 (Simulation time: 0 hr 28 min 11 sec) 
Heartbeat CPU 0 instructions: 40000000 cycles: 50153468 heartbeat IPC: 0.735708 cumulative IPC: 0.739456 (Simulation time: 0 hr 28 min 51 sec) 
Heartbeat CPU 0 instructions: 41000001 cycles: 51491038 heartbeat IPC: 0.747625 cumulative IPC: 0.739717 (Simulation time: 0 hr 29 min 31 sec) 
Heartbeat CPU 0 instructions: 42000003 cycles: 52816995 heartbeat IPC: 0.754174 cumulative IPC: 0.74016 (Simulation time: 0 hr 30 min 9 sec) 
Heartbeat CPU 0 instructions: 43000001 cycles: 54149906 heartbeat IPC: 0.750236 cumulative IPC: 0.740461 (Simulation time: 0 hr 30 min 50 sec) 
Heartbeat CPU 0 instructions: 44000000 cycles: 55474083 heartbeat IPC: 0.755185 cumulative IPC: 0.740886 (Simulation time: 0 hr 31 min 28 sec) 
Heartbeat CPU 0 instructions: 45000000 cycles: 56838585 heartbeat IPC: 0.732868 cumulative IPC: 0.740655 (Simulation time: 0 hr 32 min 2 sec) 
Heartbeat CPU 0 instructions: 46000000 cycles: 58228864 heartbeat IPC: 0.71928 cumulative IPC: 0.740044 (Simulation time: 0 hr 32 min 41 sec) 
Heartbeat CPU 0 instructions: 47000002 cycles: 59600349 heartbeat IPC: 0.729138 cumulative IPC: 0.739745 (Simulation time: 0 hr 33 min 21 sec) 
Heartbeat CPU 0 instructions: 48000000 cycles: 60944873 heartbeat IPC: 0.743756 cumulative IPC: 0.73985 (Simulation time: 0 hr 33 min 57 sec) 
Heartbeat CPU 0 instructions: 49000002 cycles: 62269923 heartbeat IPC: 0.75469 cumulative IPC: 0.740223 (Simulation time: 0 hr 34 min 38 sec) 
Heartbeat CPU 0 instructions: 50000000 cycles: 63589311 heartbeat IPC: 0.757926 cumulative IPC: 0.740655 (Simulation time: 0 hr 35 min 14 sec) 
Heartbeat CPU 0 instructions: 51000000 cycles: 64942822 heartbeat IPC: 0.738819 cumulative IPC: 0.740611 (Simulation time: 0 hr 35 min 51 sec) 
Heartbeat CPU 0 instructions: 52000000 cycles: 66334333 heartbeat IPC: 0.718643 cumulative IPC: 0.740072 (Simulation time: 0 hr 36 min 29 sec) 
Heartbeat CPU 0 instructions: 53000001 cycles: 67670252 heartbeat IPC: 0.748549 cumulative IPC: 0.740267 (Simulation time: 0 hr 37 min 10 sec) 
Heartbeat CPU 0 instructions: 54000000 cycles: 68984135 heartbeat IPC: 0.761102 cumulative IPC: 0.740728 (Simulation time: 0 hr 37 min 47 sec) 
Heartbeat CPU 0 instructions: 55000001 cycles: 70290219 heartbeat IPC: 0.765648 cumulative IPC: 0.741264 (Simulation time: 0 hr 38 min 28 sec) 
Heartbeat CPU 0 instructions: 56000000 cycles: 71612318 heartbeat IPC: 0.756372 cumulative IPC: 0.741586 (Simulation time: 0 hr 39 min 3 sec) 
Heartbeat CPU 0 instructions: 57000001 cycles: 72944606 heartbeat IPC: 0.750589 cumulative IPC: 0.741775 (Simulation time: 0 hr 39 min 37 sec) 
Heartbeat CPU 0 instructions: 58000000 cycles: 74318365 heartbeat IPC: 0.727929 cumulative IPC: 0.741481 (Simulation time: 0 hr 40 min 16 sec) 
Heartbeat CPU 0 instructions: 59000000 cycles: 75710918 heartbeat IPC: 0.718105 cumulative IPC: 0.740989 (Simulation time: 0 hr 40 min 54 sec) 
Heartbeat CPU 0 instructions: 60000000 cycles: 77085355 heartbeat IPC: 0.727571 cumulative IPC: 0.740716 (Simulation time: 0 hr 41 min 33 sec) 
Heartbeat CPU 0 instructions: 61000000 cycles: 78414702 heartbeat IPC: 0.752249 cumulative IPC: 0.740939 (Simulation time: 0 hr 42 min 12 sec) 
Heartbeat CPU 0 instructions: 62000002 cycles: 79774918 heartbeat IPC: 0.735179 cumulative IPC: 0.740827 (Simulation time: 0 hr 42 min 47 sec) 
Heartbeat CPU 0 instructions: 63000003 cycles: 81090088 heartbeat IPC: 0.760359 cumulative IPC: 0.741186 (Simulation time: 0 hr 43 min 23 sec) 
Heartbeat CPU 0 instructions: 64000000 cycles: 82408581 heartbeat IPC: 0.758439 cumulative IPC: 0.741499 (Simulation time: 0 hr 43 min 59 sec) 
Heartbeat CPU 0 instructions: 65000000 cycles: 83751677 heartbeat IPC: 0.744548 cumulative IPC: 0.741554 (Simulation time: 0 hr 44 min 35 sec) 
Heartbeat CPU 0 instructions: 66000002 cycles: 85141963 heartbeat IPC: 0.719278 cumulative IPC: 0.741144 (Simulation time: 0 hr 45 min 10 sec) 
Heartbeat CPU 0 instructions: 67000002 cycles: 86527208 heartbeat IPC: 0.721894 cumulative IPC: 0.740797 (Simulation time: 0 hr 45 min 48 sec) 
Heartbeat CPU 0 instructions: 68000000 cycles: 87876735 heartbeat IPC: 0.740999 cumulative IPC: 0.740801 (Simulation time: 0 hr 46 min 24 sec) 
Heartbeat CPU 0 instructions: 69000000 cycles: 89204734 heartbeat IPC: 0.753013 cumulative IPC: 0.741005 (Simulation time: 0 hr 47 min 2 sec) 
Heartbeat CPU 0 instructions: 70000000 cycles: 90529361 heartbeat IPC: 0.754929 cumulative IPC: 0.741232 (Simulation time: 0 hr 47 min 41 sec) 
Heartbeat CPU 0 instructions: 71000003 cycles: 91871370 heartbeat IPC: 0.745154 cumulative IPC: 0.741296 (Simulation time: 0 hr 48 min 21 sec) 
Heartbeat CPU 0 instructions: 72000000 cycles: 93208026 heartbeat IPC: 0.748133 cumulative IPC: 0.741406 (Simulation time: 0 hr 48 min 55 sec) 
Heartbeat CPU 0 instructions: 73000003 cycles: 94573248 heartbeat IPC: 0.732484 cumulative IPC: 0.741262 (Simulation time: 0 hr 49 min 32 sec) 
Heartbeat CPU 0 instructions: 74000001 cycles: 95971010 heartbeat IPC: 0.715428 cumulative IPC: 0.740844 (Simulation time: 0 hr 50 min 9 sec) 
Heartbeat CPU 0 instructions: 75000003 cycles: 97342967 heartbeat IPC: 0.728887 cumulative IPC: 0.740657 (Simulation time: 0 hr 50 min 47 sec) 
Heartbeat CPU 0 instructions: 76000000 cycles: 98685247 heartbeat IPC: 0.744999 cumulative IPC: 0.740723 (Simulation time: 0 hr 51 min 23 sec) 
Heartbeat CPU 0 instructions: 77000003 cycles: 100018886 heartbeat IPC: 0.74983 cumulative IPC: 0.740857 (Simulation time: 0 hr 52 min 0 sec) 
Heartbeat CPU 0 instructions: 78000001 cycles: 101350178 heartbeat IPC: 0.751149 cumulative IPC: 0.741006 (Simulation time: 0 hr 52 min 35 sec) 
Heartbeat CPU 0 instructions: 79000000 cycles: 102705773 heartbeat IPC: 0.737683 cumulative IPC: 0.740958 (Simulation time: 0 hr 53 min 10 sec) 
Heartbeat CPU 0 instructions: 80000000 cycles: 104050479 heartbeat IPC: 0.743657 cumulative IPC: 0.740996 (Simulation time: 0 hr 53 min 44 sec) 
Heartbeat CPU 0 instructions: 81000002 cycles: 105427873 heartbeat IPC: 0.72601 cumulative IPC: 0.740781 (Simulation time: 0 hr 54 min 20 sec) 
Heartbeat CPU 0 instructions: 82000000 cycles: 106798145 heartbeat IPC: 0.729781 cumulative IPC: 0.740626 (Simulation time: 0 hr 54 min 56 sec) 
Heartbeat CPU 0 instructions: 83000003 cycles: 108129443 heartbeat IPC: 0.751149 cumulative IPC: 0.740768 (Simulation time: 0 hr 55 min 31 sec) 
Heartbeat CPU 0 instructions: 84000000 cycles: 109470430 heartbeat IPC: 0.745717 cumulative IPC: 0.740835 (Simulation time: 0 hr 56 min 5 sec) 
Heartbeat CPU 0 instructions: 85000002 cycles: 110783237 heartbeat IPC: 0.761728 cumulative IPC: 0.741106 (Simulation time: 0 hr 56 min 43 sec) 
Heartbeat CPU 0 instructions: 86000003 cycles: 112086075 heartbeat IPC: 0.767556 cumulative IPC: 0.741442 (Simulation time: 0 hr 57 min 18 sec) 
Heartbeat CPU 0 instructions: 87000000 cycles: 113466908 heartbeat IPC: 0.724198 cumulative IPC: 0.741213 (Simulation time: 0 hr 57 min 59 sec) 
Heartbeat CPU 0 instructions: 88000000 cycles: 114816581 heartbeat IPC: 0.74092 cumulative IPC: 0.741209 (Simulation time: 0 hr 58 min 31 sec) 
Heartbeat CPU 0 instructions: 89000000 cycles: 116174486 heartbeat IPC: 0.736429 cumulative IPC: 0.741148 (Simulation time: 0 hr 59 min 2 sec) 
Heartbeat CPU 0 instructions: 90000000 cycles: 117492145 heartbeat IPC: 0.758922 cumulative IPC: 0.741365 (Simulation time: 0 hr 59 min 30 sec) 
Heartbeat CPU 0 instructions: 91000001 cycles: 118799260 heartbeat IPC: 0.765044 cumulative IPC: 0.741648 (Simulation time: 0 hr 59 min 57 sec) 
Heartbeat CPU 0 instructions: 92000000 cycles: 120114802 heartbeat IPC: 0.760142 cumulative IPC: 0.741869 (Simulation time: 1 hr 0 min 22 sec) 
Heartbeat CPU 0 instructions: 93000003 cycles: 121494893 heartbeat IPC: 0.724592 cumulative IPC: 0.741656 (Simulation time: 1 hr 0 min 47 sec) 
Heartbeat CPU 0 instructions: 94000000 cycles: 122837147 heartbeat IPC: 0.745013 cumulative IPC: 0.741695 (Simulation time: 1 hr 1 min 11 sec) 
Heartbeat CPU 0 instructions: 95000000 cycles: 124187245 heartbeat IPC: 0.740687 cumulative IPC: 0.741683 (Simulation time: 1 hr 1 min 35 sec) 
Heartbeat CPU 0 instructions: 96000000 cycles: 125519908 heartbeat IPC: 0.750377 cumulative IPC: 0.741783 (Simulation time: 1 hr 2 min 0 sec) 
Heartbeat CPU 0 instructions: 97000000 cycles: 126830223 heartbeat IPC: 0.763175 cumulative IPC: 0.742022 (Simulation time: 1 hr 2 min 27 sec) 
Heartbeat CPU 0 instructions: 98000003 cycles: 128137767 heartbeat IPC: 0.764795 cumulative IPC: 0.742274 (Simulation time: 1 hr 2 min 51 sec) 
Heartbeat CPU 0 instructions: 99000000 cycles: 129525330 heartbeat IPC: 0.720686 cumulative IPC: 0.742024 (Simulation time: 1 hr 3 min 14 sec) 
Heartbeat CPU 0 instructions: 100000000 cycles: 130867307 heartbeat IPC: 0.745169 cumulative IPC: 0.742059 (Simulation time: 1 hr 3 min 36 sec) 
Heartbeat CPU 0 instructions: 101000000 cycles: 132214191 heartbeat IPC: 0.742454 cumulative IPC: 0.742063 (Simulation time: 1 hr 3 min 58 sec) 
Heartbeat CPU 0 instructions: 102000001 cycles: 133527245 heartbeat IPC: 0.761584 cumulative IPC: 0.74227 (Simulation time: 1 hr 4 min 20 sec) 
Heartbeat CPU 0 instructions: 103000001 cycles: 134829840 heartbeat IPC: 0.767698 cumulative IPC: 0.742534 (Simulation time: 1 hr 4 min 43 sec) 
Heartbeat CPU 0 instructions: 104000000 cycles: 136131732 heartbeat IPC: 0.768112 cumulative IPC: 0.742797 (Simulation time: 1 hr 5 min 4 sec) 
Heartbeat CPU 0 instructions: 105000002 cycles: 137508921 heartbeat IPC: 0.726118 cumulative IPC: 0.742618 (Simulation time: 1 hr 5 min 24 sec) 
Heartbeat CPU 0 instructions: 106000000 cycles: 138912649 heartbeat IPC: 0.712387 cumulative IPC: 0.74229 (Simulation time: 1 hr 5 min 43 sec) 
Heartbeat CPU 0 instructions: 107000002 cycles: 140301003 heartbeat IPC: 0.720279 cumulative IPC: 0.742056 (Simulation time: 1 hr 6 min 4 sec) 
Heartbeat CPU 0 instructions: 108000000 cycles: 141657127 heartbeat IPC: 0.737394 cumulative IPC: 0.742008 (Simulation time: 1 hr 6 min 24 sec) 
Heartbeat CPU 0 instructions: 109000000 cycles: 142993561 heartbeat IPC: 0.74826 cumulative IPC: 0.742071 (Simulation time: 1 hr 6 min 43 sec) 
Heartbeat CPU 0 instructions: 110000000 cycles: 144321934 heartbeat IPC: 0.752801 cumulative IPC: 0.742176 (Simulation time: 1 hr 7 min 2 sec) 
Finished CPU 0 instructions: 100000003 cycles: 134738838 cummulative IPC: 0.742177 (Simulation time: 1 hr 7 min 2 sec) 

ChampSim completed all CPUs

Region of Interest Statistics

CPU 0 cummulative IPC: 0.742177 instructions: 100000003 cycles: 134738838
LLC TOTAL     ACCESS:   21346125  HIT:   21272822  MISS:      73303
LLC LOAD      ACCESS:     165898  HIT:     131126  MISS:      34772
LLC RFO       ACCESS:   10463422  HIT:   10457724  MISS:       5698
LLC PREFETCH  ACCESS:     183317  HIT:     150655  MISS:      32662
LLC WRITEBACK ACCESS:   10533488  HIT:   10533317  MISS:        171
Insertion Distribution: 
	LOAD 7552 0 14212 16669 
	RFO 0 0 10451 3494 
	PREF 0 3755 14200 17749 
	WRITEBACK 0 0 0 173 
Total Prefetch Downgrades: 5307
