
*** ChampSim Multicore Out-of-Order Simulator ***

Warmup Instructions: 10000000
Simulation Instructions: 100000000
Configuration: 2
Number of CPUs: 1
LLC sets: 2048
LLC ways: 16
Off-chip DRAM Channels: 1 Width: 64-bit Data Rate: 1600 MT/s

CPU 0 runs /datasets/cs240c-wi22-a00-public/data/Assignment2-gz/sphinx3_1339B.trace.gz
CPU 0 L1D next line prefetcher
CPU 0 L2C IP-based stride prefetcher
Initialize SRRIP state
Heartbeat CPU 0 instructions: 1000000 cycles: 339022 heartbeat IPC: 2.94966 cumulative IPC: 2.94966 (Simulation time: 0 hr 0 min 36 sec) 
Heartbeat CPU 0 instructions: 2000001 cycles: 693417 heartbeat IPC: 2.82171 cumulative IPC: 2.88427 (Simulation time: 0 hr 1 min 10 sec) 
Heartbeat CPU 0 instructions: 3000000 cycles: 1084463 heartbeat IPC: 2.55724 cumulative IPC: 2.76635 (Simulation time: 0 hr 1 min 46 sec) 
Heartbeat CPU 0 instructions: 4000000 cycles: 1529987 heartbeat IPC: 2.24455 cumulative IPC: 2.6144 (Simulation time: 0 hr 2 min 22 sec) 
Heartbeat CPU 0 instructions: 5000003 cycles: 1869000 heartbeat IPC: 2.94975 cumulative IPC: 2.67523 (Simulation time: 0 hr 2 min 56 sec) 
Heartbeat CPU 0 instructions: 6000002 cycles: 2253236 heartbeat IPC: 2.60256 cumulative IPC: 2.66284 (Simulation time: 0 hr 3 min 30 sec) 
Heartbeat CPU 0 instructions: 7000001 cycles: 2716985 heartbeat IPC: 2.15634 cumulative IPC: 2.57639 (Simulation time: 0 hr 4 min 5 sec) 
Heartbeat CPU 0 instructions: 8000000 cycles: 3055856 heartbeat IPC: 2.95097 cumulative IPC: 2.61792 (Simulation time: 0 hr 4 min 41 sec) 
Heartbeat CPU 0 instructions: 9000003 cycles: 3412445 heartbeat IPC: 2.80436 cumulative IPC: 2.63741 (Simulation time: 0 hr 5 min 19 sec) 
Heartbeat CPU 0 instructions: 10000001 cycles: 3799176 heartbeat IPC: 2.58577 cumulative IPC: 2.63215 (Simulation time: 0 hr 5 min 59 sec) 

Warmup complete CPU 0 instructions: 10000001 cycles: 3799176 (Simulation time: 0 hr 5 min 59 sec) 

Heartbeat CPU 0 instructions: 11000001 cycles: 4698316 heartbeat IPC: 1.11217 cumulative IPC: 1.11217 (Simulation time: 0 hr 6 min 33 sec) 
Heartbeat CPU 0 instructions: 12000000 cycles: 5518587 heartbeat IPC: 1.21911 cumulative IPC: 1.16319 (Simulation time: 0 hr 7 min 12 sec) 
Heartbeat CPU 0 instructions: 13000000 cycles: 6770315 heartbeat IPC: 0.798896 cumulative IPC: 1.00971 (Simulation time: 0 hr 7 min 51 sec) 
Heartbeat CPU 0 instructions: 14000000 cycles: 7628111 heartbeat IPC: 1.16578 cumulative IPC: 1.04468 (Simulation time: 0 hr 8 min 30 sec) 
Heartbeat CPU 0 instructions: 15000001 cycles: 8504029 heartbeat IPC: 1.14166 cumulative IPC: 1.06273 (Simulation time: 0 hr 9 min 12 sec) 
Heartbeat CPU 0 instructions: 16000000 cycles: 9530467 heartbeat IPC: 0.974242 cumulative IPC: 1.04688 (Simulation time: 0 hr 9 min 54 sec) 
Heartbeat CPU 0 instructions: 17000001 cycles: 10856911 heartbeat IPC: 0.753896 cumulative IPC: 0.99182 (Simulation time: 0 hr 10 min 34 sec) 
Heartbeat CPU 0 instructions: 18000003 cycles: 11914518 heartbeat IPC: 0.945533 cumulative IPC: 0.985787 (Simulation time: 0 hr 11 min 13 sec) 
Heartbeat CPU 0 instructions: 19000002 cycles: 12764992 heartbeat IPC: 1.17581 cumulative IPC: 1.00381 (Simulation time: 0 hr 11 min 55 sec) 
Heartbeat CPU 0 instructions: 20000000 cycles: 13626552 heartbeat IPC: 1.16068 cumulative IPC: 1.01757 (Simulation time: 0 hr 12 min 35 sec) 
Heartbeat CPU 0 instructions: 21000000 cycles: 14775555 heartbeat IPC: 0.87032 cumulative IPC: 1.00215 (Simulation time: 0 hr 13 min 14 sec) 
Heartbeat CPU 0 instructions: 22000000 cycles: 15749323 heartbeat IPC: 1.02694 cumulative IPC: 1.00417 (Simulation time: 0 hr 13 min 52 sec) 
Heartbeat CPU 0 instructions: 23000003 cycles: 16632184 heartbeat IPC: 1.13268 cumulative IPC: 1.01301 (Simulation time: 0 hr 14 min 30 sec) 
Heartbeat CPU 0 instructions: 24000000 cycles: 17563985 heartbeat IPC: 1.07319 cumulative IPC: 1.01709 (Simulation time: 0 hr 15 min 9 sec) 
Heartbeat CPU 0 instructions: 25000001 cycles: 18465925 heartbeat IPC: 1.10872 cumulative IPC: 1.02272 (Simulation time: 0 hr 15 min 45 sec) 
Heartbeat CPU 0 instructions: 26000003 cycles: 19317116 heartbeat IPC: 1.17483 cumulative IPC: 1.03106 (Simulation time: 0 hr 16 min 20 sec) 
Heartbeat CPU 0 instructions: 27000000 cycles: 20155034 heartbeat IPC: 1.19343 cumulative IPC: 1.03938 (Simulation time: 0 hr 16 min 57 sec) 
Heartbeat CPU 0 instructions: 28000000 cycles: 21064680 heartbeat IPC: 1.09933 cumulative IPC: 1.04254 (Simulation time: 0 hr 17 min 32 sec) 
Heartbeat CPU 0 instructions: 29000003 cycles: 21913668 heartbeat IPC: 1.17788 cumulative IPC: 1.04888 (Simulation time: 0 hr 18 min 8 sec) 
Heartbeat CPU 0 instructions: 30000003 cycles: 22744072 heartbeat IPC: 1.20423 cumulative IPC: 1.05569 (Simulation time: 0 hr 18 min 44 sec) 
Heartbeat CPU 0 instructions: 31000002 cycles: 23632441 heartbeat IPC: 1.12566 cumulative IPC: 1.05883 (Simulation time: 0 hr 19 min 19 sec) 
Heartbeat CPU 0 instructions: 32000000 cycles: 24514565 heartbeat IPC: 1.13363 cumulative IPC: 1.06201 (Simulation time: 0 hr 19 min 56 sec) 
Heartbeat CPU 0 instructions: 33000001 cycles: 25353344 heartbeat IPC: 1.19221 cumulative IPC: 1.06708 (Simulation time: 0 hr 20 min 32 sec) 
Heartbeat CPU 0 instructions: 34000001 cycles: 26702770 heartbeat IPC: 0.741056 cumulative IPC: 1.04787 (Simulation time: 0 hr 21 min 6 sec) 
Heartbeat CPU 0 instructions: 35000002 cycles: 27603362 heartbeat IPC: 1.11038 cumulative IPC: 1.05024 (Simulation time: 0 hr 21 min 36 sec) 
Heartbeat CPU 0 instructions: 36000000 cycles: 28493617 heartbeat IPC: 1.12327 cumulative IPC: 1.05287 (Simulation time: 0 hr 22 min 6 sec) 
Heartbeat CPU 0 instructions: 37000003 cycles: 29496796 heartbeat IPC: 0.996834 cumulative IPC: 1.05068 (Simulation time: 0 hr 22 min 47 sec) 
Heartbeat CPU 0 instructions: 38000000 cycles: 30642018 heartbeat IPC: 0.873191 cumulative IPC: 1.04311 (Simulation time: 0 hr 23 min 16 sec) 
Heartbeat CPU 0 instructions: 39000003 cycles: 31525334 heartbeat IPC: 1.1321 cumulative IPC: 1.04594 (Simulation time: 0 hr 23 min 44 sec) 
Heartbeat CPU 0 instructions: 40000000 cycles: 32392474 heartbeat IPC: 1.15321 cumulative IPC: 1.0492 (Simulation time: 0 hr 24 min 18 sec) 
Heartbeat CPU 0 instructions: 41000000 cycles: 33610505 heartbeat IPC: 0.820997 cumulative IPC: 1.03987 (Simulation time: 0 hr 24 min 50 sec) 
Heartbeat CPU 0 instructions: 42000002 cycles: 34464592 heartbeat IPC: 1.17084 cumulative IPC: 1.04352 (Simulation time: 0 hr 25 min 19 sec) 
Heartbeat CPU 0 instructions: 43000001 cycles: 35350866 heartbeat IPC: 1.12832 cumulative IPC: 1.0459 (Simulation time: 0 hr 25 min 48 sec) 
Heartbeat CPU 0 instructions: 44000000 cycles: 36411913 heartbeat IPC: 0.942464 cumulative IPC: 1.04254 (Simulation time: 0 hr 26 min 18 sec) 
Heartbeat CPU 0 instructions: 45000002 cycles: 37397893 heartbeat IPC: 1.01422 cumulative IPC: 1.04171 (Simulation time: 0 hr 26 min 48 sec) 
Heartbeat CPU 0 instructions: 46000003 cycles: 38244810 heartbeat IPC: 1.18075 cumulative IPC: 1.04513 (Simulation time: 0 hr 27 min 17 sec) 
Heartbeat CPU 0 instructions: 47000000 cycles: 39111028 heartbeat IPC: 1.15444 cumulative IPC: 1.04781 (Simulation time: 0 hr 27 min 46 sec) 
Heartbeat CPU 0 instructions: 48000000 cycles: 40076395 heartbeat IPC: 1.03588 cumulative IPC: 1.04749 (Simulation time: 0 hr 28 min 16 sec) 
Heartbeat CPU 0 instructions: 49000000 cycles: 40931122 heartbeat IPC: 1.16996 cumulative IPC: 1.05031 (Simulation time: 0 hr 28 min 47 sec) 
Heartbeat CPU 0 instructions: 50000000 cycles: 41779487 heartbeat IPC: 1.17874 cumulative IPC: 1.05318 (Simulation time: 0 hr 29 min 17 sec) 
Heartbeat CPU 0 instructions: 51000003 cycles: 42961621 heartbeat IPC: 0.84593 cumulative IPC: 1.04692 (Simulation time: 0 hr 29 min 50 sec) 
Heartbeat CPU 0 instructions: 52000000 cycles: 43785812 heartbeat IPC: 1.21331 cumulative IPC: 1.05035 (Simulation time: 0 hr 30 min 19 sec) 
Heartbeat CPU 0 instructions: 53000002 cycles: 44655996 heartbeat IPC: 1.14918 cumulative IPC: 1.05246 (Simulation time: 0 hr 30 min 51 sec) 
Heartbeat CPU 0 instructions: 54000003 cycles: 45804123 heartbeat IPC: 0.870985 cumulative IPC: 1.0475 (Simulation time: 0 hr 31 min 24 sec) 
Heartbeat CPU 0 instructions: 55000001 cycles: 46688035 heartbeat IPC: 1.13133 cumulative IPC: 1.04922 (Simulation time: 0 hr 31 min 56 sec) 
Heartbeat CPU 0 instructions: 56000000 cycles: 47556377 heartbeat IPC: 1.15162 cumulative IPC: 1.05126 (Simulation time: 0 hr 32 min 27 sec) 
Heartbeat CPU 0 instructions: 57000000 cycles: 48544060 heartbeat IPC: 1.01247 cumulative IPC: 1.0504 (Simulation time: 0 hr 33 min 4 sec) 
Heartbeat CPU 0 instructions: 58000000 cycles: 49608593 heartbeat IPC: 0.939379 cumulative IPC: 1.04782 (Simulation time: 0 hr 33 min 34 sec) 
Heartbeat CPU 0 instructions: 59000001 cycles: 50446455 heartbeat IPC: 1.19352 cumulative IPC: 1.05044 (Simulation time: 0 hr 34 min 2 sec) 
Heartbeat CPU 0 instructions: 60000000 cycles: 51301022 heartbeat IPC: 1.17018 cumulative IPC: 1.05259 (Simulation time: 0 hr 34 min 34 sec) 
Heartbeat CPU 0 instructions: 61000000 cycles: 52639088 heartbeat IPC: 0.747347 cumulative IPC: 1.04423 (Simulation time: 0 hr 35 min 6 sec) 
Heartbeat CPU 0 instructions: 62000002 cycles: 53782326 heartbeat IPC: 0.87471 cumulative IPC: 1.04035 (Simulation time: 0 hr 35 min 38 sec) 
Heartbeat CPU 0 instructions: 63000001 cycles: 54601653 heartbeat IPC: 1.22051 cumulative IPC: 1.04326 (Simulation time: 0 hr 36 min 7 sec) 
Heartbeat CPU 0 instructions: 64000000 cycles: 55446282 heartbeat IPC: 1.18395 cumulative IPC: 1.04556 (Simulation time: 0 hr 36 min 36 sec) 
Heartbeat CPU 0 instructions: 65000000 cycles: 56515769 heartbeat IPC: 0.935028 cumulative IPC: 1.04331 (Simulation time: 0 hr 37 min 7 sec) 
Heartbeat CPU 0 instructions: 66000001 cycles: 57474803 heartbeat IPC: 1.04272 cumulative IPC: 1.0433 (Simulation time: 0 hr 37 min 37 sec) 
Heartbeat CPU 0 instructions: 67000000 cycles: 58312070 heartbeat IPC: 1.19436 cumulative IPC: 1.04562 (Simulation time: 0 hr 38 min 7 sec) 
Heartbeat CPU 0 instructions: 68000000 cycles: 59199644 heartbeat IPC: 1.12667 cumulative IPC: 1.04692 (Simulation time: 0 hr 38 min 44 sec) 
Heartbeat CPU 0 instructions: 69000003 cycles: 60307922 heartbeat IPC: 0.902303 cumulative IPC: 1.04409 (Simulation time: 0 hr 39 min 13 sec) 
Heartbeat CPU 0 instructions: 70000001 cycles: 61179334 heartbeat IPC: 1.14756 cumulative IPC: 1.04566 (Simulation time: 0 hr 39 min 43 sec) 
Heartbeat CPU 0 instructions: 71000001 cycles: 62027742 heartbeat IPC: 1.17868 cumulative IPC: 1.0476 (Simulation time: 0 hr 40 min 13 sec) 
Heartbeat CPU 0 instructions: 72000000 cycles: 63225240 heartbeat IPC: 0.835074 cumulative IPC: 1.04331 (Simulation time: 0 hr 40 min 44 sec) 
Heartbeat CPU 0 instructions: 73000001 cycles: 64031808 heartbeat IPC: 1.23982 cumulative IPC: 1.04594 (Simulation time: 0 hr 41 min 14 sec) 
Heartbeat CPU 0 instructions: 74000000 cycles: 64891283 heartbeat IPC: 1.1635 cumulative IPC: 1.0476 (Simulation time: 0 hr 41 min 46 sec) 
Heartbeat CPU 0 instructions: 75000003 cycles: 65974777 heartbeat IPC: 0.922943 cumulative IPC: 1.04543 (Simulation time: 0 hr 42 min 17 sec) 
Heartbeat CPU 0 instructions: 76000000 cycles: 66894752 heartbeat IPC: 1.08698 cumulative IPC: 1.04603 (Simulation time: 0 hr 42 min 45 sec) 
Heartbeat CPU 0 instructions: 77000002 cycles: 67679608 heartbeat IPC: 1.27412 cumulative IPC: 1.04883 (Simulation time: 0 hr 43 min 12 sec) 
Heartbeat CPU 0 instructions: 78000002 cycles: 68602142 heartbeat IPC: 1.08397 cumulative IPC: 1.04933 (Simulation time: 0 hr 43 min 42 sec) 
Heartbeat CPU 0 instructions: 79000001 cycles: 69644430 heartbeat IPC: 0.959427 cumulative IPC: 1.04791 (Simulation time: 0 hr 44 min 13 sec) 
Heartbeat CPU 0 instructions: 80000000 cycles: 70441505 heartbeat IPC: 1.25459 cumulative IPC: 1.05038 (Simulation time: 0 hr 44 min 42 sec) 
Heartbeat CPU 0 instructions: 81000001 cycles: 71282858 heartbeat IPC: 1.18856 cumulative IPC: 1.05211 (Simulation time: 0 hr 45 min 11 sec) 
Heartbeat CPU 0 instructions: 82000000 cycles: 72409176 heartbeat IPC: 0.887848 cumulative IPC: 1.04941 (Simulation time: 0 hr 45 min 43 sec) 
Heartbeat CPU 0 instructions: 83000001 cycles: 73221817 heartbeat IPC: 1.23056 cumulative IPC: 1.05153 (Simulation time: 0 hr 46 min 12 sec) 
Heartbeat CPU 0 instructions: 84000000 cycles: 74047559 heartbeat IPC: 1.21103 cumulative IPC: 1.05341 (Simulation time: 0 hr 46 min 42 sec) 
Heartbeat CPU 0 instructions: 85000002 cycles: 75155102 heartbeat IPC: 0.902901 cumulative IPC: 1.05107 (Simulation time: 0 hr 47 min 13 sec) 
Heartbeat CPU 0 instructions: 86000003 cycles: 76022352 heartbeat IPC: 1.15307 cumulative IPC: 1.05229 (Simulation time: 0 hr 47 min 42 sec) 
Heartbeat CPU 0 instructions: 87000001 cycles: 76819411 heartbeat IPC: 1.25461 cumulative IPC: 1.0545 (Simulation time: 0 hr 48 min 11 sec) 
Heartbeat CPU 0 instructions: 88000000 cycles: 77815129 heartbeat IPC: 1.0043 cumulative IPC: 1.05383 (Simulation time: 0 hr 48 min 41 sec) 
Heartbeat CPU 0 instructions: 89000000 cycles: 78804089 heartbeat IPC: 1.01116 cumulative IPC: 1.05326 (Simulation time: 0 hr 49 min 9 sec) 
Heartbeat CPU 0 instructions: 90000000 cycles: 79588068 heartbeat IPC: 1.27554 cumulative IPC: 1.05556 (Simulation time: 0 hr 49 min 37 sec) 
Heartbeat CPU 0 instructions: 91000000 cycles: 80425479 heartbeat IPC: 1.19416 cumulative IPC: 1.05708 (Simulation time: 0 hr 50 min 15 sec) 
Heartbeat CPU 0 instructions: 92000000 cycles: 81566297 heartbeat IPC: 0.876564 cumulative IPC: 1.05443 (Simulation time: 0 hr 50 min 46 sec) 
Heartbeat CPU 0 instructions: 93000001 cycles: 82391016 heartbeat IPC: 1.21254 cumulative IPC: 1.05609 (Simulation time: 0 hr 51 min 15 sec) 
Heartbeat CPU 0 instructions: 94000001 cycles: 83210190 heartbeat IPC: 1.22074 cumulative IPC: 1.05779 (Simulation time: 0 hr 51 min 44 sec) 
Heartbeat CPU 0 instructions: 95000002 cycles: 84390093 heartbeat IPC: 0.847528 cumulative IPC: 1.05471 (Simulation time: 0 hr 52 min 14 sec) 
Heartbeat CPU 0 instructions: 96000000 cycles: 85226279 heartbeat IPC: 1.1959 cumulative IPC: 1.05616 (Simulation time: 0 hr 52 min 43 sec) 
Heartbeat CPU 0 instructions: 97000002 cycles: 86033555 heartbeat IPC: 1.23874 cumulative IPC: 1.05795 (Simulation time: 0 hr 53 min 14 sec) 
Heartbeat CPU 0 instructions: 98000000 cycles: 87100313 heartbeat IPC: 0.937418 cumulative IPC: 1.05641 (Simulation time: 0 hr 53 min 43 sec) 
Heartbeat CPU 0 instructions: 99000003 cycles: 88177593 heartbeat IPC: 0.928267 cumulative IPC: 1.05477 (Simulation time: 0 hr 54 min 12 sec) 
Heartbeat CPU 0 instructions: 100000000 cycles: 88997588 heartbeat IPC: 1.21952 cumulative IPC: 1.05636 (Simulation time: 0 hr 54 min 40 sec) 
Heartbeat CPU 0 instructions: 101000000 cycles: 89844172 heartbeat IPC: 1.18122 cumulative IPC: 1.05759 (Simulation time: 0 hr 55 min 9 sec) 
Heartbeat CPU 0 instructions: 102000001 cycles: 91274416 heartbeat IPC: 0.699182 cumulative IPC: 1.05173 (Simulation time: 0 hr 55 min 39 sec) 
Heartbeat CPU 0 instructions: 103000000 cycles: 92544542 heartbeat IPC: 0.787323 cumulative IPC: 1.04794 (Simulation time: 0 hr 56 min 11 sec) 
Heartbeat CPU 0 instructions: 104000000 cycles: 93480064 heartbeat IPC: 1.06892 cumulative IPC: 1.04816 (Simulation time: 0 hr 56 min 38 sec) 
Heartbeat CPU 0 instructions: 105000003 cycles: 94295961 heartbeat IPC: 1.22565 cumulative IPC: 1.04976 (Simulation time: 0 hr 57 min 6 sec) 
Heartbeat CPU 0 instructions: 106000000 cycles: 95168924 heartbeat IPC: 1.14552 cumulative IPC: 1.05068 (Simulation time: 0 hr 57 min 35 sec) 
Heartbeat CPU 0 instructions: 107000001 cycles: 96584486 heartbeat IPC: 0.706434 cumulative IPC: 1.04542 (Simulation time: 0 hr 58 min 4 sec) 
Heartbeat CPU 0 instructions: 108000000 cycles: 97478374 heartbeat IPC: 1.11871 cumulative IPC: 1.04612 (Simulation time: 0 hr 58 min 31 sec) 
Heartbeat CPU 0 instructions: 109000000 cycles: 98313649 heartbeat IPC: 1.19721 cumulative IPC: 1.04746 (Simulation time: 0 hr 58 min 59 sec) 
Heartbeat CPU 0 instructions: 110000000 cycles: 99427159 heartbeat IPC: 0.898061 cumulative IPC: 1.04572 (Simulation time: 0 hr 59 min 24 sec) 
Finished CPU 0 instructions: 100000000 cycles: 95627985 cummulative IPC: 1.04572 (Simulation time: 0 hr 59 min 24 sec) 

ChampSim completed all CPUs

Region of Interest Statistics

CPU 0 cummulative IPC: 1.04572 instructions: 100000000 cycles: 95627985
LLC TOTAL     ACCESS:    1574037  HIT:     819178  MISS:     754859
LLC LOAD      ACCESS:     202255  HIT:     169273  MISS:      32982
LLC RFO       ACCESS:     111348  HIT:     109626  MISS:       1722
LLC PREFETCH  ACCESS:    1127279  HIT:     409435  MISS:     717844
LLC WRITEBACK ACCESS:     133155  HIT:     130844  MISS:       2311
Insertion Distribution: 
	LOAD 10083 0 14338 17419 
	RFO 1237 0 3845 186 
	PREF 0 4471 95734 700503 
	WRITEBACK 0 0 0 2685 
Total Prefetch Downgrades: 7620
