
*** ChampSim Multicore Out-of-Order Simulator ***

Warmup Instructions: 10000000
Simulation Instructions: 100000000
Configuration: 2
Number of CPUs: 1
LLC sets: 2048
LLC ways: 16
Off-chip DRAM Channels: 1 Width: 64-bit Data Rate: 1600 MT/s

CPU 0 runs /datasets/cs240c-wi22-a00-public/data/Assignment2-gz/bzip2_183B.trace.gz
CPU 0 L1D next line prefetcher
CPU 0 L2C IP-based stride prefetcher
Initialize SRRIP state
Heartbeat CPU 0 instructions: 1000000 cycles: 447972 heartbeat IPC: 2.23228 cumulative IPC: 2.23228 (Simulation time: 0 hr 0 min 40 sec) 
Heartbeat CPU 0 instructions: 2000001 cycles: 951246 heartbeat IPC: 1.98699 cumulative IPC: 2.10251 (Simulation time: 0 hr 1 min 22 sec) 
Heartbeat CPU 0 instructions: 3000001 cycles: 1457933 heartbeat IPC: 1.97361 cumulative IPC: 2.05771 (Simulation time: 0 hr 2 min 2 sec) 
Heartbeat CPU 0 instructions: 4000000 cycles: 1928626 heartbeat IPC: 2.12452 cumulative IPC: 2.07402 (Simulation time: 0 hr 2 min 41 sec) 
Heartbeat CPU 0 instructions: 5000000 cycles: 2425933 heartbeat IPC: 2.01083 cumulative IPC: 2.06106 (Simulation time: 0 hr 3 min 20 sec) 
Heartbeat CPU 0 instructions: 6000001 cycles: 2887533 heartbeat IPC: 2.16638 cumulative IPC: 2.0779 (Simulation time: 0 hr 3 min 59 sec) 
Heartbeat CPU 0 instructions: 7000002 cycles: 3343396 heartbeat IPC: 2.19364 cumulative IPC: 2.09368 (Simulation time: 0 hr 4 min 37 sec) 
Heartbeat CPU 0 instructions: 8000000 cycles: 3812995 heartbeat IPC: 2.12947 cumulative IPC: 2.09809 (Simulation time: 0 hr 5 min 14 sec) 
Heartbeat CPU 0 instructions: 9000003 cycles: 4278250 heartbeat IPC: 2.14937 cumulative IPC: 2.10366 (Simulation time: 0 hr 5 min 51 sec) 
Heartbeat CPU 0 instructions: 10000000 cycles: 4746597 heartbeat IPC: 2.13516 cumulative IPC: 2.10677 (Simulation time: 0 hr 6 min 30 sec) 

Warmup complete CPU 0 instructions: 10000001 cycles: 4746598 (Simulation time: 0 hr 6 min 30 sec) 

Heartbeat CPU 0 instructions: 11000000 cycles: 6253976 heartbeat IPC: 0.663403 cumulative IPC: 0.663403 (Simulation time: 0 hr 7 min 8 sec) 
Heartbeat CPU 0 instructions: 12000000 cycles: 7711685 heartbeat IPC: 0.686008 cumulative IPC: 0.674516 (Simulation time: 0 hr 7 min 42 sec) 
Heartbeat CPU 0 instructions: 13000000 cycles: 8939105 heartbeat IPC: 0.814717 cumulative IPC: 0.715562 (Simulation time: 0 hr 8 min 19 sec) 
Heartbeat CPU 0 instructions: 14000003 cycles: 9984044 heartbeat IPC: 0.956997 cumulative IPC: 0.763731 (Simulation time: 0 hr 8 min 55 sec) 
Heartbeat CPU 0 instructions: 15000000 cycles: 11376820 heartbeat IPC: 0.717988 cumulative IPC: 0.754122 (Simulation time: 0 hr 9 min 30 sec) 
Heartbeat CPU 0 instructions: 16000000 cycles: 12354393 heartbeat IPC: 1.02294 cumulative IPC: 0.788665 (Simulation time: 0 hr 10 min 3 sec) 
Heartbeat CPU 0 instructions: 17000003 cycles: 13253339 heartbeat IPC: 1.11242 cumulative IPC: 0.822877 (Simulation time: 0 hr 10 min 39 sec) 
Heartbeat CPU 0 instructions: 18000001 cycles: 14175086 heartbeat IPC: 1.08489 cumulative IPC: 0.848492 (Simulation time: 0 hr 11 min 12 sec) 
Heartbeat CPU 0 instructions: 19000002 cycles: 15120679 heartbeat IPC: 1.05754 cumulative IPC: 0.867547 (Simulation time: 0 hr 11 min 48 sec) 
Heartbeat CPU 0 instructions: 20000000 cycles: 16322334 heartbeat IPC: 0.832184 cumulative IPC: 0.863876 (Simulation time: 0 hr 12 min 20 sec) 
Heartbeat CPU 0 instructions: 21000000 cycles: 17818746 heartbeat IPC: 0.668265 cumulative IPC: 0.841484 (Simulation time: 0 hr 12 min 56 sec) 
Heartbeat CPU 0 instructions: 22000000 cycles: 19230961 heartbeat IPC: 0.708107 cumulative IPC: 0.82848 (Simulation time: 0 hr 13 min 33 sec) 
Heartbeat CPU 0 instructions: 23000000 cycles: 20365117 heartbeat IPC: 0.881713 cumulative IPC: 0.832345 (Simulation time: 0 hr 14 min 10 sec) 
Heartbeat CPU 0 instructions: 24000000 cycles: 21624009 heartbeat IPC: 0.794349 cumulative IPC: 0.829511 (Simulation time: 0 hr 14 min 46 sec) 
Heartbeat CPU 0 instructions: 25000001 cycles: 22970000 heartbeat IPC: 0.742948 cumulative IPC: 0.823117 (Simulation time: 0 hr 15 min 21 sec) 
Heartbeat CPU 0 instructions: 26000002 cycles: 23950485 heartbeat IPC: 1.0199 cumulative IPC: 0.833165 (Simulation time: 0 hr 15 min 54 sec) 
Heartbeat CPU 0 instructions: 27000000 cycles: 24952375 heartbeat IPC: 0.998112 cumulative IPC: 0.841344 (Simulation time: 0 hr 16 min 27 sec) 
Heartbeat CPU 0 instructions: 28000000 cycles: 26232284 heartbeat IPC: 0.781306 cumulative IPC: 0.837767 (Simulation time: 0 hr 17 min 2 sec) 
Heartbeat CPU 0 instructions: 29000003 cycles: 27303961 heartbeat IPC: 0.93312 cumulative IPC: 0.842297 (Simulation time: 0 hr 17 min 33 sec) 
Heartbeat CPU 0 instructions: 30000000 cycles: 28620275 heartbeat IPC: 0.759695 cumulative IPC: 0.837743 (Simulation time: 0 hr 18 min 7 sec) 
Heartbeat CPU 0 instructions: 31000000 cycles: 29912862 heartbeat IPC: 0.773642 cumulative IPC: 0.83445 (Simulation time: 0 hr 18 min 41 sec) 
Heartbeat CPU 0 instructions: 32000000 cycles: 31529322 heartbeat IPC: 0.618636 cumulative IPC: 0.821425 (Simulation time: 0 hr 19 min 11 sec) 
Heartbeat CPU 0 instructions: 33000000 cycles: 32593732 heartbeat IPC: 0.939488 cumulative IPC: 0.825938 (Simulation time: 0 hr 19 min 43 sec) 
Heartbeat CPU 0 instructions: 34000001 cycles: 33600682 heartbeat IPC: 0.993099 cumulative IPC: 0.831771 (Simulation time: 0 hr 20 min 13 sec) 
Heartbeat CPU 0 instructions: 35000003 cycles: 34615164 heartbeat IPC: 0.985727 cumulative IPC: 0.837 (Simulation time: 0 hr 20 min 44 sec) 
Heartbeat CPU 0 instructions: 36000000 cycles: 35623286 heartbeat IPC: 0.99194 cumulative IPC: 0.842059 (Simulation time: 0 hr 21 min 11 sec) 
Heartbeat CPU 0 instructions: 37000003 cycles: 36862509 heartbeat IPC: 0.80696 cumulative IPC: 0.840705 (Simulation time: 0 hr 21 min 44 sec) 
Heartbeat CPU 0 instructions: 38000001 cycles: 38378870 heartbeat IPC: 0.659472 cumulative IPC: 0.832534 (Simulation time: 0 hr 22 min 14 sec) 
Heartbeat CPU 0 instructions: 39000002 cycles: 39493488 heartbeat IPC: 0.897169 cumulative IPC: 0.834607 (Simulation time: 0 hr 22 min 41 sec) 
Heartbeat CPU 0 instructions: 40000000 cycles: 40529050 heartbeat IPC: 0.965657 cumulative IPC: 0.8384 (Simulation time: 0 hr 23 min 11 sec) 
Heartbeat CPU 0 instructions: 41000002 cycles: 41999458 heartbeat IPC: 0.680085 cumulative IPC: 0.832151 (Simulation time: 0 hr 23 min 39 sec) 
Heartbeat CPU 0 instructions: 42000000 cycles: 43281506 heartbeat IPC: 0.78 cumulative IPC: 0.830416 (Simulation time: 0 hr 24 min 6 sec) 
Heartbeat CPU 0 instructions: 43000001 cycles: 44424826 heartbeat IPC: 0.874647 cumulative IPC: 0.83169 (Simulation time: 0 hr 24 min 37 sec) 
Heartbeat CPU 0 instructions: 44000000 cycles: 45573693 heartbeat IPC: 0.870422 cumulative IPC: 0.83278 (Simulation time: 0 hr 25 min 6 sec) 
Heartbeat CPU 0 instructions: 45000000 cycles: 46643587 heartbeat IPC: 0.934672 cumulative IPC: 0.835382 (Simulation time: 0 hr 25 min 44 sec) 
Heartbeat CPU 0 instructions: 46000000 cycles: 47758946 heartbeat IPC: 0.896572 cumulative IPC: 0.836969 (Simulation time: 0 hr 26 min 13 sec) 
Heartbeat CPU 0 instructions: 47000003 cycles: 48763263 heartbeat IPC: 0.995705 cumulative IPC: 0.840591 (Simulation time: 0 hr 26 min 41 sec) 
Heartbeat CPU 0 instructions: 48000000 cycles: 50332117 heartbeat IPC: 0.637406 cumulative IPC: 0.833598 (Simulation time: 0 hr 27 min 11 sec) 
Heartbeat CPU 0 instructions: 49000003 cycles: 51932513 heartbeat IPC: 0.624847 cumulative IPC: 0.826518 (Simulation time: 0 hr 27 min 38 sec) 
Heartbeat CPU 0 instructions: 50000000 cycles: 53055461 heartbeat IPC: 0.89051 cumulative IPC: 0.828005 (Simulation time: 0 hr 28 min 10 sec) 
Heartbeat CPU 0 instructions: 51000000 cycles: 54085369 heartbeat IPC: 0.97096 cumulative IPC: 0.830989 (Simulation time: 0 hr 28 min 37 sec) 
Heartbeat CPU 0 instructions: 52000000 cycles: 55102397 heartbeat IPC: 0.983257 cumulative IPC: 0.834065 (Simulation time: 0 hr 29 min 4 sec) 
Heartbeat CPU 0 instructions: 53000001 cycles: 56070316 heartbeat IPC: 1.03315 cumulative IPC: 0.837819 (Simulation time: 0 hr 29 min 35 sec) 
Heartbeat CPU 0 instructions: 54000001 cycles: 57081174 heartbeat IPC: 0.989259 cumulative IPC: 0.840744 (Simulation time: 0 hr 30 min 1 sec) 
Heartbeat CPU 0 instructions: 55000001 cycles: 58305079 heartbeat IPC: 0.817057 cumulative IPC: 0.840203 (Simulation time: 0 hr 30 min 29 sec) 
Heartbeat CPU 0 instructions: 56000000 cycles: 59491914 heartbeat IPC: 0.842576 cumulative IPC: 0.840255 (Simulation time: 0 hr 30 min 58 sec) 
Heartbeat CPU 0 instructions: 57000003 cycles: 60867481 heartbeat IPC: 0.726975 cumulative IPC: 0.837478 (Simulation time: 0 hr 31 min 30 sec) 
Heartbeat CPU 0 instructions: 58000001 cycles: 62443645 heartbeat IPC: 0.63445 cumulative IPC: 0.831932 (Simulation time: 0 hr 31 min 56 sec) 
Heartbeat CPU 0 instructions: 59000003 cycles: 63749673 heartbeat IPC: 0.765682 cumulative IPC: 0.830465 (Simulation time: 0 hr 32 min 23 sec) 
Heartbeat CPU 0 instructions: 60000000 cycles: 65326847 heartbeat IPC: 0.634044 cumulative IPC: 0.825351 (Simulation time: 0 hr 32 min 52 sec) 
Heartbeat CPU 0 instructions: 61000003 cycles: 67046306 heartbeat IPC: 0.58158 cumulative IPC: 0.818623 (Simulation time: 0 hr 33 min 22 sec) 
Heartbeat CPU 0 instructions: 62000002 cycles: 68588416 heartbeat IPC: 0.648462 cumulative IPC: 0.814513 (Simulation time: 0 hr 33 min 46 sec) 
Heartbeat CPU 0 instructions: 63000003 cycles: 69978121 heartbeat IPC: 0.719578 cumulative IPC: 0.812491 (Simulation time: 0 hr 34 min 16 sec) 
Heartbeat CPU 0 instructions: 64000000 cycles: 71545732 heartbeat IPC: 0.637911 cumulative IPC: 0.808394 (Simulation time: 0 hr 34 min 43 sec) 
Heartbeat CPU 0 instructions: 65000003 cycles: 72802568 heartbeat IPC: 0.795651 cumulative IPC: 0.808158 (Simulation time: 0 hr 35 min 11 sec) 
Heartbeat CPU 0 instructions: 66000000 cycles: 74132638 heartbeat IPC: 0.751838 cumulative IPC: 0.807079 (Simulation time: 0 hr 35 min 41 sec) 
Heartbeat CPU 0 instructions: 67000000 cycles: 75074895 heartbeat IPC: 1.06128 cumulative IPC: 0.810485 (Simulation time: 0 hr 36 min 13 sec) 
Heartbeat CPU 0 instructions: 68000000 cycles: 76475699 heartbeat IPC: 0.713876 cumulative IPC: 0.808598 (Simulation time: 0 hr 36 min 38 sec) 
Heartbeat CPU 0 instructions: 69000000 cycles: 78047006 heartbeat IPC: 0.636413 cumulative IPC: 0.804907 (Simulation time: 0 hr 37 min 9 sec) 
Heartbeat CPU 0 instructions: 70000002 cycles: 79515009 heartbeat IPC: 0.681199 cumulative IPC: 0.802478 (Simulation time: 0 hr 37 min 38 sec) 
Heartbeat CPU 0 instructions: 71000000 cycles: 81081260 heartbeat IPC: 0.638466 cumulative IPC: 0.799113 (Simulation time: 0 hr 38 min 5 sec) 
Heartbeat CPU 0 instructions: 72000000 cycles: 82449733 heartbeat IPC: 0.730742 cumulative IPC: 0.797909 (Simulation time: 0 hr 38 min 35 sec) 
Heartbeat CPU 0 instructions: 73000001 cycles: 83737954 heartbeat IPC: 0.776265 cumulative IPC: 0.797556 (Simulation time: 0 hr 39 min 3 sec) 
Heartbeat CPU 0 instructions: 74000000 cycles: 84891390 heartbeat IPC: 0.866974 cumulative IPC: 0.798555 (Simulation time: 0 hr 39 min 32 sec) 
Heartbeat CPU 0 instructions: 75000001 cycles: 86304806 heartbeat IPC: 0.707506 cumulative IPC: 0.796977 (Simulation time: 0 hr 39 min 59 sec) 
Heartbeat CPU 0 instructions: 76000000 cycles: 87442968 heartbeat IPC: 0.878609 cumulative IPC: 0.7981 (Simulation time: 0 hr 40 min 27 sec) 
Heartbeat CPU 0 instructions: 77000003 cycles: 88619800 heartbeat IPC: 0.849742 cumulative IPC: 0.798825 (Simulation time: 0 hr 40 min 55 sec) 
Heartbeat CPU 0 instructions: 78000000 cycles: 89952134 heartbeat IPC: 0.75056 cumulative IPC: 0.79807 (Simulation time: 0 hr 41 min 24 sec) 
Heartbeat CPU 0 instructions: 79000000 cycles: 91293371 heartbeat IPC: 0.74558 cumulative IPC: 0.797257 (Simulation time: 0 hr 41 min 52 sec) 
Heartbeat CPU 0 instructions: 80000000 cycles: 92680424 heartbeat IPC: 0.720953 cumulative IPC: 0.796053 (Simulation time: 0 hr 42 min 19 sec) 
Heartbeat CPU 0 instructions: 81000000 cycles: 94369476 heartbeat IPC: 0.592048 cumulative IPC: 0.792208 (Simulation time: 0 hr 42 min 45 sec) 
Heartbeat CPU 0 instructions: 82000002 cycles: 95914799 heartbeat IPC: 0.647115 cumulative IPC: 0.789749 (Simulation time: 0 hr 43 min 13 sec) 
Heartbeat CPU 0 instructions: 83000000 cycles: 97072847 heartbeat IPC: 0.86352 cumulative IPC: 0.790674 (Simulation time: 0 hr 43 min 43 sec) 
Heartbeat CPU 0 instructions: 84000000 cycles: 98027408 heartbeat IPC: 1.0476 cumulative IPC: 0.793304 (Simulation time: 0 hr 44 min 13 sec) 
Heartbeat CPU 0 instructions: 85000002 cycles: 99074393 heartbeat IPC: 0.955125 cumulative IPC: 0.7951 (Simulation time: 0 hr 44 min 40 sec) 
Heartbeat CPU 0 instructions: 86000002 cycles: 100050395 heartbeat IPC: 1.02459 cumulative IPC: 0.79745 (Simulation time: 0 hr 45 min 7 sec) 
Heartbeat CPU 0 instructions: 87000001 cycles: 101052994 heartbeat IPC: 0.997407 cumulative IPC: 0.799532 (Simulation time: 0 hr 45 min 37 sec) 
Heartbeat CPU 0 instructions: 88000000 cycles: 102347320 heartbeat IPC: 0.772602 cumulative IPC: 0.799174 (Simulation time: 0 hr 46 min 9 sec) 
Heartbeat CPU 0 instructions: 89000000 cycles: 103846096 heartbeat IPC: 0.667211 cumulative IPC: 0.797179 (Simulation time: 0 hr 46 min 39 sec) 
Heartbeat CPU 0 instructions: 90000002 cycles: 105338506 heartbeat IPC: 0.670058 cumulative IPC: 0.795293 (Simulation time: 0 hr 47 min 6 sec) 
Heartbeat CPU 0 instructions: 91000000 cycles: 107036798 heartbeat IPC: 0.588826 cumulative IPC: 0.791865 (Simulation time: 0 hr 47 min 36 sec) 
Heartbeat CPU 0 instructions: 92000000 cycles: 108529582 heartbeat IPC: 0.669889 cumulative IPC: 0.79011 (Simulation time: 0 hr 48 min 5 sec) 
Heartbeat CPU 0 instructions: 93000001 cycles: 109785800 heartbeat IPC: 0.796041 cumulative IPC: 0.790181 (Simulation time: 0 hr 48 min 34 sec) 
Heartbeat CPU 0 instructions: 94000000 cycles: 111529615 heartbeat IPC: 0.573455 cumulative IPC: 0.786642 (Simulation time: 0 hr 49 min 0 sec) 
Heartbeat CPU 0 instructions: 95000002 cycles: 113137930 heartbeat IPC: 0.62177 cumulative IPC: 0.784196 (Simulation time: 0 hr 49 min 28 sec) 
Heartbeat CPU 0 instructions: 96000000 cycles: 114742445 heartbeat IPC: 0.62324 cumulative IPC: 0.781848 (Simulation time: 0 hr 49 min 54 sec) 
Heartbeat CPU 0 instructions: 97000000 cycles: 116142138 heartbeat IPC: 0.714442 cumulative IPC: 0.781001 (Simulation time: 0 hr 50 min 23 sec) 
Heartbeat CPU 0 instructions: 98000000 cycles: 117421926 heartbeat IPC: 0.781379 cumulative IPC: 0.781005 (Simulation time: 0 hr 50 min 51 sec) 
Heartbeat CPU 0 instructions: 99000003 cycles: 118548271 heartbeat IPC: 0.88783 cumulative IPC: 0.782062 (Simulation time: 0 hr 51 min 25 sec) 
Heartbeat CPU 0 instructions: 100000000 cycles: 120023354 heartbeat IPC: 0.677926 cumulative IPC: 0.78073 (Simulation time: 0 hr 51 min 54 sec) 
Heartbeat CPU 0 instructions: 101000000 cycles: 121530865 heartbeat IPC: 0.663345 cumulative IPC: 0.779215 (Simulation time: 0 hr 52 min 20 sec) 
Heartbeat CPU 0 instructions: 102000001 cycles: 123225767 heartbeat IPC: 0.590005 cumulative IPC: 0.776508 (Simulation time: 0 hr 52 min 46 sec) 
Heartbeat CPU 0 instructions: 103000002 cycles: 124540821 heartbeat IPC: 0.760426 cumulative IPC: 0.776331 (Simulation time: 0 hr 53 min 17 sec) 
Heartbeat CPU 0 instructions: 104000000 cycles: 126248413 heartbeat IPC: 0.585619 cumulative IPC: 0.773651 (Simulation time: 0 hr 53 min 44 sec) 
Heartbeat CPU 0 instructions: 105000002 cycles: 127229128 heartbeat IPC: 1.01967 cumulative IPC: 0.775621 (Simulation time: 0 hr 54 min 9 sec) 
Heartbeat CPU 0 instructions: 106000000 cycles: 128764133 heartbeat IPC: 0.651462 cumulative IPC: 0.774084 (Simulation time: 0 hr 54 min 35 sec) 
Heartbeat CPU 0 instructions: 107000002 cycles: 130324607 heartbeat IPC: 0.640832 cumulative IPC: 0.772428 (Simulation time: 0 hr 55 min 3 sec) 
Heartbeat CPU 0 instructions: 108000000 cycles: 131646368 heartbeat IPC: 0.756565 cumulative IPC: 0.772263 (Simulation time: 0 hr 55 min 34 sec) 
Heartbeat CPU 0 instructions: 109000002 cycles: 133349208 heartbeat IPC: 0.587255 cumulative IPC: 0.769813 (Simulation time: 0 hr 55 min 59 sec) 
Heartbeat CPU 0 instructions: 110000000 cycles: 134584791 heartbeat IPC: 0.809333 cumulative IPC: 0.770189 (Simulation time: 0 hr 56 min 25 sec) 
Finished CPU 0 instructions: 100000003 cycles: 129838194 cummulative IPC: 0.770189 (Simulation time: 0 hr 56 min 25 sec) 

ChampSim completed all CPUs

Region of Interest Statistics

CPU 0 cummulative IPC: 0.770189 instructions: 100000003 cycles: 129838194
LLC TOTAL     ACCESS:    1571522  HIT:    1426722  MISS:     144800
LLC LOAD      ACCESS:     429763  HIT:     407140  MISS:      22623
LLC RFO       ACCESS:     294152  HIT:     234167  MISS:      59985
LLC PREFETCH  ACCESS:     521641  HIT:     467014  MISS:      54627
LLC WRITEBACK ACCESS:     325966  HIT:     318401  MISS:       7565
Insertion Distribution: 
	LOAD 26131 0 6099 297 
	RFO 41048 0 18076 13545 
	PREF 0 16637 22272 29535 
	WRITEBACK 0 0 0 8389 
Total Prefetch Downgrades: 20787
