
*** ChampSim Multicore Out-of-Order Simulator ***

Warmup Instructions: 10000000
Simulation Instructions: 100000000
Configuration: 2
Number of CPUs: 1
LLC sets: 2048
LLC ways: 16
Off-chip DRAM Channels: 1 Width: 64-bit Data Rate: 1600 MT/s

CPU 0 runs /datasets/cs240c-wi22-a00-public/data/Assignment2-gz/mcf_46B.trace.gz
CPU 0 L1D next line prefetcher
CPU 0 L2C IP-based stride prefetcher
Heartbeat CPU 0 instructions: 1000002 cycles: 492207 heartbeat IPC: 2.03167 cumulative IPC: 2.03167 (Simulation time: 0 hr 0 min 50 sec) 
Heartbeat CPU 0 instructions: 2000002 cycles: 987416 heartbeat IPC: 2.01935 cumulative IPC: 2.02549 (Simulation time: 0 hr 1 min 37 sec) 
Heartbeat CPU 0 instructions: 3000003 cycles: 1516226 heartbeat IPC: 1.89104 cumulative IPC: 1.9786 (Simulation time: 0 hr 2 min 25 sec) 
Heartbeat CPU 0 instructions: 4000000 cycles: 2040797 heartbeat IPC: 1.90631 cumulative IPC: 1.96002 (Simulation time: 0 hr 3 min 16 sec) 
Heartbeat CPU 0 instructions: 5000000 cycles: 2534566 heartbeat IPC: 2.02524 cumulative IPC: 1.97272 (Simulation time: 0 hr 4 min 9 sec) 
Heartbeat CPU 0 instructions: 6000002 cycles: 3037599 heartbeat IPC: 1.98795 cumulative IPC: 1.97524 (Simulation time: 0 hr 4 min 58 sec) 
Heartbeat CPU 0 instructions: 7000001 cycles: 3580023 heartbeat IPC: 1.84357 cumulative IPC: 1.95529 (Simulation time: 0 hr 5 min 49 sec) 
Heartbeat CPU 0 instructions: 8000000 cycles: 4070294 heartbeat IPC: 2.03969 cumulative IPC: 1.96546 (Simulation time: 0 hr 6 min 40 sec) 
Heartbeat CPU 0 instructions: 9000001 cycles: 4553642 heartbeat IPC: 2.0689 cumulative IPC: 1.97644 (Simulation time: 0 hr 7 min 28 sec) 
Heartbeat CPU 0 instructions: 10000001 cycles: 5088878 heartbeat IPC: 1.86833 cumulative IPC: 1.96507 (Simulation time: 0 hr 8 min 17 sec) 

Warmup complete CPU 0 instructions: 10000001 cycles: 5088878 (Simulation time: 0 hr 8 min 17 sec) 

Heartbeat CPU 0 instructions: 11000002 cycles: 16813039 heartbeat IPC: 0.085294 cumulative IPC: 0.085294 (Simulation time: 0 hr 9 min 43 sec) 
Heartbeat CPU 0 instructions: 12000000 cycles: 21624498 heartbeat IPC: 0.207837 cumulative IPC: 0.120951 (Simulation time: 0 hr 10 min 56 sec) 
Heartbeat CPU 0 instructions: 13000000 cycles: 29384276 heartbeat IPC: 0.12887 cumulative IPC: 0.12348 (Simulation time: 0 hr 12 min 16 sec) 
Heartbeat CPU 0 instructions: 14000003 cycles: 43242525 heartbeat IPC: 0.0721594 cumulative IPC: 0.104839 (Simulation time: 0 hr 13 min 52 sec) 
Heartbeat CPU 0 instructions: 15000000 cycles: 47958050 heartbeat IPC: 0.212065 cumulative IPC: 0.116634 (Simulation time: 0 hr 14 min 58 sec) 
Heartbeat CPU 0 instructions: 16000000 cycles: 52351883 heartbeat IPC: 0.227592 cumulative IPC: 0.126949 (Simulation time: 0 hr 16 min 5 sec) 
Heartbeat CPU 0 instructions: 17000002 cycles: 67104484 heartbeat IPC: 0.0677848 cumulative IPC: 0.112875 (Simulation time: 0 hr 17 min 42 sec) 
Heartbeat CPU 0 instructions: 18000001 cycles: 72638043 heartbeat IPC: 0.180715 cumulative IPC: 0.118432 (Simulation time: 0 hr 18 min 55 sec) 
Heartbeat CPU 0 instructions: 19000002 cycles: 77596733 heartbeat IPC: 0.201666 cumulative IPC: 0.124124 (Simulation time: 0 hr 20 min 2 sec) 
Heartbeat CPU 0 instructions: 20000000 cycles: 90999120 heartbeat IPC: 0.0746134 cumulative IPC: 0.116401 (Simulation time: 0 hr 21 min 34 sec) 
Heartbeat CPU 0 instructions: 21000002 cycles: 106441042 heartbeat IPC: 0.0647589 cumulative IPC: 0.108532 (Simulation time: 0 hr 23 min 15 sec) 
Heartbeat CPU 0 instructions: 22000002 cycles: 111209875 heartbeat IPC: 0.209695 cumulative IPC: 0.113078 (Simulation time: 0 hr 24 min 19 sec) 
Heartbeat CPU 0 instructions: 23000001 cycles: 115694751 heartbeat IPC: 0.222971 cumulative IPC: 0.117534 (Simulation time: 0 hr 25 min 21 sec) 
Heartbeat CPU 0 instructions: 24000000 cycles: 128432807 heartbeat IPC: 0.0785048 cumulative IPC: 0.113504 (Simulation time: 0 hr 26 min 53 sec) 
Heartbeat CPU 0 instructions: 25000002 cycles: 136306226 heartbeat IPC: 0.12701 cumulative IPC: 0.114314 (Simulation time: 0 hr 28 min 14 sec) 
Heartbeat CPU 0 instructions: 26000001 cycles: 140750231 heartbeat IPC: 0.225022 cumulative IPC: 0.117941 (Simulation time: 0 hr 29 min 22 sec) 
Heartbeat CPU 0 instructions: 27000000 cycles: 150337878 heartbeat IPC: 0.104301 cumulative IPC: 0.11704 (Simulation time: 0 hr 30 min 44 sec) 
Heartbeat CPU 0 instructions: 28000000 cycles: 161446212 heartbeat IPC: 0.0900225 cumulative IPC: 0.115121 (Simulation time: 0 hr 32 min 10 sec) 
Heartbeat CPU 0 instructions: 29000001 cycles: 166297291 heartbeat IPC: 0.20614 cumulative IPC: 0.11786 (Simulation time: 0 hr 33 min 12 sec) 
Heartbeat CPU 0 instructions: 30000000 cycles: 173652044 heartbeat IPC: 0.135966 cumulative IPC: 0.11865 (Simulation time: 0 hr 34 min 26 sec) 
Heartbeat CPU 0 instructions: 31000002 cycles: 186994753 heartbeat IPC: 0.0749474 cumulative IPC: 0.115444 (Simulation time: 0 hr 35 min 58 sec) 
Heartbeat CPU 0 instructions: 32000000 cycles: 191805970 heartbeat IPC: 0.207847 cumulative IPC: 0.117825 (Simulation time: 0 hr 37 min 3 sec) 
Heartbeat CPU 0 instructions: 33000000 cycles: 198285118 heartbeat IPC: 0.154341 cumulative IPC: 0.11905 (Simulation time: 0 hr 38 min 12 sec) 
Heartbeat CPU 0 instructions: 34000000 cycles: 212707126 heartbeat IPC: 0.0693385 cumulative IPC: 0.115597 (Simulation time: 0 hr 39 min 53 sec) 
Heartbeat CPU 0 instructions: 35000000 cycles: 219146548 heartbeat IPC: 0.155293 cumulative IPC: 0.116791 (Simulation time: 0 hr 41 min 6 sec) 
Heartbeat CPU 0 instructions: 36000000 cycles: 225726452 heartbeat IPC: 0.151978 cumulative IPC: 0.11784 (Simulation time: 0 hr 42 min 18 sec) 
Heartbeat CPU 0 instructions: 37000002 cycles: 235745782 heartbeat IPC: 0.0998073 cumulative IPC: 0.117057 (Simulation time: 0 hr 43 min 46 sec) 
Heartbeat CPU 0 instructions: 38000000 cycles: 246433025 heartbeat IPC: 0.0935693 cumulative IPC: 0.116017 (Simulation time: 0 hr 45 min 12 sec) 
Heartbeat CPU 0 instructions: 39000000 cycles: 251083085 heartbeat IPC: 0.215051 cumulative IPC: 0.117889 (Simulation time: 0 hr 46 min 16 sec) 
Heartbeat CPU 0 instructions: 40000000 cycles: 257321953 heartbeat IPC: 0.160285 cumulative IPC: 0.118938 (Simulation time: 0 hr 47 min 27 sec) 
Heartbeat CPU 0 instructions: 41000000 cycles: 271610048 heartbeat IPC: 0.0699883 cumulative IPC: 0.116313 (Simulation time: 0 hr 49 min 6 sec) 
Heartbeat CPU 0 instructions: 42000001 cycles: 276857272 heartbeat IPC: 0.190577 cumulative IPC: 0.117747 (Simulation time: 0 hr 50 min 14 sec) 
Heartbeat CPU 0 instructions: 43000000 cycles: 281511222 heartbeat IPC: 0.214871 cumulative IPC: 0.119383 (Simulation time: 0 hr 51 min 23 sec) 
Heartbeat CPU 0 instructions: 44000000 cycles: 294540138 heartbeat IPC: 0.0767524 cumulative IPC: 0.117464 (Simulation time: 0 hr 52 min 59 sec) 
Heartbeat CPU 0 instructions: 45000001 cycles: 302136227 heartbeat IPC: 0.131647 cumulative IPC: 0.117826 (Simulation time: 0 hr 54 min 13 sec) 
Heartbeat CPU 0 instructions: 46000001 cycles: 306941359 heartbeat IPC: 0.208111 cumulative IPC: 0.119264 (Simulation time: 0 hr 55 min 20 sec) 
Heartbeat CPU 0 instructions: 47000002 cycles: 316415011 heartbeat IPC: 0.105556 cumulative IPC: 0.118846 (Simulation time: 0 hr 56 min 42 sec) 
Heartbeat CPU 0 instructions: 48000000 cycles: 327715568 heartbeat IPC: 0.088491 cumulative IPC: 0.117783 (Simulation time: 0 hr 58 min 9 sec) 
Heartbeat CPU 0 instructions: 49000000 cycles: 332787456 heartbeat IPC: 0.197165 cumulative IPC: 0.119012 (Simulation time: 0 hr 59 min 14 sec) 
Heartbeat CPU 0 instructions: 50000001 cycles: 339427512 heartbeat IPC: 0.150601 cumulative IPC: 0.119639 (Simulation time: 1 hr 0 min 28 sec) 
Heartbeat CPU 0 instructions: 51000001 cycles: 353639264 heartbeat IPC: 0.0703643 cumulative IPC: 0.11763 (Simulation time: 1 hr 2 min 5 sec) 
Heartbeat CPU 0 instructions: 52000000 cycles: 358759399 heartbeat IPC: 0.195307 cumulative IPC: 0.118755 (Simulation time: 1 hr 3 min 12 sec) 
Heartbeat CPU 0 instructions: 53000000 cycles: 363490069 heartbeat IPC: 0.211387 cumulative IPC: 0.119977 (Simulation time: 1 hr 4 min 16 sec) 
Heartbeat CPU 0 instructions: 54000002 cycles: 378805328 heartbeat IPC: 0.0652945 cumulative IPC: 0.117736 (Simulation time: 1 hr 5 min 52 sec) 
Heartbeat CPU 0 instructions: 55000002 cycles: 384407629 heartbeat IPC: 0.178498 cumulative IPC: 0.118634 (Simulation time: 1 hr 6 min 55 sec) 
Heartbeat CPU 0 instructions: 56000000 cycles: 389240585 heartbeat IPC: 0.206912 cumulative IPC: 0.119744 (Simulation time: 1 hr 7 min 51 sec) 
Heartbeat CPU 0 instructions: 57000000 cycles: 402443548 heartbeat IPC: 0.0757406 cumulative IPC: 0.118282 (Simulation time: 1 hr 9 min 6 sec) 
Heartbeat CPU 0 instructions: 58000000 cycles: 410206511 heartbeat IPC: 0.128817 cumulative IPC: 0.118484 (Simulation time: 1 hr 10 min 5 sec) 
Heartbeat CPU 0 instructions: 59000002 cycles: 414957482 heartbeat IPC: 0.210484 cumulative IPC: 0.119551 (Simulation time: 1 hr 10 min 52 sec) 
Heartbeat CPU 0 instructions: 60000000 cycles: 426442357 heartbeat IPC: 0.0870709 cumulative IPC: 0.118665 (Simulation time: 1 hr 11 min 56 sec) 
Heartbeat CPU 0 instructions: 61000002 cycles: 436045705 heartbeat IPC: 0.104131 cumulative IPC: 0.118341 (Simulation time: 1 hr 12 min 49 sec) 
Heartbeat CPU 0 instructions: 62000001 cycles: 440846592 heartbeat IPC: 0.208295 cumulative IPC: 0.119332 (Simulation time: 1 hr 13 min 28 sec) 
Heartbeat CPU 0 instructions: 63000001 cycles: 450841202 heartbeat IPC: 0.100054 cumulative IPC: 0.1189 (Simulation time: 1 hr 14 min 16 sec) 
Heartbeat CPU 0 instructions: 64000000 cycles: 462105485 heartbeat IPC: 0.0887761 cumulative IPC: 0.118158 (Simulation time: 1 hr 15 min 0 sec) 
Heartbeat CPU 0 instructions: 65000000 cycles: 467661207 heartbeat IPC: 0.179995 cumulative IPC: 0.1189 (Simulation time: 1 hr 15 min 30 sec) 
Heartbeat CPU 0 instructions: 66000000 cycles: 474158870 heartbeat IPC: 0.153901 cumulative IPC: 0.119385 (Simulation time: 1 hr 16 min 3 sec) 
Heartbeat CPU 0 instructions: 67000002 cycles: 489595710 heartbeat IPC: 0.0647802 cumulative IPC: 0.117645 (Simulation time: 1 hr 16 min 50 sec) 
Heartbeat CPU 0 instructions: 68000000 cycles: 494553008 heartbeat IPC: 0.201722 cumulative IPC: 0.118497 (Simulation time: 1 hr 17 min 21 sec) 
Heartbeat CPU 0 instructions: 69000000 cycles: 499153893 heartbeat IPC: 0.217349 cumulative IPC: 0.119417 (Simulation time: 1 hr 17 min 49 sec) 
Heartbeat CPU 0 instructions: 70000001 cycles: 513062677 heartbeat IPC: 0.0718971 cumulative IPC: 0.118116 (Simulation time: 1 hr 18 min 31 sec) 
Heartbeat CPU 0 instructions: 71000002 cycles: 521621635 heartbeat IPC: 0.116837 cumulative IPC: 0.118095 (Simulation time: 1 hr 19 min 1 sec) 
Heartbeat CPU 0 instructions: 72000000 cycles: 526790993 heartbeat IPC: 0.193447 cumulative IPC: 0.118842 (Simulation time: 1 hr 19 min 22 sec) 
Heartbeat CPU 0 instructions: 73000002 cycles: 535903040 heartbeat IPC: 0.109745 cumulative IPC: 0.118686 (Simulation time: 1 hr 19 min 47 sec) 
Heartbeat CPU 0 instructions: 74000001 cycles: 547663063 heartbeat IPC: 0.0850338 cumulative IPC: 0.117956 (Simulation time: 1 hr 20 min 11 sec) 
Heartbeat CPU 0 instructions: 75000001 cycles: 552671429 heartbeat IPC: 0.199666 cumulative IPC: 0.118704 (Simulation time: 1 hr 20 min 27 sec) 
Heartbeat CPU 0 instructions: 76000000 cycles: 559035083 heartbeat IPC: 0.157142 cumulative IPC: 0.119145 (Simulation time: 1 hr 20 min 44 sec) 
Heartbeat CPU 0 instructions: 77000001 cycles: 574570895 heartbeat IPC: 0.0643675 cumulative IPC: 0.117651 (Simulation time: 1 hr 21 min 7 sec) 
Heartbeat CPU 0 instructions: 78000002 cycles: 579850758 heartbeat IPC: 0.189399 cumulative IPC: 0.11831 (Simulation time: 1 hr 21 min 20 sec) 
Heartbeat CPU 0 instructions: 79000001 cycles: 584642945 heartbeat IPC: 0.208673 cumulative IPC: 0.119057 (Simulation time: 1 hr 21 min 33 sec) 
Heartbeat CPU 0 instructions: 80000000 cycles: 597546247 heartbeat IPC: 0.0774995 cumulative IPC: 0.118152 (Simulation time: 1 hr 21 min 48 sec) 
Heartbeat CPU 0 instructions: 81000000 cycles: 605224835 heartbeat IPC: 0.130232 cumulative IPC: 0.118307 (Simulation time: 1 hr 22 min 1 sec) 
Heartbeat CPU 0 instructions: 82000000 cycles: 610466695 heartbeat IPC: 0.190772 cumulative IPC: 0.118934 (Simulation time: 1 hr 22 min 11 sec) 
Heartbeat CPU 0 instructions: 83000001 cycles: 620094246 heartbeat IPC: 0.103869 cumulative IPC: 0.118698 (Simulation time: 1 hr 22 min 23 sec) 
Heartbeat CPU 0 instructions: 84000000 cycles: 631458710 heartbeat IPC: 0.0879935 cumulative IPC: 0.118141 (Simulation time: 1 hr 22 min 35 sec) 
Heartbeat CPU 0 instructions: 85000001 cycles: 636328273 heartbeat IPC: 0.205357 cumulative IPC: 0.118814 (Simulation time: 1 hr 22 min 42 sec) 
Heartbeat CPU 0 instructions: 86000000 cycles: 644444290 heartbeat IPC: 0.123213 cumulative IPC: 0.11887 (Simulation time: 1 hr 22 min 51 sec) 
Heartbeat CPU 0 instructions: 87000000 cycles: 658710361 heartbeat IPC: 0.0700964 cumulative IPC: 0.117805 (Simulation time: 1 hr 23 min 2 sec) 
Heartbeat CPU 0 instructions: 88000000 cycles: 665325344 heartbeat IPC: 0.151172 cumulative IPC: 0.118139 (Simulation time: 1 hr 23 min 10 sec) 
Heartbeat CPU 0 instructions: 89000000 cycles: 670146747 heartbeat IPC: 0.207409 cumulative IPC: 0.118787 (Simulation time: 1 hr 23 min 17 sec) 
Heartbeat CPU 0 instructions: 90000003 cycles: 681931800 heartbeat IPC: 0.0848535 cumulative IPC: 0.118196 (Simulation time: 1 hr 23 min 26 sec) 
Heartbeat CPU 0 instructions: 91000000 cycles: 691074181 heartbeat IPC: 0.10938 cumulative IPC: 0.118078 (Simulation time: 1 hr 23 min 36 sec) 
Heartbeat CPU 0 instructions: 92000000 cycles: 695812248 heartbeat IPC: 0.211057 cumulative IPC: 0.118716 (Simulation time: 1 hr 23 min 43 sec) 
Heartbeat CPU 0 instructions: 93000002 cycles: 704884072 heartbeat IPC: 0.110232 cumulative IPC: 0.118606 (Simulation time: 1 hr 23 min 52 sec) 
Heartbeat CPU 0 instructions: 94000002 cycles: 716270210 heartbeat IPC: 0.0878261 cumulative IPC: 0.118113 (Simulation time: 1 hr 24 min 2 sec) 
Heartbeat CPU 0 instructions: 95000001 cycles: 722410431 heartbeat IPC: 0.16286 cumulative IPC: 0.118496 (Simulation time: 1 hr 24 min 10 sec) 
Heartbeat CPU 0 instructions: 96000000 cycles: 728358680 heartbeat IPC: 0.168117 cumulative IPC: 0.118904 (Simulation time: 1 hr 24 min 18 sec) 
Heartbeat CPU 0 instructions: 97000000 cycles: 742956579 heartbeat IPC: 0.068503 cumulative IPC: 0.117907 (Simulation time: 1 hr 24 min 30 sec) 
Heartbeat CPU 0 instructions: 98000002 cycles: 747928596 heartbeat IPC: 0.201126 cumulative IPC: 0.118464 (Simulation time: 1 hr 24 min 37 sec) 
Heartbeat CPU 0 instructions: 99000002 cycles: 753049680 heartbeat IPC: 0.195271 cumulative IPC: 0.11899 (Simulation time: 1 hr 24 min 45 sec) 
Heartbeat CPU 0 instructions: 100000000 cycles: 766776548 heartbeat IPC: 0.0728497 cumulative IPC: 0.118159 (Simulation time: 1 hr 24 min 56 sec) 
Heartbeat CPU 0 instructions: 101000000 cycles: 773846263 heartbeat IPC: 0.141448 cumulative IPC: 0.118373 (Simulation time: 1 hr 25 min 4 sec) 
Heartbeat CPU 0 instructions: 102000003 cycles: 778605335 heartbeat IPC: 0.210126 cumulative IPC: 0.118937 (Simulation time: 1 hr 25 min 11 sec) 
Heartbeat CPU 0 instructions: 103000003 cycles: 790462044 heartbeat IPC: 0.0843404 cumulative IPC: 0.118415 (Simulation time: 1 hr 25 min 21 sec) 
Heartbeat CPU 0 instructions: 104000000 cycles: 802245274 heartbeat IPC: 0.0848661 cumulative IPC: 0.117919 (Simulation time: 1 hr 25 min 31 sec) 
Heartbeat CPU 0 instructions: 105000000 cycles: 807653807 heartbeat IPC: 0.184893 cumulative IPC: 0.11837 (Simulation time: 1 hr 25 min 38 sec) 
Heartbeat CPU 0 instructions: 106000000 cycles: 812463855 heartbeat IPC: 0.207898 cumulative IPC: 0.118904 (Simulation time: 1 hr 25 min 46 sec) 
Heartbeat CPU 0 instructions: 107000002 cycles: 827362062 heartbeat IPC: 0.0671223 cumulative IPC: 0.117966 (Simulation time: 1 hr 25 min 56 sec) 
Heartbeat CPU 0 instructions: 108000000 cycles: 833098474 heartbeat IPC: 0.174325 cumulative IPC: 0.118356 (Simulation time: 1 hr 26 min 3 sec) 
Heartbeat CPU 0 instructions: 109000001 cycles: 838010812 heartbeat IPC: 0.203569 cumulative IPC: 0.118859 (Simulation time: 1 hr 26 min 10 sec) 
Heartbeat CPU 0 instructions: 110000002 cycles: 847829044 heartbeat IPC: 0.101851 cumulative IPC: 0.118661 (Simulation time: 1 hr 26 min 18 sec) 
Finished CPU 0 instructions: 100000001 cycles: 842740166 cummulative IPC: 0.118661 (Simulation time: 1 hr 26 min 18 sec) 

ChampSim completed all CPUs

Region of Interest Statistics

CPU 0 cummulative IPC: 0.118661 instructions: 100000001 cycles: 842740166
LLC TOTAL     ACCESS:   18783898  HIT:    7380865  MISS:   11403033
LLC LOAD      ACCESS:    8477764  HIT:    3950970  MISS:    4526794
LLC RFO       ACCESS:     206418  HIT:     126098  MISS:      80320
LLC PREFETCH  ACCESS:    7991633  HIT:    1947616  MISS:    6044017
LLC WRITEBACK ACCESS:    2108083  HIT:    1356181  MISS:     751902
