
*** ChampSim Multicore Out-of-Order Simulator ***

Warmup Instructions: 10000000
Simulation Instructions: 100000000
Configuration: 2
Number of CPUs: 1
LLC sets: 2048
LLC ways: 16
Off-chip DRAM Channels: 1 Width: 64-bit Data Rate: 1600 MT/s

CPU 0 runs /datasets/cs240c-wi22-a00-public/data/Assignment2-gz/zeusmp_100B.trace.gz
CPU 0 L1D next line prefetcher
CPU 0 L2C IP-based stride prefetcher
Heartbeat CPU 0 instructions: 1000002 cycles: 462677 heartbeat IPC: 2.16134 cumulative IPC: 2.16134 (Simulation time: 0 hr 0 min 37 sec) 
Heartbeat CPU 0 instructions: 2000001 cycles: 925467 heartbeat IPC: 2.16081 cumulative IPC: 2.16107 (Simulation time: 0 hr 1 min 13 sec) 
Heartbeat CPU 0 instructions: 3000003 cycles: 1388498 heartbeat IPC: 2.15969 cumulative IPC: 2.16061 (Simulation time: 0 hr 1 min 48 sec) 
Heartbeat CPU 0 instructions: 4000000 cycles: 1851228 heartbeat IPC: 2.16108 cumulative IPC: 2.16073 (Simulation time: 0 hr 2 min 24 sec) 
Heartbeat CPU 0 instructions: 5000003 cycles: 2314155 heartbeat IPC: 2.16017 cumulative IPC: 2.16062 (Simulation time: 0 hr 3 min 2 sec) 
Heartbeat CPU 0 instructions: 6000001 cycles: 2776976 heartbeat IPC: 2.16066 cumulative IPC: 2.16062 (Simulation time: 0 hr 3 min 39 sec) 
Heartbeat CPU 0 instructions: 7000001 cycles: 3239712 heartbeat IPC: 2.16106 cumulative IPC: 2.16069 (Simulation time: 0 hr 4 min 16 sec) 
Heartbeat CPU 0 instructions: 8000000 cycles: 3702616 heartbeat IPC: 2.16027 cumulative IPC: 2.16063 (Simulation time: 0 hr 4 min 50 sec) 
Heartbeat CPU 0 instructions: 9000003 cycles: 4165394 heartbeat IPC: 2.16087 cumulative IPC: 2.16066 (Simulation time: 0 hr 5 min 27 sec) 
Heartbeat CPU 0 instructions: 10000001 cycles: 4628718 heartbeat IPC: 2.15831 cumulative IPC: 2.16043 (Simulation time: 0 hr 6 min 5 sec) 

Warmup complete CPU 0 instructions: 10000001 cycles: 4628718 (Simulation time: 0 hr 6 min 5 sec) 

Heartbeat CPU 0 instructions: 11000000 cycles: 5316341 heartbeat IPC: 1.45428 cumulative IPC: 1.45428 (Simulation time: 0 hr 6 min 47 sec) 
Heartbeat CPU 0 instructions: 12000000 cycles: 6013191 heartbeat IPC: 1.43503 cumulative IPC: 1.44459 (Simulation time: 0 hr 7 min 26 sec) 
Heartbeat CPU 0 instructions: 13000001 cycles: 6724743 heartbeat IPC: 1.40538 cumulative IPC: 1.43128 (Simulation time: 0 hr 8 min 5 sec) 
Heartbeat CPU 0 instructions: 14000003 cycles: 7427927 heartbeat IPC: 1.42211 cumulative IPC: 1.42898 (Simulation time: 0 hr 8 min 42 sec) 
Heartbeat CPU 0 instructions: 15000002 cycles: 8130987 heartbeat IPC: 1.42235 cumulative IPC: 1.42765 (Simulation time: 0 hr 9 min 23 sec) 
Heartbeat CPU 0 instructions: 16000000 cycles: 8835511 heartbeat IPC: 1.4194 cumulative IPC: 1.42626 (Simulation time: 0 hr 10 min 2 sec) 
Heartbeat CPU 0 instructions: 17000003 cycles: 9617550 heartbeat IPC: 1.27871 cumulative IPC: 1.40313 (Simulation time: 0 hr 10 min 42 sec) 
Heartbeat CPU 0 instructions: 18000000 cycles: 10312125 heartbeat IPC: 1.43973 cumulative IPC: 1.40761 (Simulation time: 0 hr 11 min 22 sec) 
Heartbeat CPU 0 instructions: 19000002 cycles: 11012976 heartbeat IPC: 1.42684 cumulative IPC: 1.40972 (Simulation time: 0 hr 12 min 2 sec) 
Heartbeat CPU 0 instructions: 20000000 cycles: 11704023 heartbeat IPC: 1.44708 cumulative IPC: 1.41337 (Simulation time: 0 hr 12 min 41 sec) 
Heartbeat CPU 0 instructions: 21000001 cycles: 12408966 heartbeat IPC: 1.41856 cumulative IPC: 1.41384 (Simulation time: 0 hr 13 min 21 sec) 
Heartbeat CPU 0 instructions: 22000001 cycles: 13102784 heartbeat IPC: 1.4413 cumulative IPC: 1.41609 (Simulation time: 0 hr 14 min 1 sec) 
Heartbeat CPU 0 instructions: 23000002 cycles: 13816794 heartbeat IPC: 1.40054 cumulative IPC: 1.41488 (Simulation time: 0 hr 14 min 40 sec) 
Heartbeat CPU 0 instructions: 24000000 cycles: 14514120 heartbeat IPC: 1.43405 cumulative IPC: 1.41623 (Simulation time: 0 hr 15 min 21 sec) 
Heartbeat CPU 0 instructions: 25000001 cycles: 15223326 heartbeat IPC: 1.41003 cumulative IPC: 1.41581 (Simulation time: 0 hr 16 min 1 sec) 
Heartbeat CPU 0 instructions: 26000001 cycles: 15920956 heartbeat IPC: 1.43342 cumulative IPC: 1.4169 (Simulation time: 0 hr 16 min 41 sec) 
Heartbeat CPU 0 instructions: 27000002 cycles: 16636117 heartbeat IPC: 1.39829 cumulative IPC: 1.41579 (Simulation time: 0 hr 17 min 22 sec) 
Heartbeat CPU 0 instructions: 28000000 cycles: 17335137 heartbeat IPC: 1.43057 cumulative IPC: 1.41661 (Simulation time: 0 hr 18 min 0 sec) 
Heartbeat CPU 0 instructions: 29000000 cycles: 18033152 heartbeat IPC: 1.43263 cumulative IPC: 1.41744 (Simulation time: 0 hr 18 min 39 sec) 
Heartbeat CPU 0 instructions: 30000003 cycles: 18745873 heartbeat IPC: 1.40308 cumulative IPC: 1.41672 (Simulation time: 0 hr 19 min 22 sec) 
Heartbeat CPU 0 instructions: 31000000 cycles: 19442593 heartbeat IPC: 1.43529 cumulative IPC: 1.41759 (Simulation time: 0 hr 20 min 4 sec) 
Heartbeat CPU 0 instructions: 32000000 cycles: 20157217 heartbeat IPC: 1.39934 cumulative IPC: 1.41675 (Simulation time: 0 hr 20 min 43 sec) 
Heartbeat CPU 0 instructions: 33000002 cycles: 20854057 heartbeat IPC: 1.43505 cumulative IPC: 1.41754 (Simulation time: 0 hr 21 min 25 sec) 
Heartbeat CPU 0 instructions: 34000002 cycles: 21567158 heartbeat IPC: 1.40233 cumulative IPC: 1.4169 (Simulation time: 0 hr 22 min 7 sec) 
Heartbeat CPU 0 instructions: 35000003 cycles: 22269564 heartbeat IPC: 1.42368 cumulative IPC: 1.41717 (Simulation time: 0 hr 22 min 47 sec) 
Heartbeat CPU 0 instructions: 36000000 cycles: 22986440 heartbeat IPC: 1.39494 cumulative IPC: 1.4163 (Simulation time: 0 hr 23 min 28 sec) 
Heartbeat CPU 0 instructions: 37000001 cycles: 23688238 heartbeat IPC: 1.42491 cumulative IPC: 1.41661 (Simulation time: 0 hr 24 min 9 sec) 
Heartbeat CPU 0 instructions: 38000003 cycles: 24403523 heartbeat IPC: 1.39805 cumulative IPC: 1.41594 (Simulation time: 0 hr 24 min 51 sec) 
Heartbeat CPU 0 instructions: 39000001 cycles: 25106401 heartbeat IPC: 1.42272 cumulative IPC: 1.41618 (Simulation time: 0 hr 25 min 38 sec) 
Heartbeat CPU 0 instructions: 40000000 cycles: 25822022 heartbeat IPC: 1.39739 cumulative IPC: 1.41554 (Simulation time: 0 hr 26 min 22 sec) 
Heartbeat CPU 0 instructions: 41000003 cycles: 26525840 heartbeat IPC: 1.42083 cumulative IPC: 1.41571 (Simulation time: 0 hr 27 min 5 sec) 
Heartbeat CPU 0 instructions: 42000001 cycles: 27225603 heartbeat IPC: 1.42905 cumulative IPC: 1.41612 (Simulation time: 0 hr 27 min 47 sec) 
Heartbeat CPU 0 instructions: 43000003 cycles: 27944960 heartbeat IPC: 1.39013 cumulative IPC: 1.41532 (Simulation time: 0 hr 28 min 28 sec) 
Heartbeat CPU 0 instructions: 44000000 cycles: 28646054 heartbeat IPC: 1.42634 cumulative IPC: 1.41564 (Simulation time: 0 hr 29 min 12 sec) 
Heartbeat CPU 0 instructions: 45000001 cycles: 29363385 heartbeat IPC: 1.39406 cumulative IPC: 1.41502 (Simulation time: 0 hr 29 min 58 sec) 
Heartbeat CPU 0 instructions: 46000002 cycles: 30069225 heartbeat IPC: 1.41675 cumulative IPC: 1.41507 (Simulation time: 0 hr 30 min 47 sec) 
Heartbeat CPU 0 instructions: 47000003 cycles: 30782992 heartbeat IPC: 1.40102 cumulative IPC: 1.41468 (Simulation time: 0 hr 31 min 33 sec) 
Heartbeat CPU 0 instructions: 48000000 cycles: 31484371 heartbeat IPC: 1.42576 cumulative IPC: 1.41497 (Simulation time: 0 hr 32 min 15 sec) 
Heartbeat CPU 0 instructions: 49000001 cycles: 32198814 heartbeat IPC: 1.39969 cumulative IPC: 1.41458 (Simulation time: 0 hr 32 min 56 sec) 
Heartbeat CPU 0 instructions: 50000001 cycles: 32904380 heartbeat IPC: 1.4173 cumulative IPC: 1.41464 (Simulation time: 0 hr 33 min 38 sec) 
Heartbeat CPU 0 instructions: 51000002 cycles: 33618705 heartbeat IPC: 1.39992 cumulative IPC: 1.41428 (Simulation time: 0 hr 34 min 19 sec) 
Heartbeat CPU 0 instructions: 52000000 cycles: 34319357 heartbeat IPC: 1.42724 cumulative IPC: 1.41459 (Simulation time: 0 hr 34 min 59 sec) 
Heartbeat CPU 0 instructions: 53000001 cycles: 35034900 heartbeat IPC: 1.39754 cumulative IPC: 1.41419 (Simulation time: 0 hr 35 min 41 sec) 
Heartbeat CPU 0 instructions: 54000003 cycles: 35736115 heartbeat IPC: 1.4261 cumulative IPC: 1.41445 (Simulation time: 0 hr 36 min 25 sec) 
Heartbeat CPU 0 instructions: 55000003 cycles: 36443322 heartbeat IPC: 1.41401 cumulative IPC: 1.41444 (Simulation time: 0 hr 37 min 7 sec) 
Heartbeat CPU 0 instructions: 56000000 cycles: 37153995 heartbeat IPC: 1.40711 cumulative IPC: 1.41428 (Simulation time: 0 hr 37 min 47 sec) 
Heartbeat CPU 0 instructions: 57000003 cycles: 37856416 heartbeat IPC: 1.42365 cumulative IPC: 1.41448 (Simulation time: 0 hr 38 min 27 sec) 
Heartbeat CPU 0 instructions: 58000003 cycles: 38569639 heartbeat IPC: 1.40209 cumulative IPC: 1.41422 (Simulation time: 0 hr 39 min 7 sec) 
Heartbeat CPU 0 instructions: 59000003 cycles: 39269894 heartbeat IPC: 1.42805 cumulative IPC: 1.4145 (Simulation time: 0 hr 39 min 46 sec) 
Heartbeat CPU 0 instructions: 60000000 cycles: 39986618 heartbeat IPC: 1.39523 cumulative IPC: 1.41411 (Simulation time: 0 hr 40 min 27 sec) 
Heartbeat CPU 0 instructions: 61000000 cycles: 40689433 heartbeat IPC: 1.42285 cumulative IPC: 1.41428 (Simulation time: 0 hr 41 min 8 sec) 
Heartbeat CPU 0 instructions: 62000001 cycles: 41402615 heartbeat IPC: 1.40217 cumulative IPC: 1.41405 (Simulation time: 0 hr 41 min 47 sec) 
Heartbeat CPU 0 instructions: 63000001 cycles: 42106533 heartbeat IPC: 1.42062 cumulative IPC: 1.41417 (Simulation time: 0 hr 42 min 29 sec) 
Heartbeat CPU 0 instructions: 64000000 cycles: 42825437 heartbeat IPC: 1.391 cumulative IPC: 1.41373 (Simulation time: 0 hr 43 min 9 sec) 
Heartbeat CPU 0 instructions: 65000003 cycles: 43525047 heartbeat IPC: 1.42937 cumulative IPC: 1.41402 (Simulation time: 0 hr 43 min 51 sec) 
Heartbeat CPU 0 instructions: 66000003 cycles: 44236576 heartbeat IPC: 1.40542 cumulative IPC: 1.41386 (Simulation time: 0 hr 44 min 32 sec) 
Heartbeat CPU 0 instructions: 67000000 cycles: 44934992 heartbeat IPC: 1.43181 cumulative IPC: 1.41417 (Simulation time: 0 hr 45 min 12 sec) 
Heartbeat CPU 0 instructions: 68000000 cycles: 45640095 heartbeat IPC: 1.41823 cumulative IPC: 1.41424 (Simulation time: 0 hr 45 min 54 sec) 
Heartbeat CPU 0 instructions: 69000000 cycles: 46341875 heartbeat IPC: 1.42495 cumulative IPC: 1.41442 (Simulation time: 0 hr 46 min 35 sec) 
Heartbeat CPU 0 instructions: 70000003 cycles: 47037509 heartbeat IPC: 1.43754 cumulative IPC: 1.4148 (Simulation time: 0 hr 47 min 16 sec) 
Heartbeat CPU 0 instructions: 71000003 cycles: 47748046 heartbeat IPC: 1.40739 cumulative IPC: 1.41468 (Simulation time: 0 hr 47 min 58 sec) 
Heartbeat CPU 0 instructions: 72000000 cycles: 48449731 heartbeat IPC: 1.42514 cumulative IPC: 1.41485 (Simulation time: 0 hr 48 min 38 sec) 
Heartbeat CPU 0 instructions: 73000002 cycles: 49165921 heartbeat IPC: 1.39628 cumulative IPC: 1.41455 (Simulation time: 0 hr 49 min 18 sec) 
Heartbeat CPU 0 instructions: 74000003 cycles: 49863784 heartbeat IPC: 1.43295 cumulative IPC: 1.41483 (Simulation time: 0 hr 49 min 57 sec) 
Heartbeat CPU 0 instructions: 75000003 cycles: 50571429 heartbeat IPC: 1.41314 cumulative IPC: 1.41481 (Simulation time: 0 hr 50 min 37 sec) 
Heartbeat CPU 0 instructions: 76000000 cycles: 51274055 heartbeat IPC: 1.42323 cumulative IPC: 1.41493 (Simulation time: 0 hr 51 min 18 sec) 
Heartbeat CPU 0 instructions: 77000000 cycles: 51998708 heartbeat IPC: 1.37997 cumulative IPC: 1.4144 (Simulation time: 0 hr 51 min 57 sec) 
Heartbeat CPU 0 instructions: 78000002 cycles: 52700831 heartbeat IPC: 1.42425 cumulative IPC: 1.41454 (Simulation time: 0 hr 52 min 36 sec) 
Heartbeat CPU 0 instructions: 79000000 cycles: 53410101 heartbeat IPC: 1.4099 cumulative IPC: 1.41447 (Simulation time: 0 hr 53 min 11 sec) 
Heartbeat CPU 0 instructions: 80000000 cycles: 54106185 heartbeat IPC: 1.43661 cumulative IPC: 1.41479 (Simulation time: 0 hr 53 min 53 sec) 
Heartbeat CPU 0 instructions: 81000003 cycles: 54826073 heartbeat IPC: 1.38911 cumulative IPC: 1.41442 (Simulation time: 0 hr 54 min 35 sec) 
Heartbeat CPU 0 instructions: 82000000 cycles: 55529488 heartbeat IPC: 1.42163 cumulative IPC: 1.41452 (Simulation time: 0 hr 55 min 16 sec) 
Heartbeat CPU 0 instructions: 83000002 cycles: 56228081 heartbeat IPC: 1.43145 cumulative IPC: 1.41475 (Simulation time: 0 hr 56 min 0 sec) 
Heartbeat CPU 0 instructions: 84000000 cycles: 56938137 heartbeat IPC: 1.40834 cumulative IPC: 1.41466 (Simulation time: 0 hr 56 min 42 sec) 
Heartbeat CPU 0 instructions: 85000001 cycles: 57637803 heartbeat IPC: 1.42925 cumulative IPC: 1.41485 (Simulation time: 0 hr 57 min 26 sec) 
Heartbeat CPU 0 instructions: 86000001 cycles: 58348049 heartbeat IPC: 1.40796 cumulative IPC: 1.41476 (Simulation time: 0 hr 58 min 9 sec) 
Heartbeat CPU 0 instructions: 87000001 cycles: 59052729 heartbeat IPC: 1.41908 cumulative IPC: 1.41482 (Simulation time: 0 hr 58 min 55 sec) 
Heartbeat CPU 0 instructions: 88000000 cycles: 59762907 heartbeat IPC: 1.4081 cumulative IPC: 1.41473 (Simulation time: 0 hr 59 min 38 sec) 
Heartbeat CPU 0 instructions: 89000003 cycles: 60460896 heartbeat IPC: 1.43269 cumulative IPC: 1.41495 (Simulation time: 1 hr 0 min 15 sec) 
Heartbeat CPU 0 instructions: 90000001 cycles: 61172266 heartbeat IPC: 1.40574 cumulative IPC: 1.41484 (Simulation time: 1 hr 0 min 52 sec) 
Heartbeat CPU 0 instructions: 91000003 cycles: 61875951 heartbeat IPC: 1.42109 cumulative IPC: 1.41492 (Simulation time: 1 hr 1 min 29 sec) 
Heartbeat CPU 0 instructions: 92000000 cycles: 62591155 heartbeat IPC: 1.3982 cumulative IPC: 1.41471 (Simulation time: 1 hr 2 min 5 sec) 
Heartbeat CPU 0 instructions: 93000001 cycles: 63291651 heartbeat IPC: 1.42756 cumulative IPC: 1.41486 (Simulation time: 1 hr 2 min 42 sec) 
Heartbeat CPU 0 instructions: 94000003 cycles: 64002994 heartbeat IPC: 1.40579 cumulative IPC: 1.41475 (Simulation time: 1 hr 3 min 17 sec) 
Heartbeat CPU 0 instructions: 95000003 cycles: 64711239 heartbeat IPC: 1.41194 cumulative IPC: 1.41472 (Simulation time: 1 hr 3 min 54 sec) 
Heartbeat CPU 0 instructions: 96000000 cycles: 65423065 heartbeat IPC: 1.40483 cumulative IPC: 1.41461 (Simulation time: 1 hr 4 min 31 sec) 
Heartbeat CPU 0 instructions: 97000000 cycles: 66135416 heartbeat IPC: 1.4038 cumulative IPC: 1.41448 (Simulation time: 1 hr 5 min 7 sec) 
Heartbeat CPU 0 instructions: 98000001 cycles: 66831029 heartbeat IPC: 1.43758 cumulative IPC: 1.41474 (Simulation time: 1 hr 5 min 41 sec) 
Heartbeat CPU 0 instructions: 99000001 cycles: 67551809 heartbeat IPC: 1.38739 cumulative IPC: 1.41443 (Simulation time: 1 hr 6 min 16 sec) 
Heartbeat CPU 0 instructions: 100000000 cycles: 68269386 heartbeat IPC: 1.39358 cumulative IPC: 1.41419 (Simulation time: 1 hr 6 min 49 sec) 
Heartbeat CPU 0 instructions: 101000002 cycles: 69000367 heartbeat IPC: 1.36803 cumulative IPC: 1.41367 (Simulation time: 1 hr 7 min 21 sec) 
Heartbeat CPU 0 instructions: 102000003 cycles: 69726956 heartbeat IPC: 1.3763 cumulative IPC: 1.41325 (Simulation time: 1 hr 7 min 54 sec) 
Heartbeat CPU 0 instructions: 103000001 cycles: 70471674 heartbeat IPC: 1.34279 cumulative IPC: 1.41245 (Simulation time: 1 hr 8 min 26 sec) 
Heartbeat CPU 0 instructions: 104000000 cycles: 71191053 heartbeat IPC: 1.39009 cumulative IPC: 1.41221 (Simulation time: 1 hr 8 min 56 sec) 
Heartbeat CPU 0 instructions: 105000003 cycles: 71920329 heartbeat IPC: 1.37123 cumulative IPC: 1.41177 (Simulation time: 1 hr 9 min 27 sec) 
Heartbeat CPU 0 instructions: 106000002 cycles: 72634300 heartbeat IPC: 1.40062 cumulative IPC: 1.41165 (Simulation time: 1 hr 9 min 56 sec) 
Heartbeat CPU 0 instructions: 107000000 cycles: 73358491 heartbeat IPC: 1.38085 cumulative IPC: 1.41132 (Simulation time: 1 hr 10 min 24 sec) 
Heartbeat CPU 0 instructions: 108000000 cycles: 74062136 heartbeat IPC: 1.42117 cumulative IPC: 1.41142 (Simulation time: 1 hr 10 min 51 sec) 
Heartbeat CPU 0 instructions: 109000002 cycles: 74759978 heartbeat IPC: 1.43299 cumulative IPC: 1.41164 (Simulation time: 1 hr 11 min 18 sec) 
Heartbeat CPU 0 instructions: 110000000 cycles: 75470337 heartbeat IPC: 1.40774 cumulative IPC: 1.4116 (Simulation time: 1 hr 11 min 45 sec) 
Finished CPU 0 instructions: 100000003 cycles: 70841620 cummulative IPC: 1.4116 (Simulation time: 1 hr 11 min 45 sec) 

ChampSim completed all CPUs

Region of Interest Statistics

CPU 0 cummulative IPC: 1.4116 instructions: 100000003 cycles: 70841620
LLC TOTAL     ACCESS:     833130  HIT:     145928  MISS:     687202
LLC LOAD      ACCESS:      26326  HIT:      10192  MISS:      16134
LLC RFO       ACCESS:     201616  HIT:       8282  MISS:     193334
LLC PREFETCH  ACCESS:     401999  HIT:       3016  MISS:     398983
LLC WRITEBACK ACCESS:     203189  HIT:     124438  MISS:      78751
