
*** ChampSim Multicore Out-of-Order Simulator ***

Warmup Instructions: 10000000
Simulation Instructions: 100000000
Configuration: 2
Number of CPUs: 1
LLC sets: 2048
LLC ways: 16
Off-chip DRAM Channels: 1 Width: 64-bit Data Rate: 1600 MT/s

CPU 0 runs /datasets/cs240c-wi22-a00-public/data/Assignment2-gz/GemsFDTD_109B.trace.gz
CPU 0 L1D next line prefetcher
CPU 0 L2C IP-based stride prefetcher
Heartbeat CPU 0 instructions: 1000002 cycles: 579772 heartbeat IPC: 1.72482 cumulative IPC: 1.72482 (Simulation time: 0 hr 0 min 27 sec) 
select_counter is 27
Heartbeat CPU 0 instructions: 2000001 cycles: 1159543 heartbeat IPC: 1.72482 cumulative IPC: 1.72482 (Simulation time: 0 hr 0 min 54 sec) 
select_counter is 820
Heartbeat CPU 0 instructions: 3000000 cycles: 1738742 heartbeat IPC: 1.72652 cumulative IPC: 1.72539 (Simulation time: 0 hr 1 min 28 sec) 
select_counter is 552
Heartbeat CPU 0 instructions: 4000000 cycles: 2317755 heartbeat IPC: 1.72708 cumulative IPC: 1.72581 (Simulation time: 0 hr 1 min 54 sec) 
select_counter is 200
Heartbeat CPU 0 instructions: 5000000 cycles: 2897590 heartbeat IPC: 1.72463 cumulative IPC: 1.72557 (Simulation time: 0 hr 2 min 20 sec) 
select_counter is 988
Heartbeat CPU 0 instructions: 6000002 cycles: 3478321 heartbeat IPC: 1.72197 cumulative IPC: 1.72497 (Simulation time: 0 hr 2 min 44 sec) 
select_counter is 785
Heartbeat CPU 0 instructions: 7000001 cycles: 4059003 heartbeat IPC: 1.72211 cumulative IPC: 1.72456 (Simulation time: 0 hr 3 min 7 sec) 
select_counter is 608
Heartbeat CPU 0 instructions: 8000000 cycles: 4639197 heartbeat IPC: 1.72356 cumulative IPC: 1.72444 (Simulation time: 0 hr 3 min 34 sec) 
select_counter is 415
Heartbeat CPU 0 instructions: 9000002 cycles: 5219353 heartbeat IPC: 1.72368 cumulative IPC: 1.72435 (Simulation time: 0 hr 4 min 6 sec) 
select_counter is 232
Heartbeat CPU 0 instructions: 10000001 cycles: 5799529 heartbeat IPC: 1.72361 cumulative IPC: 1.72428 (Simulation time: 0 hr 4 min 32 sec) 
select_counter is 32

Warmup complete CPU 0 instructions: 10000001 cycles: 5799529 (Simulation time: 0 hr 4 min 32 sec) 

Heartbeat CPU 0 instructions: 11000002 cycles: 6847086 heartbeat IPC: 0.954603 cumulative IPC: 0.954603 (Simulation time: 0 hr 5 min 1 sec) 
select_counter is 827
Heartbeat CPU 0 instructions: 12000000 cycles: 7900792 heartbeat IPC: 0.949029 cumulative IPC: 0.951808 (Simulation time: 0 hr 5 min 29 sec) 
select_counter is 617
Heartbeat CPU 0 instructions: 13000001 cycles: 8992965 heartbeat IPC: 0.915607 cumulative IPC: 0.939427 (Simulation time: 0 hr 5 min 59 sec) 
select_counter is 442
Heartbeat CPU 0 instructions: 14000001 cycles: 10057523 heartbeat IPC: 0.939357 cumulative IPC: 0.939409 (Simulation time: 0 hr 6 min 29 sec) 
select_counter is 246
Heartbeat CPU 0 instructions: 15000000 cycles: 11129893 heartbeat IPC: 0.932513 cumulative IPC: 0.938022 (Simulation time: 0 hr 6 min 58 sec) 
select_counter is 50
Heartbeat CPU 0 instructions: 16000000 cycles: 12194414 heartbeat IPC: 0.93939 cumulative IPC: 0.93825 (Simulation time: 0 hr 7 min 25 sec) 
select_counter is 887
Heartbeat CPU 0 instructions: 17000000 cycles: 13282269 heartbeat IPC: 0.91924 cumulative IPC: 0.935486 (Simulation time: 0 hr 7 min 52 sec) 
select_counter is 697
Heartbeat CPU 0 instructions: 18000003 cycles: 14335564 heartbeat IPC: 0.949404 cumulative IPC: 0.937204 (Simulation time: 0 hr 8 min 19 sec) 
select_counter is 491
Heartbeat CPU 0 instructions: 19000001 cycles: 15413607 heartbeat IPC: 0.927605 cumulative IPC: 0.936127 (Simulation time: 0 hr 8 min 47 sec) 
select_counter is 290
Heartbeat CPU 0 instructions: 20000000 cycles: 16649814 heartbeat IPC: 0.808925 cumulative IPC: 0.921635 (Simulation time: 0 hr 9 min 11 sec) 
select_counter is 251
Heartbeat CPU 0 instructions: 21000001 cycles: 17926896 heartbeat IPC: 0.783036 cumulative IPC: 0.907039 (Simulation time: 0 hr 9 min 35 sec) 
select_counter is 252
Heartbeat CPU 0 instructions: 22000001 cycles: 21473317 heartbeat IPC: 0.281974 cumulative IPC: 0.765609 (Simulation time: 0 hr 10 min 3 sec) 
select_counter is 950
Heartbeat CPU 0 instructions: 23000001 cycles: 22740127 heartbeat IPC: 0.789384 cumulative IPC: 0.767387 (Simulation time: 0 hr 10 min 28 sec) 
select_counter is 952
Heartbeat CPU 0 instructions: 24000000 cycles: 26376695 heartbeat IPC: 0.274984 cumulative IPC: 0.680366 (Simulation time: 0 hr 10 min 55 sec) 
select_counter is 621
Heartbeat CPU 0 instructions: 25000003 cycles: 27623278 heartbeat IPC: 0.802195 cumulative IPC: 0.687325 (Simulation time: 0 hr 11 min 19 sec) 
select_counter is 618
Heartbeat CPU 0 instructions: 26000000 cycles: 31234055 heartbeat IPC: 0.276948 cumulative IPC: 0.629066 (Simulation time: 0 hr 11 min 47 sec) 
select_counter is 494
Heartbeat CPU 0 instructions: 27000000 cycles: 32447891 heartbeat IPC: 0.823835 cumulative IPC: 0.637938 (Simulation time: 0 hr 12 min 10 sec) 
select_counter is 492
Heartbeat CPU 0 instructions: 28000000 cycles: 35929950 heartbeat IPC: 0.287186 cumulative IPC: 0.597403 (Simulation time: 0 hr 12 min 39 sec) 
select_counter is 322
Heartbeat CPU 0 instructions: 29000000 cycles: 37154699 heartbeat IPC: 0.816494 cumulative IPC: 0.605961 (Simulation time: 0 hr 13 min 3 sec) 
select_counter is 319
Heartbeat CPU 0 instructions: 30000003 cycles: 38520937 heartbeat IPC: 0.731939 cumulative IPC: 0.611221 (Simulation time: 0 hr 13 min 25 sec) 
select_counter is 756
Heartbeat CPU 0 instructions: 31000002 cycles: 39687428 heartbeat IPC: 0.857271 cumulative IPC: 0.61969 (Simulation time: 0 hr 13 min 49 sec) 
select_counter is 755
Heartbeat CPU 0 instructions: 32000000 cycles: 41058206 heartbeat IPC: 0.729511 cumulative IPC: 0.62396 (Simulation time: 0 hr 14 min 12 sec) 
select_counter is 192
Heartbeat CPU 0 instructions: 33000003 cycles: 42228538 heartbeat IPC: 0.854461 cumulative IPC: 0.631365 (Simulation time: 0 hr 14 min 35 sec) 
select_counter is 179
Heartbeat CPU 0 instructions: 34000002 cycles: 43540125 heartbeat IPC: 0.762434 cumulative IPC: 0.63592 (Simulation time: 0 hr 14 min 57 sec) 
select_counter is 666
Heartbeat CPU 0 instructions: 35000003 cycles: 44720143 heartbeat IPC: 0.847446 cumulative IPC: 0.642333 (Simulation time: 0 hr 15 min 21 sec) 
select_counter is 632
Heartbeat CPU 0 instructions: 36000000 cycles: 46109367 heartbeat IPC: 0.719824 cumulative IPC: 0.645004 (Simulation time: 0 hr 15 min 45 sec) 
select_counter is 100
Heartbeat CPU 0 instructions: 37000000 cycles: 47438863 heartbeat IPC: 0.752165 cumulative IPC: 0.648425 (Simulation time: 0 hr 16 min 9 sec) 
select_counter is 100
Heartbeat CPU 0 instructions: 38000001 cycles: 48768401 heartbeat IPC: 0.752142 cumulative IPC: 0.651635 (Simulation time: 0 hr 16 min 34 sec) 
select_counter is 100
Heartbeat CPU 0 instructions: 39000000 cycles: 50097790 heartbeat IPC: 0.752225 cumulative IPC: 0.654653 (Simulation time: 0 hr 16 min 59 sec) 
select_counter is 100
Heartbeat CPU 0 instructions: 40000000 cycles: 51427330 heartbeat IPC: 0.75214 cumulative IPC: 0.657494 (Simulation time: 0 hr 17 min 25 sec) 
select_counter is 100
Heartbeat CPU 0 instructions: 41000000 cycles: 52669758 heartbeat IPC: 0.804876 cumulative IPC: 0.661401 (Simulation time: 0 hr 17 min 46 sec) 
select_counter is 567
Heartbeat CPU 0 instructions: 42000000 cycles: 53999239 heartbeat IPC: 0.752173 cumulative IPC: 0.663904 (Simulation time: 0 hr 18 min 11 sec) 
select_counter is 567
Heartbeat CPU 0 instructions: 43000002 cycles: 55328908 heartbeat IPC: 0.752068 cumulative IPC: 0.666271 (Simulation time: 0 hr 18 min 35 sec) 
select_counter is 567
Heartbeat CPU 0 instructions: 44000000 cycles: 56658409 heartbeat IPC: 0.75216 cumulative IPC: 0.668516 (Simulation time: 0 hr 19 min 0 sec) 
select_counter is 567
Heartbeat CPU 0 instructions: 45000001 cycles: 57987734 heartbeat IPC: 0.752262 cumulative IPC: 0.67065 (Simulation time: 0 hr 19 min 25 sec) 
select_counter is 567
Heartbeat CPU 0 instructions: 46000002 cycles: 59373630 heartbeat IPC: 0.721556 cumulative IPC: 0.671966 (Simulation time: 0 hr 19 min 49 sec) 
select_counter is 364
Heartbeat CPU 0 instructions: 47000001 cycles: 60496823 heartbeat IPC: 0.890318 cumulative IPC: 0.67645 (Simulation time: 0 hr 20 min 12 sec) 
select_counter is 725
Heartbeat CPU 0 instructions: 48000000 cycles: 61863450 heartbeat IPC: 0.731728 cumulative IPC: 0.677798 (Simulation time: 0 hr 20 min 33 sec) 
select_counter is 811
Heartbeat CPU 0 instructions: 49000003 cycles: 71466326 heartbeat IPC: 0.104136 cumulative IPC: 0.593907 (Simulation time: 0 hr 21 min 19 sec) 
select_counter is 89
Heartbeat CPU 0 instructions: 50000001 cycles: 73291320 heartbeat IPC: 0.547946 cumulative IPC: 0.592665 (Simulation time: 0 hr 21 min 47 sec) 
select_counter is 142
Heartbeat CPU 0 instructions: 51000001 cycles: 74902468 heartbeat IPC: 0.620675 cumulative IPC: 0.593318 (Simulation time: 0 hr 22 min 15 sec) 
select_counter is 407
Heartbeat CPU 0 instructions: 52000000 cycles: 76524754 heartbeat IPC: 0.616414 cumulative IPC: 0.593848 (Simulation time: 0 hr 22 min 44 sec) 
select_counter is 683
Heartbeat CPU 0 instructions: 53000000 cycles: 78150216 heartbeat IPC: 0.61521 cumulative IPC: 0.594327 (Simulation time: 0 hr 23 min 13 sec) 
select_counter is 1015
Heartbeat CPU 0 instructions: 54000000 cycles: 79755011 heartbeat IPC: 0.623133 cumulative IPC: 0.594953 (Simulation time: 0 hr 23 min 41 sec) 
select_counter is 383
Heartbeat CPU 0 instructions: 55000000 cycles: 81338704 heartbeat IPC: 0.631436 cumulative IPC: 0.595717 (Simulation time: 0 hr 24 min 8 sec) 
select_counter is 740
Heartbeat CPU 0 instructions: 56000000 cycles: 82969900 heartbeat IPC: 0.613047 cumulative IPC: 0.596084 (Simulation time: 0 hr 24 min 35 sec) 
select_counter is 92
Heartbeat CPU 0 instructions: 57000002 cycles: 84619700 heartbeat IPC: 0.606135 cumulative IPC: 0.596294 (Simulation time: 0 hr 25 min 4 sec) 
select_counter is 422
Heartbeat CPU 0 instructions: 58000002 cycles: 86242709 heartbeat IPC: 0.61614 cumulative IPC: 0.596694 (Simulation time: 0 hr 25 min 32 sec) 
select_counter is 796
Heartbeat CPU 0 instructions: 59000001 cycles: 87888483 heartbeat IPC: 0.607616 cumulative IPC: 0.596913 (Simulation time: 0 hr 26 min 0 sec) 
select_counter is 124
Heartbeat CPU 0 instructions: 60000000 cycles: 89512484 heartbeat IPC: 0.615763 cumulative IPC: 0.597279 (Simulation time: 0 hr 26 min 28 sec) 
select_counter is 485
Heartbeat CPU 0 instructions: 61000000 cycles: 91120346 heartbeat IPC: 0.621944 cumulative IPC: 0.597744 (Simulation time: 0 hr 26 min 56 sec) 
select_counter is 816
Heartbeat CPU 0 instructions: 62000000 cycles: 92719660 heartbeat IPC: 0.625268 cumulative IPC: 0.59825 (Simulation time: 0 hr 27 min 24 sec) 
select_counter is 187
Heartbeat CPU 0 instructions: 63000001 cycles: 94318286 heartbeat IPC: 0.625538 cumulative IPC: 0.598743 (Simulation time: 0 hr 27 min 54 sec) 
select_counter is 579
Heartbeat CPU 0 instructions: 64000000 cycles: 95947733 heartbeat IPC: 0.613705 cumulative IPC: 0.599014 (Simulation time: 0 hr 28 min 22 sec) 
select_counter is 872
Heartbeat CPU 0 instructions: 65000003 cycles: 97585701 heartbeat IPC: 0.610514 cumulative IPC: 0.599219 (Simulation time: 0 hr 28 min 50 sec) 
select_counter is 255
Heartbeat CPU 0 instructions: 66000001 cycles: 99225916 heartbeat IPC: 0.609675 cumulative IPC: 0.599402 (Simulation time: 0 hr 29 min 18 sec) 
select_counter is 633
Heartbeat CPU 0 instructions: 67000000 cycles: 100842195 heartbeat IPC: 0.618704 cumulative IPC: 0.599731 (Simulation time: 0 hr 29 min 46 sec) 
select_counter is 1016
Heartbeat CPU 0 instructions: 68000000 cycles: 102463624 heartbeat IPC: 0.61674 cumulative IPC: 0.600016 (Simulation time: 0 hr 30 min 15 sec) 
select_counter is 372
Heartbeat CPU 0 instructions: 69000000 cycles: 104081394 heartbeat IPC: 0.618135 cumulative IPC: 0.600314 (Simulation time: 0 hr 30 min 44 sec) 
select_counter is 712
Heartbeat CPU 0 instructions: 70000003 cycles: 105678443 heartbeat IPC: 0.626157 cumulative IPC: 0.600727 (Simulation time: 0 hr 31 min 12 sec) 
select_counter is 57
Heartbeat CPU 0 instructions: 71000003 cycles: 107296242 heartbeat IPC: 0.618124 cumulative IPC: 0.601005 (Simulation time: 0 hr 31 min 41 sec) 
select_counter is 436
Heartbeat CPU 0 instructions: 72000000 cycles: 108889884 heartbeat IPC: 0.627492 cumulative IPC: 0.601414 (Simulation time: 0 hr 32 min 9 sec) 
select_counter is 821
Heartbeat CPU 0 instructions: 73000002 cycles: 110521514 heartbeat IPC: 0.612885 cumulative IPC: 0.601593 (Simulation time: 0 hr 32 min 37 sec) 
select_counter is 177
Heartbeat CPU 0 instructions: 74000000 cycles: 112155020 heartbeat IPC: 0.612179 cumulative IPC: 0.601755 (Simulation time: 0 hr 33 min 5 sec) 
select_counter is 554
Heartbeat CPU 0 instructions: 75000000 cycles: 113802204 heartbeat IPC: 0.607097 cumulative IPC: 0.601837 (Simulation time: 0 hr 33 min 34 sec) 
select_counter is 920
Heartbeat CPU 0 instructions: 76000000 cycles: 115400737 heartbeat IPC: 0.625574 cumulative IPC: 0.602183 (Simulation time: 0 hr 34 min 1 sec) 
select_counter is 267
Heartbeat CPU 0 instructions: 77000000 cycles: 117031886 heartbeat IPC: 0.613065 cumulative IPC: 0.602343 (Simulation time: 0 hr 34 min 27 sec) 
select_counter is 673
Heartbeat CPU 0 instructions: 78000001 cycles: 118652997 heartbeat IPC: 0.616862 cumulative IPC: 0.602551 (Simulation time: 0 hr 34 min 53 sec) 
select_counter is 35
Heartbeat CPU 0 instructions: 79000002 cycles: 120245285 heartbeat IPC: 0.628028 cumulative IPC: 0.602906 (Simulation time: 0 hr 35 min 20 sec) 
select_counter is 422
Heartbeat CPU 0 instructions: 80000000 cycles: 121846818 heartbeat IPC: 0.6244 cumulative IPC: 0.603202 (Simulation time: 0 hr 35 min 43 sec) 
select_counter is 803
Heartbeat CPU 0 instructions: 81000001 cycles: 123460816 heartbeat IPC: 0.61958 cumulative IPC: 0.603427 (Simulation time: 0 hr 36 min 5 sec) 
select_counter is 158
Heartbeat CPU 0 instructions: 82000000 cycles: 125068666 heartbeat IPC: 0.621948 cumulative IPC: 0.603677 (Simulation time: 0 hr 36 min 27 sec) 
select_counter is 465
Heartbeat CPU 0 instructions: 83000003 cycles: 126677929 heartbeat IPC: 0.621404 cumulative IPC: 0.603913 (Simulation time: 0 hr 36 min 49 sec) 
select_counter is 842
Heartbeat CPU 0 instructions: 84000000 cycles: 128286861 heartbeat IPC: 0.621528 cumulative IPC: 0.604144 (Simulation time: 0 hr 37 min 9 sec) 
select_counter is 179
Heartbeat CPU 0 instructions: 85000001 cycles: 129907285 heartbeat IPC: 0.617123 cumulative IPC: 0.604314 (Simulation time: 0 hr 37 min 29 sec) 
select_counter is 560
Heartbeat CPU 0 instructions: 86000001 cycles: 131535977 heartbeat IPC: 0.61399 cumulative IPC: 0.604439 (Simulation time: 0 hr 37 min 48 sec) 
select_counter is 935
Heartbeat CPU 0 instructions: 87000002 cycles: 133155404 heartbeat IPC: 0.617503 cumulative IPC: 0.604605 (Simulation time: 0 hr 38 min 7 sec) 
select_counter is 303
Heartbeat CPU 0 instructions: 88000000 cycles: 134788016 heartbeat IPC: 0.612514 cumulative IPC: 0.604705 (Simulation time: 0 hr 38 min 25 sec) 
select_counter is 679
Heartbeat CPU 0 instructions: 89000003 cycles: 136438257 heartbeat IPC: 0.605974 cumulative IPC: 0.604721 (Simulation time: 0 hr 38 min 44 sec) 
select_counter is 46
Heartbeat CPU 0 instructions: 90000000 cycles: 138092743 heartbeat IPC: 0.604416 cumulative IPC: 0.604717 (Simulation time: 0 hr 39 min 2 sec) 
select_counter is 411
Heartbeat CPU 0 instructions: 91000002 cycles: 139732342 heartbeat IPC: 0.609906 cumulative IPC: 0.604781 (Simulation time: 0 hr 39 min 19 sec) 
select_counter is 786
Heartbeat CPU 0 instructions: 92000000 cycles: 141356495 heartbeat IPC: 0.615704 cumulative IPC: 0.604912 (Simulation time: 0 hr 39 min 35 sec) 
select_counter is 145
Heartbeat CPU 0 instructions: 93000001 cycles: 142987977 heartbeat IPC: 0.61294 cumulative IPC: 0.605007 (Simulation time: 0 hr 39 min 51 sec) 
select_counter is 533
Heartbeat CPU 0 instructions: 94000000 cycles: 144597082 heartbeat IPC: 0.621463 cumulative IPC: 0.605198 (Simulation time: 0 hr 40 min 6 sec) 
select_counter is 911
Heartbeat CPU 0 instructions: 95000001 cycles: 146207987 heartbeat IPC: 0.62077 cumulative IPC: 0.605377 (Simulation time: 0 hr 40 min 21 sec) 
select_counter is 256
Heartbeat CPU 0 instructions: 96000000 cycles: 147823996 heartbeat IPC: 0.618808 cumulative IPC: 0.605529 (Simulation time: 0 hr 40 min 35 sec) 
select_counter is 629
Heartbeat CPU 0 instructions: 97000002 cycles: 149449892 heartbeat IPC: 0.615047 cumulative IPC: 0.605637 (Simulation time: 0 hr 40 min 50 sec) 
select_counter is 1017
Heartbeat CPU 0 instructions: 98000000 cycles: 151078743 heartbeat IPC: 0.613928 cumulative IPC: 0.60573 (Simulation time: 0 hr 41 min 4 sec) 
select_counter is 364
Heartbeat CPU 0 instructions: 99000000 cycles: 152659549 heartbeat IPC: 0.632589 cumulative IPC: 0.606019 (Simulation time: 0 hr 41 min 18 sec) 
select_counter is 773
Heartbeat CPU 0 instructions: 100000000 cycles: 154298775 heartbeat IPC: 0.610044 cumulative IPC: 0.606064 (Simulation time: 0 hr 41 min 32 sec) 
select_counter is 92
Heartbeat CPU 0 instructions: 101000001 cycles: 155930090 heartbeat IPC: 0.613003 cumulative IPC: 0.606139 (Simulation time: 0 hr 41 min 46 sec) 
select_counter is 442
Heartbeat CPU 0 instructions: 102000000 cycles: 157563543 heartbeat IPC: 0.612199 cumulative IPC: 0.606204 (Simulation time: 0 hr 42 min 0 sec) 
select_counter is 758
Heartbeat CPU 0 instructions: 103000000 cycles: 159176015 heartbeat IPC: 0.620166 cumulative IPC: 0.606351 (Simulation time: 0 hr 42 min 13 sec) 
select_counter is 99
Heartbeat CPU 0 instructions: 104000000 cycles: 160795054 heartbeat IPC: 0.61765 cumulative IPC: 0.606469 (Simulation time: 0 hr 42 min 25 sec) 
select_counter is 505
Heartbeat CPU 0 instructions: 105000000 cycles: 162448712 heartbeat IPC: 0.60472 cumulative IPC: 0.606451 (Simulation time: 0 hr 42 min 36 sec) 
select_counter is 898
Heartbeat CPU 0 instructions: 106000001 cycles: 164079107 heartbeat IPC: 0.613349 cumulative IPC: 0.606522 (Simulation time: 0 hr 42 min 48 sec) 
select_counter is 267
Heartbeat CPU 0 instructions: 107000001 cycles: 165703143 heartbeat IPC: 0.61575 cumulative IPC: 0.606615 (Simulation time: 0 hr 42 min 59 sec) 
select_counter is 659
Heartbeat CPU 0 instructions: 108000000 cycles: 167340482 heartbeat IPC: 0.610746 cumulative IPC: 0.606657 (Simulation time: 0 hr 43 min 9 sec) 
select_counter is 12
Heartbeat CPU 0 instructions: 109000003 cycles: 168927903 heartbeat IPC: 0.629955 cumulative IPC: 0.606884 (Simulation time: 0 hr 43 min 18 sec) 
select_counter is 392
Heartbeat CPU 0 instructions: 110000002 cycles: 170539840 heartbeat IPC: 0.620371 cumulative IPC: 0.607016 (Simulation time: 0 hr 43 min 26 sec) 
select_counter is 757
Finished CPU 0 instructions: 100000001 cycles: 164740311 cummulative IPC: 0.607016 (Simulation time: 0 hr 43 min 26 sec) 

ChampSim completed all CPUs

Region of Interest Statistics

CPU 0 cummulative IPC: 0.607016 instructions: 100000001 cycles: 164740311
LLC TOTAL     ACCESS:    4812284  HIT:     618383  MISS:    4193901
LLC LOAD      ACCESS:     461820  HIT:      35812  MISS:     426008
LLC RFO       ACCESS:     126472  HIT:     107573  MISS:      18899
LLC PREFETCH  ACCESS:    2859699  HIT:     112637  MISS:    2747062
LLC WRITEBACK ACCESS:    1364293  HIT:     362361  MISS:    1001932
Ship samples: 
11, 37, 75, 98, 132, 163, 204, 225, 269, 288, 328, 360, 394, 416, 462, 483, 524, 557, 577, 617, 652, 678, 711, 737, 780, 804, 839, 868, 899, 934, 971, 1000, 1024, 1058, 1096, 1124, 1156, 1190, 1222, 1262, 1280, 1312, 1346, 1390, 1422, 1440, 1483, 1512, 1545, 1571, 1601, 1640, 1664, 1701, 1729, 1760, 1800, 1836, 1858, 1894, 1933, 1956, 1997, 2017, 
Lime duel samples: 
2, 27, 36, 56, 69, 80, 106, 121, 140, 149, 168, 176, 206, 218, 238, 249, 260, 279, 294, 307, 321, 337, 355, 376, 389, 414, 426, 446, 454, 478, 481, 501, 517, 542, 551, 566, 590, 602, 609, 628, 649, 670, 676, 696, 716, 730, 739, 758, 773, 790, 810, 827, 845, 856, 872, 883, 897, 917, 929, 945, 973, 986, 996, 1010, 1029, 1045, 1068, 1080, 1097, 1113, 1133, 1142, 1153, 1169, 1189, 1213, 1217, 1245, 1248, 1271, 1285, 1301, 1320, 1336, 1353, 1374, 1381, 1392, 1408, 1437, 1447, 1460, 1474, 1499, 1508, 1529, 1546, 1552, 1579, 1587, 1608, 1618, 1641, 1656, 1671, 1688, 1698, 1719, 1737, 1749, 1768, 1781, 1796, 1812, 1835, 1847, 1869, 1878, 1898, 1906, 1931, 1936, 1957, 1970, 1993, 2007, 2027, 2037, 
Lime samples: 
2, 106, 206, 294, 389, 481, 590, 676, 773, 872, 973, 1068, 1153, 1248, 1353, 1447, 1546, 1641, 1737, 1835, 1931, 
Insertion Distribution: 
	LOAD 15626 0 0 0 0 0 31434 163133 
	RFO 2661 0 0 0 0 0 6325 2974 
	PREF 0 3751 0 0 0 0 80162 1357392 
	WRITEBACK 0 0 0 0 0 0 0 587771 
Total Prefetch Downgrades: 4390
