
*** ChampSim Multicore Out-of-Order Simulator ***

Warmup Instructions: 10000000
Simulation Instructions: 100000000
Configuration: 2
Number of CPUs: 1
LLC sets: 2048
LLC ways: 16
Off-chip DRAM Channels: 1 Width: 64-bit Data Rate: 1600 MT/s

CPU 0 runs /datasets/cs240c-wi22-a00-public/data/Assignment2-gz/GemsFDTD_716B.trace.gz
CPU 0 L1D next line prefetcher
CPU 0 L2C IP-based stride prefetcher
Heartbeat CPU 0 instructions: 1000000 cycles: 415045 heartbeat IPC: 2.40938 cumulative IPC: 2.40938 (Simulation time: 0 hr 0 min 21 sec) 
select_counter is 447
Heartbeat CPU 0 instructions: 2000003 cycles: 829979 heartbeat IPC: 2.41003 cumulative IPC: 2.4097 (Simulation time: 0 hr 0 min 41 sec) 
select_counter is 386
Heartbeat CPU 0 instructions: 3000000 cycles: 1280239 heartbeat IPC: 2.22093 cumulative IPC: 2.34331 (Simulation time: 0 hr 0 min 58 sec) 
select_counter is 367
Heartbeat CPU 0 instructions: 4000000 cycles: 1737268 heartbeat IPC: 2.18805 cumulative IPC: 2.30247 (Simulation time: 0 hr 1 min 17 sec) 
select_counter is 275
Heartbeat CPU 0 instructions: 5000000 cycles: 2152244 heartbeat IPC: 2.40978 cumulative IPC: 2.32316 (Simulation time: 0 hr 1 min 36 sec) 
select_counter is 277
Heartbeat CPU 0 instructions: 6000000 cycles: 2567260 heartbeat IPC: 2.40955 cumulative IPC: 2.33712 (Simulation time: 0 hr 1 min 55 sec) 
select_counter is 288
Heartbeat CPU 0 instructions: 7000000 cycles: 2982263 heartbeat IPC: 2.40962 cumulative IPC: 2.34721 (Simulation time: 0 hr 2 min 14 sec) 
select_counter is 304
Heartbeat CPU 0 instructions: 8000000 cycles: 3395187 heartbeat IPC: 2.42175 cumulative IPC: 2.35628 (Simulation time: 0 hr 2 min 33 sec) 
select_counter is 266
Heartbeat CPU 0 instructions: 9000003 cycles: 3840422 heartbeat IPC: 2.24601 cumulative IPC: 2.34349 (Simulation time: 0 hr 2 min 56 sec) 
select_counter is 74
Heartbeat CPU 0 instructions: 10000002 cycles: 4355057 heartbeat IPC: 1.94312 cumulative IPC: 2.29618 (Simulation time: 0 hr 3 min 24 sec) 
select_counter is 657

Warmup complete CPU 0 instructions: 10000002 cycles: 4355057 (Simulation time: 0 hr 3 min 24 sec) 

Heartbeat CPU 0 instructions: 11000000 cycles: 7831386 heartbeat IPC: 0.287659 cumulative IPC: 0.287659 (Simulation time: 0 hr 4 min 3 sec) 
select_counter is 377
Heartbeat CPU 0 instructions: 12000000 cycles: 11329245 heartbeat IPC: 0.285889 cumulative IPC: 0.286771 (Simulation time: 0 hr 4 min 40 sec) 
select_counter is 229
Heartbeat CPU 0 instructions: 13000000 cycles: 14814562 heartbeat IPC: 0.286918 cumulative IPC: 0.28682 (Simulation time: 0 hr 5 min 19 sec) 
select_counter is 558
Heartbeat CPU 0 instructions: 14000002 cycles: 18526038 heartbeat IPC: 0.269435 cumulative IPC: 0.282267 (Simulation time: 0 hr 6 min 4 sec) 
select_counter is 164
Heartbeat CPU 0 instructions: 15000000 cycles: 22369147 heartbeat IPC: 0.260205 cumulative IPC: 0.27756 (Simulation time: 0 hr 6 min 46 sec) 
select_counter is 719
Heartbeat CPU 0 instructions: 16000000 cycles: 26146988 heartbeat IPC: 0.264701 cumulative IPC: 0.275331 (Simulation time: 0 hr 7 min 27 sec) 
select_counter is 1018
Heartbeat CPU 0 instructions: 17000002 cycles: 29903071 heartbeat IPC: 0.266235 cumulative IPC: 0.273994 (Simulation time: 0 hr 8 min 6 sec) 
select_counter is 877
Heartbeat CPU 0 instructions: 18000003 cycles: 33647966 heartbeat IPC: 0.26703 cumulative IPC: 0.273104 (Simulation time: 0 hr 8 min 47 sec) 
select_counter is 527
Heartbeat CPU 0 instructions: 19000000 cycles: 37430047 heartbeat IPC: 0.264404 cumulative IPC: 0.272109 (Simulation time: 0 hr 9 min 28 sec) 
select_counter is 60
Heartbeat CPU 0 instructions: 20000000 cycles: 40275981 heartbeat IPC: 0.351379 cumulative IPC: 0.278389 (Simulation time: 0 hr 10 min 3 sec) 
select_counter is 664
Heartbeat CPU 0 instructions: 21000000 cycles: 42742169 heartbeat IPC: 0.405484 cumulative IPC: 0.286554 (Simulation time: 0 hr 10 min 36 sec) 
select_counter is 431
Heartbeat CPU 0 instructions: 22000000 cycles: 45172755 heartbeat IPC: 0.411423 cumulative IPC: 0.29399 (Simulation time: 0 hr 11 min 9 sec) 
select_counter is 908
Heartbeat CPU 0 instructions: 23000000 cycles: 47579927 heartbeat IPC: 0.415425 cumulative IPC: 0.300753 (Simulation time: 0 hr 11 min 42 sec) 
select_counter is 507
Heartbeat CPU 0 instructions: 24000000 cycles: 50055930 heartbeat IPC: 0.403877 cumulative IPC: 0.30634 (Simulation time: 0 hr 12 min 15 sec) 
select_counter is 9
Heartbeat CPU 0 instructions: 25000002 cycles: 52615015 heartbeat IPC: 0.390765 cumulative IPC: 0.310817 (Simulation time: 0 hr 12 min 49 sec) 
select_counter is 4
Heartbeat CPU 0 instructions: 26000002 cycles: 54776703 heartbeat IPC: 0.462601 cumulative IPC: 0.317324 (Simulation time: 0 hr 13 min 21 sec) 
select_counter is 265
Heartbeat CPU 0 instructions: 27000002 cycles: 56918576 heartbeat IPC: 0.466881 cumulative IPC: 0.323418 (Simulation time: 0 hr 13 min 54 sec) 
select_counter is 335
Heartbeat CPU 0 instructions: 28000000 cycles: 58943601 heartbeat IPC: 0.49382 cumulative IPC: 0.329739 (Simulation time: 0 hr 14 min 27 sec) 
select_counter is 229
Heartbeat CPU 0 instructions: 29000003 cycles: 61023116 heartbeat IPC: 0.480883 cumulative IPC: 0.335286 (Simulation time: 0 hr 14 min 59 sec) 
select_counter is 116
Heartbeat CPU 0 instructions: 30000001 cycles: 63159604 heartbeat IPC: 0.468057 cumulative IPC: 0.34011 (Simulation time: 0 hr 15 min 35 sec) 
select_counter is 753
Heartbeat CPU 0 instructions: 31000002 cycles: 64753005 heartbeat IPC: 0.627589 cumulative IPC: 0.347694 (Simulation time: 0 hr 16 min 7 sec) 
select_counter is 60
Heartbeat CPU 0 instructions: 32000000 cycles: 66302706 heartbeat IPC: 0.645284 cumulative IPC: 0.355139 (Simulation time: 0 hr 16 min 38 sec) 
select_counter is 214
Heartbeat CPU 0 instructions: 33000000 cycles: 67838683 heartbeat IPC: 0.651051 cumulative IPC: 0.362298 (Simulation time: 0 hr 17 min 9 sec) 
select_counter is 758
Heartbeat CPU 0 instructions: 34000001 cycles: 69406836 heartbeat IPC: 0.637694 cumulative IPC: 0.368937 (Simulation time: 0 hr 17 min 41 sec) 
select_counter is 63
Heartbeat CPU 0 instructions: 35000001 cycles: 70961062 heartbeat IPC: 0.643407 cumulative IPC: 0.375342 (Simulation time: 0 hr 18 min 13 sec) 
select_counter is 40
Heartbeat CPU 0 instructions: 36000000 cycles: 72570965 heartbeat IPC: 0.621155 cumulative IPC: 0.381143 (Simulation time: 0 hr 18 min 45 sec) 
select_counter is 623
Heartbeat CPU 0 instructions: 37000002 cycles: 74355999 heartbeat IPC: 0.560215 cumulative IPC: 0.385709 (Simulation time: 0 hr 19 min 16 sec) 
select_counter is 143
Heartbeat CPU 0 instructions: 38000002 cycles: 75926712 heartbeat IPC: 0.636654 cumulative IPC: 0.391216 (Simulation time: 0 hr 19 min 49 sec) 
select_counter is 706
Heartbeat CPU 0 instructions: 39000000 cycles: 77526013 heartbeat IPC: 0.625272 cumulative IPC: 0.396332 (Simulation time: 0 hr 20 min 21 sec) 
select_counter is 991
Heartbeat CPU 0 instructions: 40000000 cycles: 79107402 heartbeat IPC: 0.632355 cumulative IPC: 0.401325 (Simulation time: 0 hr 20 min 52 sec) 
select_counter is 331
Heartbeat CPU 0 instructions: 41000003 cycles: 80672190 heartbeat IPC: 0.639066 cumulative IPC: 0.4062 (Simulation time: 0 hr 21 min 24 sec) 
select_counter is 674
Heartbeat CPU 0 instructions: 42000000 cycles: 82235771 heartbeat IPC: 0.639556 cumulative IPC: 0.410885 (Simulation time: 0 hr 21 min 55 sec) 
select_counter is 1009
Heartbeat CPU 0 instructions: 43000002 cycles: 85202814 heartbeat IPC: 0.337037 cumulative IPC: 0.408175 (Simulation time: 0 hr 22 min 33 sec) 
select_counter is 299
Heartbeat CPU 0 instructions: 44000000 cycles: 88683216 heartbeat IPC: 0.287323 cumulative IPC: 0.403187 (Simulation time: 0 hr 23 min 11 sec) 
select_counter is 54
Heartbeat CPU 0 instructions: 45000003 cycles: 92147378 heartbeat IPC: 0.288671 cumulative IPC: 0.398668 (Simulation time: 0 hr 23 min 49 sec) 
select_counter is 660
Heartbeat CPU 0 instructions: 46000000 cycles: 95621158 heartbeat IPC: 0.28787 cumulative IPC: 0.394451 (Simulation time: 0 hr 24 min 27 sec) 
select_counter is 149
Heartbeat CPU 0 instructions: 47000000 cycles: 99085544 heartbeat IPC: 0.288651 cumulative IPC: 0.390582 (Simulation time: 0 hr 25 min 6 sec) 
select_counter is 637
Heartbeat CPU 0 instructions: 48000000 cycles: 102818070 heartbeat IPC: 0.267915 cumulative IPC: 0.385932 (Simulation time: 0 hr 25 min 46 sec) 
select_counter is 657
Heartbeat CPU 0 instructions: 49000000 cycles: 106547362 heartbeat IPC: 0.268147 cumulative IPC: 0.381633 (Simulation time: 0 hr 26 min 25 sec) 
select_counter is 96
Heartbeat CPU 0 instructions: 50000001 cycles: 110278328 heartbeat IPC: 0.268027 cumulative IPC: 0.377632 (Simulation time: 0 hr 27 min 3 sec) 
select_counter is 721
Heartbeat CPU 0 instructions: 51000003 cycles: 114018342 heartbeat IPC: 0.267379 cumulative IPC: 0.373872 (Simulation time: 0 hr 27 min 42 sec) 
select_counter is 215
Heartbeat CPU 0 instructions: 52000000 cycles: 117749073 heartbeat IPC: 0.268043 cumulative IPC: 0.37039 (Simulation time: 0 hr 28 min 22 sec) 
select_counter is 809
Heartbeat CPU 0 instructions: 53000002 cycles: 121561165 heartbeat IPC: 0.262324 cumulative IPC: 0.366875 (Simulation time: 0 hr 29 min 1 sec) 
select_counter is 1020
Heartbeat CPU 0 instructions: 54000001 cycles: 123616660 heartbeat IPC: 0.4865 cumulative IPC: 0.368937 (Simulation time: 0 hr 29 min 34 sec) 
select_counter is 111
Heartbeat CPU 0 instructions: 55000000 cycles: 125670086 heartbeat IPC: 0.486991 cumulative IPC: 0.370935 (Simulation time: 0 hr 30 min 6 sec) 
select_counter is 272
Heartbeat CPU 0 instructions: 56000000 cycles: 127767004 heartbeat IPC: 0.47689 cumulative IPC: 0.372735 (Simulation time: 0 hr 30 min 41 sec) 
select_counter is 792
Heartbeat CPU 0 instructions: 57000002 cycles: 129856691 heartbeat IPC: 0.478542 cumulative IPC: 0.374497 (Simulation time: 0 hr 31 min 12 sec) 
select_counter is 743
Heartbeat CPU 0 instructions: 58000001 cycles: 131892732 heartbeat IPC: 0.491149 cumulative IPC: 0.376359 (Simulation time: 0 hr 31 min 45 sec) 
select_counter is 225
Heartbeat CPU 0 instructions: 59000002 cycles: 133939392 heartbeat IPC: 0.488601 cumulative IPC: 0.378132 (Simulation time: 0 hr 32 min 18 sec) 
select_counter is 44
Heartbeat CPU 0 instructions: 60000000 cycles: 135742919 heartbeat IPC: 0.554468 cumulative IPC: 0.380553 (Simulation time: 0 hr 32 min 49 sec) 
select_counter is 701
Heartbeat CPU 0 instructions: 61000002 cycles: 137566000 heartbeat IPC: 0.548523 cumulative IPC: 0.382851 (Simulation time: 0 hr 33 min 21 sec) 
select_counter is 5
Heartbeat CPU 0 instructions: 62000000 cycles: 139417293 heartbeat IPC: 0.540162 cumulative IPC: 0.385008 (Simulation time: 0 hr 33 min 52 sec) 
select_counter is 275
Heartbeat CPU 0 instructions: 63000000 cycles: 141282137 heartbeat IPC: 0.536238 cumulative IPC: 0.387067 (Simulation time: 0 hr 34 min 21 sec) 
select_counter is 237
Heartbeat CPU 0 instructions: 64000000 cycles: 143253189 heartbeat IPC: 0.507343 cumulative IPC: 0.388774 (Simulation time: 0 hr 34 min 51 sec) 
select_counter is 969
Heartbeat CPU 0 instructions: 65000002 cycles: 144799732 heartbeat IPC: 0.646605 cumulative IPC: 0.391613 (Simulation time: 0 hr 35 min 18 sec) 
select_counter is 368
Heartbeat CPU 0 instructions: 66000003 cycles: 146331402 heartbeat IPC: 0.652883 cumulative IPC: 0.394432 (Simulation time: 0 hr 35 min 44 sec) 
select_counter is 459
Heartbeat CPU 0 instructions: 67000003 cycles: 147892980 heartbeat IPC: 0.640378 cumulative IPC: 0.397108 (Simulation time: 0 hr 36 min 9 sec) 
select_counter is 977
Heartbeat CPU 0 instructions: 68000000 cycles: 149432848 heartbeat IPC: 0.649404 cumulative IPC: 0.399786 (Simulation time: 0 hr 36 min 33 sec) 
select_counter is 420
Heartbeat CPU 0 instructions: 69000002 cycles: 151005938 heartbeat IPC: 0.635693 cumulative IPC: 0.402316 (Simulation time: 0 hr 36 min 57 sec) 
select_counter is 308
Heartbeat CPU 0 instructions: 70000000 cycles: 152707282 heartbeat IPC: 0.587769 cumulative IPC: 0.404443 (Simulation time: 0 hr 37 min 20 sec) 
select_counter is 628
Heartbeat CPU 0 instructions: 71000000 cycles: 154287703 heartbeat IPC: 0.632743 cumulative IPC: 0.406849 (Simulation time: 0 hr 37 min 42 sec) 
select_counter is 817
Heartbeat CPU 0 instructions: 72000000 cycles: 155857148 heartbeat IPC: 0.637168 cumulative IPC: 0.409235 (Simulation time: 0 hr 38 min 3 sec) 
select_counter is 916
Heartbeat CPU 0 instructions: 73000002 cycles: 157423793 heartbeat IPC: 0.638308 cumulative IPC: 0.41158 (Simulation time: 0 hr 38 min 24 sec) 
select_counter is 385
Heartbeat CPU 0 instructions: 74000000 cycles: 159019346 heartbeat IPC: 0.626741 cumulative IPC: 0.413799 (Simulation time: 0 hr 38 min 44 sec) 
select_counter is 898
Heartbeat CPU 0 instructions: 75000000 cycles: 160621954 heartbeat IPC: 0.623983 cumulative IPC: 0.415955 (Simulation time: 0 hr 39 min 4 sec) 
select_counter is 194
Heartbeat CPU 0 instructions: 76000000 cycles: 162219711 heartbeat IPC: 0.625877 cumulative IPC: 0.41808 (Simulation time: 0 hr 39 min 23 sec) 
select_counter is 392
Heartbeat CPU 0 instructions: 77000001 cycles: 165642348 heartbeat IPC: 0.292173 cumulative IPC: 0.415408 (Simulation time: 0 hr 39 min 45 sec) 
select_counter is 383
Heartbeat CPU 0 instructions: 78000000 cycles: 169179153 heartbeat IPC: 0.282741 cumulative IPC: 0.412561 (Simulation time: 0 hr 40 min 7 sec) 
select_counter is 187
Heartbeat CPU 0 instructions: 79000002 cycles: 172696183 heartbeat IPC: 0.284331 cumulative IPC: 0.409882 (Simulation time: 0 hr 40 min 28 sec) 
select_counter is 482
Heartbeat CPU 0 instructions: 80000000 cycles: 176236462 heartbeat IPC: 0.282463 cumulative IPC: 0.407258 (Simulation time: 0 hr 40 min 49 sec) 
select_counter is 503
Heartbeat CPU 0 instructions: 81000000 cycles: 179769798 heartbeat IPC: 0.283019 cumulative IPC: 0.404755 (Simulation time: 0 hr 41 min 10 sec) 
select_counter is 982
Heartbeat CPU 0 instructions: 82000002 cycles: 183531725 heartbeat IPC: 0.265822 cumulative IPC: 0.401838 (Simulation time: 0 hr 41 min 30 sec) 
select_counter is 890
Heartbeat CPU 0 instructions: 83000002 cycles: 187287703 heartbeat IPC: 0.266242 cumulative IPC: 0.399054 (Simulation time: 0 hr 41 min 50 sec) 
select_counter is 697
Heartbeat CPU 0 instructions: 84000000 cycles: 191053657 heartbeat IPC: 0.265536 cumulative IPC: 0.396361 (Simulation time: 0 hr 42 min 9 sec) 
select_counter is 220
Heartbeat CPU 0 instructions: 85000000 cycles: 194822681 heartbeat IPC: 0.265321 cumulative IPC: 0.393768 (Simulation time: 0 hr 42 min 27 sec) 
select_counter is 830
Heartbeat CPU 0 instructions: 86000000 cycles: 198594077 heartbeat IPC: 0.265154 cumulative IPC: 0.39127 (Simulation time: 0 hr 42 min 44 sec) 
select_counter is 513
Heartbeat CPU 0 instructions: 87000000 cycles: 202127862 heartbeat IPC: 0.282983 cumulative IPC: 0.389336 (Simulation time: 0 hr 42 min 59 sec) 
select_counter is 30
Heartbeat CPU 0 instructions: 88000000 cycles: 204021067 heartbeat IPC: 0.528205 cumulative IPC: 0.390652 (Simulation time: 0 hr 43 min 11 sec) 
select_counter is 252
Heartbeat CPU 0 instructions: 89000001 cycles: 205873905 heartbeat IPC: 0.539713 cumulative IPC: 0.392023 (Simulation time: 0 hr 43 min 21 sec) 
select_counter is 637
Heartbeat CPU 0 instructions: 90000002 cycles: 207761792 heartbeat IPC: 0.529693 cumulative IPC: 0.393301 (Simulation time: 0 hr 43 min 30 sec) 
select_counter is 681
Heartbeat CPU 0 instructions: 91000001 cycles: 209634706 heartbeat IPC: 0.533927 cumulative IPC: 0.394584 (Simulation time: 0 hr 43 min 38 sec) 
select_counter is 793
Heartbeat CPU 0 instructions: 92000000 cycles: 211516368 heartbeat IPC: 0.531445 cumulative IPC: 0.395827 (Simulation time: 0 hr 43 min 47 sec) 
select_counter is 459
Heartbeat CPU 0 instructions: 93000002 cycles: 213371378 heartbeat IPC: 0.539082 cumulative IPC: 0.397098 (Simulation time: 0 hr 43 min 55 sec) 
select_counter is 713
Heartbeat CPU 0 instructions: 94000001 cycles: 215091391 heartbeat IPC: 0.58139 cumulative IPC: 0.398602 (Simulation time: 0 hr 44 min 3 sec) 
select_counter is 82
Heartbeat CPU 0 instructions: 95000000 cycles: 216788154 heartbeat IPC: 0.589357 cumulative IPC: 0.400126 (Simulation time: 0 hr 44 min 11 sec) 
select_counter is 520
Heartbeat CPU 0 instructions: 96000000 cycles: 218520482 heartbeat IPC: 0.577258 cumulative IPC: 0.401559 (Simulation time: 0 hr 44 min 17 sec) 
select_counter is 924
Heartbeat CPU 0 instructions: 97000000 cycles: 220220951 heartbeat IPC: 0.588073 cumulative IPC: 0.403028 (Simulation time: 0 hr 44 min 23 sec) 
select_counter is 629
Heartbeat CPU 0 instructions: 98000000 cycles: 222018374 heartbeat IPC: 0.556352 cumulative IPC: 0.404294 (Simulation time: 0 hr 44 min 28 sec) 
select_counter is 789
Heartbeat CPU 0 instructions: 99000001 cycles: 223587699 heartbeat IPC: 0.637217 cumulative IPC: 0.405961 (Simulation time: 0 hr 44 min 33 sec) 
select_counter is 97
Heartbeat CPU 0 instructions: 100000000 cycles: 225148184 heartbeat IPC: 0.640826 cumulative IPC: 0.407621 (Simulation time: 0 hr 44 min 38 sec) 
select_counter is 855
Heartbeat CPU 0 instructions: 101000002 cycles: 226714239 heartbeat IPC: 0.638548 cumulative IPC: 0.409248 (Simulation time: 0 hr 44 min 42 sec) 
select_counter is 961
Heartbeat CPU 0 instructions: 102000003 cycles: 228279617 heartbeat IPC: 0.638824 cumulative IPC: 0.410853 (Simulation time: 0 hr 44 min 46 sec) 
select_counter is 219
Heartbeat CPU 0 instructions: 103000000 cycles: 229871942 heartbeat IPC: 0.628011 cumulative IPC: 0.412386 (Simulation time: 0 hr 44 min 50 sec) 
select_counter is 261
Heartbeat CPU 0 instructions: 104000000 cycles: 231631109 heartbeat IPC: 0.568451 cumulative IPC: 0.413594 (Simulation time: 0 hr 44 min 54 sec) 
select_counter is 664
Heartbeat CPU 0 instructions: 105000003 cycles: 233219120 heartbeat IPC: 0.62972 cumulative IPC: 0.415094 (Simulation time: 0 hr 44 min 58 sec) 
select_counter is 915
Heartbeat CPU 0 instructions: 106000001 cycles: 234798981 heartbeat IPC: 0.632966 cumulative IPC: 0.416587 (Simulation time: 0 hr 45 min 2 sec) 
select_counter is 167
Heartbeat CPU 0 instructions: 107000000 cycles: 236381956 heartbeat IPC: 0.631721 cumulative IPC: 0.418055 (Simulation time: 0 hr 45 min 6 sec) 
select_counter is 814
Heartbeat CPU 0 instructions: 108000000 cycles: 237961145 heartbeat IPC: 0.633236 cumulative IPC: 0.41951 (Simulation time: 0 hr 45 min 10 sec) 
select_counter is 960
Heartbeat CPU 0 instructions: 109000000 cycles: 239539760 heartbeat IPC: 0.633467 cumulative IPC: 0.420946 (Simulation time: 0 hr 45 min 14 sec) 
select_counter is 943
Heartbeat CPU 0 instructions: 110000002 cycles: 241406480 heartbeat IPC: 0.5357 cumulative IPC: 0.421849 (Simulation time: 0 hr 45 min 18 sec) 
select_counter is 45
Finished CPU 0 instructions: 100000000 cycles: 237051423 cummulative IPC: 0.421849 (Simulation time: 0 hr 45 min 18 sec) 

ChampSim completed all CPUs

Region of Interest Statistics

CPU 0 cummulative IPC: 0.421849 instructions: 100000000 cycles: 237051423
LLC TOTAL     ACCESS:   12993628  HIT:    9671070  MISS:    3322558
LLC LOAD      ACCESS:    5287934  HIT:    4282434  MISS:    1005500
LLC RFO       ACCESS:          0  HIT:          0  MISS:          0
LLC PREFETCH  ACCESS:    6793224  HIT:    4495054  MISS:    2298170
LLC WRITEBACK ACCESS:     912470  HIT:     893582  MISS:      18888
Ship samples: 
9, 32, 64, 106, 129, 173, 198, 231, 269, 299, 324, 354, 391, 420, 462, 482, 526, 557, 583, 616, 650, 672, 718, 747, 779, 804, 840, 876, 909, 929, 964, 1004, 1026, 1064, 1089, 1126, 1153, 1195, 1216, 1258, 1289, 1316, 1351, 1380, 1415, 1446, 1473, 1513, 1537, 1568, 1613, 1636, 1665, 1708, 1730, 1770, 1806, 1827, 1863, 1898, 1923, 1954, 1997, 2029, 
Lime duel samples: 
0, 29, 45, 59, 78, 83, 100, 114, 138, 145, 171, 176, 204, 214, 230, 245, 268, 284, 297, 304, 321, 343, 355, 379, 398, 408, 424, 440, 458, 468, 493, 498, 512, 539, 555, 572, 588, 595, 618, 638, 648, 659, 676, 694, 709, 729, 737, 758, 775, 795, 800, 818, 839, 857, 878, 888, 903, 926, 939, 949, 970, 980, 1002, 1014, 1024, 1054, 1069, 1086, 1096, 1110, 1133, 1146, 1163, 1174, 1186, 1211, 1223, 1236, 1253, 1267, 1293, 1309, 1321, 1337, 1349, 1362, 1382, 1401, 1420, 1434, 1450, 1468, 1486, 1499, 1512, 1520, 1549, 1555, 1578, 1591, 1611, 1625, 1639, 1651, 1678, 1691, 1703, 1723, 1736, 1756, 1769, 1776, 1805, 1821, 1837, 1842, 1868, 1883, 1894, 1914, 1933, 1943, 1952, 1971, 1990, 2011, 2021, 2039, 
Lime samples: 
0, 100, 204, 297, 398, 493, 588, 676, 775, 878, 970, 1069, 1163, 1253, 1349, 1450, 1549, 1639, 1736, 1837, 1933, 
Insertion Distribution: 
	LOAD 119573 0 0 0 0 0 38525 384595 
	RFO 198 0 0 0 0 0 6218 0 
	PREF 0 508218 0 0 0 0 71529 392026 
	WRITEBACK 0 0 0 0 0 0 0 4277 
Total Prefetch Downgrades: 471147
