
*** ChampSim Multicore Out-of-Order Simulator ***

Warmup Instructions: 10000000
Simulation Instructions: 100000000
Configuration: 2
Number of CPUs: 1
LLC sets: 2048
LLC ways: 16
Off-chip DRAM Channels: 1 Width: 64-bit Data Rate: 1600 MT/s

CPU 0 runs /datasets/cs240c-wi22-a00-public/data/Assignment2-gz/mcf_158B.trace.gz
CPU 0 L1D next line prefetcher
CPU 0 L2C IP-based stride prefetcher
Heartbeat CPU 0 instructions: 1000002 cycles: 512216 heartbeat IPC: 1.95231 cumulative IPC: 1.95231 (Simulation time: 0 hr 0 min 44 sec) 
select_counter is 669
Heartbeat CPU 0 instructions: 2000002 cycles: 1023300 heartbeat IPC: 1.95663 cumulative IPC: 1.95446 (Simulation time: 0 hr 1 min 24 sec) 
select_counter is 85
Heartbeat CPU 0 instructions: 3000000 cycles: 1535791 heartbeat IPC: 1.95125 cumulative IPC: 1.95339 (Simulation time: 0 hr 2 min 8 sec) 
select_counter is 665
Heartbeat CPU 0 instructions: 4000000 cycles: 2046661 heartbeat IPC: 1.95745 cumulative IPC: 1.9544 (Simulation time: 0 hr 2 min 49 sec) 
select_counter is 315
Heartbeat CPU 0 instructions: 5000002 cycles: 2554237 heartbeat IPC: 1.97015 cumulative IPC: 1.95753 (Simulation time: 0 hr 3 min 18 sec) 
select_counter is 411
Heartbeat CPU 0 instructions: 6000001 cycles: 3066827 heartbeat IPC: 1.95087 cumulative IPC: 1.95642 (Simulation time: 0 hr 3 min 57 sec) 
select_counter is 533
Heartbeat CPU 0 instructions: 7000001 cycles: 3575960 heartbeat IPC: 1.96412 cumulative IPC: 1.95752 (Simulation time: 0 hr 4 min 30 sec) 
select_counter is 640
Heartbeat CPU 0 instructions: 8000000 cycles: 4086750 heartbeat IPC: 1.95775 cumulative IPC: 1.95755 (Simulation time: 0 hr 5 min 2 sec) 
select_counter is 670
Heartbeat CPU 0 instructions: 9000000 cycles: 4605672 heartbeat IPC: 1.92707 cumulative IPC: 1.95411 (Simulation time: 0 hr 5 min 39 sec) 
select_counter is 635
Heartbeat CPU 0 instructions: 10000001 cycles: 5141797 heartbeat IPC: 1.86524 cumulative IPC: 1.94485 (Simulation time: 0 hr 6 min 9 sec) 
select_counter is 718

Warmup complete CPU 0 instructions: 10000001 cycles: 5141797 (Simulation time: 0 hr 6 min 9 sec) 

Heartbeat CPU 0 instructions: 11000001 cycles: 14962161 heartbeat IPC: 0.101829 cumulative IPC: 0.101829 (Simulation time: 0 hr 6 min 53 sec) 
select_counter is 579
Heartbeat CPU 0 instructions: 12000000 cycles: 23582926 heartbeat IPC: 0.115999 cumulative IPC: 0.108453 (Simulation time: 0 hr 7 min 33 sec) 
select_counter is 887
Heartbeat CPU 0 instructions: 13000001 cycles: 32535073 heartbeat IPC: 0.111705 cumulative IPC: 0.109516 (Simulation time: 0 hr 8 min 15 sec) 
select_counter is 366
Heartbeat CPU 0 instructions: 14000001 cycles: 40702863 heartbeat IPC: 0.122432 cumulative IPC: 0.112483 (Simulation time: 0 hr 8 min 56 sec) 
select_counter is 401
Heartbeat CPU 0 instructions: 15000000 cycles: 49234426 heartbeat IPC: 0.117212 cumulative IPC: 0.113398 (Simulation time: 0 hr 9 min 39 sec) 
select_counter is 991
Heartbeat CPU 0 instructions: 16000000 cycles: 65085438 heartbeat IPC: 0.0630875 cumulative IPC: 0.100094 (Simulation time: 0 hr 10 min 37 sec) 
select_counter is 677
Heartbeat CPU 0 instructions: 17000001 cycles: 76367832 heartbeat IPC: 0.0886338 cumulative IPC: 0.0982787 (Simulation time: 0 hr 11 min 23 sec) 
select_counter is 192
Heartbeat CPU 0 instructions: 18000000 cycles: 85405871 heartbeat IPC: 0.110643 cumulative IPC: 0.099671 (Simulation time: 0 hr 12 min 11 sec) 
select_counter is 543
Heartbeat CPU 0 instructions: 19000001 cycles: 94997968 heartbeat IPC: 0.104253 cumulative IPC: 0.10016 (Simulation time: 0 hr 12 min 59 sec) 
select_counter is 608
Heartbeat CPU 0 instructions: 20000000 cycles: 104061999 heartbeat IPC: 0.110326 cumulative IPC: 0.101092 (Simulation time: 0 hr 13 min 39 sec) 
select_counter is 908
Heartbeat CPU 0 instructions: 21000000 cycles: 113325500 heartbeat IPC: 0.107951 cumulative IPC: 0.101679 (Simulation time: 0 hr 14 min 25 sec) 
select_counter is 285
Heartbeat CPU 0 instructions: 22000002 cycles: 122462438 heartbeat IPC: 0.109446 cumulative IPC: 0.102284 (Simulation time: 0 hr 15 min 10 sec) 
select_counter is 532
Heartbeat CPU 0 instructions: 23000002 cycles: 132887587 heartbeat IPC: 0.0959219 cumulative IPC: 0.101765 (Simulation time: 0 hr 15 min 57 sec) 
select_counter is 267
Heartbeat CPU 0 instructions: 24000000 cycles: 149027167 heartbeat IPC: 0.0619594 cumulative IPC: 0.0972997 (Simulation time: 0 hr 16 min 54 sec) 
select_counter is 140
Heartbeat CPU 0 instructions: 25000000 cycles: 158162537 heartbeat IPC: 0.109465 cumulative IPC: 0.0980259 (Simulation time: 0 hr 17 min 38 sec) 
select_counter is 175
Heartbeat CPU 0 instructions: 26000000 cycles: 165614491 heartbeat IPC: 0.134193 cumulative IPC: 0.0997054 (Simulation time: 0 hr 18 min 17 sec) 
select_counter is 477
Heartbeat CPU 0 instructions: 27000002 cycles: 173111701 heartbeat IPC: 0.133383 cumulative IPC: 0.101209 (Simulation time: 0 hr 18 min 56 sec) 
select_counter is 710
Heartbeat CPU 0 instructions: 28000000 cycles: 188325468 heartbeat IPC: 0.0657298 cumulative IPC: 0.098262 (Simulation time: 0 hr 19 min 54 sec) 
select_counter is 188
Heartbeat CPU 0 instructions: 29000003 cycles: 197311250 heartbeat IPC: 0.111287 cumulative IPC: 0.0988711 (Simulation time: 0 hr 20 min 38 sec) 
select_counter is 57
Heartbeat CPU 0 instructions: 30000003 cycles: 204344452 heartbeat IPC: 0.142183 cumulative IPC: 0.1004 (Simulation time: 0 hr 21 min 17 sec) 
select_counter is 673
Heartbeat CPU 0 instructions: 31000003 cycles: 212589523 heartbeat IPC: 0.121285 cumulative IPC: 0.10123 (Simulation time: 0 hr 21 min 59 sec) 
select_counter is 7
Heartbeat CPU 0 instructions: 32000000 cycles: 227706635 heartbeat IPC: 0.06615 cumulative IPC: 0.0988476 (Simulation time: 0 hr 22 min 56 sec) 
select_counter is 587
Heartbeat CPU 0 instructions: 33000000 cycles: 235228368 heartbeat IPC: 0.132948 cumulative IPC: 0.0999624 (Simulation time: 0 hr 23 min 39 sec) 
select_counter is 977
Heartbeat CPU 0 instructions: 34000000 cycles: 243041663 heartbeat IPC: 0.127987 cumulative IPC: 0.100883 (Simulation time: 0 hr 24 min 21 sec) 
select_counter is 356
Heartbeat CPU 0 instructions: 35000001 cycles: 251333652 heartbeat IPC: 0.120598 cumulative IPC: 0.101547 (Simulation time: 0 hr 25 min 5 sec) 
select_counter is 368
Heartbeat CPU 0 instructions: 36000000 cycles: 267283331 heartbeat IPC: 0.0626971 cumulative IPC: 0.0991831 (Simulation time: 0 hr 26 min 3 sec) 
select_counter is 442
Heartbeat CPU 0 instructions: 37000001 cycles: 275784617 heartbeat IPC: 0.117629 cumulative IPC: 0.0997625 (Simulation time: 0 hr 26 min 46 sec) 
select_counter is 906
Heartbeat CPU 0 instructions: 38000000 cycles: 283928523 heartbeat IPC: 0.122791 cumulative IPC: 0.100435 (Simulation time: 0 hr 27 min 25 sec) 
select_counter is 779
Heartbeat CPU 0 instructions: 39000000 cycles: 290960720 heartbeat IPC: 0.142203 cumulative IPC: 0.101463 (Simulation time: 0 hr 28 min 4 sec) 
select_counter is 2
Heartbeat CPU 0 instructions: 40000000 cycles: 305730555 heartbeat IPC: 0.0677056 cumulative IPC: 0.0998041 (Simulation time: 0 hr 29 min 2 sec) 
select_counter is 671
Heartbeat CPU 0 instructions: 41000003 cycles: 314754531 heartbeat IPC: 0.110816 cumulative IPC: 0.100125 (Simulation time: 0 hr 29 min 49 sec) 
select_counter is 924
Heartbeat CPU 0 instructions: 42000000 cycles: 321824391 heartbeat IPC: 0.141445 cumulative IPC: 0.101048 (Simulation time: 0 hr 30 min 29 sec) 
select_counter is 646
Heartbeat CPU 0 instructions: 43000001 cycles: 332523192 heartbeat IPC: 0.0934685 cumulative IPC: 0.1008 (Simulation time: 0 hr 31 min 19 sec) 
select_counter is 435
Heartbeat CPU 0 instructions: 44000000 cycles: 344898825 heartbeat IPC: 0.0808039 cumulative IPC: 0.100072 (Simulation time: 0 hr 32 min 13 sec) 
select_counter is 931
Heartbeat CPU 0 instructions: 45000000 cycles: 351191687 heartbeat IPC: 0.15891 cumulative IPC: 0.101141 (Simulation time: 0 hr 32 min 53 sec) 
select_counter is 147
Heartbeat CPU 0 instructions: 46000002 cycles: 361533119 heartbeat IPC: 0.0966986 cumulative IPC: 0.101013 (Simulation time: 0 hr 33 min 36 sec) 
select_counter is 929
Heartbeat CPU 0 instructions: 47000002 cycles: 374073763 heartbeat IPC: 0.0797407 cumulative IPC: 0.100289 (Simulation time: 0 hr 34 min 25 sec) 
select_counter is 104
Heartbeat CPU 0 instructions: 48000000 cycles: 380584454 heartbeat IPC: 0.153593 cumulative IPC: 0.101214 (Simulation time: 0 hr 35 min 0 sec) 
select_counter is 107
Heartbeat CPU 0 instructions: 49000003 cycles: 390771007 heartbeat IPC: 0.0981689 cumulative IPC: 0.101133 (Simulation time: 0 hr 35 min 38 sec) 
select_counter is 81
Heartbeat CPU 0 instructions: 50000000 cycles: 403316214 heartbeat IPC: 0.0797115 cumulative IPC: 0.100458 (Simulation time: 0 hr 36 min 20 sec) 
select_counter is 438
Heartbeat CPU 0 instructions: 51000000 cycles: 409509386 heartbeat IPC: 0.161468 cumulative IPC: 0.101393 (Simulation time: 0 hr 36 min 47 sec) 
select_counter is 481
Heartbeat CPU 0 instructions: 52000000 cycles: 418854379 heartbeat IPC: 0.107009 cumulative IPC: 0.10152 (Simulation time: 0 hr 37 min 19 sec) 
select_counter is 697
Heartbeat CPU 0 instructions: 53000000 cycles: 432484187 heartbeat IPC: 0.0733686 cumulative IPC: 0.100622 (Simulation time: 0 hr 37 min 56 sec) 
select_counter is 763
Heartbeat CPU 0 instructions: 54000000 cycles: 438914177 heartbeat IPC: 0.155521 cumulative IPC: 0.101436 (Simulation time: 0 hr 38 min 21 sec) 
select_counter is 931
Heartbeat CPU 0 instructions: 55000000 cycles: 446872322 heartbeat IPC: 0.125657 cumulative IPC: 0.101872 (Simulation time: 0 hr 38 min 48 sec) 
select_counter is 450
Heartbeat CPU 0 instructions: 56000000 cycles: 461748276 heartbeat IPC: 0.0672226 cumulative IPC: 0.100743 (Simulation time: 0 hr 39 min 25 sec) 
select_counter is 375
Heartbeat CPU 0 instructions: 57000001 cycles: 468118878 heartbeat IPC: 0.156971 cumulative IPC: 0.101517 (Simulation time: 0 hr 39 min 45 sec) 
select_counter is 174
Heartbeat CPU 0 instructions: 58000001 cycles: 474400676 heartbeat IPC: 0.15919 cumulative IPC: 0.102289 (Simulation time: 0 hr 40 min 5 sec) 
select_counter is 84
Heartbeat CPU 0 instructions: 59000000 cycles: 490375933 heartbeat IPC: 0.0625967 cumulative IPC: 0.100982 (Simulation time: 0 hr 40 min 35 sec) 
select_counter is 319
Heartbeat CPU 0 instructions: 60000000 cycles: 497297211 heartbeat IPC: 0.144482 cumulative IPC: 0.101594 (Simulation time: 0 hr 40 min 56 sec) 
select_counter is 138
Heartbeat CPU 0 instructions: 61000000 cycles: 504332588 heartbeat IPC: 0.142139 cumulative IPC: 0.102165 (Simulation time: 0 hr 41 min 15 sec) 
select_counter is 329
Heartbeat CPU 0 instructions: 62000001 cycles: 516871915 heartbeat IPC: 0.0797492 cumulative IPC: 0.101616 (Simulation time: 0 hr 41 min 40 sec) 
select_counter is 862
Heartbeat CPU 0 instructions: 63000001 cycles: 527123631 heartbeat IPC: 0.0975446 cumulative IPC: 0.101536 (Simulation time: 0 hr 42 min 2 sec) 
select_counter is 816
Heartbeat CPU 0 instructions: 64000000 cycles: 533418049 heartbeat IPC: 0.158871 cumulative IPC: 0.102219 (Simulation time: 0 hr 42 min 18 sec) 
select_counter is 760
Heartbeat CPU 0 instructions: 65000000 cycles: 540815097 heartbeat IPC: 0.135189 cumulative IPC: 0.102675 (Simulation time: 0 hr 42 min 34 sec) 
select_counter is 248
Heartbeat CPU 0 instructions: 66000000 cycles: 556041447 heartbeat IPC: 0.0656756 cumulative IPC: 0.101652 (Simulation time: 0 hr 42 min 56 sec) 
select_counter is 856
Heartbeat CPU 0 instructions: 67000002 cycles: 562265371 heartbeat IPC: 0.160671 cumulative IPC: 0.102311 (Simulation time: 0 hr 43 min 9 sec) 
select_counter is 967
Heartbeat CPU 0 instructions: 68000000 cycles: 568394574 heartbeat IPC: 0.163153 cumulative IPC: 0.102973 (Simulation time: 0 hr 43 min 19 sec) 
select_counter is 1020
Heartbeat CPU 0 instructions: 69000000 cycles: 581740499 heartbeat IPC: 0.0749292 cumulative IPC: 0.102324 (Simulation time: 0 hr 43 min 32 sec) 
select_counter is 144
Heartbeat CPU 0 instructions: 70000000 cycles: 591033022 heartbeat IPC: 0.107613 cumulative IPC: 0.102408 (Simulation time: 0 hr 43 min 43 sec) 
select_counter is 483
Heartbeat CPU 0 instructions: 71000002 cycles: 597105481 heartbeat IPC: 0.164678 cumulative IPC: 0.103047 (Simulation time: 0 hr 43 min 52 sec) 
select_counter is 551
Heartbeat CPU 0 instructions: 72000000 cycles: 604938083 heartbeat IPC: 0.127671 cumulative IPC: 0.103368 (Simulation time: 0 hr 44 min 1 sec) 
select_counter is 887
Heartbeat CPU 0 instructions: 73000000 cycles: 619757714 heartbeat IPC: 0.0674781 cumulative IPC: 0.102503 (Simulation time: 0 hr 44 min 13 sec) 
select_counter is 623
Heartbeat CPU 0 instructions: 74000000 cycles: 626233736 heartbeat IPC: 0.154416 cumulative IPC: 0.103044 (Simulation time: 0 hr 44 min 19 sec) 
select_counter is 558
Heartbeat CPU 0 instructions: 75000001 cycles: 632708043 heartbeat IPC: 0.154457 cumulative IPC: 0.103575 (Simulation time: 0 hr 44 min 25 sec) 
select_counter is 251
Heartbeat CPU 0 instructions: 76000000 cycles: 645110668 heartbeat IPC: 0.080628 cumulative IPC: 0.10313 (Simulation time: 0 hr 44 min 32 sec) 
select_counter is 776
Heartbeat CPU 0 instructions: 77000000 cycles: 655854828 heartbeat IPC: 0.0930738 cumulative IPC: 0.102964 (Simulation time: 0 hr 44 min 39 sec) 
select_counter is 494
Heartbeat CPU 0 instructions: 78000000 cycles: 662712578 heartbeat IPC: 0.14582 cumulative IPC: 0.103411 (Simulation time: 0 hr 44 min 44 sec) 
select_counter is 43
Heartbeat CPU 0 instructions: 79000003 cycles: 670039115 heartbeat IPC: 0.136491 cumulative IPC: 0.103775 (Simulation time: 0 hr 44 min 49 sec) 
select_counter is 321
Heartbeat CPU 0 instructions: 80000000 cycles: 685670415 heartbeat IPC: 0.063974 cumulative IPC: 0.102861 (Simulation time: 0 hr 44 min 56 sec) 
select_counter is 732
Heartbeat CPU 0 instructions: 81000001 cycles: 693078615 heartbeat IPC: 0.134986 cumulative IPC: 0.103207 (Simulation time: 0 hr 45 min 1 sec) 
select_counter is 970
Heartbeat CPU 0 instructions: 82000001 cycles: 700234571 heartbeat IPC: 0.139744 cumulative IPC: 0.103583 (Simulation time: 0 hr 45 min 5 sec) 
select_counter is 287
Heartbeat CPU 0 instructions: 83000001 cycles: 712994184 heartbeat IPC: 0.0783723 cumulative IPC: 0.103129 (Simulation time: 0 hr 45 min 12 sec) 
select_counter is 328
Heartbeat CPU 0 instructions: 84000000 cycles: 723903741 heartbeat IPC: 0.0916627 cumulative IPC: 0.102955 (Simulation time: 0 hr 45 min 17 sec) 
select_counter is 646
Heartbeat CPU 0 instructions: 85000000 cycles: 730293226 heartbeat IPC: 0.156507 cumulative IPC: 0.103427 (Simulation time: 0 hr 45 min 22 sec) 
select_counter is 305
Heartbeat CPU 0 instructions: 86000000 cycles: 738082592 heartbeat IPC: 0.12838 cumulative IPC: 0.103692 (Simulation time: 0 hr 45 min 27 sec) 
select_counter is 756
Heartbeat CPU 0 instructions: 87000000 cycles: 753286958 heartbeat IPC: 0.0657706 cumulative IPC: 0.102921 (Simulation time: 0 hr 45 min 34 sec) 
select_counter is 54
Heartbeat CPU 0 instructions: 88000000 cycles: 760418620 heartbeat IPC: 0.14022 cumulative IPC: 0.103273 (Simulation time: 0 hr 45 min 38 sec) 
select_counter is 644
Heartbeat CPU 0 instructions: 89000000 cycles: 767805170 heartbeat IPC: 0.135381 cumulative IPC: 0.103584 (Simulation time: 0 hr 45 min 43 sec) 
select_counter is 394
Heartbeat CPU 0 instructions: 90000002 cycles: 781753300 heartbeat IPC: 0.0716943 cumulative IPC: 0.103012 (Simulation time: 0 hr 45 min 49 sec) 
select_counter is 136
Heartbeat CPU 0 instructions: 91000000 cycles: 791015873 heartbeat IPC: 0.107961 cumulative IPC: 0.10307 (Simulation time: 0 hr 45 min 55 sec) 
select_counter is 192
Heartbeat CPU 0 instructions: 92000000 cycles: 797903024 heartbeat IPC: 0.145198 cumulative IPC: 0.103436 (Simulation time: 0 hr 45 min 59 sec) 
select_counter is 699
Heartbeat CPU 0 instructions: 93000003 cycles: 809170424 heartbeat IPC: 0.0887519 cumulative IPC: 0.10323 (Simulation time: 0 hr 46 min 6 sec) 
select_counter is 186
Heartbeat CPU 0 instructions: 94000000 cycles: 821314094 heartbeat IPC: 0.0823472 cumulative IPC: 0.102919 (Simulation time: 0 hr 46 min 12 sec) 
select_counter is 928
Heartbeat CPU 0 instructions: 95000000 cycles: 828266360 heartbeat IPC: 0.143838 cumulative IPC: 0.103265 (Simulation time: 0 hr 46 min 17 sec) 
select_counter is 668
Heartbeat CPU 0 instructions: 96000000 cycles: 835879645 heartbeat IPC: 0.131349 cumulative IPC: 0.103522 (Simulation time: 0 hr 46 min 22 sec) 
select_counter is 562
Heartbeat CPU 0 instructions: 97000003 cycles: 851733639 heartbeat IPC: 0.0630758 cumulative IPC: 0.102765 (Simulation time: 0 hr 46 min 29 sec) 
select_counter is 179
Heartbeat CPU 0 instructions: 98000002 cycles: 858911536 heartbeat IPC: 0.139316 cumulative IPC: 0.103072 (Simulation time: 0 hr 46 min 34 sec) 
select_counter is 830
Heartbeat CPU 0 instructions: 99000000 cycles: 866044807 heartbeat IPC: 0.140188 cumulative IPC: 0.10338 (Simulation time: 0 hr 46 min 38 sec) 
select_counter is 265
Heartbeat CPU 0 instructions: 100000000 cycles: 879874174 heartbeat IPC: 0.0723099 cumulative IPC: 0.102889 (Simulation time: 0 hr 46 min 45 sec) 
select_counter is 464
Heartbeat CPU 0 instructions: 101000000 cycles: 890178199 heartbeat IPC: 0.0970495 cumulative IPC: 0.102821 (Simulation time: 0 hr 46 min 50 sec) 
select_counter is 79
Heartbeat CPU 0 instructions: 102000000 cycles: 897527234 heartbeat IPC: 0.136072 cumulative IPC: 0.103094 (Simulation time: 0 hr 46 min 55 sec) 
select_counter is 244
Heartbeat CPU 0 instructions: 103000001 cycles: 904455547 heartbeat IPC: 0.144335 cumulative IPC: 0.103412 (Simulation time: 0 hr 46 min 59 sec) 
select_counter is 862
Heartbeat CPU 0 instructions: 104000000 cycles: 920608129 heartbeat IPC: 0.0619095 cumulative IPC: 0.10268 (Simulation time: 0 hr 47 min 6 sec) 
select_counter is 268
Heartbeat CPU 0 instructions: 105000000 cycles: 928757439 heartbeat IPC: 0.12271 cumulative IPC: 0.102857 (Simulation time: 0 hr 47 min 12 sec) 
select_counter is 263
Heartbeat CPU 0 instructions: 106000000 cycles: 936072930 heartbeat IPC: 0.136696 cumulative IPC: 0.103123 (Simulation time: 0 hr 47 min 16 sec) 
select_counter is 672
Heartbeat CPU 0 instructions: 107000000 cycles: 946176181 heartbeat IPC: 0.098978 cumulative IPC: 0.103078 (Simulation time: 0 hr 47 min 22 sec) 
select_counter is 119
Heartbeat CPU 0 instructions: 108000000 cycles: 960057083 heartbeat IPC: 0.0720414 cumulative IPC: 0.102627 (Simulation time: 0 hr 47 min 28 sec) 
select_counter is 983
Heartbeat CPU 0 instructions: 109000001 cycles: 967459000 heartbeat IPC: 0.1351 cumulative IPC: 0.102877 (Simulation time: 0 hr 47 min 33 sec) 
select_counter is 126
Heartbeat CPU 0 instructions: 110000000 cycles: 975477893 heartbeat IPC: 0.124705 cumulative IPC: 0.103057 (Simulation time: 0 hr 47 min 38 sec) 
select_counter is 202
Finished CPU 0 instructions: 100000002 cycles: 970336098 cummulative IPC: 0.103057 (Simulation time: 0 hr 47 min 38 sec) 

ChampSim completed all CPUs

Region of Interest Statistics

CPU 0 cummulative IPC: 0.103057 instructions: 100000002 cycles: 970336098
LLC TOTAL     ACCESS:   21080062  HIT:    8919889  MISS:   12160173
LLC LOAD      ACCESS:    9507733  HIT:    5334592  MISS:    4173141
LLC RFO       ACCESS:     164299  HIT:      71033  MISS:      93266
LLC PREFETCH  ACCESS:    9645049  HIT:    2328742  MISS:    7316307
LLC WRITEBACK ACCESS:    1762981  HIT:    1185522  MISS:     577459
Ship samples: 
13, 41, 69, 103, 130, 169, 204, 225, 268, 288, 331, 365, 390, 417, 451, 493, 519, 549, 589, 608, 651, 674, 707, 736, 781, 813, 832, 868, 906, 935, 963, 992, 1037, 1065, 1098, 1122, 1165, 1190, 1230, 1249, 1291, 1316, 1345, 1389, 1422, 1448, 1481, 1514, 1550, 1582, 1612, 1645, 1668, 1699, 1738, 1770, 1802, 1828, 1862, 1895, 1932, 1954, 1995, 2016, 
Lime duel samples: 
14, 28, 45, 58, 78, 94, 105, 122, 129, 155, 163, 179, 196, 222, 233, 246, 269, 276, 295, 308, 332, 347, 355, 371, 384, 405, 416, 443, 458, 478, 490, 497, 515, 534, 556, 567, 584, 595, 616, 631, 652, 670, 672, 692, 710, 734, 745, 752, 776, 790, 804, 821, 835, 852, 864, 883, 903, 915, 940, 954, 969, 980, 1002, 1009, 1030, 1045, 1066, 1078, 1102, 1114, 1120, 1145, 1162, 1171, 1193, 1213, 1218, 1232, 1256, 1264, 1286, 1305, 1315, 1334, 1358, 1364, 1387, 1396, 1412, 1434, 1453, 1465, 1486, 1498, 1506, 1533, 1543, 1560, 1571, 1591, 1608, 1618, 1634, 1657, 1677, 1691, 1702, 1722, 1741, 1754, 1768, 1784, 1795, 1810, 1826, 1850, 1870, 1881, 1888, 1913, 1924, 1943, 1953, 1977, 1996, 2000, 2023, 2036, 
Lime samples: 
14, 105, 196, 295, 384, 490, 584, 672, 776, 864, 969, 1066, 1162, 1256, 1358, 1453, 1543, 1634, 1741, 1826, 1924, 
Insertion Distribution: 
	LOAD 300667 0 0 0 0 0 224738 1377635 
	RFO 5807 0 0 0 0 0 9068 32690 
	PREF 0 631681 0 0 0 0 867774 2648450 
	WRITEBACK 0 0 0 0 0 0 0 266728 
Total Prefetch Downgrades: 752229
