
*** ChampSim Multicore Out-of-Order Simulator ***

Warmup Instructions: 10000000
Simulation Instructions: 100000000
Configuration: 2
Number of CPUs: 1
LLC sets: 2048
LLC ways: 16
Off-chip DRAM Channels: 1 Width: 64-bit Data Rate: 1600 MT/s

CPU 0 runs /datasets/cs240c-wi22-a00-public/data/Assignment2-gz/zeusmp_100B.trace.gz
CPU 0 L1D next line prefetcher
CPU 0 L2C IP-based stride prefetcher
Heartbeat CPU 0 instructions: 1000002 cycles: 462678 heartbeat IPC: 2.16133 cumulative IPC: 2.16133 (Simulation time: 0 hr 0 min 20 sec) 
select_counter is 188
Heartbeat CPU 0 instructions: 2000001 cycles: 925467 heartbeat IPC: 2.16081 cumulative IPC: 2.16107 (Simulation time: 0 hr 0 min 39 sec) 
select_counter is 1016
Heartbeat CPU 0 instructions: 3000003 cycles: 1388508 heartbeat IPC: 2.15964 cumulative IPC: 2.16059 (Simulation time: 0 hr 0 min 57 sec) 
select_counter is 835
Heartbeat CPU 0 instructions: 4000000 cycles: 1851237 heartbeat IPC: 2.16109 cumulative IPC: 2.16072 (Simulation time: 0 hr 1 min 15 sec) 
select_counter is 609
Heartbeat CPU 0 instructions: 5000003 cycles: 2314189 heartbeat IPC: 2.16006 cumulative IPC: 2.16059 (Simulation time: 0 hr 1 min 32 sec) 
select_counter is 333
Heartbeat CPU 0 instructions: 6000001 cycles: 2777065 heartbeat IPC: 2.1604 cumulative IPC: 2.16055 (Simulation time: 0 hr 1 min 50 sec) 
select_counter is 140
Heartbeat CPU 0 instructions: 7000001 cycles: 3239740 heartbeat IPC: 2.16134 cumulative IPC: 2.16067 (Simulation time: 0 hr 2 min 7 sec) 
select_counter is 972
Heartbeat CPU 0 instructions: 8000000 cycles: 3702634 heartbeat IPC: 2.16032 cumulative IPC: 2.16062 (Simulation time: 0 hr 2 min 25 sec) 
select_counter is 688
Heartbeat CPU 0 instructions: 9000003 cycles: 4165429 heartbeat IPC: 2.16079 cumulative IPC: 2.16064 (Simulation time: 0 hr 2 min 43 sec) 
select_counter is 522
Heartbeat CPU 0 instructions: 10000001 cycles: 4628763 heartbeat IPC: 2.15827 cumulative IPC: 2.1604 (Simulation time: 0 hr 3 min 0 sec) 
select_counter is 354

Warmup complete CPU 0 instructions: 10000001 cycles: 4628763 (Simulation time: 0 hr 3 min 0 sec) 

Heartbeat CPU 0 instructions: 11000000 cycles: 5305120 heartbeat IPC: 1.47851 cumulative IPC: 1.47851 (Simulation time: 0 hr 3 min 19 sec) 
select_counter is 195
Heartbeat CPU 0 instructions: 12000000 cycles: 6002106 heartbeat IPC: 1.43475 cumulative IPC: 1.4563 (Simulation time: 0 hr 3 min 41 sec) 
select_counter is 82
Heartbeat CPU 0 instructions: 13000001 cycles: 6707706 heartbeat IPC: 1.41724 cumulative IPC: 1.44304 (Simulation time: 0 hr 4 min 1 sec) 
select_counter is 914
Heartbeat CPU 0 instructions: 14000003 cycles: 7425025 heartbeat IPC: 1.39408 cumulative IPC: 1.43048 (Simulation time: 0 hr 4 min 21 sec) 
select_counter is 692
Heartbeat CPU 0 instructions: 15000002 cycles: 8140839 heartbeat IPC: 1.39701 cumulative IPC: 1.42366 (Simulation time: 0 hr 4 min 43 sec) 
select_counter is 554
Heartbeat CPU 0 instructions: 16000000 cycles: 8826620 heartbeat IPC: 1.45819 cumulative IPC: 1.4293 (Simulation time: 0 hr 5 min 2 sec) 
select_counter is 375
Heartbeat CPU 0 instructions: 17000003 cycles: 9599347 heartbeat IPC: 1.29412 cumulative IPC: 1.40829 (Simulation time: 0 hr 5 min 21 sec) 
select_counter is 169
Heartbeat CPU 0 instructions: 18000000 cycles: 10295450 heartbeat IPC: 1.43656 cumulative IPC: 1.41176 (Simulation time: 0 hr 5 min 41 sec) 
select_counter is 1002
Heartbeat CPU 0 instructions: 19000002 cycles: 10987978 heartbeat IPC: 1.44399 cumulative IPC: 1.41527 (Simulation time: 0 hr 6 min 1 sec) 
select_counter is 822
Heartbeat CPU 0 instructions: 20000000 cycles: 11669848 heartbeat IPC: 1.46655 cumulative IPC: 1.42024 (Simulation time: 0 hr 6 min 21 sec) 
select_counter is 648
Heartbeat CPU 0 instructions: 21000001 cycles: 12373568 heartbeat IPC: 1.42102 cumulative IPC: 1.42031 (Simulation time: 0 hr 6 min 43 sec) 
select_counter is 551
Heartbeat CPU 0 instructions: 22000001 cycles: 13065525 heartbeat IPC: 1.44518 cumulative IPC: 1.42235 (Simulation time: 0 hr 7 min 7 sec) 
select_counter is 367
Heartbeat CPU 0 instructions: 23000002 cycles: 13780446 heartbeat IPC: 1.39876 cumulative IPC: 1.4205 (Simulation time: 0 hr 7 min 29 sec) 
select_counter is 256
Heartbeat CPU 0 instructions: 24000000 cycles: 14478705 heartbeat IPC: 1.43213 cumulative IPC: 1.42133 (Simulation time: 0 hr 7 min 49 sec) 
select_counter is 117
Heartbeat CPU 0 instructions: 25000001 cycles: 15189178 heartbeat IPC: 1.40751 cumulative IPC: 1.4204 (Simulation time: 0 hr 8 min 9 sec) 
select_counter is 6
Heartbeat CPU 0 instructions: 26000001 cycles: 15885347 heartbeat IPC: 1.43643 cumulative IPC: 1.42139 (Simulation time: 0 hr 8 min 30 sec) 
select_counter is 890
Heartbeat CPU 0 instructions: 27000000 cycles: 16596278 heartbeat IPC: 1.4066 cumulative IPC: 1.42051 (Simulation time: 0 hr 8 min 49 sec) 
select_counter is 741
Heartbeat CPU 0 instructions: 28000000 cycles: 17290988 heartbeat IPC: 1.43945 cumulative IPC: 1.42155 (Simulation time: 0 hr 9 min 10 sec) 
select_counter is 584
Heartbeat CPU 0 instructions: 29000000 cycles: 17985027 heartbeat IPC: 1.44084 cumulative IPC: 1.42255 (Simulation time: 0 hr 9 min 30 sec) 
select_counter is 478
Heartbeat CPU 0 instructions: 30000003 cycles: 18693095 heartbeat IPC: 1.4123 cumulative IPC: 1.42204 (Simulation time: 0 hr 9 min 49 sec) 
select_counter is 345
Heartbeat CPU 0 instructions: 31000000 cycles: 19388465 heartbeat IPC: 1.43808 cumulative IPC: 1.42279 (Simulation time: 0 hr 10 min 9 sec) 
select_counter is 215
Heartbeat CPU 0 instructions: 32000000 cycles: 20102137 heartbeat IPC: 1.4012 cumulative IPC: 1.4218 (Simulation time: 0 hr 10 min 29 sec) 
select_counter is 60
Heartbeat CPU 0 instructions: 33000002 cycles: 20797069 heartbeat IPC: 1.43899 cumulative IPC: 1.42254 (Simulation time: 0 hr 10 min 49 sec) 
select_counter is 982
Heartbeat CPU 0 instructions: 34000002 cycles: 21506347 heartbeat IPC: 1.40988 cumulative IPC: 1.422 (Simulation time: 0 hr 11 min 9 sec) 
select_counter is 818
Heartbeat CPU 0 instructions: 35000003 cycles: 22202912 heartbeat IPC: 1.43562 cumulative IPC: 1.42254 (Simulation time: 0 hr 11 min 29 sec) 
select_counter is 704
Heartbeat CPU 0 instructions: 36000000 cycles: 22911166 heartbeat IPC: 1.41192 cumulative IPC: 1.42213 (Simulation time: 0 hr 11 min 49 sec) 
select_counter is 546
Heartbeat CPU 0 instructions: 37000001 cycles: 23610712 heartbeat IPC: 1.4295 cumulative IPC: 1.4224 (Simulation time: 0 hr 12 min 9 sec) 
select_counter is 435
Heartbeat CPU 0 instructions: 38000003 cycles: 24319394 heartbeat IPC: 1.41107 cumulative IPC: 1.422 (Simulation time: 0 hr 12 min 28 sec) 
select_counter is 293
Heartbeat CPU 0 instructions: 39000001 cycles: 25019887 heartbeat IPC: 1.42756 cumulative IPC: 1.42219 (Simulation time: 0 hr 12 min 49 sec) 
select_counter is 190
Heartbeat CPU 0 instructions: 40000000 cycles: 25733076 heartbeat IPC: 1.40215 cumulative IPC: 1.42151 (Simulation time: 0 hr 13 min 10 sec) 
select_counter is 24
Heartbeat CPU 0 instructions: 41000000 cycles: 26434322 heartbeat IPC: 1.42603 cumulative IPC: 1.42166 (Simulation time: 0 hr 13 min 29 sec) 
select_counter is 944
Heartbeat CPU 0 instructions: 42000001 cycles: 27131554 heartbeat IPC: 1.43424 cumulative IPC: 1.42205 (Simulation time: 0 hr 13 min 50 sec) 
select_counter is 805
Heartbeat CPU 0 instructions: 43000003 cycles: 27847604 heartbeat IPC: 1.39655 cumulative IPC: 1.42126 (Simulation time: 0 hr 14 min 9 sec) 
select_counter is 663
Heartbeat CPU 0 instructions: 44000000 cycles: 28547588 heartbeat IPC: 1.4286 cumulative IPC: 1.42147 (Simulation time: 0 hr 14 min 28 sec) 
select_counter is 579
Heartbeat CPU 0 instructions: 45000001 cycles: 29257676 heartbeat IPC: 1.40828 cumulative IPC: 1.42109 (Simulation time: 0 hr 14 min 48 sec) 
select_counter is 416
Heartbeat CPU 0 instructions: 46000002 cycles: 29957113 heartbeat IPC: 1.42972 cumulative IPC: 1.42133 (Simulation time: 0 hr 15 min 11 sec) 
select_counter is 297
Heartbeat CPU 0 instructions: 47000003 cycles: 30668088 heartbeat IPC: 1.40652 cumulative IPC: 1.42093 (Simulation time: 0 hr 15 min 33 sec) 
select_counter is 133
Heartbeat CPU 0 instructions: 48000000 cycles: 31364196 heartbeat IPC: 1.43655 cumulative IPC: 1.42133 (Simulation time: 0 hr 15 min 53 sec) 
select_counter is 1019
Heartbeat CPU 0 instructions: 49000001 cycles: 32077382 heartbeat IPC: 1.40216 cumulative IPC: 1.42084 (Simulation time: 0 hr 16 min 13 sec) 
select_counter is 903
Heartbeat CPU 0 instructions: 50000001 cycles: 32781082 heartbeat IPC: 1.42106 cumulative IPC: 1.42084 (Simulation time: 0 hr 16 min 33 sec) 
select_counter is 773
Heartbeat CPU 0 instructions: 51000002 cycles: 33492257 heartbeat IPC: 1.40613 cumulative IPC: 1.42048 (Simulation time: 0 hr 16 min 53 sec) 
select_counter is 645
Heartbeat CPU 0 instructions: 52000000 cycles: 34192081 heartbeat IPC: 1.42893 cumulative IPC: 1.42068 (Simulation time: 0 hr 17 min 13 sec) 
select_counter is 515
Heartbeat CPU 0 instructions: 53000001 cycles: 34903734 heartbeat IPC: 1.40518 cumulative IPC: 1.42032 (Simulation time: 0 hr 17 min 33 sec) 
select_counter is 362
Heartbeat CPU 0 instructions: 54000003 cycles: 35604857 heartbeat IPC: 1.42629 cumulative IPC: 1.42045 (Simulation time: 0 hr 17 min 54 sec) 
select_counter is 201
Heartbeat CPU 0 instructions: 55000003 cycles: 36309432 heartbeat IPC: 1.4193 cumulative IPC: 1.42042 (Simulation time: 0 hr 18 min 14 sec) 
select_counter is 97
Heartbeat CPU 0 instructions: 56000000 cycles: 37014696 heartbeat IPC: 1.4179 cumulative IPC: 1.42037 (Simulation time: 0 hr 18 min 33 sec) 
select_counter is 983
Heartbeat CPU 0 instructions: 57000003 cycles: 37715310 heartbeat IPC: 1.42732 cumulative IPC: 1.42052 (Simulation time: 0 hr 18 min 54 sec) 
select_counter is 866
Heartbeat CPU 0 instructions: 58000003 cycles: 38426320 heartbeat IPC: 1.40645 cumulative IPC: 1.42022 (Simulation time: 0 hr 19 min 14 sec) 
select_counter is 712
Heartbeat CPU 0 instructions: 59000000 cycles: 39127321 heartbeat IPC: 1.42653 cumulative IPC: 1.42035 (Simulation time: 0 hr 19 min 35 sec) 
select_counter is 568
Heartbeat CPU 0 instructions: 60000000 cycles: 39842112 heartbeat IPC: 1.39901 cumulative IPC: 1.41992 (Simulation time: 0 hr 19 min 55 sec) 
select_counter is 429
Heartbeat CPU 0 instructions: 61000000 cycles: 40541591 heartbeat IPC: 1.42964 cumulative IPC: 1.42011 (Simulation time: 0 hr 20 min 16 sec) 
select_counter is 307
Heartbeat CPU 0 instructions: 62000001 cycles: 41252225 heartbeat IPC: 1.4072 cumulative IPC: 1.41985 (Simulation time: 0 hr 20 min 40 sec) 
select_counter is 98
Heartbeat CPU 0 instructions: 63000001 cycles: 41948518 heartbeat IPC: 1.43618 cumulative IPC: 1.42016 (Simulation time: 0 hr 21 min 6 sec) 
select_counter is 861
Heartbeat CPU 0 instructions: 64000000 cycles: 42661393 heartbeat IPC: 1.40277 cumulative IPC: 1.41983 (Simulation time: 0 hr 21 min 26 sec) 
select_counter is 584
Heartbeat CPU 0 instructions: 65000003 cycles: 43358209 heartbeat IPC: 1.4351 cumulative IPC: 1.42011 (Simulation time: 0 hr 21 min 46 sec) 
select_counter is 385
Heartbeat CPU 0 instructions: 66000003 cycles: 44069663 heartbeat IPC: 1.40557 cumulative IPC: 1.41985 (Simulation time: 0 hr 22 min 5 sec) 
select_counter is 70
Heartbeat CPU 0 instructions: 67000000 cycles: 44766033 heartbeat IPC: 1.43601 cumulative IPC: 1.42013 (Simulation time: 0 hr 22 min 25 sec) 
select_counter is 854
Heartbeat CPU 0 instructions: 68000000 cycles: 45472903 heartbeat IPC: 1.41469 cumulative IPC: 1.42003 (Simulation time: 0 hr 22 min 45 sec) 
select_counter is 568
Heartbeat CPU 0 instructions: 69000000 cycles: 46172931 heartbeat IPC: 1.42851 cumulative IPC: 1.42018 (Simulation time: 0 hr 23 min 6 sec) 
select_counter is 337
Heartbeat CPU 0 instructions: 70000003 cycles: 46867443 heartbeat IPC: 1.43986 cumulative IPC: 1.4205 (Simulation time: 0 hr 23 min 30 sec) 
select_counter is 111
Heartbeat CPU 0 instructions: 71000003 cycles: 47576351 heartbeat IPC: 1.41062 cumulative IPC: 1.42034 (Simulation time: 0 hr 23 min 51 sec) 
select_counter is 846
Heartbeat CPU 0 instructions: 72000000 cycles: 48273343 heartbeat IPC: 1.43473 cumulative IPC: 1.42057 (Simulation time: 0 hr 24 min 12 sec) 
select_counter is 618
Heartbeat CPU 0 instructions: 73000002 cycles: 48983724 heartbeat IPC: 1.4077 cumulative IPC: 1.42036 (Simulation time: 0 hr 24 min 32 sec) 
select_counter is 311
Heartbeat CPU 0 instructions: 74000003 cycles: 49679656 heartbeat IPC: 1.43692 cumulative IPC: 1.42062 (Simulation time: 0 hr 24 min 52 sec) 
select_counter is 67
Heartbeat CPU 0 instructions: 75000003 cycles: 50387311 heartbeat IPC: 1.41312 cumulative IPC: 1.4205 (Simulation time: 0 hr 25 min 13 sec) 
select_counter is 828
Heartbeat CPU 0 instructions: 76000000 cycles: 51082466 heartbeat IPC: 1.43852 cumulative IPC: 1.42077 (Simulation time: 0 hr 25 min 33 sec) 
select_counter is 552
Heartbeat CPU 0 instructions: 77000000 cycles: 51801275 heartbeat IPC: 1.39119 cumulative IPC: 1.42032 (Simulation time: 0 hr 25 min 55 sec) 
select_counter is 277
Heartbeat CPU 0 instructions: 78000002 cycles: 52500746 heartbeat IPC: 1.42965 cumulative IPC: 1.42046 (Simulation time: 0 hr 26 min 15 sec) 
select_counter is 22
Heartbeat CPU 0 instructions: 79000000 cycles: 53207932 heartbeat IPC: 1.41405 cumulative IPC: 1.42036 (Simulation time: 0 hr 26 min 34 sec) 
select_counter is 786
Heartbeat CPU 0 instructions: 80000000 cycles: 53902160 heartbeat IPC: 1.44045 cumulative IPC: 1.42064 (Simulation time: 0 hr 26 min 54 sec) 
select_counter is 516
Heartbeat CPU 0 instructions: 81000003 cycles: 54615795 heartbeat IPC: 1.40128 cumulative IPC: 1.42037 (Simulation time: 0 hr 27 min 14 sec) 
select_counter is 259
Heartbeat CPU 0 instructions: 82000000 cycles: 55316224 heartbeat IPC: 1.42769 cumulative IPC: 1.42047 (Simulation time: 0 hr 27 min 34 sec) 
select_counter is 47
Heartbeat CPU 0 instructions: 83000002 cycles: 56010763 heartbeat IPC: 1.43981 cumulative IPC: 1.42073 (Simulation time: 0 hr 27 min 54 sec) 
select_counter is 821
Heartbeat CPU 0 instructions: 84000000 cycles: 56718368 heartbeat IPC: 1.41322 cumulative IPC: 1.42063 (Simulation time: 0 hr 28 min 14 sec) 
select_counter is 513
Heartbeat CPU 0 instructions: 85000001 cycles: 57414010 heartbeat IPC: 1.43752 cumulative IPC: 1.42085 (Simulation time: 0 hr 28 min 33 sec) 
select_counter is 281
Heartbeat CPU 0 instructions: 86000001 cycles: 58126644 heartbeat IPC: 1.40324 cumulative IPC: 1.42062 (Simulation time: 0 hr 28 min 53 sec) 
select_counter is 8
Heartbeat CPU 0 instructions: 87000001 cycles: 58825881 heartbeat IPC: 1.43013 cumulative IPC: 1.42074 (Simulation time: 0 hr 29 min 13 sec) 
select_counter is 819
Heartbeat CPU 0 instructions: 88000000 cycles: 59535346 heartbeat IPC: 1.40951 cumulative IPC: 1.42059 (Simulation time: 0 hr 29 min 34 sec) 
select_counter is 512
Heartbeat CPU 0 instructions: 89000003 cycles: 60233717 heartbeat IPC: 1.43191 cumulative IPC: 1.42074 (Simulation time: 0 hr 29 min 54 sec) 
select_counter is 227
Heartbeat CPU 0 instructions: 90000001 cycles: 60943154 heartbeat IPC: 1.40957 cumulative IPC: 1.4206 (Simulation time: 0 hr 30 min 14 sec) 
select_counter is 1020
Heartbeat CPU 0 instructions: 91000003 cycles: 61643772 heartbeat IPC: 1.42731 cumulative IPC: 1.42068 (Simulation time: 0 hr 30 min 35 sec) 
select_counter is 752
Heartbeat CPU 0 instructions: 92000000 cycles: 62356145 heartbeat IPC: 1.40375 cumulative IPC: 1.42047 (Simulation time: 0 hr 30 min 56 sec) 
select_counter is 477
Heartbeat CPU 0 instructions: 93000001 cycles: 63055238 heartbeat IPC: 1.43043 cumulative IPC: 1.42059 (Simulation time: 0 hr 31 min 16 sec) 
select_counter is 206
Heartbeat CPU 0 instructions: 94000003 cycles: 63765230 heartbeat IPC: 1.40847 cumulative IPC: 1.42044 (Simulation time: 0 hr 31 min 36 sec) 
select_counter is 1004
Heartbeat CPU 0 instructions: 95000003 cycles: 64470379 heartbeat IPC: 1.41814 cumulative IPC: 1.42042 (Simulation time: 0 hr 31 min 57 sec) 
select_counter is 721
Heartbeat CPU 0 instructions: 96000000 cycles: 65180643 heartbeat IPC: 1.40792 cumulative IPC: 1.42027 (Simulation time: 0 hr 32 min 18 sec) 
select_counter is 440
Heartbeat CPU 0 instructions: 97000000 cycles: 65889584 heartbeat IPC: 1.41055 cumulative IPC: 1.42016 (Simulation time: 0 hr 32 min 38 sec) 
select_counter is 163
Heartbeat CPU 0 instructions: 98000001 cycles: 66583655 heartbeat IPC: 1.44078 cumulative IPC: 1.42039 (Simulation time: 0 hr 32 min 58 sec) 
select_counter is 943
Heartbeat CPU 0 instructions: 99000001 cycles: 67304818 heartbeat IPC: 1.38665 cumulative IPC: 1.42 (Simulation time: 0 hr 33 min 18 sec) 
select_counter is 690
Heartbeat CPU 0 instructions: 100000000 cycles: 68012448 heartbeat IPC: 1.41317 cumulative IPC: 1.41992 (Simulation time: 0 hr 33 min 37 sec) 
select_counter is 416
Heartbeat CPU 0 instructions: 101000002 cycles: 68735154 heartbeat IPC: 1.38369 cumulative IPC: 1.41952 (Simulation time: 0 hr 33 min 58 sec) 
select_counter is 146
Heartbeat CPU 0 instructions: 102000003 cycles: 69445669 heartbeat IPC: 1.40743 cumulative IPC: 1.41938 (Simulation time: 0 hr 34 min 17 sec) 
select_counter is 898
Heartbeat CPU 0 instructions: 103000001 cycles: 70181418 heartbeat IPC: 1.35916 cumulative IPC: 1.41871 (Simulation time: 0 hr 34 min 36 sec) 
select_counter is 631
Heartbeat CPU 0 instructions: 104000000 cycles: 70896466 heartbeat IPC: 1.39851 cumulative IPC: 1.41849 (Simulation time: 0 hr 34 min 57 sec) 
select_counter is 383
Heartbeat CPU 0 instructions: 105000003 cycles: 71622143 heartbeat IPC: 1.37803 cumulative IPC: 1.41805 (Simulation time: 0 hr 35 min 16 sec) 
select_counter is 99
Heartbeat CPU 0 instructions: 106000002 cycles: 72335775 heartbeat IPC: 1.40128 cumulative IPC: 1.41787 (Simulation time: 0 hr 35 min 33 sec) 
select_counter is 872
Heartbeat CPU 0 instructions: 107000000 cycles: 73054020 heartbeat IPC: 1.39228 cumulative IPC: 1.41761 (Simulation time: 0 hr 35 min 50 sec) 
select_counter is 614
Heartbeat CPU 0 instructions: 108000000 cycles: 73757522 heartbeat IPC: 1.42146 cumulative IPC: 1.41764 (Simulation time: 0 hr 36 min 8 sec) 
select_counter is 402
Heartbeat CPU 0 instructions: 109000002 cycles: 74454050 heartbeat IPC: 1.4357 cumulative IPC: 1.41782 (Simulation time: 0 hr 36 min 24 sec) 
select_counter is 141
Heartbeat CPU 0 instructions: 110000000 cycles: 75164408 heartbeat IPC: 1.40774 cumulative IPC: 1.41772 (Simulation time: 0 hr 36 min 40 sec) 
select_counter is 901
Finished CPU 0 instructions: 100000003 cycles: 70535646 cummulative IPC: 1.41772 (Simulation time: 0 hr 36 min 40 sec) 

ChampSim completed all CPUs

Region of Interest Statistics

CPU 0 cummulative IPC: 1.41772 instructions: 100000003 cycles: 70535646
LLC TOTAL     ACCESS:     832433  HIT:     108273  MISS:     724160
LLC LOAD      ACCESS:      26401  HIT:      11183  MISS:      15218
LLC RFO       ACCESS:     201440  HIT:       8045  MISS:     193395
LLC PREFETCH  ACCESS:     401631  HIT:      10331  MISS:     391300
LLC WRITEBACK ACCESS:     202961  HIT:      78714  MISS:     124247
Ship samples: 
5, 36, 65, 109, 131, 160, 194, 227, 269, 301, 328, 365, 392, 428, 460, 481, 521, 547, 583, 614, 654, 676, 707, 748, 778, 800, 833, 871, 906, 930, 963, 996, 1032, 1058, 1090, 1120, 1164, 1185, 1218, 1262, 1282, 1325, 1345, 1378, 1418, 1450, 1474, 1506, 1545, 1573, 1605, 1632, 1671, 1696, 1735, 1762, 1801, 1824, 1864, 1898, 1931, 1963, 1985, 2030, 
Lime duel samples: 
11, 27, 45, 59, 73, 80, 104, 114, 132, 151, 165, 188, 206, 220, 238, 242, 264, 282, 297, 312, 320, 341, 359, 371, 391, 412, 426, 438, 456, 466, 482, 507, 514, 530, 545, 563, 578, 597, 620, 626, 648, 670, 686, 689, 708, 730, 740, 761, 770, 786, 804, 819, 844, 862, 874, 891, 910, 920, 939, 951, 960, 986, 994, 1019, 1026, 1040, 1067, 1078, 1096, 1118, 1133, 1142, 1153, 1171, 1195, 1201, 1219, 1234, 1253, 1265, 1286, 1298, 1321, 1336, 1349, 1361, 1383, 1398, 1415, 1434, 1443, 1462, 1477, 1492, 1512, 1528, 1547, 1552, 1580, 1596, 1611, 1624, 1638, 1652, 1675, 1683, 1701, 1723, 1737, 1753, 1770, 1780, 1804, 1817, 1831, 1845, 1865, 1882, 1892, 1916, 1925, 1937, 1966, 1974, 1989, 2009, 2021, 2036, 
Lime samples: 
11, 104, 206, 297, 391, 482, 578, 686, 770, 874, 960, 1067, 1153, 1253, 1349, 1443, 1547, 1638, 1737, 1831, 1925, 
Insertion Distribution: 
	LOAD 1460 0 0 0 0 0 3572 3353 
	RFO 998 0 0 0 0 0 7579 91684 
	PREF 0 4919 0 0 0 0 16862 183769 
	WRITEBACK 0 0 0 0 0 0 0 77200 
Total Prefetch Downgrades: 2634
