
*** ChampSim Multicore Out-of-Order Simulator ***

Warmup Instructions: 10000000
Simulation Instructions: 100000000
Configuration: 2
Number of CPUs: 1
LLC sets: 2048
LLC ways: 16
Off-chip DRAM Channels: 1 Width: 64-bit Data Rate: 1600 MT/s

CPU 0 runs /datasets/cs240c-wi22-a00-public/data/Assignment2-gz/leslie3d_94B.trace.gz
CPU 0 L1D next line prefetcher
CPU 0 L2C IP-based stride prefetcher
Heartbeat CPU 0 instructions: 1000003 cycles: 597056 heartbeat IPC: 1.67489 cumulative IPC: 1.67489 (Simulation time: 0 hr 0 min 26 sec) 
select_counter is 494
Heartbeat CPU 0 instructions: 2000002 cycles: 1215949 heartbeat IPC: 1.61579 cumulative IPC: 1.64481 (Simulation time: 0 hr 0 min 57 sec) 
select_counter is 367
Heartbeat CPU 0 instructions: 3000002 cycles: 1867744 heartbeat IPC: 1.53422 cumulative IPC: 1.60622 (Simulation time: 0 hr 1 min 24 sec) 
select_counter is 689
Heartbeat CPU 0 instructions: 4000000 cycles: 2518996 heartbeat IPC: 1.5355 cumulative IPC: 1.58793 (Simulation time: 0 hr 1 min 50 sec) 
select_counter is 961
Heartbeat CPU 0 instructions: 5000002 cycles: 3083997 heartbeat IPC: 1.76991 cumulative IPC: 1.62127 (Simulation time: 0 hr 2 min 19 sec) 
select_counter is 117
Heartbeat CPU 0 instructions: 6000002 cycles: 3734678 heartbeat IPC: 1.53685 cumulative IPC: 1.60656 (Simulation time: 0 hr 2 min 44 sec) 
select_counter is 530
Heartbeat CPU 0 instructions: 7000000 cycles: 4385385 heartbeat IPC: 1.53679 cumulative IPC: 1.59621 (Simulation time: 0 hr 3 min 8 sec) 
select_counter is 956
Heartbeat CPU 0 instructions: 8000000 cycles: 4950388 heartbeat IPC: 1.7699 cumulative IPC: 1.61603 (Simulation time: 0 hr 3 min 31 sec) 
select_counter is 89
Heartbeat CPU 0 instructions: 9000000 cycles: 5601257 heartbeat IPC: 1.53641 cumulative IPC: 1.60678 (Simulation time: 0 hr 3 min 57 sec) 
select_counter is 484
Heartbeat CPU 0 instructions: 10000001 cycles: 6252467 heartbeat IPC: 1.5356 cumulative IPC: 1.59937 (Simulation time: 0 hr 4 min 22 sec) 
select_counter is 919

Warmup complete CPU 0 instructions: 10000001 cycles: 6252467 (Simulation time: 0 hr 4 min 22 sec) 

Heartbeat CPU 0 instructions: 11000000 cycles: 7460484 heartbeat IPC: 0.827802 cumulative IPC: 0.827802 (Simulation time: 0 hr 4 min 46 sec) 
select_counter is 270
Heartbeat CPU 0 instructions: 12000000 cycles: 9241264 heartbeat IPC: 0.561552 cumulative IPC: 0.669165 (Simulation time: 0 hr 5 min 12 sec) 
select_counter is 554
Heartbeat CPU 0 instructions: 13000000 cycles: 11091300 heartbeat IPC: 0.54053 cumulative IPC: 0.619984 (Simulation time: 0 hr 5 min 39 sec) 
select_counter is 669
Heartbeat CPU 0 instructions: 14000001 cycles: 13076941 heartbeat IPC: 0.503616 cumulative IPC: 0.586126 (Simulation time: 0 hr 6 min 12 sec) 
select_counter is 1016
Heartbeat CPU 0 instructions: 15000001 cycles: 14969883 heartbeat IPC: 0.528278 cumulative IPC: 0.573564 (Simulation time: 0 hr 6 min 40 sec) 
select_counter is 389
Heartbeat CPU 0 instructions: 16000000 cycles: 16954224 heartbeat IPC: 0.503945 cumulative IPC: 0.560656 (Simulation time: 0 hr 7 min 11 sec) 
select_counter is 25
Heartbeat CPU 0 instructions: 17000000 cycles: 18850153 heartbeat IPC: 0.527446 cumulative IPC: 0.555658 (Simulation time: 0 hr 7 min 38 sec) 
select_counter is 859
Heartbeat CPU 0 instructions: 18000002 cycles: 20809029 heartbeat IPC: 0.510498 cumulative IPC: 0.54958 (Simulation time: 0 hr 8 min 6 sec) 
select_counter is 672
Heartbeat CPU 0 instructions: 19000001 cycles: 22774329 heartbeat IPC: 0.508828 cumulative IPC: 0.544733 (Simulation time: 0 hr 8 min 35 sec) 
select_counter is 460
Heartbeat CPU 0 instructions: 20000000 cycles: 24752565 heartbeat IPC: 0.5055 cumulative IPC: 0.540538 (Simulation time: 0 hr 9 min 2 sec) 
select_counter is 273
Heartbeat CPU 0 instructions: 21000002 cycles: 26687501 heartbeat IPC: 0.516814 cumulative IPC: 0.538291 (Simulation time: 0 hr 9 min 29 sec) 
select_counter is 34
Heartbeat CPU 0 instructions: 22000002 cycles: 28965420 heartbeat IPC: 0.438997 cumulative IPC: 0.528333 (Simulation time: 0 hr 9 min 55 sec) 
select_counter is 351
Heartbeat CPU 0 instructions: 23000000 cycles: 31356538 heartbeat IPC: 0.418214 cumulative IPC: 0.517844 (Simulation time: 0 hr 10 min 23 sec) 
select_counter is 768
Heartbeat CPU 0 instructions: 24000000 cycles: 33731598 heartbeat IPC: 0.421042 cumulative IPC: 0.509477 (Simulation time: 0 hr 10 min 50 sec) 
select_counter is 156
Heartbeat CPU 0 instructions: 25000000 cycles: 36104284 heartbeat IPC: 0.421463 cumulative IPC: 0.502482 (Simulation time: 0 hr 11 min 18 sec) 
select_counter is 472
Heartbeat CPU 0 instructions: 26000002 cycles: 38372171 heartbeat IPC: 0.44094 cumulative IPC: 0.498137 (Simulation time: 0 hr 11 min 49 sec) 
select_counter is 708
Heartbeat CPU 0 instructions: 27000001 cycles: 40727137 heartbeat IPC: 0.424634 cumulative IPC: 0.493116 (Simulation time: 0 hr 12 min 21 sec) 
select_counter is 965
Heartbeat CPU 0 instructions: 28000000 cycles: 43071785 heartbeat IPC: 0.426503 cumulative IPC: 0.488874 (Simulation time: 0 hr 12 min 52 sec) 
select_counter is 238
Heartbeat CPU 0 instructions: 29000000 cycles: 45390509 heartbeat IPC: 0.431272 cumulative IPC: 0.485461 (Simulation time: 0 hr 13 min 24 sec) 
select_counter is 499
Heartbeat CPU 0 instructions: 30000000 cycles: 46806154 heartbeat IPC: 0.706392 cumulative IPC: 0.493173 (Simulation time: 0 hr 13 min 49 sec) 
select_counter is 790
Heartbeat CPU 0 instructions: 31000002 cycles: 48112519 heartbeat IPC: 0.765484 cumulative IPC: 0.501672 (Simulation time: 0 hr 14 min 14 sec) 
select_counter is 1018
Heartbeat CPU 0 instructions: 32000000 cycles: 49424180 heartbeat IPC: 0.762391 cumulative IPC: 0.509593 (Simulation time: 0 hr 14 min 39 sec) 
select_counter is 182
Heartbeat CPU 0 instructions: 33000001 cycles: 50704275 heartbeat IPC: 0.781193 cumulative IPC: 0.517414 (Simulation time: 0 hr 15 min 5 sec) 
select_counter is 448
Heartbeat CPU 0 instructions: 34000003 cycles: 52023946 heartbeat IPC: 0.757766 cumulative IPC: 0.524344 (Simulation time: 0 hr 15 min 30 sec) 
select_counter is 661
Heartbeat CPU 0 instructions: 35000001 cycles: 53324594 heartbeat IPC: 0.768846 cumulative IPC: 0.5311 (Simulation time: 0 hr 15 min 55 sec) 
select_counter is 893
Heartbeat CPU 0 instructions: 36000000 cycles: 54672701 heartbeat IPC: 0.74178 cumulative IPC: 0.536966 (Simulation time: 0 hr 16 min 21 sec) 
select_counter is 119
Heartbeat CPU 0 instructions: 37000003 cycles: 55954467 heartbeat IPC: 0.780176 cumulative IPC: 0.543238 (Simulation time: 0 hr 16 min 47 sec) 
select_counter is 384
Heartbeat CPU 0 instructions: 38000000 cycles: 57245756 heartbeat IPC: 0.774418 cumulative IPC: 0.549092 (Simulation time: 0 hr 17 min 12 sec) 
select_counter is 673
Heartbeat CPU 0 instructions: 39000002 cycles: 58558227 heartbeat IPC: 0.761923 cumulative IPC: 0.554432 (Simulation time: 0 hr 17 min 37 sec) 
select_counter is 886
Heartbeat CPU 0 instructions: 40000000 cycles: 59830680 heartbeat IPC: 0.785882 cumulative IPC: 0.559929 (Simulation time: 0 hr 18 min 3 sec) 
select_counter is 37
Heartbeat CPU 0 instructions: 41000002 cycles: 61158736 heartbeat IPC: 0.752982 cumulative IPC: 0.564599 (Simulation time: 0 hr 18 min 29 sec) 
select_counter is 273
Heartbeat CPU 0 instructions: 42000002 cycles: 62443179 heartbeat IPC: 0.778548 cumulative IPC: 0.569489 (Simulation time: 0 hr 18 min 55 sec) 
select_counter is 551
Heartbeat CPU 0 instructions: 43000002 cycles: 63780534 heartbeat IPC: 0.747745 cumulative IPC: 0.573633 (Simulation time: 0 hr 19 min 20 sec) 
select_counter is 837
Heartbeat CPU 0 instructions: 44000000 cycles: 65071428 heartbeat IPC: 0.774655 cumulative IPC: 0.578045 (Simulation time: 0 hr 19 min 46 sec) 
select_counter is 7
Heartbeat CPU 0 instructions: 45000003 cycles: 66383571 heartbeat IPC: 0.762114 cumulative IPC: 0.582062 (Simulation time: 0 hr 20 min 12 sec) 
select_counter is 242
Heartbeat CPU 0 instructions: 46000001 cycles: 67708768 heartbeat IPC: 0.754603 cumulative IPC: 0.585782 (Simulation time: 0 hr 20 min 39 sec) 
select_counter is 423
Heartbeat CPU 0 instructions: 47000000 cycles: 68990792 heartbeat IPC: 0.780016 cumulative IPC: 0.589751 (Simulation time: 0 hr 21 min 3 sec) 
select_counter is 653
Heartbeat CPU 0 instructions: 48000000 cycles: 70335889 heartbeat IPC: 0.743441 cumulative IPC: 0.592977 (Simulation time: 0 hr 21 min 29 sec) 
select_counter is 874
Heartbeat CPU 0 instructions: 49000001 cycles: 71625445 heartbeat IPC: 0.775461 cumulative IPC: 0.596577 (Simulation time: 0 hr 21 min 55 sec) 
select_counter is 62
Heartbeat CPU 0 instructions: 50000001 cycles: 72936925 heartbeat IPC: 0.762497 cumulative IPC: 0.59984 (Simulation time: 0 hr 22 min 20 sec) 
select_counter is 228
Heartbeat CPU 0 instructions: 51000003 cycles: 74222394 heartbeat IPC: 0.777928 cumulative IPC: 0.603208 (Simulation time: 0 hr 22 min 45 sec) 
select_counter is 417
Heartbeat CPU 0 instructions: 52000000 cycles: 75500647 heartbeat IPC: 0.782315 cumulative IPC: 0.606514 (Simulation time: 0 hr 23 min 11 sec) 
select_counter is 630
Heartbeat CPU 0 instructions: 53000002 cycles: 76840653 heartbeat IPC: 0.746267 cumulative IPC: 0.609167 (Simulation time: 0 hr 23 min 37 sec) 
select_counter is 877
Heartbeat CPU 0 instructions: 54000001 cycles: 78128975 heartbeat IPC: 0.776203 cumulative IPC: 0.612161 (Simulation time: 0 hr 24 min 3 sec) 
select_counter is 106
Heartbeat CPU 0 instructions: 55000000 cycles: 79454867 heartbeat IPC: 0.754209 cumulative IPC: 0.614734 (Simulation time: 0 hr 24 min 28 sec) 
select_counter is 318
Heartbeat CPU 0 instructions: 56000000 cycles: 80759314 heartbeat IPC: 0.766608 cumulative IPC: 0.617393 (Simulation time: 0 hr 24 min 54 sec) 
select_counter is 560
Heartbeat CPU 0 instructions: 57000000 cycles: 82083287 heartbeat IPC: 0.755302 cumulative IPC: 0.619801 (Simulation time: 0 hr 25 min 19 sec) 
select_counter is 793
Heartbeat CPU 0 instructions: 58000001 cycles: 83394041 heartbeat IPC: 0.76292 cumulative IPC: 0.622233 (Simulation time: 0 hr 25 min 45 sec) 
select_counter is 26
Heartbeat CPU 0 instructions: 59000003 cycles: 84672190 heartbeat IPC: 0.782383 cumulative IPC: 0.624843 (Simulation time: 0 hr 26 min 12 sec) 
select_counter is 311
Heartbeat CPU 0 instructions: 60000000 cycles: 85989002 heartbeat IPC: 0.759408 cumulative IPC: 0.627065 (Simulation time: 0 hr 26 min 37 sec) 
select_counter is 528
Heartbeat CPU 0 instructions: 61000001 cycles: 87288250 heartbeat IPC: 0.769677 cumulative IPC: 0.629352 (Simulation time: 0 hr 27 min 3 sec) 
select_counter is 745
Heartbeat CPU 0 instructions: 62000002 cycles: 88608468 heartbeat IPC: 0.757451 cumulative IPC: 0.631405 (Simulation time: 0 hr 27 min 29 sec) 
select_counter is 11
Heartbeat CPU 0 instructions: 63000000 cycles: 89912818 heartbeat IPC: 0.766664 cumulative IPC: 0.633514 (Simulation time: 0 hr 27 min 55 sec) 
select_counter is 304
Heartbeat CPU 0 instructions: 64000000 cycles: 91228847 heartbeat IPC: 0.759862 cumulative IPC: 0.635471 (Simulation time: 0 hr 28 min 20 sec) 
select_counter is 549
Heartbeat CPU 0 instructions: 65000000 cycles: 92552546 heartbeat IPC: 0.755459 cumulative IPC: 0.637311 (Simulation time: 0 hr 28 min 45 sec) 
select_counter is 741
Heartbeat CPU 0 instructions: 66000000 cycles: 93875235 heartbeat IPC: 0.756036 cumulative IPC: 0.639103 (Simulation time: 0 hr 29 min 10 sec) 
select_counter is 958
Heartbeat CPU 0 instructions: 67000003 cycles: 95186527 heartbeat IPC: 0.762609 cumulative IPC: 0.640924 (Simulation time: 0 hr 29 min 36 sec) 
select_counter is 149
Heartbeat CPU 0 instructions: 68000000 cycles: 96489656 heartbeat IPC: 0.767381 cumulative IPC: 0.642751 (Simulation time: 0 hr 30 min 2 sec) 
select_counter is 412
Heartbeat CPU 0 instructions: 69000000 cycles: 97795785 heartbeat IPC: 0.765621 cumulative IPC: 0.644504 (Simulation time: 0 hr 30 min 34 sec) 
select_counter is 638
Heartbeat CPU 0 instructions: 70000001 cycles: 99092418 heartbeat IPC: 0.771229 cumulative IPC: 0.646273 (Simulation time: 0 hr 31 min 2 sec) 
select_counter is 853
Heartbeat CPU 0 instructions: 71000002 cycles: 100427594 heartbeat IPC: 0.748966 cumulative IPC: 0.647729 (Simulation time: 0 hr 31 min 30 sec) 
select_counter is 106
Heartbeat CPU 0 instructions: 72000000 cycles: 101718397 heartbeat IPC: 0.77471 cumulative IPC: 0.649446 (Simulation time: 0 hr 31 min 56 sec) 
select_counter is 338
Heartbeat CPU 0 instructions: 73000000 cycles: 103021993 heartbeat IPC: 0.767109 cumulative IPC: 0.651031 (Simulation time: 0 hr 32 min 21 sec) 
select_counter is 595
Heartbeat CPU 0 instructions: 74000000 cycles: 104319971 heartbeat IPC: 0.770429 cumulative IPC: 0.652612 (Simulation time: 0 hr 32 min 48 sec) 
select_counter is 773
Heartbeat CPU 0 instructions: 75000002 cycles: 105616659 heartbeat IPC: 0.771197 cumulative IPC: 0.654159 (Simulation time: 0 hr 33 min 18 sec) 
select_counter is 979
Heartbeat CPU 0 instructions: 76000000 cycles: 106941813 heartbeat IPC: 0.754628 cumulative IPC: 0.655481 (Simulation time: 0 hr 33 min 43 sec) 
select_counter is 190
Heartbeat CPU 0 instructions: 77000000 cycles: 108225064 heartbeat IPC: 0.779271 cumulative IPC: 0.657039 (Simulation time: 0 hr 34 min 8 sec) 
select_counter is 396
Heartbeat CPU 0 instructions: 78000003 cycles: 109568463 heartbeat IPC: 0.744383 cumulative IPC: 0.658175 (Simulation time: 0 hr 34 min 33 sec) 
select_counter is 632
Heartbeat CPU 0 instructions: 79000000 cycles: 111039320 heartbeat IPC: 0.679874 cumulative IPC: 0.65848 (Simulation time: 0 hr 34 min 57 sec) 
select_counter is 587
Heartbeat CPU 0 instructions: 80000000 cycles: 112661006 heartbeat IPC: 0.616642 cumulative IPC: 0.657842 (Simulation time: 0 hr 35 min 21 sec) 
select_counter is 575
Heartbeat CPU 0 instructions: 81000002 cycles: 114260685 heartbeat IPC: 0.625127 cumulative IPC: 0.657357 (Simulation time: 0 hr 35 min 42 sec) 
select_counter is 534
Heartbeat CPU 0 instructions: 82000003 cycles: 115917894 heartbeat IPC: 0.603425 cumulative IPC: 0.656542 (Simulation time: 0 hr 36 min 5 sec) 
select_counter is 492
Heartbeat CPU 0 instructions: 83000003 cycles: 117587689 heartbeat IPC: 0.598876 cumulative IPC: 0.655677 (Simulation time: 0 hr 36 min 28 sec) 
select_counter is 458
Heartbeat CPU 0 instructions: 84000000 cycles: 119210098 heartbeat IPC: 0.616366 cumulative IPC: 0.655113 (Simulation time: 0 hr 36 min 48 sec) 
select_counter is 432
Heartbeat CPU 0 instructions: 85000001 cycles: 120860156 heartbeat IPC: 0.60604 cumulative IPC: 0.654406 (Simulation time: 0 hr 37 min 7 sec) 
select_counter is 404
Heartbeat CPU 0 instructions: 86000002 cycles: 122484005 heartbeat IPC: 0.615821 cumulative IPC: 0.653867 (Simulation time: 0 hr 37 min 29 sec) 
select_counter is 373
Heartbeat CPU 0 instructions: 87000000 cycles: 124126997 heartbeat IPC: 0.608644 cumulative IPC: 0.653237 (Simulation time: 0 hr 37 min 50 sec) 
select_counter is 384
Heartbeat CPU 0 instructions: 88000000 cycles: 125793062 heartbeat IPC: 0.600217 cumulative IPC: 0.652498 (Simulation time: 0 hr 38 min 7 sec) 
select_counter is 204
Heartbeat CPU 0 instructions: 89000002 cycles: 127422210 heartbeat IPC: 0.613819 cumulative IPC: 0.651978 (Simulation time: 0 hr 38 min 25 sec) 
select_counter is 910
Heartbeat CPU 0 instructions: 90000001 cycles: 129057218 heartbeat IPC: 0.611617 cumulative IPC: 0.651441 (Simulation time: 0 hr 38 min 43 sec) 
select_counter is 545
Heartbeat CPU 0 instructions: 91000003 cycles: 130703953 heartbeat IPC: 0.607263 cumulative IPC: 0.650856 (Simulation time: 0 hr 38 min 59 sec) 
select_counter is 136
Heartbeat CPU 0 instructions: 92000000 cycles: 132347224 heartbeat IPC: 0.608541 cumulative IPC: 0.650305 (Simulation time: 0 hr 39 min 15 sec) 
select_counter is 703
Heartbeat CPU 0 instructions: 93000001 cycles: 134027286 heartbeat IPC: 0.595217 cumulative IPC: 0.64958 (Simulation time: 0 hr 39 min 29 sec) 
select_counter is 224
Heartbeat CPU 0 instructions: 94000003 cycles: 135676309 heartbeat IPC: 0.606421 cumulative IPC: 0.64903 (Simulation time: 0 hr 39 min 44 sec) 
select_counter is 769
Heartbeat CPU 0 instructions: 95000002 cycles: 137389349 heartbeat IPC: 0.583757 cumulative IPC: 0.648178 (Simulation time: 0 hr 39 min 59 sec) 
select_counter is 266
Heartbeat CPU 0 instructions: 96000000 cycles: 139034940 heartbeat IPC: 0.607683 cumulative IPC: 0.647676 (Simulation time: 0 hr 40 min 12 sec) 
select_counter is 824
Heartbeat CPU 0 instructions: 97000003 cycles: 141071222 heartbeat IPC: 0.491093 cumulative IPC: 0.645311 (Simulation time: 0 hr 40 min 27 sec) 
select_counter is 997
Heartbeat CPU 0 instructions: 98000002 cycles: 146677637 heartbeat IPC: 0.178367 cumulative IPC: 0.626668 (Simulation time: 0 hr 40 min 57 sec) 
select_counter is 775
Heartbeat CPU 0 instructions: 99000000 cycles: 149730608 heartbeat IPC: 0.327549 cumulative IPC: 0.620304 (Simulation time: 0 hr 41 min 20 sec) 
select_counter is 418
Heartbeat CPU 0 instructions: 100000000 cycles: 151313364 heartbeat IPC: 0.631809 cumulative IPC: 0.620429 (Simulation time: 0 hr 41 min 32 sec) 
select_counter is 439
Heartbeat CPU 0 instructions: 101000002 cycles: 152574779 heartbeat IPC: 0.792762 cumulative IPC: 0.621915 (Simulation time: 0 hr 41 min 42 sec) 
select_counter is 692
Heartbeat CPU 0 instructions: 102000003 cycles: 153993442 heartbeat IPC: 0.70489 cumulative IPC: 0.622711 (Simulation time: 0 hr 41 min 52 sec) 
select_counter is 13
Heartbeat CPU 0 instructions: 103000002 cycles: 155446407 heartbeat IPC: 0.688247 cumulative IPC: 0.62335 (Simulation time: 0 hr 42 min 3 sec) 
select_counter is 545
Heartbeat CPU 0 instructions: 104000000 cycles: 156943079 heartbeat IPC: 0.668148 cumulative IPC: 0.623795 (Simulation time: 0 hr 42 min 14 sec) 
select_counter is 1010
Heartbeat CPU 0 instructions: 105000001 cycles: 158485210 heartbeat IPC: 0.648454 cumulative IPC: 0.624044 (Simulation time: 0 hr 42 min 23 sec) 
select_counter is 468
Heartbeat CPU 0 instructions: 106000001 cycles: 160032625 heartbeat IPC: 0.646239 cumulative IPC: 0.624268 (Simulation time: 0 hr 42 min 33 sec) 
select_counter is 929
Heartbeat CPU 0 instructions: 107000001 cycles: 161569848 heartbeat IPC: 0.650524 cumulative IPC: 0.624528 (Simulation time: 0 hr 42 min 42 sec) 
select_counter is 366
Heartbeat CPU 0 instructions: 108000000 cycles: 163118300 heartbeat IPC: 0.645806 cumulative IPC: 0.624738 (Simulation time: 0 hr 42 min 52 sec) 
select_counter is 871
Heartbeat CPU 0 instructions: 109000001 cycles: 164638983 heartbeat IPC: 0.6576 cumulative IPC: 0.625053 (Simulation time: 0 hr 43 min 0 sec) 
select_counter is 313
Heartbeat CPU 0 instructions: 110000001 cycles: 166188528 heartbeat IPC: 0.645351 cumulative IPC: 0.62525 (Simulation time: 0 hr 43 min 9 sec) 
select_counter is 842
Finished CPU 0 instructions: 100000000 cycles: 159936061 cummulative IPC: 0.62525 (Simulation time: 0 hr 43 min 9 sec) 

ChampSim completed all CPUs

Region of Interest Statistics

CPU 0 cummulative IPC: 0.62525 instructions: 100000000 cycles: 159936061
LLC TOTAL     ACCESS:    4603553  HIT:    1047755  MISS:    3555798
LLC LOAD      ACCESS:     464841  HIT:      90899  MISS:     373942
LLC RFO       ACCESS:     743394  HIT:      93917  MISS:     649477
LLC PREFETCH  ACCESS:    2295420  HIT:     349438  MISS:    1945982
LLC WRITEBACK ACCESS:    1099898  HIT:     513501  MISS:     586397
Ship samples: 
5, 39, 74, 102, 136, 160, 194, 232, 260, 296, 324, 362, 387, 420, 458, 491, 526, 553, 583, 622, 648, 675, 715, 738, 769, 805, 845, 869, 899, 937, 962, 995, 1038, 1068, 1090, 1127, 1155, 1196, 1218, 1253, 1282, 1324, 1356, 1381, 1420, 1454, 1478, 1514, 1544, 1575, 1601, 1642, 1666, 1697, 1741, 1773, 1798, 1833, 1870, 1898, 1931, 1952, 1988, 2022, 
Lime duel samples: 
6, 19, 34, 51, 77, 80, 110, 113, 142, 155, 165, 183, 193, 217, 235, 249, 261, 276, 291, 315, 323, 346, 366, 380, 396, 411, 428, 446, 459, 470, 492, 498, 514, 535, 547, 567, 582, 603, 612, 636, 651, 664, 684, 688, 704, 724, 741, 763, 777, 798, 808, 818, 844, 856, 868, 883, 909, 921, 934, 956, 972, 976, 996, 1022, 1028, 1042, 1060, 1080, 1093, 1118, 1125, 1143, 1160, 1174, 1184, 1207, 1228, 1246, 1250, 1276, 1287, 1300, 1326, 1333, 1344, 1373, 1387, 1398, 1408, 1438, 1449, 1458, 1480, 1498, 1507, 1532, 1550, 1563, 1573, 1588, 1612, 1629, 1639, 1650, 1665, 1693, 1700, 1725, 1731, 1758, 1770, 1777, 1794, 1813, 1825, 1840, 1866, 1873, 1891, 1918, 1922, 1949, 1953, 1975, 1997, 2008, 2028, 2045, 
Lime samples: 
6, 110, 193, 291, 396, 492, 582, 684, 777, 868, 972, 1060, 1160, 1250, 1344, 1449, 1550, 1639, 1731, 1825, 1922, 
Insertion Distribution: 
	LOAD 20856 0 0 0 0 0 32848 130700 
	RFO 1952 0 0 0 0 0 25645 298909 
	PREF 0 42921 0 0 0 0 129505 856716 
	WRITEBACK 0 0 0 0 0 0 0 375316 
Total Prefetch Downgrades: 26955
