
*** ChampSim Multicore Out-of-Order Simulator ***

Warmup Instructions: 10000000
Simulation Instructions: 100000000
Configuration: 2
Number of CPUs: 1
LLC sets: 2048
LLC ways: 16
Off-chip DRAM Channels: 1 Width: 64-bit Data Rate: 1600 MT/s

CPU 0 runs /datasets/cs240c-wi22-a00-public/data/Assignment2-gz/bzip2_259B.trace.gz
CPU 0 L1D next line prefetcher
CPU 0 L2C IP-based stride prefetcher
Heartbeat CPU 0 instructions: 1000002 cycles: 428875 heartbeat IPC: 2.33169 cumulative IPC: 2.33169 (Simulation time: 0 hr 0 min 21 sec) 
select_counter is 477
Heartbeat CPU 0 instructions: 2000003 cycles: 861057 heartbeat IPC: 2.31384 cumulative IPC: 2.32273 (Simulation time: 0 hr 0 min 42 sec) 
select_counter is 438
Heartbeat CPU 0 instructions: 3000001 cycles: 1286790 heartbeat IPC: 2.34889 cumulative IPC: 2.33138 (Simulation time: 0 hr 1 min 1 sec) 
select_counter is 396
Heartbeat CPU 0 instructions: 4000000 cycles: 1685062 heartbeat IPC: 2.51084 cumulative IPC: 2.3738 (Simulation time: 0 hr 1 min 19 sec) 
select_counter is 267
Heartbeat CPU 0 instructions: 5000001 cycles: 2103495 heartbeat IPC: 2.38987 cumulative IPC: 2.377 (Simulation time: 0 hr 1 min 38 sec) 
select_counter is 215
Heartbeat CPU 0 instructions: 6000001 cycles: 2532858 heartbeat IPC: 2.32903 cumulative IPC: 2.36887 (Simulation time: 0 hr 1 min 58 sec) 
select_counter is 198
Heartbeat CPU 0 instructions: 7000003 cycles: 2961906 heartbeat IPC: 2.33075 cumulative IPC: 2.36334 (Simulation time: 0 hr 2 min 17 sec) 
select_counter is 184
Heartbeat CPU 0 instructions: 8000000 cycles: 3391719 heartbeat IPC: 2.32659 cumulative IPC: 2.35869 (Simulation time: 0 hr 2 min 39 sec) 
select_counter is 167
Heartbeat CPU 0 instructions: 9000000 cycles: 3819845 heartbeat IPC: 2.33576 cumulative IPC: 2.35612 (Simulation time: 0 hr 2 min 59 sec) 
select_counter is 153
Heartbeat CPU 0 instructions: 10000002 cycles: 4193917 heartbeat IPC: 2.67329 cumulative IPC: 2.38441 (Simulation time: 0 hr 3 min 15 sec) 
select_counter is 1010

Warmup complete CPU 0 instructions: 10000002 cycles: 4193917 (Simulation time: 0 hr 3 min 15 sec) 

Heartbeat CPU 0 instructions: 11000002 cycles: 5025983 heartbeat IPC: 1.20183 cumulative IPC: 1.20183 (Simulation time: 0 hr 3 min 39 sec) 
select_counter is 770
Heartbeat CPU 0 instructions: 12000000 cycles: 6123163 heartbeat IPC: 0.911426 cumulative IPC: 1.03667 (Simulation time: 0 hr 4 min 3 sec) 
select_counter is 140
Heartbeat CPU 0 instructions: 13000002 cycles: 7022312 heartbeat IPC: 1.11216 cumulative IPC: 1.06067 (Simulation time: 0 hr 4 min 26 sec) 
select_counter is 591
Heartbeat CPU 0 instructions: 14000003 cycles: 7988731 heartbeat IPC: 1.03475 cumulative IPC: 1.05407 (Simulation time: 0 hr 4 min 54 sec) 
select_counter is 930
Heartbeat CPU 0 instructions: 15000002 cycles: 9011837 heartbeat IPC: 0.977415 cumulative IPC: 1.03779 (Simulation time: 0 hr 5 min 25 sec) 
select_counter is 560
Heartbeat CPU 0 instructions: 16000000 cycles: 9979531 heartbeat IPC: 1.03338 cumulative IPC: 1.03705 (Simulation time: 0 hr 5 min 51 sec) 
select_counter is 259
Heartbeat CPU 0 instructions: 17000002 cycles: 11080636 heartbeat IPC: 0.90818 cumulative IPC: 1.01645 (Simulation time: 0 hr 6 min 16 sec) 
select_counter is 394
Heartbeat CPU 0 instructions: 18000001 cycles: 12182545 heartbeat IPC: 0.907515 cumulative IPC: 1.00142 (Simulation time: 0 hr 6 min 37 sec) 
select_counter is 287
Heartbeat CPU 0 instructions: 19000003 cycles: 13166052 heartbeat IPC: 1.01677 cumulative IPC: 1.00311 (Simulation time: 0 hr 6 min 59 sec) 
select_counter is 52
Heartbeat CPU 0 instructions: 20000000 cycles: 14172467 heartbeat IPC: 0.993623 cumulative IPC: 1.00215 (Simulation time: 0 hr 7 min 18 sec) 
select_counter is 866
Heartbeat CPU 0 instructions: 21000001 cycles: 15079285 heartbeat IPC: 1.10276 cumulative IPC: 1.01053 (Simulation time: 0 hr 7 min 37 sec) 
select_counter is 746
Heartbeat CPU 0 instructions: 22000001 cycles: 15987198 heartbeat IPC: 1.10143 cumulative IPC: 1.01753 (Simulation time: 0 hr 7 min 56 sec) 
select_counter is 626
Heartbeat CPU 0 instructions: 23000002 cycles: 16890755 heartbeat IPC: 1.10674 cumulative IPC: 1.02388 (Simulation time: 0 hr 8 min 15 sec) 
select_counter is 510
Heartbeat CPU 0 instructions: 24000000 cycles: 17795306 heartbeat IPC: 1.10552 cumulative IPC: 1.02931 (Simulation time: 0 hr 8 min 34 sec) 
select_counter is 370
Heartbeat CPU 0 instructions: 25000000 cycles: 18696950 heartbeat IPC: 1.10909 cumulative IPC: 1.03427 (Simulation time: 0 hr 8 min 53 sec) 
select_counter is 234
Heartbeat CPU 0 instructions: 26000000 cycles: 19640483 heartbeat IPC: 1.05985 cumulative IPC: 1.03583 (Simulation time: 0 hr 9 min 11 sec) 
select_counter is 9
Heartbeat CPU 0 instructions: 27000003 cycles: 20595708 heartbeat IPC: 1.04688 cumulative IPC: 1.03647 (Simulation time: 0 hr 9 min 31 sec) 
select_counter is 832
Heartbeat CPU 0 instructions: 28000000 cycles: 21520097 heartbeat IPC: 1.08179 cumulative IPC: 1.03889 (Simulation time: 0 hr 9 min 51 sec) 
select_counter is 672
Heartbeat CPU 0 instructions: 29000000 cycles: 22432394 heartbeat IPC: 1.09613 cumulative IPC: 1.04175 (Simulation time: 0 hr 10 min 10 sec) 
select_counter is 483
Heartbeat CPU 0 instructions: 30000001 cycles: 23408219 heartbeat IPC: 1.02477 cumulative IPC: 1.04089 (Simulation time: 0 hr 10 min 30 sec) 
select_counter is 306
Heartbeat CPU 0 instructions: 31000001 cycles: 24317671 heartbeat IPC: 1.09956 cumulative IPC: 1.04354 (Simulation time: 0 hr 10 min 49 sec) 
select_counter is 165
Heartbeat CPU 0 instructions: 32000000 cycles: 25213173 heartbeat IPC: 1.11669 cumulative IPC: 1.04666 (Simulation time: 0 hr 11 min 7 sec) 
select_counter is 76
Heartbeat CPU 0 instructions: 33000002 cycles: 26344526 heartbeat IPC: 0.883899 cumulative IPC: 1.03835 (Simulation time: 0 hr 11 min 27 sec) 
select_counter is 719
Heartbeat CPU 0 instructions: 34000003 cycles: 27626950 heartbeat IPC: 0.779774 cumulative IPC: 1.0242 (Simulation time: 0 hr 11 min 49 sec) 
select_counter is 224
Heartbeat CPU 0 instructions: 35000001 cycles: 28692600 heartbeat IPC: 0.938393 cumulative IPC: 1.02046 (Simulation time: 0 hr 12 min 10 sec) 
select_counter is 995
Heartbeat CPU 0 instructions: 36000000 cycles: 29866178 heartbeat IPC: 0.852094 cumulative IPC: 1.01277 (Simulation time: 0 hr 12 min 29 sec) 
select_counter is 907
Heartbeat CPU 0 instructions: 37000002 cycles: 30909192 heartbeat IPC: 0.958762 cumulative IPC: 1.01066 (Simulation time: 0 hr 12 min 47 sec) 
select_counter is 836
Heartbeat CPU 0 instructions: 38000003 cycles: 32024319 heartbeat IPC: 0.89676 cumulative IPC: 1.00609 (Simulation time: 0 hr 13 min 4 sec) 
select_counter is 810
Heartbeat CPU 0 instructions: 39000001 cycles: 33168292 heartbeat IPC: 0.874145 cumulative IPC: 1.00088 (Simulation time: 0 hr 13 min 22 sec) 
select_counter is 794
Heartbeat CPU 0 instructions: 40000000 cycles: 34237071 heartbeat IPC: 0.935646 cumulative IPC: 0.998564 (Simulation time: 0 hr 13 min 40 sec) 
select_counter is 766
Heartbeat CPU 0 instructions: 41000001 cycles: 35426522 heartbeat IPC: 0.840725 cumulative IPC: 0.992552 (Simulation time: 0 hr 13 min 58 sec) 
select_counter is 751
Heartbeat CPU 0 instructions: 42000000 cycles: 36634875 heartbeat IPC: 0.827572 cumulative IPC: 0.986407 (Simulation time: 0 hr 14 min 16 sec) 
select_counter is 737
Heartbeat CPU 0 instructions: 43000003 cycles: 37851385 heartbeat IPC: 0.822026 cumulative IPC: 0.980466 (Simulation time: 0 hr 14 min 34 sec) 
select_counter is 722
Heartbeat CPU 0 instructions: 44000000 cycles: 39063851 heartbeat IPC: 0.824763 cumulative IPC: 0.975052 (Simulation time: 0 hr 14 min 52 sec) 
select_counter is 698
Heartbeat CPU 0 instructions: 45000000 cycles: 40285593 heartbeat IPC: 0.818503 cumulative IPC: 0.969753 (Simulation time: 0 hr 15 min 9 sec) 
select_counter is 683
Heartbeat CPU 0 instructions: 46000002 cycles: 41524203 heartbeat IPC: 0.807358 cumulative IPC: 0.964364 (Simulation time: 0 hr 15 min 27 sec) 
select_counter is 669
Heartbeat CPU 0 instructions: 47000000 cycles: 42754295 heartbeat IPC: 0.812946 cumulative IPC: 0.959534 (Simulation time: 0 hr 15 min 46 sec) 
select_counter is 647
Heartbeat CPU 0 instructions: 48000000 cycles: 43992471 heartbeat IPC: 0.80764 cumulative IPC: 0.954809 (Simulation time: 0 hr 16 min 3 sec) 
select_counter is 627
Heartbeat CPU 0 instructions: 49000003 cycles: 45260556 heartbeat IPC: 0.788593 cumulative IPC: 0.949676 (Simulation time: 0 hr 16 min 21 sec) 
select_counter is 621
Heartbeat CPU 0 instructions: 50000001 cycles: 46299858 heartbeat IPC: 0.962182 cumulative IPC: 0.949985 (Simulation time: 0 hr 16 min 38 sec) 
select_counter is 595
Heartbeat CPU 0 instructions: 51000002 cycles: 47463446 heartbeat IPC: 0.859412 cumulative IPC: 0.947549 (Simulation time: 0 hr 16 min 57 sec) 
select_counter is 580
Heartbeat CPU 0 instructions: 52000000 cycles: 48581604 heartbeat IPC: 0.894326 cumulative IPC: 0.946208 (Simulation time: 0 hr 17 min 14 sec) 
select_counter is 573
Heartbeat CPU 0 instructions: 53000001 cycles: 49776564 heartbeat IPC: 0.836849 cumulative IPC: 0.943341 (Simulation time: 0 hr 17 min 33 sec) 
select_counter is 559
Heartbeat CPU 0 instructions: 54000000 cycles: 51001081 heartbeat IPC: 0.816648 cumulative IPC: 0.940027 (Simulation time: 0 hr 17 min 51 sec) 
select_counter is 543
Heartbeat CPU 0 instructions: 55000000 cycles: 52152872 heartbeat IPC: 0.868213 cumulative IPC: 0.938302 (Simulation time: 0 hr 18 min 9 sec) 
select_counter is 521
Heartbeat CPU 0 instructions: 56000000 cycles: 53377955 heartbeat IPC: 0.816271 cumulative IPC: 0.935263 (Simulation time: 0 hr 18 min 26 sec) 
select_counter is 498
Heartbeat CPU 0 instructions: 57000000 cycles: 54599012 heartbeat IPC: 0.818963 cumulative IPC: 0.932445 (Simulation time: 0 hr 18 min 43 sec) 
select_counter is 480
Heartbeat CPU 0 instructions: 58000002 cycles: 55631199 heartbeat IPC: 0.968819 cumulative IPC: 0.933175 (Simulation time: 0 hr 19 min 0 sec) 
select_counter is 373
Heartbeat CPU 0 instructions: 59000000 cycles: 56732606 heartbeat IPC: 0.907928 cumulative IPC: 0.932646 (Simulation time: 0 hr 19 min 18 sec) 
select_counter is 302
Heartbeat CPU 0 instructions: 60000000 cycles: 57913523 heartbeat IPC: 0.8468 cumulative IPC: 0.930759 (Simulation time: 0 hr 19 min 36 sec) 
select_counter is 271
Heartbeat CPU 0 instructions: 61000000 cycles: 59057674 heartbeat IPC: 0.874011 cumulative IPC: 0.929575 (Simulation time: 0 hr 19 min 54 sec) 
select_counter is 247
Heartbeat CPU 0 instructions: 62000002 cycles: 59902581 heartbeat IPC: 1.18356 cumulative IPC: 0.933428 (Simulation time: 0 hr 20 min 11 sec) 
select_counter is 1020
Heartbeat CPU 0 instructions: 63000003 cycles: 60798394 heartbeat IPC: 1.11631 cumulative IPC: 0.936322 (Simulation time: 0 hr 20 min 32 sec) 
select_counter is 689
Heartbeat CPU 0 instructions: 64000000 cycles: 61838077 heartbeat IPC: 0.961829 cumulative IPC: 0.936782 (Simulation time: 0 hr 20 min 54 sec) 
select_counter is 484
Heartbeat CPU 0 instructions: 65000003 cycles: 62816803 heartbeat IPC: 1.02174 cumulative IPC: 0.9382 (Simulation time: 0 hr 21 min 16 sec) 
select_counter is 369
Heartbeat CPU 0 instructions: 66000003 cycles: 63757418 heartbeat IPC: 1.06313 cumulative IPC: 0.940173 (Simulation time: 0 hr 21 min 38 sec) 
select_counter is 230
Heartbeat CPU 0 instructions: 67000003 cycles: 64801377 heartbeat IPC: 0.957892 cumulative IPC: 0.940478 (Simulation time: 0 hr 22 min 1 sec) 
select_counter is 140
Heartbeat CPU 0 instructions: 68000000 cycles: 65870600 heartbeat IPC: 0.935256 cumulative IPC: 0.940388 (Simulation time: 0 hr 22 min 25 sec) 
select_counter is 37
Heartbeat CPU 0 instructions: 69000003 cycles: 66984349 heartbeat IPC: 0.897871 cumulative IPC: 0.939634 (Simulation time: 0 hr 22 min 47 sec) 
select_counter is 989
Heartbeat CPU 0 instructions: 70000003 cycles: 68253344 heartbeat IPC: 0.788025 cumulative IPC: 0.93663 (Simulation time: 0 hr 23 min 10 sec) 
select_counter is 527
Heartbeat CPU 0 instructions: 71000000 cycles: 69712401 heartbeat IPC: 0.685372 cumulative IPC: 0.931035 (Simulation time: 0 hr 23 min 32 sec) 
select_counter is 49
Heartbeat CPU 0 instructions: 72000000 cycles: 70897548 heartbeat IPC: 0.843777 cumulative IPC: 0.929485 (Simulation time: 0 hr 23 min 52 sec) 
select_counter is 820
Heartbeat CPU 0 instructions: 73000003 cycles: 72224237 heartbeat IPC: 0.753758 cumulative IPC: 0.926058 (Simulation time: 0 hr 24 min 14 sec) 
select_counter is 440
Heartbeat CPU 0 instructions: 74000001 cycles: 73495832 heartbeat IPC: 0.786412 cumulative IPC: 0.923495 (Simulation time: 0 hr 24 min 36 sec) 
select_counter is 53
Heartbeat CPU 0 instructions: 75000000 cycles: 74660748 heartbeat IPC: 0.85843 cumulative IPC: 0.92242 (Simulation time: 0 hr 24 min 57 sec) 
select_counter is 763
Heartbeat CPU 0 instructions: 76000000 cycles: 75766428 heartbeat IPC: 0.904421 cumulative IPC: 0.922142 (Simulation time: 0 hr 25 min 18 sec) 
select_counter is 449
Heartbeat CPU 0 instructions: 77000003 cycles: 76739622 heartbeat IPC: 1.02755 cumulative IPC: 0.923556 (Simulation time: 0 hr 25 min 38 sec) 
select_counter is 289
Heartbeat CPU 0 instructions: 78000000 cycles: 77708195 heartbeat IPC: 1.03244 cumulative IPC: 0.92499 (Simulation time: 0 hr 25 min 59 sec) 
select_counter is 113
Heartbeat CPU 0 instructions: 79000003 cycles: 78769351 heartbeat IPC: 0.942371 cumulative IPC: 0.925238 (Simulation time: 0 hr 26 min 19 sec) 
select_counter is 903
Heartbeat CPU 0 instructions: 80000000 cycles: 79959975 heartbeat IPC: 0.839893 cumulative IPC: 0.923897 (Simulation time: 0 hr 26 min 41 sec) 
select_counter is 567
Heartbeat CPU 0 instructions: 81000001 cycles: 81109491 heartbeat IPC: 0.869932 cumulative IPC: 0.92309 (Simulation time: 0 hr 27 min 4 sec) 
select_counter is 268
Heartbeat CPU 0 instructions: 82000000 cycles: 82217760 heartbeat IPC: 0.902307 cumulative IPC: 0.922795 (Simulation time: 0 hr 27 min 25 sec) 
select_counter is 1001
Heartbeat CPU 0 instructions: 83000002 cycles: 83260763 heartbeat IPC: 0.958772 cumulative IPC: 0.923269 (Simulation time: 0 hr 27 min 46 sec) 
select_counter is 740
Heartbeat CPU 0 instructions: 84000000 cycles: 84203799 heartbeat IPC: 1.0604 cumulative IPC: 0.924886 (Simulation time: 0 hr 28 min 6 sec) 
select_counter is 582
Heartbeat CPU 0 instructions: 85000003 cycles: 85150379 heartbeat IPC: 1.05644 cumulative IPC: 0.926424 (Simulation time: 0 hr 28 min 25 sec) 
select_counter is 423
Heartbeat CPU 0 instructions: 86000003 cycles: 86199784 heartbeat IPC: 0.952921 cumulative IPC: 0.926763 (Simulation time: 0 hr 28 min 44 sec) 
select_counter is 204
Heartbeat CPU 0 instructions: 87000002 cycles: 87276091 heartbeat IPC: 0.929102 cumulative IPC: 0.926793 (Simulation time: 0 hr 29 min 4 sec) 
select_counter is 971
Heartbeat CPU 0 instructions: 88000000 cycles: 88383178 heartbeat IPC: 0.90327 cumulative IPC: 0.926484 (Simulation time: 0 hr 29 min 22 sec) 
select_counter is 857
Heartbeat CPU 0 instructions: 89000002 cycles: 89389546 heartbeat IPC: 0.993674 cumulative IPC: 0.927278 (Simulation time: 0 hr 29 min 40 sec) 
select_counter is 769
Heartbeat CPU 0 instructions: 90000001 cycles: 90513447 heartbeat IPC: 0.889757 cumulative IPC: 0.926789 (Simulation time: 0 hr 29 min 58 sec) 
select_counter is 761
Heartbeat CPU 0 instructions: 91000002 cycles: 91626284 heartbeat IPC: 0.898605 cumulative IPC: 0.92643 (Simulation time: 0 hr 30 min 15 sec) 
select_counter is 748
Heartbeat CPU 0 instructions: 92000000 cycles: 92665096 heartbeat IPC: 0.962636 cumulative IPC: 0.926856 (Simulation time: 0 hr 30 min 34 sec) 
select_counter is 675
Heartbeat CPU 0 instructions: 93000000 cycles: 93852874 heartbeat IPC: 0.841908 cumulative IPC: 0.92573 (Simulation time: 0 hr 30 min 52 sec) 
select_counter is 651
Heartbeat CPU 0 instructions: 94000003 cycles: 95029068 heartbeat IPC: 0.850202 cumulative IPC: 0.924752 (Simulation time: 0 hr 31 min 9 sec) 
select_counter is 630
Heartbeat CPU 0 instructions: 95000002 cycles: 96213858 heartbeat IPC: 0.844031 cumulative IPC: 0.923713 (Simulation time: 0 hr 31 min 27 sec) 
select_counter is 595
Heartbeat CPU 0 instructions: 96000000 cycles: 97383134 heartbeat IPC: 0.855228 cumulative IPC: 0.922854 (Simulation time: 0 hr 31 min 44 sec) 
select_counter is 561
Heartbeat CPU 0 instructions: 97000002 cycles: 98600057 heartbeat IPC: 0.821746 cumulative IPC: 0.92155 (Simulation time: 0 hr 32 min 2 sec) 
select_counter is 535
Heartbeat CPU 0 instructions: 98000000 cycles: 99831969 heartbeat IPC: 0.811745 cumulative IPC: 0.920136 (Simulation time: 0 hr 32 min 20 sec) 
select_counter is 497
Heartbeat CPU 0 instructions: 99000000 cycles: 101071310 heartbeat IPC: 0.80688 cumulative IPC: 0.918687 (Simulation time: 0 hr 32 min 39 sec) 
select_counter is 470
Heartbeat CPU 0 instructions: 100000000 cycles: 102313370 heartbeat IPC: 0.805114 cumulative IPC: 0.917249 (Simulation time: 0 hr 32 min 56 sec) 
select_counter is 460
Heartbeat CPU 0 instructions: 101000003 cycles: 103462160 heartbeat IPC: 0.870484 cumulative IPC: 0.916708 (Simulation time: 0 hr 33 min 13 sec) 
select_counter is 401
Heartbeat CPU 0 instructions: 102000000 cycles: 104582105 heartbeat IPC: 0.892898 cumulative IPC: 0.916442 (Simulation time: 0 hr 33 min 30 sec) 
select_counter is 382
Heartbeat CPU 0 instructions: 103000000 cycles: 105683462 heartbeat IPC: 0.907971 cumulative IPC: 0.916351 (Simulation time: 0 hr 33 min 46 sec) 
select_counter is 375
Heartbeat CPU 0 instructions: 104000000 cycles: 106837319 heartbeat IPC: 0.866659 cumulative IPC: 0.915792 (Simulation time: 0 hr 34 min 2 sec) 
select_counter is 364
Heartbeat CPU 0 instructions: 105000002 cycles: 108049624 heartbeat IPC: 0.824877 cumulative IPC: 0.914731 (Simulation time: 0 hr 34 min 19 sec) 
select_counter is 345
Heartbeat CPU 0 instructions: 106000001 cycles: 109183186 heartbeat IPC: 0.882174 cumulative IPC: 0.914379 (Simulation time: 0 hr 34 min 36 sec) 
select_counter is 326
Heartbeat CPU 0 instructions: 107000000 cycles: 110386430 heartbeat IPC: 0.831086 cumulative IPC: 0.913435 (Simulation time: 0 hr 34 min 53 sec) 
select_counter is 303
Heartbeat CPU 0 instructions: 108000000 cycles: 111585363 heartbeat IPC: 0.834075 cumulative IPC: 0.912549 (Simulation time: 0 hr 35 min 9 sec) 
select_counter is 281
Heartbeat CPU 0 instructions: 109000000 cycles: 112597711 heartbeat IPC: 0.987803 cumulative IPC: 0.913252 (Simulation time: 0 hr 35 min 24 sec) 
select_counter is 216
Heartbeat CPU 0 instructions: 110000000 cycles: 113760168 heartbeat IPC: 0.860247 cumulative IPC: 0.91269 (Simulation time: 0 hr 35 min 39 sec) 
select_counter is 188
Finished CPU 0 instructions: 100000002 cycles: 109566253 cummulative IPC: 0.91269 (Simulation time: 0 hr 35 min 39 sec) 

ChampSim completed all CPUs

Region of Interest Statistics

CPU 0 cummulative IPC: 0.91269 instructions: 100000002 cycles: 109566253
LLC TOTAL     ACCESS:    1373516  HIT:    1036475  MISS:     337041
LLC LOAD      ACCESS:     396199  HIT:     344219  MISS:      51980
LLC RFO       ACCESS:     104381  HIT:      38181  MISS:      66200
LLC PREFETCH  ACCESS:     675954  HIT:     506082  MISS:     169872
LLC WRITEBACK ACCESS:     196982  HIT:     147993  MISS:      48989
Ship samples: 
0, 36, 64, 98, 133, 167, 206, 237, 256, 289, 329, 352, 384, 425, 450, 488, 515, 552, 583, 609, 646, 673, 706, 742, 780, 801, 833, 874, 896, 931, 973, 999, 1036, 1056, 1096, 1125, 1163, 1187, 1216, 1256, 1289, 1313, 1349, 1378, 1408, 1450, 1485, 1515, 1536, 1574, 1614, 1644, 1667, 1704, 1741, 1766, 1793, 1837, 1866, 1895, 1923, 1954, 1991, 2019, 
Lime duel samples: 
10, 27, 40, 51, 72, 87, 97, 119, 136, 152, 166, 178, 192, 221, 227, 252, 266, 275, 294, 308, 320, 342, 360, 371, 385, 405, 426, 432, 448, 476, 494, 504, 523, 531, 548, 560, 585, 598, 622, 625, 648, 656, 679, 692, 714, 726, 738, 761, 778, 784, 812, 819, 840, 857, 866, 880, 904, 926, 936, 944, 972, 989, 996, 1013, 1035, 1045, 1061, 1079, 1089, 1117, 1130, 1141, 1157, 1171, 1184, 1210, 1217, 1243, 1255, 1268, 1285, 1307, 1323, 1330, 1350, 1367, 1386, 1401, 1420, 1438, 1442, 1464, 1478, 1489, 1506, 1532, 1544, 1556, 1569, 1591, 1603, 1627, 1641, 1660, 1676, 1686, 1702, 1716, 1739, 1750, 1768, 1784, 1794, 1818, 1825, 1841, 1860, 1874, 1888, 1916, 1933, 1949, 1966, 1969, 1992, 2003, 2021, 2046, 
Lime samples: 
10, 97, 192, 294, 385, 494, 585, 679, 778, 866, 972, 1061, 1157, 1255, 1350, 1442, 1544, 1641, 1739, 1825, 1933, 
Insertion Distribution: 
	LOAD 15751 0 0 0 0 0 8904 1140 
	RFO 3679 0 0 0 0 0 23595 16930 
	PREF 0 6541 0 0 0 0 27553 47442 
	WRITEBACK 0 0 0 0 0 0 0 19652 
Total Prefetch Downgrades: 17405
