
*** ChampSim Multicore Out-of-Order Simulator ***

Warmup Instructions: 10000000
Simulation Instructions: 100000000
Configuration: 2
Number of CPUs: 1
LLC sets: 2048
LLC ways: 16
Off-chip DRAM Channels: 1 Width: 64-bit Data Rate: 1600 MT/s

CPU 0 runs /datasets/cs240c-wi22-a00-public/data/Assignment2-gz/libquantum_964B.trace.gz
CPU 0 L1D next line prefetcher
CPU 0 L2C IP-based stride prefetcher
Heartbeat CPU 0 instructions: 1000002 cycles: 333341 heartbeat IPC: 2.99994 cumulative IPC: 2.99994 (Simulation time: 0 hr 0 min 12 sec) 
select_counter is 664
Heartbeat CPU 0 instructions: 2000001 cycles: 666674 heartbeat IPC: 3 cumulative IPC: 2.99997 (Simulation time: 0 hr 0 min 22 sec) 
select_counter is 820
Heartbeat CPU 0 instructions: 3000000 cycles: 1000007 heartbeat IPC: 3 cumulative IPC: 2.99998 (Simulation time: 0 hr 0 min 34 sec) 
select_counter is 975
Heartbeat CPU 0 instructions: 4000000 cycles: 1333341 heartbeat IPC: 2.99999 cumulative IPC: 2.99998 (Simulation time: 0 hr 0 min 46 sec) 
select_counter is 107
Heartbeat CPU 0 instructions: 5000000 cycles: 1666674 heartbeat IPC: 3 cumulative IPC: 2.99999 (Simulation time: 0 hr 0 min 58 sec) 
select_counter is 262
Heartbeat CPU 0 instructions: 6000002 cycles: 2000008 heartbeat IPC: 3 cumulative IPC: 2.99999 (Simulation time: 0 hr 1 min 9 sec) 
select_counter is 417
Heartbeat CPU 0 instructions: 7000001 cycles: 2331518 heartbeat IPC: 3.0165 cumulative IPC: 3.00234 (Simulation time: 0 hr 1 min 20 sec) 
select_counter is 521
Heartbeat CPU 0 instructions: 8000000 cycles: 2662240 heartbeat IPC: 3.02368 cumulative IPC: 3.00499 (Simulation time: 0 hr 1 min 31 sec) 
select_counter is 532
Heartbeat CPU 0 instructions: 9000001 cycles: 2992962 heartbeat IPC: 3.02369 cumulative IPC: 3.00705 (Simulation time: 0 hr 1 min 42 sec) 
select_counter is 555
Heartbeat CPU 0 instructions: 10000001 cycles: 3323684 heartbeat IPC: 3.02369 cumulative IPC: 3.00871 (Simulation time: 0 hr 1 min 54 sec) 
select_counter is 595

Warmup complete CPU 0 instructions: 10000001 cycles: 3323684 (Simulation time: 0 hr 1 min 54 sec) 

Heartbeat CPU 0 instructions: 11000000 cycles: 5048751 heartbeat IPC: 0.579687 cumulative IPC: 0.579687 (Simulation time: 0 hr 2 min 13 sec) 
select_counter is 676
Heartbeat CPU 0 instructions: 12000000 cycles: 6778010 heartbeat IPC: 0.578282 cumulative IPC: 0.578984 (Simulation time: 0 hr 2 min 33 sec) 
select_counter is 757
Heartbeat CPU 0 instructions: 13000001 cycles: 8504049 heartbeat IPC: 0.579362 cumulative IPC: 0.57911 (Simulation time: 0 hr 2 min 55 sec) 
select_counter is 838
Heartbeat CPU 0 instructions: 14000000 cycles: 10236225 heartbeat IPC: 0.577308 cumulative IPC: 0.578658 (Simulation time: 0 hr 3 min 15 sec) 
select_counter is 915
Heartbeat CPU 0 instructions: 15000003 cycles: 11974918 heartbeat IPC: 0.575146 cumulative IPC: 0.577952 (Simulation time: 0 hr 3 min 38 sec) 
select_counter is 1021
Heartbeat CPU 0 instructions: 16000000 cycles: 13703953 heartbeat IPC: 0.578356 cumulative IPC: 0.57802 (Simulation time: 0 hr 3 min 57 sec) 
select_counter is 76
Heartbeat CPU 0 instructions: 17000000 cycles: 15445540 heartbeat IPC: 0.574189 cumulative IPC: 0.577469 (Simulation time: 0 hr 4 min 16 sec) 
select_counter is 117
Heartbeat CPU 0 instructions: 18000003 cycles: 17174282 heartbeat IPC: 0.578457 cumulative IPC: 0.577593 (Simulation time: 0 hr 4 min 36 sec) 
select_counter is 211
Heartbeat CPU 0 instructions: 19000002 cycles: 18914018 heartbeat IPC: 0.574799 cumulative IPC: 0.577281 (Simulation time: 0 hr 4 min 56 sec) 
select_counter is 293
Heartbeat CPU 0 instructions: 20000000 cycles: 20621472 heartbeat IPC: 0.585666 cumulative IPC: 0.578109 (Simulation time: 0 hr 5 min 15 sec) 
select_counter is 917
Heartbeat CPU 0 instructions: 21000003 cycles: 22357273 heartbeat IPC: 0.576105 cumulative IPC: 0.577926 (Simulation time: 0 hr 5 min 33 sec) 
select_counter is 992
Heartbeat CPU 0 instructions: 22000002 cycles: 24101730 heartbeat IPC: 0.573244 cumulative IPC: 0.577533 (Simulation time: 0 hr 5 min 55 sec) 
select_counter is 70
Heartbeat CPU 0 instructions: 23000000 cycles: 25837490 heartbeat IPC: 0.576115 cumulative IPC: 0.577423 (Simulation time: 0 hr 6 min 14 sec) 
select_counter is 148
Heartbeat CPU 0 instructions: 24000000 cycles: 27585399 heartbeat IPC: 0.572112 cumulative IPC: 0.577041 (Simulation time: 0 hr 6 min 32 sec) 
select_counter is 244
Heartbeat CPU 0 instructions: 25000000 cycles: 29322096 heartbeat IPC: 0.575806 cumulative IPC: 0.576958 (Simulation time: 0 hr 6 min 52 sec) 
select_counter is 335
Heartbeat CPU 0 instructions: 26000002 cycles: 31335801 heartbeat IPC: 0.496598 cumulative IPC: 0.571181 (Simulation time: 0 hr 7 min 14 sec) 
select_counter is 698
Heartbeat CPU 0 instructions: 27000002 cycles: 33706752 heartbeat IPC: 0.421772 cumulative IPC: 0.559522 (Simulation time: 0 hr 7 min 39 sec) 
select_counter is 228
Heartbeat CPU 0 instructions: 28000000 cycles: 36191966 heartbeat IPC: 0.402379 cumulative IPC: 0.54764 (Simulation time: 0 hr 8 min 6 sec) 
select_counter is 626
Heartbeat CPU 0 instructions: 29000002 cycles: 38651261 heartbeat IPC: 0.406621 cumulative IPC: 0.537823 (Simulation time: 0 hr 8 min 31 sec) 
select_counter is 732
Heartbeat CPU 0 instructions: 30000002 cycles: 41127760 heartbeat IPC: 0.403796 cumulative IPC: 0.529043 (Simulation time: 0 hr 8 min 57 sec) 
select_counter is 289
Heartbeat CPU 0 instructions: 31000002 cycles: 43450969 heartbeat IPC: 0.430439 cumulative IPC: 0.523335 (Simulation time: 0 hr 9 min 23 sec) 
select_counter is 400
Heartbeat CPU 0 instructions: 32000000 cycles: 45769185 heartbeat IPC: 0.431365 cumulative IPC: 0.518312 (Simulation time: 0 hr 9 min 47 sec) 
select_counter is 333
Heartbeat CPU 0 instructions: 33000002 cycles: 48054161 heartbeat IPC: 0.437642 cumulative IPC: 0.514191 (Simulation time: 0 hr 10 min 13 sec) 
select_counter is 809
Heartbeat CPU 0 instructions: 34000002 cycles: 50378913 heartbeat IPC: 0.430153 cumulative IPC: 0.510039 (Simulation time: 0 hr 10 min 38 sec) 
select_counter is 889
Heartbeat CPU 0 instructions: 35000002 cycles: 52708637 heartbeat IPC: 0.429235 cumulative IPC: 0.506227 (Simulation time: 0 hr 11 min 3 sec) 
select_counter is 37
Heartbeat CPU 0 instructions: 36000000 cycles: 54969225 heartbeat IPC: 0.442362 cumulative IPC: 0.503432 (Simulation time: 0 hr 11 min 29 sec) 
select_counter is 348
Heartbeat CPU 0 instructions: 37000001 cycles: 56677365 heartbeat IPC: 0.585433 cumulative IPC: 0.506057 (Simulation time: 0 hr 11 min 51 sec) 
select_counter is 306
Heartbeat CPU 0 instructions: 38000000 cycles: 58171576 heartbeat IPC: 0.669249 cumulative IPC: 0.510503 (Simulation time: 0 hr 12 min 12 sec) 
select_counter is 482
Heartbeat CPU 0 instructions: 39000003 cycles: 59634928 heartbeat IPC: 0.683365 cumulative IPC: 0.514995 (Simulation time: 0 hr 12 min 32 sec) 
select_counter is 674
Heartbeat CPU 0 instructions: 40000000 cycles: 61096068 heartbeat IPC: 0.684395 cumulative IPC: 0.519279 (Simulation time: 0 hr 12 min 52 sec) 
select_counter is 845
Heartbeat CPU 0 instructions: 41000001 cycles: 62554916 heartbeat IPC: 0.685473 cumulative IPC: 0.523373 (Simulation time: 0 hr 13 min 13 sec) 
select_counter is 974
Heartbeat CPU 0 instructions: 42000000 cycles: 64013569 heartbeat IPC: 0.685563 cumulative IPC: 0.527271 (Simulation time: 0 hr 13 min 33 sec) 
select_counter is 48
Heartbeat CPU 0 instructions: 43000001 cycles: 65466796 heartbeat IPC: 0.688124 cumulative IPC: 0.531032 (Simulation time: 0 hr 13 min 53 sec) 
select_counter is 336
Heartbeat CPU 0 instructions: 44000000 cycles: 66904071 heartbeat IPC: 0.69576 cumulative IPC: 0.534756 (Simulation time: 0 hr 14 min 13 sec) 
select_counter is 1006
Heartbeat CPU 0 instructions: 45000002 cycles: 68371250 heartbeat IPC: 0.681581 cumulative IPC: 0.538068 (Simulation time: 0 hr 14 min 34 sec) 
select_counter is 296
Heartbeat CPU 0 instructions: 46000001 cycles: 69837859 heartbeat IPC: 0.681844 cumulative IPC: 0.541238 (Simulation time: 0 hr 14 min 55 sec) 
select_counter is 453
Heartbeat CPU 0 instructions: 47000000 cycles: 71305030 heartbeat IPC: 0.681583 cumulative IPC: 0.544267 (Simulation time: 0 hr 15 min 18 sec) 
select_counter is 608
Heartbeat CPU 0 instructions: 48000000 cycles: 72773097 heartbeat IPC: 0.681168 cumulative IPC: 0.547161 (Simulation time: 0 hr 15 min 40 sec) 
select_counter is 766
Heartbeat CPU 0 instructions: 49000002 cycles: 74247995 heartbeat IPC: 0.678014 cumulative IPC: 0.549882 (Simulation time: 0 hr 16 min 1 sec) 
select_counter is 889
Heartbeat CPU 0 instructions: 50000001 cycles: 75716936 heartbeat IPC: 0.680762 cumulative IPC: 0.552538 (Simulation time: 0 hr 16 min 21 sec) 
select_counter is 1020
Heartbeat CPU 0 instructions: 51000000 cycles: 77188775 heartbeat IPC: 0.679421 cumulative IPC: 0.555066 (Simulation time: 0 hr 16 min 41 sec) 
select_counter is 182
Heartbeat CPU 0 instructions: 52000000 cycles: 78663879 heartbeat IPC: 0.677918 cumulative IPC: 0.557471 (Simulation time: 0 hr 17 min 1 sec) 
select_counter is 388
Heartbeat CPU 0 instructions: 53000000 cycles: 80136667 heartbeat IPC: 0.678984 cumulative IPC: 0.559801 (Simulation time: 0 hr 17 min 22 sec) 
select_counter is 601
Heartbeat CPU 0 instructions: 54000002 cycles: 81609924 heartbeat IPC: 0.67877 cumulative IPC: 0.56204 (Simulation time: 0 hr 17 min 44 sec) 
select_counter is 808
Heartbeat CPU 0 instructions: 55000002 cycles: 83095796 heartbeat IPC: 0.673005 cumulative IPC: 0.564107 (Simulation time: 0 hr 18 min 5 sec) 
select_counter is 838
Heartbeat CPU 0 instructions: 56000000 cycles: 84855878 heartbeat IPC: 0.568154 cumulative IPC: 0.564194 (Simulation time: 0 hr 18 min 23 sec) 
select_counter is 538
Heartbeat CPU 0 instructions: 57000001 cycles: 86586480 heartbeat IPC: 0.577834 cumulative IPC: 0.564478 (Simulation time: 0 hr 18 min 42 sec) 
select_counter is 815
Heartbeat CPU 0 instructions: 58000000 cycles: 88323820 heartbeat IPC: 0.575592 cumulative IPC: 0.564705 (Simulation time: 0 hr 19 min 1 sec) 
select_counter is 87
Heartbeat CPU 0 instructions: 59000003 cycles: 90065676 heartbeat IPC: 0.574102 cumulative IPC: 0.564894 (Simulation time: 0 hr 19 min 20 sec) 
select_counter is 146
Heartbeat CPU 0 instructions: 60000000 cycles: 91805371 heartbeat IPC: 0.574812 cumulative IPC: 0.565089 (Simulation time: 0 hr 19 min 40 sec) 
select_counter is 241
Heartbeat CPU 0 instructions: 61000002 cycles: 93543225 heartbeat IPC: 0.575423 cumulative IPC: 0.565288 (Simulation time: 0 hr 19 min 59 sec) 
select_counter is 260
Heartbeat CPU 0 instructions: 62000001 cycles: 95281161 heartbeat IPC: 0.575395 cumulative IPC: 0.565479 (Simulation time: 0 hr 20 min 17 sec) 
select_counter is 449
Heartbeat CPU 0 instructions: 63000001 cycles: 96989241 heartbeat IPC: 0.585453 cumulative IPC: 0.565843 (Simulation time: 0 hr 20 min 35 sec) 
select_counter is 62
Heartbeat CPU 0 instructions: 64000000 cycles: 98732628 heartbeat IPC: 0.573596 cumulative IPC: 0.565985 (Simulation time: 0 hr 20 min 54 sec) 
select_counter is 209
Heartbeat CPU 0 instructions: 65000002 cycles: 100480945 heartbeat IPC: 0.57198 cumulative IPC: 0.566093 (Simulation time: 0 hr 21 min 12 sec) 
select_counter is 252
Heartbeat CPU 0 instructions: 66000002 cycles: 102230034 heartbeat IPC: 0.571726 cumulative IPC: 0.566192 (Simulation time: 0 hr 21 min 30 sec) 
select_counter is 291
Heartbeat CPU 0 instructions: 67000000 cycles: 103989952 heartbeat IPC: 0.568207 cumulative IPC: 0.566227 (Simulation time: 0 hr 21 min 49 sec) 
select_counter is 315
Heartbeat CPU 0 instructions: 68000000 cycles: 105755768 heartbeat IPC: 0.56631 cumulative IPC: 0.566229 (Simulation time: 0 hr 22 min 8 sec) 
select_counter is 364
Heartbeat CPU 0 instructions: 69000000 cycles: 107510585 heartbeat IPC: 0.56986 cumulative IPC: 0.56629 (Simulation time: 0 hr 22 min 26 sec) 
select_counter is 392
Heartbeat CPU 0 instructions: 70000002 cycles: 109271942 heartbeat IPC: 0.567745 cumulative IPC: 0.566314 (Simulation time: 0 hr 22 min 45 sec) 
select_counter is 491
Heartbeat CPU 0 instructions: 71000001 cycles: 111027697 heartbeat IPC: 0.569555 cumulative IPC: 0.566367 (Simulation time: 0 hr 23 min 4 sec) 
select_counter is 567
Heartbeat CPU 0 instructions: 72000000 cycles: 112785981 heartbeat IPC: 0.568736 cumulative IPC: 0.566405 (Simulation time: 0 hr 23 min 22 sec) 
select_counter is 639
Heartbeat CPU 0 instructions: 73000000 cycles: 114534370 heartbeat IPC: 0.571955 cumulative IPC: 0.566492 (Simulation time: 0 hr 23 min 41 sec) 
select_counter is 691
Heartbeat CPU 0 instructions: 74000000 cycles: 116358785 heartbeat IPC: 0.548121 cumulative IPC: 0.566196 (Simulation time: 0 hr 24 min 1 sec) 
select_counter is 606
Heartbeat CPU 0 instructions: 75000000 cycles: 118673244 heartbeat IPC: 0.432066 cumulative IPC: 0.563505 (Simulation time: 0 hr 24 min 26 sec) 
select_counter is 229
Heartbeat CPU 0 instructions: 76000000 cycles: 120994343 heartbeat IPC: 0.43083 cumulative IPC: 0.560887 (Simulation time: 0 hr 24 min 52 sec) 
select_counter is 197
Heartbeat CPU 0 instructions: 77000000 cycles: 123305347 heartbeat IPC: 0.432712 cumulative IPC: 0.558419 (Simulation time: 0 hr 25 min 16 sec) 
select_counter is 862
Heartbeat CPU 0 instructions: 78000000 cycles: 125622679 heartbeat IPC: 0.431531 cumulative IPC: 0.556014 (Simulation time: 0 hr 25 min 41 sec) 
select_counter is 827
Heartbeat CPU 0 instructions: 79000000 cycles: 127950854 heartbeat IPC: 0.429521 cumulative IPC: 0.553651 (Simulation time: 0 hr 26 min 6 sec) 
select_counter is 100
Heartbeat CPU 0 instructions: 80000000 cycles: 130273130 heartbeat IPC: 0.430612 cumulative IPC: 0.551401 (Simulation time: 0 hr 26 min 31 sec) 
select_counter is 175
Heartbeat CPU 0 instructions: 81000000 cycles: 132567225 heartbeat IPC: 0.435902 cumulative IPC: 0.54935 (Simulation time: 0 hr 26 min 59 sec) 
select_counter is 594
Heartbeat CPU 0 instructions: 82000000 cycles: 134880831 heartbeat IPC: 0.432226 cumulative IPC: 0.547291 (Simulation time: 0 hr 27 min 24 sec) 
select_counter is 235
Heartbeat CPU 0 instructions: 83000000 cycles: 137164752 heartbeat IPC: 0.437844 cumulative IPC: 0.545423 (Simulation time: 0 hr 27 min 50 sec) 
select_counter is 74
Heartbeat CPU 0 instructions: 84000000 cycles: 139459591 heartbeat IPC: 0.43576 cumulative IPC: 0.543574 (Simulation time: 0 hr 28 min 15 sec) 
select_counter is 312
Heartbeat CPU 0 instructions: 85000001 cycles: 141224724 heartbeat IPC: 0.56653 cumulative IPC: 0.543868 (Simulation time: 0 hr 28 min 38 sec) 
select_counter is 425
Heartbeat CPU 0 instructions: 86000000 cycles: 142772682 heartbeat IPC: 0.646012 cumulative IPC: 0.545002 (Simulation time: 0 hr 29 min 0 sec) 
select_counter is 601
Heartbeat CPU 0 instructions: 87000003 cycles: 144281052 heartbeat IPC: 0.662969 cumulative IPC: 0.546264 (Simulation time: 0 hr 29 min 21 sec) 
select_counter is 841
Heartbeat CPU 0 instructions: 88000000 cycles: 145790352 heartbeat IPC: 0.662557 cumulative IPC: 0.547496 (Simulation time: 0 hr 29 min 42 sec) 
select_counter is 988
Heartbeat CPU 0 instructions: 89000001 cycles: 147301651 heartbeat IPC: 0.661683 cumulative IPC: 0.548695 (Simulation time: 0 hr 30 min 5 sec) 
select_counter is 69
Heartbeat CPU 0 instructions: 90000000 cycles: 148812161 heartbeat IPC: 0.662027 cumulative IPC: 0.549872 (Simulation time: 0 hr 30 min 27 sec) 
select_counter is 130
Heartbeat CPU 0 instructions: 91000001 cycles: 150323060 heartbeat IPC: 0.661858 cumulative IPC: 0.551023 (Simulation time: 0 hr 30 min 51 sec) 
select_counter is 224
Heartbeat CPU 0 instructions: 92000000 cycles: 151824949 heartbeat IPC: 0.665828 cumulative IPC: 0.552184 (Simulation time: 0 hr 31 min 13 sec) 
select_counter is 460
Heartbeat CPU 0 instructions: 93000002 cycles: 153327548 heartbeat IPC: 0.665515 cumulative IPC: 0.553319 (Simulation time: 0 hr 31 min 33 sec) 
select_counter is 744
Heartbeat CPU 0 instructions: 94000001 cycles: 154837253 heartbeat IPC: 0.66238 cumulative IPC: 0.554406 (Simulation time: 0 hr 31 min 53 sec) 
select_counter is 924
Heartbeat CPU 0 instructions: 95000000 cycles: 156345546 heartbeat IPC: 0.663 cumulative IPC: 0.555476 (Simulation time: 0 hr 32 min 14 sec) 
select_counter is 119
Heartbeat CPU 0 instructions: 96000000 cycles: 157853660 heartbeat IPC: 0.66308 cumulative IPC: 0.556526 (Simulation time: 0 hr 32 min 35 sec) 
select_counter is 304
Heartbeat CPU 0 instructions: 97000002 cycles: 159356604 heartbeat IPC: 0.665362 cumulative IPC: 0.557575 (Simulation time: 0 hr 32 min 55 sec) 
select_counter is 620
Heartbeat CPU 0 instructions: 98000001 cycles: 160855613 heartbeat IPC: 0.667107 cumulative IPC: 0.558617 (Simulation time: 0 hr 33 min 15 sec) 
select_counter is 944
Heartbeat CPU 0 instructions: 99000000 cycles: 162352969 heartbeat IPC: 0.667843 cumulative IPC: 0.559645 (Simulation time: 0 hr 33 min 35 sec) 
select_counter is 271
Heartbeat CPU 0 instructions: 100000000 cycles: 163841678 heartbeat IPC: 0.671723 cumulative IPC: 0.560685 (Simulation time: 0 hr 33 min 54 sec) 
select_counter is 695
Heartbeat CPU 0 instructions: 101000000 cycles: 165333373 heartbeat IPC: 0.670378 cumulative IPC: 0.561695 (Simulation time: 0 hr 34 min 14 sec) 
select_counter is 21
Heartbeat CPU 0 instructions: 102000002 cycles: 166830090 heartbeat IPC: 0.66813 cumulative IPC: 0.562669 (Simulation time: 0 hr 34 min 38 sec) 
select_counter is 266
Heartbeat CPU 0 instructions: 103000001 cycles: 168320887 heartbeat IPC: 0.670781 cumulative IPC: 0.563646 (Simulation time: 0 hr 35 min 1 sec) 
select_counter is 489
Heartbeat CPU 0 instructions: 104000000 cycles: 170431037 heartbeat IPC: 0.473899 cumulative IPC: 0.562513 (Simulation time: 0 hr 35 min 22 sec) 
select_counter is 276
Heartbeat CPU 0 instructions: 105000000 cycles: 172755564 heartbeat IPC: 0.430195 cumulative IPC: 0.560697 (Simulation time: 0 hr 35 min 44 sec) 
select_counter is 628
Heartbeat CPU 0 instructions: 106000000 cycles: 175095583 heartbeat IPC: 0.427347 cumulative IPC: 0.558881 (Simulation time: 0 hr 36 min 5 sec) 
select_counter is 370
Heartbeat CPU 0 instructions: 107000000 cycles: 177430846 heartbeat IPC: 0.428217 cumulative IPC: 0.557128 (Simulation time: 0 hr 36 min 27 sec) 
select_counter is 37
Heartbeat CPU 0 instructions: 108000000 cycles: 179745223 heartbeat IPC: 0.432082 cumulative IPC: 0.555488 (Simulation time: 0 hr 36 min 47 sec) 
select_counter is 191
Heartbeat CPU 0 instructions: 109000000 cycles: 182076439 heartbeat IPC: 0.428961 cumulative IPC: 0.553838 (Simulation time: 0 hr 37 min 8 sec) 
select_counter is 283
Heartbeat CPU 0 instructions: 110000000 cycles: 184391730 heartbeat IPC: 0.431911 cumulative IPC: 0.552279 (Simulation time: 0 hr 37 min 26 sec) 
select_counter is 376
Finished CPU 0 instructions: 100000003 cycles: 181068047 cummulative IPC: 0.552279 (Simulation time: 0 hr 37 min 26 sec) 

ChampSim completed all CPUs

Region of Interest Statistics

CPU 0 cummulative IPC: 0.552279 instructions: 100000003 cycles: 181068047
LLC TOTAL     ACCESS:    4917137  HIT:     332087  MISS:    4585050
LLC LOAD      ACCESS:    1167777  HIT:      37518  MISS:    1130259
LLC RFO       ACCESS:         24  HIT:         16  MISS:          8
LLC PREFETCH  ACCESS:    2222636  HIT:      86124  MISS:    2136512
LLC WRITEBACK ACCESS:    1526700  HIT:     208429  MISS:    1318271
Ship samples: 
3, 42, 77, 98, 138, 163, 206, 237, 258, 297, 323, 353, 393, 419, 454, 494, 522, 549, 588, 609, 646, 680, 705, 750, 770, 804, 846, 871, 898, 938, 968, 998, 1038, 1068, 1089, 1120, 1164, 1190, 1219, 1250, 1288, 1321, 1355, 1386, 1419, 1440, 1478, 1507, 1542, 1572, 1613, 1634, 1676, 1698, 1741, 1766, 1800, 1830, 1867, 1901, 1925, 1959, 1994, 2027, 
Lime duel samples: 
8, 28, 37, 52, 73, 89, 105, 118, 131, 154, 172, 176, 199, 221, 238, 251, 256, 285, 288, 313, 331, 350, 365, 381, 390, 411, 429, 437, 456, 468, 490, 509, 517, 532, 555, 565, 584, 594, 621, 627, 650, 658, 673, 693, 710, 720, 736, 757, 777, 788, 808, 816, 838, 858, 873, 889, 897, 920, 935, 944, 971, 984, 1006, 1011, 1024, 1040, 1063, 1074, 1088, 1111, 1134, 1141, 1154, 1178, 1196, 1202, 1224, 1235, 1259, 1265, 1293, 1305, 1318, 1336, 1352, 1371, 1377, 1394, 1413, 1426, 1446, 1467, 1482, 1488, 1505, 1534, 1540, 1566, 1582, 1597, 1607, 1620, 1633, 1656, 1668, 1682, 1696, 1719, 1730, 1744, 1768, 1788, 1795, 1808, 1825, 1851, 1869, 1875, 1888, 1910, 1927, 1943, 1962, 1980, 1997, 2008, 2030, 2037, 
Lime samples: 
8, 105, 199, 288, 390, 490, 584, 673, 777, 873, 971, 1063, 1154, 1259, 1352, 1446, 1540, 1633, 1730, 1825, 1927, 
Insertion Distribution: 
	LOAD 5991 0 0 0 0 0 14354 530042 
	RFO 0 0 0 0 0 0 7 0 
	PREF 0 11251 0 0 0 0 30301 1135640 
	WRITEBACK 0 0 0 0 0 0 0 683865 
Total Prefetch Downgrades: 10718
