
*** ChampSim Multicore Out-of-Order Simulator ***

Warmup Instructions: 10000000
Simulation Instructions: 100000000
Configuration: 2
Number of CPUs: 1
LLC sets: 2048
LLC ways: 16
Off-chip DRAM Channels: 1 Width: 64-bit Data Rate: 1600 MT/s

CPU 0 runs /datasets/cs240c-wi22-a00-public/data/Assignment2-gz/gcc_39B.trace.gz
CPU 0 L1D next line prefetcher
CPU 0 L2C IP-based stride prefetcher
Heartbeat CPU 0 instructions: 1000000 cycles: 510415 heartbeat IPC: 1.95919 cumulative IPC: 1.95919 (Simulation time: 0 hr 0 min 28 sec) 
select_counter is 474
Heartbeat CPU 0 instructions: 2000002 cycles: 1020477 heartbeat IPC: 1.96055 cumulative IPC: 1.95987 (Simulation time: 0 hr 0 min 52 sec) 
select_counter is 463
Heartbeat CPU 0 instructions: 3000002 cycles: 1529254 heartbeat IPC: 1.9655 cumulative IPC: 1.96174 (Simulation time: 0 hr 1 min 16 sec) 
select_counter is 456
Heartbeat CPU 0 instructions: 4000000 cycles: 2038229 heartbeat IPC: 1.96473 cumulative IPC: 1.96249 (Simulation time: 0 hr 1 min 40 sec) 
select_counter is 450
Heartbeat CPU 0 instructions: 5000003 cycles: 2547014 heartbeat IPC: 1.96547 cumulative IPC: 1.96308 (Simulation time: 0 hr 2 min 2 sec) 
select_counter is 428
Heartbeat CPU 0 instructions: 6000000 cycles: 3057390 heartbeat IPC: 1.95933 cumulative IPC: 1.96246 (Simulation time: 0 hr 2 min 28 sec) 
select_counter is 425
Heartbeat CPU 0 instructions: 7000001 cycles: 3565359 heartbeat IPC: 1.96863 cumulative IPC: 1.96334 (Simulation time: 0 hr 2 min 54 sec) 
select_counter is 409
Heartbeat CPU 0 instructions: 8000000 cycles: 4078805 heartbeat IPC: 1.94762 cumulative IPC: 1.96136 (Simulation time: 0 hr 3 min 18 sec) 
select_counter is 400
Heartbeat CPU 0 instructions: 9000002 cycles: 4590941 heartbeat IPC: 1.95261 cumulative IPC: 1.96038 (Simulation time: 0 hr 3 min 45 sec) 
select_counter is 397
Heartbeat CPU 0 instructions: 10000000 cycles: 5101490 heartbeat IPC: 1.95867 cumulative IPC: 1.96021 (Simulation time: 0 hr 4 min 11 sec) 
select_counter is 386

Warmup complete CPU 0 instructions: 10000004 cycles: 5101491 (Simulation time: 0 hr 4 min 11 sec) 

Heartbeat CPU 0 instructions: 11000002 cycles: 6484209 heartbeat IPC: 0.723214 cumulative IPC: 0.723212 (Simulation time: 0 hr 4 min 43 sec) 
select_counter is 361
Heartbeat CPU 0 instructions: 12000000 cycles: 7868654 heartbeat IPC: 0.72231 cumulative IPC: 0.72276 (Simulation time: 0 hr 5 min 17 sec) 
select_counter is 346
Heartbeat CPU 0 instructions: 13000003 cycles: 9247940 heartbeat IPC: 0.725015 cumulative IPC: 0.72351 (Simulation time: 0 hr 5 min 45 sec) 
select_counter is 342
Heartbeat CPU 0 instructions: 14000003 cycles: 10633531 heartbeat IPC: 0.721714 cumulative IPC: 0.72306 (Simulation time: 0 hr 6 min 17 sec) 
select_counter is 324
Heartbeat CPU 0 instructions: 15000001 cycles: 12017173 heartbeat IPC: 0.722729 cumulative IPC: 0.722994 (Simulation time: 0 hr 6 min 49 sec) 
select_counter is 308
Heartbeat CPU 0 instructions: 16000000 cycles: 13401229 heartbeat IPC: 0.722513 cumulative IPC: 0.722914 (Simulation time: 0 hr 7 min 21 sec) 
select_counter is 298
Heartbeat CPU 0 instructions: 17000000 cycles: 14786622 heartbeat IPC: 0.721817 cumulative IPC: 0.722757 (Simulation time: 0 hr 7 min 50 sec) 
select_counter is 289
Heartbeat CPU 0 instructions: 18000000 cycles: 16171826 heartbeat IPC: 0.721915 cumulative IPC: 0.722652 (Simulation time: 0 hr 8 min 20 sec) 
select_counter is 271
Heartbeat CPU 0 instructions: 19000001 cycles: 17550356 heartbeat IPC: 0.725411 cumulative IPC: 0.722957 (Simulation time: 0 hr 8 min 50 sec) 
select_counter is 260
Heartbeat CPU 0 instructions: 20000000 cycles: 18928948 heartbeat IPC: 0.725377 cumulative IPC: 0.723198 (Simulation time: 0 hr 9 min 17 sec) 
select_counter is 255
Heartbeat CPU 0 instructions: 21000001 cycles: 20326028 heartbeat IPC: 0.715779 cumulative IPC: 0.722518 (Simulation time: 0 hr 9 min 48 sec) 
select_counter is 245
Heartbeat CPU 0 instructions: 22000003 cycles: 21714813 heartbeat IPC: 0.720055 cumulative IPC: 0.722312 (Simulation time: 0 hr 10 min 16 sec) 
select_counter is 238
Heartbeat CPU 0 instructions: 23000003 cycles: 23096705 heartbeat IPC: 0.723646 cumulative IPC: 0.722414 (Simulation time: 0 hr 10 min 44 sec) 
select_counter is 220
Heartbeat CPU 0 instructions: 24000000 cycles: 24477562 heartbeat IPC: 0.724186 cumulative IPC: 0.72254 (Simulation time: 0 hr 11 min 13 sec) 
select_counter is 217
Heartbeat CPU 0 instructions: 25000002 cycles: 25848636 heartbeat IPC: 0.729357 cumulative IPC: 0.722991 (Simulation time: 0 hr 11 min 44 sec) 
select_counter is 208
Heartbeat CPU 0 instructions: 26000001 cycles: 27224074 heartbeat IPC: 0.72704 cumulative IPC: 0.723243 (Simulation time: 0 hr 12 min 14 sec) 
select_counter is 197
Heartbeat CPU 0 instructions: 27000000 cycles: 28594943 heartbeat IPC: 0.729464 cumulative IPC: 0.723606 (Simulation time: 0 hr 12 min 42 sec) 
select_counter is 190
Heartbeat CPU 0 instructions: 28000000 cycles: 29967537 heartbeat IPC: 0.728548 cumulative IPC: 0.723879 (Simulation time: 0 hr 13 min 10 sec) 
select_counter is 180
Heartbeat CPU 0 instructions: 29000001 cycles: 31330861 heartbeat IPC: 0.733502 cumulative IPC: 0.724379 (Simulation time: 0 hr 13 min 37 sec) 
select_counter is 170
Heartbeat CPU 0 instructions: 30000003 cycles: 32703120 heartbeat IPC: 0.728727 cumulative IPC: 0.724595 (Simulation time: 0 hr 14 min 6 sec) 
select_counter is 160
Heartbeat CPU 0 instructions: 31000003 cycles: 34091224 heartbeat IPC: 0.720407 cumulative IPC: 0.724394 (Simulation time: 0 hr 14 min 37 sec) 
select_counter is 153
Heartbeat CPU 0 instructions: 32000000 cycles: 35466400 heartbeat IPC: 0.727177 cumulative IPC: 0.72452 (Simulation time: 0 hr 15 min 6 sec) 
select_counter is 140
Heartbeat CPU 0 instructions: 33000002 cycles: 36850288 heartbeat IPC: 0.722603 cumulative IPC: 0.724437 (Simulation time: 0 hr 15 min 38 sec) 
select_counter is 126
Heartbeat CPU 0 instructions: 34000001 cycles: 38231355 heartbeat IPC: 0.724077 cumulative IPC: 0.724422 (Simulation time: 0 hr 16 min 8 sec) 
select_counter is 114
Heartbeat CPU 0 instructions: 35000001 cycles: 39611892 heartbeat IPC: 0.724356 cumulative IPC: 0.724419 (Simulation time: 0 hr 16 min 36 sec) 
select_counter is 101
Heartbeat CPU 0 instructions: 36000000 cycles: 40991527 heartbeat IPC: 0.724829 cumulative IPC: 0.724435 (Simulation time: 0 hr 17 min 7 sec) 
select_counter is 91
Heartbeat CPU 0 instructions: 37000000 cycles: 42373692 heartbeat IPC: 0.723503 cumulative IPC: 0.7244 (Simulation time: 0 hr 17 min 35 sec) 
select_counter is 76
Heartbeat CPU 0 instructions: 38000001 cycles: 43755479 heartbeat IPC: 0.723701 cumulative IPC: 0.724375 (Simulation time: 0 hr 18 min 4 sec) 
select_counter is 67
Heartbeat CPU 0 instructions: 39000000 cycles: 45132743 heartbeat IPC: 0.726076 cumulative IPC: 0.724434 (Simulation time: 0 hr 18 min 31 sec) 
select_counter is 59
Heartbeat CPU 0 instructions: 40000000 cycles: 46515160 heartbeat IPC: 0.723371 cumulative IPC: 0.724398 (Simulation time: 0 hr 18 min 59 sec) 
select_counter is 41
Heartbeat CPU 0 instructions: 41000000 cycles: 47896278 heartbeat IPC: 0.724051 cumulative IPC: 0.724387 (Simulation time: 0 hr 19 min 29 sec) 
select_counter is 31
Heartbeat CPU 0 instructions: 42000001 cycles: 49274108 heartbeat IPC: 0.72578 cumulative IPC: 0.724431 (Simulation time: 0 hr 19 min 57 sec) 
select_counter is 18
Heartbeat CPU 0 instructions: 43000002 cycles: 50659417 heartbeat IPC: 0.721861 cumulative IPC: 0.724353 (Simulation time: 0 hr 20 min 27 sec) 
select_counter is 7
Heartbeat CPU 0 instructions: 44000000 cycles: 52057958 heartbeat IPC: 0.715029 cumulative IPC: 0.724075 (Simulation time: 0 hr 20 min 55 sec) 
select_counter is 1019
Heartbeat CPU 0 instructions: 45000000 cycles: 53436298 heartbeat IPC: 0.72551 cumulative IPC: 0.724116 (Simulation time: 0 hr 21 min 24 sec) 
select_counter is 1002
Heartbeat CPU 0 instructions: 46000002 cycles: 54818404 heartbeat IPC: 0.723535 cumulative IPC: 0.7241 (Simulation time: 0 hr 21 min 52 sec) 
select_counter is 998
Heartbeat CPU 0 instructions: 47000000 cycles: 56203037 heartbeat IPC: 0.722212 cumulative IPC: 0.724048 (Simulation time: 0 hr 22 min 21 sec) 
select_counter is 980
Heartbeat CPU 0 instructions: 48000000 cycles: 57557854 heartbeat IPC: 0.738107 cumulative IPC: 0.724412 (Simulation time: 0 hr 22 min 49 sec) 
select_counter is 974
Heartbeat CPU 0 instructions: 49000000 cycles: 58925673 heartbeat IPC: 0.731091 cumulative IPC: 0.724581 (Simulation time: 0 hr 23 min 23 sec) 
select_counter is 959
Heartbeat CPU 0 instructions: 50000000 cycles: 60319445 heartbeat IPC: 0.717477 cumulative IPC: 0.724402 (Simulation time: 0 hr 23 min 55 sec) 
select_counter is 952
Heartbeat CPU 0 instructions: 51000000 cycles: 61690613 heartbeat IPC: 0.729305 cumulative IPC: 0.724521 (Simulation time: 0 hr 24 min 30 sec) 
select_counter is 940
Heartbeat CPU 0 instructions: 52000000 cycles: 63072223 heartbeat IPC: 0.723793 cumulative IPC: 0.724503 (Simulation time: 0 hr 25 min 3 sec) 
select_counter is 927
Heartbeat CPU 0 instructions: 53000003 cycles: 64449960 heartbeat IPC: 0.72583 cumulative IPC: 0.724534 (Simulation time: 0 hr 25 min 32 sec) 
select_counter is 921
Heartbeat CPU 0 instructions: 54000000 cycles: 65830265 heartbeat IPC: 0.724475 cumulative IPC: 0.724533 (Simulation time: 0 hr 26 min 0 sec) 
select_counter is 913
Heartbeat CPU 0 instructions: 55000002 cycles: 67209416 heartbeat IPC: 0.725085 cumulative IPC: 0.724545 (Simulation time: 0 hr 26 min 29 sec) 
select_counter is 903
Heartbeat CPU 0 instructions: 56000000 cycles: 68587458 heartbeat IPC: 0.725666 cumulative IPC: 0.724569 (Simulation time: 0 hr 26 min 55 sec) 
select_counter is 897
Heartbeat CPU 0 instructions: 57000000 cycles: 69970427 heartbeat IPC: 0.723082 cumulative IPC: 0.724538 (Simulation time: 0 hr 27 min 22 sec) 
select_counter is 883
Heartbeat CPU 0 instructions: 58000000 cycles: 71353608 heartbeat IPC: 0.722971 cumulative IPC: 0.724505 (Simulation time: 0 hr 27 min 49 sec) 
select_counter is 877
Heartbeat CPU 0 instructions: 59000000 cycles: 72736561 heartbeat IPC: 0.72309 cumulative IPC: 0.724476 (Simulation time: 0 hr 28 min 15 sec) 
select_counter is 859
Heartbeat CPU 0 instructions: 60000000 cycles: 74118600 heartbeat IPC: 0.723569 cumulative IPC: 0.724458 (Simulation time: 0 hr 28 min 44 sec) 
select_counter is 848
Heartbeat CPU 0 instructions: 61000000 cycles: 75498273 heartbeat IPC: 0.724809 cumulative IPC: 0.724465 (Simulation time: 0 hr 29 min 11 sec) 
select_counter is 848
Heartbeat CPU 0 instructions: 62000000 cycles: 76882397 heartbeat IPC: 0.722479 cumulative IPC: 0.724427 (Simulation time: 0 hr 29 min 40 sec) 
select_counter is 834
Heartbeat CPU 0 instructions: 63000001 cycles: 78270574 heartbeat IPC: 0.72037 cumulative IPC: 0.72435 (Simulation time: 0 hr 30 min 10 sec) 
select_counter is 823
Heartbeat CPU 0 instructions: 64000000 cycles: 79661621 heartbeat IPC: 0.718882 cumulative IPC: 0.724248 (Simulation time: 0 hr 30 min 44 sec) 
select_counter is 807
Heartbeat CPU 0 instructions: 65000000 cycles: 81035058 heartbeat IPC: 0.7281 cumulative IPC: 0.724317 (Simulation time: 0 hr 31 min 15 sec) 
select_counter is 795
Heartbeat CPU 0 instructions: 66000001 cycles: 82420025 heartbeat IPC: 0.72204 cumulative IPC: 0.724276 (Simulation time: 0 hr 31 min 43 sec) 
select_counter is 781
Heartbeat CPU 0 instructions: 67000001 cycles: 83787782 heartbeat IPC: 0.731124 cumulative IPC: 0.724396 (Simulation time: 0 hr 32 min 14 sec) 
select_counter is 769
Heartbeat CPU 0 instructions: 68000000 cycles: 85153036 heartbeat IPC: 0.732464 cumulative IPC: 0.724533 (Simulation time: 0 hr 32 min 52 sec) 
select_counter is 756
Heartbeat CPU 0 instructions: 69000000 cycles: 86538738 heartbeat IPC: 0.721656 cumulative IPC: 0.724484 (Simulation time: 0 hr 33 min 28 sec) 
select_counter is 741
Heartbeat CPU 0 instructions: 70000002 cycles: 87906070 heartbeat IPC: 0.731353 cumulative IPC: 0.724598 (Simulation time: 0 hr 34 min 2 sec) 
select_counter is 730
Heartbeat CPU 0 instructions: 71000000 cycles: 89278823 heartbeat IPC: 0.728462 cumulative IPC: 0.724661 (Simulation time: 0 hr 34 min 33 sec) 
select_counter is 721
Heartbeat CPU 0 instructions: 72000000 cycles: 90642023 heartbeat IPC: 0.733568 cumulative IPC: 0.724803 (Simulation time: 0 hr 35 min 0 sec) 
select_counter is 717
Heartbeat CPU 0 instructions: 73000000 cycles: 92007128 heartbeat IPC: 0.732544 cumulative IPC: 0.724924 (Simulation time: 0 hr 35 min 25 sec) 
select_counter is 705
Heartbeat CPU 0 instructions: 74000000 cycles: 93384257 heartbeat IPC: 0.726148 cumulative IPC: 0.724943 (Simulation time: 0 hr 35 min 49 sec) 
select_counter is 685
Heartbeat CPU 0 instructions: 75000001 cycles: 94750752 heartbeat IPC: 0.7318 cumulative IPC: 0.725048 (Simulation time: 0 hr 36 min 12 sec) 
select_counter is 681
Heartbeat CPU 0 instructions: 76000000 cycles: 96136267 heartbeat IPC: 0.721753 cumulative IPC: 0.724998 (Simulation time: 0 hr 36 min 35 sec) 
select_counter is 665
Heartbeat CPU 0 instructions: 77000003 cycles: 97502775 heartbeat IPC: 0.731794 cumulative IPC: 0.725098 (Simulation time: 0 hr 36 min 56 sec) 
select_counter is 652
Heartbeat CPU 0 instructions: 78000000 cycles: 98880254 heartbeat IPC: 0.725962 cumulative IPC: 0.725111 (Simulation time: 0 hr 37 min 17 sec) 
select_counter is 641
Heartbeat CPU 0 instructions: 79000002 cycles: 100257142 heartbeat IPC: 0.726277 cumulative IPC: 0.725128 (Simulation time: 0 hr 37 min 37 sec) 
select_counter is 631
Heartbeat CPU 0 instructions: 80000000 cycles: 101641040 heartbeat IPC: 0.722595 cumulative IPC: 0.725091 (Simulation time: 0 hr 37 min 57 sec) 
select_counter is 623
Heartbeat CPU 0 instructions: 81000000 cycles: 103028322 heartbeat IPC: 0.720834 cumulative IPC: 0.725031 (Simulation time: 0 hr 38 min 16 sec) 
select_counter is 600
Heartbeat CPU 0 instructions: 82000000 cycles: 104409229 heartbeat IPC: 0.724162 cumulative IPC: 0.725019 (Simulation time: 0 hr 38 min 35 sec) 
select_counter is 591
Heartbeat CPU 0 instructions: 83000000 cycles: 105793140 heartbeat IPC: 0.72259 cumulative IPC: 0.724986 (Simulation time: 0 hr 38 min 54 sec) 
select_counter is 578
Heartbeat CPU 0 instructions: 84000000 cycles: 107174498 heartbeat IPC: 0.723925 cumulative IPC: 0.724971 (Simulation time: 0 hr 39 min 13 sec) 
select_counter is 567
Heartbeat CPU 0 instructions: 85000000 cycles: 108549586 heartbeat IPC: 0.727226 cumulative IPC: 0.725001 (Simulation time: 0 hr 39 min 29 sec) 
select_counter is 562
Heartbeat CPU 0 instructions: 86000001 cycles: 109931047 heartbeat IPC: 0.723872 cumulative IPC: 0.724986 (Simulation time: 0 hr 39 min 46 sec) 
select_counter is 547
Heartbeat CPU 0 instructions: 87000001 cycles: 111313410 heartbeat IPC: 0.723399 cumulative IPC: 0.724966 (Simulation time: 0 hr 40 min 2 sec) 
select_counter is 537
Heartbeat CPU 0 instructions: 88000000 cycles: 112693137 heartbeat IPC: 0.72478 cumulative IPC: 0.724963 (Simulation time: 0 hr 40 min 16 sec) 
select_counter is 514
Heartbeat CPU 0 instructions: 89000003 cycles: 114075688 heartbeat IPC: 0.723303 cumulative IPC: 0.724942 (Simulation time: 0 hr 40 min 31 sec) 
select_counter is 507
Heartbeat CPU 0 instructions: 90000000 cycles: 115452458 heartbeat IPC: 0.726336 cumulative IPC: 0.72496 (Simulation time: 0 hr 40 min 46 sec) 
select_counter is 500
Heartbeat CPU 0 instructions: 91000001 cycles: 116843860 heartbeat IPC: 0.7187 cumulative IPC: 0.724882 (Simulation time: 0 hr 41 min 0 sec) 
select_counter is 493
Heartbeat CPU 0 instructions: 92000000 cycles: 118228760 heartbeat IPC: 0.722073 cumulative IPC: 0.724847 (Simulation time: 0 hr 41 min 14 sec) 
select_counter is 478
Heartbeat CPU 0 instructions: 93000000 cycles: 119611555 heartbeat IPC: 0.723173 cumulative IPC: 0.724827 (Simulation time: 0 hr 41 min 29 sec) 
select_counter is 462
Heartbeat CPU 0 instructions: 94000002 cycles: 120990911 heartbeat IPC: 0.724977 cumulative IPC: 0.724829 (Simulation time: 0 hr 41 min 43 sec) 
select_counter is 449
Heartbeat CPU 0 instructions: 95000001 cycles: 122369413 heartbeat IPC: 0.725424 cumulative IPC: 0.724836 (Simulation time: 0 hr 41 min 58 sec) 
select_counter is 442
Heartbeat CPU 0 instructions: 96000000 cycles: 123737678 heartbeat IPC: 0.730852 cumulative IPC: 0.724905 (Simulation time: 0 hr 42 min 12 sec) 
select_counter is 437
Heartbeat CPU 0 instructions: 97000000 cycles: 125107678 heartbeat IPC: 0.729927 cumulative IPC: 0.724963 (Simulation time: 0 hr 42 min 24 sec) 
select_counter is 428
Heartbeat CPU 0 instructions: 98000003 cycles: 126476452 heartbeat IPC: 0.730583 cumulative IPC: 0.725026 (Simulation time: 0 hr 42 min 36 sec) 
select_counter is 414
Heartbeat CPU 0 instructions: 99000000 cycles: 127844693 heartbeat IPC: 0.730863 cumulative IPC: 0.725091 (Simulation time: 0 hr 42 min 48 sec) 
select_counter is 397
Heartbeat CPU 0 instructions: 100000000 cycles: 129206711 heartbeat IPC: 0.734205 cumulative IPC: 0.725191 (Simulation time: 0 hr 42 min 59 sec) 
select_counter is 390
Heartbeat CPU 0 instructions: 101000000 cycles: 130571490 heartbeat IPC: 0.732719 cumulative IPC: 0.725273 (Simulation time: 0 hr 43 min 8 sec) 
select_counter is 377
Heartbeat CPU 0 instructions: 102000002 cycles: 131950634 heartbeat IPC: 0.725089 cumulative IPC: 0.725271 (Simulation time: 0 hr 43 min 17 sec) 
select_counter is 363
Heartbeat CPU 0 instructions: 103000003 cycles: 133319783 heartbeat IPC: 0.730381 cumulative IPC: 0.725326 (Simulation time: 0 hr 43 min 24 sec) 
select_counter is 359
Heartbeat CPU 0 instructions: 104000000 cycles: 134696652 heartbeat IPC: 0.726283 cumulative IPC: 0.725336 (Simulation time: 0 hr 43 min 31 sec) 
select_counter is 352
Heartbeat CPU 0 instructions: 105000000 cycles: 136060510 heartbeat IPC: 0.733214 cumulative IPC: 0.725418 (Simulation time: 0 hr 43 min 38 sec) 
select_counter is 338
Heartbeat CPU 0 instructions: 106000001 cycles: 137442165 heartbeat IPC: 0.72377 cumulative IPC: 0.725401 (Simulation time: 0 hr 43 min 45 sec) 
select_counter is 329
Heartbeat CPU 0 instructions: 107000000 cycles: 138827414 heartbeat IPC: 0.721891 cumulative IPC: 0.725364 (Simulation time: 0 hr 43 min 51 sec) 
select_counter is 317
Heartbeat CPU 0 instructions: 108000000 cycles: 140209044 heartbeat IPC: 0.723783 cumulative IPC: 0.725348 (Simulation time: 0 hr 43 min 58 sec) 
select_counter is 317
Heartbeat CPU 0 instructions: 109000003 cycles: 141603192 heartbeat IPC: 0.717286 cumulative IPC: 0.725266 (Simulation time: 0 hr 44 min 4 sec) 
select_counter is 313
Heartbeat CPU 0 instructions: 110000001 cycles: 142985526 heartbeat IPC: 0.723413 cumulative IPC: 0.725247 (Simulation time: 0 hr 44 min 10 sec) 
select_counter is 300
Finished CPU 0 instructions: 100000001 cycles: 137884036 cummulative IPC: 0.725247 (Simulation time: 0 hr 44 min 10 sec) 

ChampSim completed all CPUs

Region of Interest Statistics

CPU 0 cummulative IPC: 0.725247 instructions: 100000001 cycles: 137884036
LLC TOTAL     ACCESS:      42522  HIT:       7555  MISS:      34967
LLC LOAD      ACCESS:      13577  HIT:        348  MISS:      13229
LLC RFO       ACCESS:       3352  HIT:         12  MISS:       3340
LLC PREFETCH  ACCESS:      17694  HIT:        407  MISS:      17287
LLC WRITEBACK ACCESS:       7899  HIT:       6788  MISS:       1111
Ship samples: 
14, 36, 71, 109, 129, 161, 195, 231, 262, 298, 322, 354, 388, 417, 456, 492, 520, 548, 589, 617, 648, 682, 716, 747, 777, 804, 839, 868, 899, 934, 974, 995, 1034, 1065, 1101, 1123, 1164, 1184, 1216, 1253, 1290, 1312, 1348, 1381, 1413, 1444, 1479, 1507, 1540, 1573, 1601, 1646, 1674, 1703, 1729, 1774, 1800, 1831, 1869, 1896, 1921, 1960, 1990, 2020, 
Lime duel samples: 
13, 22, 33, 57, 72, 83, 104, 112, 134, 148, 170, 185, 206, 218, 226, 242, 261, 274, 295, 313, 326, 343, 355, 370, 390, 407, 429, 433, 458, 478, 485, 508, 524, 537, 550, 571, 590, 597, 620, 626, 647, 658, 673, 701, 714, 726, 745, 759, 779, 786, 813, 828, 833, 856, 866, 890, 909, 915, 929, 947, 964, 983, 1005, 1013, 1036, 1053, 1063, 1082, 1090, 1105, 1120, 1148, 1165, 1179, 1185, 1212, 1224, 1237, 1261, 1265, 1283, 1304, 1317, 1342, 1345, 1370, 1377, 1401, 1409, 1431, 1445, 1466, 1483, 1497, 1514, 1520, 1547, 1561, 1578, 1588, 1607, 1629, 1639, 1661, 1673, 1690, 1704, 1723, 1736, 1748, 1768, 1789, 1794, 1822, 1824, 1845, 1861, 1873, 1891, 1916, 1930, 1950, 1957, 1971, 1996, 2006, 2022, 2046, 
Lime samples: 
13, 104, 206, 295, 390, 485, 590, 673, 779, 866, 964, 1063, 1165, 1261, 1345, 1445, 1547, 1639, 1736, 1824, 1930, 
Insertion Distribution: 
	LOAD 0 0 0 0 0 0 6869 1901 
	RFO 0 0 0 0 0 0 1369 714 
	PREF 0 0 0 0 0 0 8344 2881 
	WRITEBACK 0 0 0 0 0 0 0 791 
Total Prefetch Downgrades: 69
