
*** ChampSim Multicore Out-of-Order Simulator ***

Warmup Instructions: 10000000
Simulation Instructions: 100000000
Configuration: 2
Number of CPUs: 1
LLC sets: 2048
LLC ways: 16
Off-chip DRAM Channels: 1 Width: 64-bit Data Rate: 1600 MT/s

CPU 0 runs /datasets/cs240c-wi22-a00-public/data/Assignment2-gz/milc_409B.trace.gz
CPU 0 L1D next line prefetcher
CPU 0 L2C IP-based stride prefetcher
Heartbeat CPU 0 instructions: 1000002 cycles: 407040 heartbeat IPC: 2.45677 cumulative IPC: 2.45677 (Simulation time: 0 hr 0 min 27 sec) 
select_counter is 11
Heartbeat CPU 0 instructions: 2000002 cycles: 889868 heartbeat IPC: 2.07113 cumulative IPC: 2.24753 (Simulation time: 0 hr 0 min 51 sec) 
select_counter is 266
Heartbeat CPU 0 instructions: 3000003 cycles: 1672035 heartbeat IPC: 1.2785 cumulative IPC: 1.79422 (Simulation time: 0 hr 1 min 21 sec) 
select_counter is 528
Heartbeat CPU 0 instructions: 4000000 cycles: 2454292 heartbeat IPC: 1.27835 cumulative IPC: 1.6298 (Simulation time: 0 hr 1 min 53 sec) 
select_counter is 835
Heartbeat CPU 0 instructions: 5000000 cycles: 3135413 heartbeat IPC: 1.46817 cumulative IPC: 1.59469 (Simulation time: 0 hr 2 min 22 sec) 
select_counter is 616
Heartbeat CPU 0 instructions: 6000003 cycles: 3679805 heartbeat IPC: 1.83692 cumulative IPC: 1.63052 (Simulation time: 0 hr 2 min 48 sec) 
select_counter is 5
Heartbeat CPU 0 instructions: 7000002 cycles: 4224111 heartbeat IPC: 1.8372 cumulative IPC: 1.65715 (Simulation time: 0 hr 3 min 14 sec) 
select_counter is 495
Heartbeat CPU 0 instructions: 8000000 cycles: 4768519 heartbeat IPC: 1.83685 cumulative IPC: 1.67767 (Simulation time: 0 hr 3 min 41 sec) 
select_counter is 695
Heartbeat CPU 0 instructions: 9000003 cycles: 5312845 heartbeat IPC: 1.83714 cumulative IPC: 1.69401 (Simulation time: 0 hr 4 min 6 sec) 
select_counter is 999
Heartbeat CPU 0 instructions: 10000000 cycles: 5857233 heartbeat IPC: 1.83692 cumulative IPC: 1.70729 (Simulation time: 0 hr 4 min 30 sec) 
select_counter is 222

Warmup complete CPU 0 instructions: 10000002 cycles: 5857234 (Simulation time: 0 hr 4 min 30 sec) 

Heartbeat CPU 0 instructions: 11000002 cycles: 7522005 heartbeat IPC: 0.600684 cumulative IPC: 0.600683 (Simulation time: 0 hr 5 min 7 sec) 
select_counter is 737
Heartbeat CPU 0 instructions: 12000000 cycles: 9177733 heartbeat IPC: 0.603963 cumulative IPC: 0.602319 (Simulation time: 0 hr 5 min 32 sec) 
select_counter is 317
Heartbeat CPU 0 instructions: 13000003 cycles: 10836912 heartbeat IPC: 0.60271 cumulative IPC: 0.602449 (Simulation time: 0 hr 6 min 2 sec) 
select_counter is 612
Heartbeat CPU 0 instructions: 14000002 cycles: 12495888 heartbeat IPC: 0.602781 cumulative IPC: 0.602532 (Simulation time: 0 hr 6 min 28 sec) 
select_counter is 954
Heartbeat CPU 0 instructions: 15000001 cycles: 14151307 heartbeat IPC: 0.604076 cumulative IPC: 0.60284 (Simulation time: 0 hr 6 min 55 sec) 
select_counter is 143
Heartbeat CPU 0 instructions: 16000000 cycles: 15808178 heartbeat IPC: 0.603547 cumulative IPC: 0.602958 (Simulation time: 0 hr 7 min 22 sec) 
select_counter is 470
Heartbeat CPU 0 instructions: 17000002 cycles: 17463441 heartbeat IPC: 0.604135 cumulative IPC: 0.603126 (Simulation time: 0 hr 7 min 53 sec) 
select_counter is 717
Heartbeat CPU 0 instructions: 18000000 cycles: 19120124 heartbeat IPC: 0.603615 cumulative IPC: 0.603187 (Simulation time: 0 hr 8 min 24 sec) 
select_counter is 996
Heartbeat CPU 0 instructions: 19000003 cycles: 20778564 heartbeat IPC: 0.602978 cumulative IPC: 0.603163 (Simulation time: 0 hr 8 min 53 sec) 
select_counter is 211
Heartbeat CPU 0 instructions: 20000000 cycles: 22438282 heartbeat IPC: 0.60251 cumulative IPC: 0.603098 (Simulation time: 0 hr 9 min 19 sec) 
select_counter is 527
Heartbeat CPU 0 instructions: 21000001 cycles: 24088120 heartbeat IPC: 0.606121 cumulative IPC: 0.603372 (Simulation time: 0 hr 9 min 46 sec) 
select_counter is 764
Heartbeat CPU 0 instructions: 22000002 cycles: 25748207 heartbeat IPC: 0.602379 cumulative IPC: 0.603289 (Simulation time: 0 hr 10 min 11 sec) 
select_counter is 28
Heartbeat CPU 0 instructions: 23000002 cycles: 27410971 heartbeat IPC: 0.601408 cumulative IPC: 0.603144 (Simulation time: 0 hr 10 min 34 sec) 
select_counter is 394
Heartbeat CPU 0 instructions: 24000000 cycles: 29064607 heartbeat IPC: 0.604727 cumulative IPC: 0.603256 (Simulation time: 0 hr 10 min 58 sec) 
select_counter is 722
Heartbeat CPU 0 instructions: 25000002 cycles: 30727033 heartbeat IPC: 0.601532 cumulative IPC: 0.603141 (Simulation time: 0 hr 11 min 21 sec) 
select_counter is 996
Heartbeat CPU 0 instructions: 26000000 cycles: 32384327 heartbeat IPC: 0.603392 cumulative IPC: 0.603157 (Simulation time: 0 hr 11 min 45 sec) 
select_counter is 262
Heartbeat CPU 0 instructions: 27000002 cycles: 34037398 heartbeat IPC: 0.604936 cumulative IPC: 0.603261 (Simulation time: 0 hr 12 min 9 sec) 
select_counter is 594
Heartbeat CPU 0 instructions: 28000000 cycles: 35696361 heartbeat IPC: 0.602785 cumulative IPC: 0.603235 (Simulation time: 0 hr 12 min 32 sec) 
select_counter is 919
Heartbeat CPU 0 instructions: 29000002 cycles: 37348045 heartbeat IPC: 0.605444 cumulative IPC: 0.603351 (Simulation time: 0 hr 12 min 57 sec) 
select_counter is 73
Heartbeat CPU 0 instructions: 30000000 cycles: 38999326 heartbeat IPC: 0.605589 cumulative IPC: 0.603462 (Simulation time: 0 hr 13 min 21 sec) 
select_counter is 314
Heartbeat CPU 0 instructions: 31000000 cycles: 40652542 heartbeat IPC: 0.604882 cumulative IPC: 0.60353 (Simulation time: 0 hr 13 min 47 sec) 
select_counter is 575
Heartbeat CPU 0 instructions: 32000000 cycles: 42307169 heartbeat IPC: 0.604366 cumulative IPC: 0.603568 (Simulation time: 0 hr 14 min 12 sec) 
select_counter is 872
Heartbeat CPU 0 instructions: 33000000 cycles: 43965554 heartbeat IPC: 0.602996 cumulative IPC: 0.603543 (Simulation time: 0 hr 14 min 35 sec) 
select_counter is 138
Heartbeat CPU 0 instructions: 34000000 cycles: 45625927 heartbeat IPC: 0.602274 cumulative IPC: 0.60349 (Simulation time: 0 hr 14 min 59 sec) 
select_counter is 263
Heartbeat CPU 0 instructions: 35000002 cycles: 47280062 heartbeat IPC: 0.604547 cumulative IPC: 0.603532 (Simulation time: 0 hr 15 min 24 sec) 
select_counter is 636
Heartbeat CPU 0 instructions: 36000000 cycles: 48936667 heartbeat IPC: 0.603643 cumulative IPC: 0.603536 (Simulation time: 0 hr 15 min 50 sec) 
select_counter is 891
Heartbeat CPU 0 instructions: 37000000 cycles: 50591483 heartbeat IPC: 0.604297 cumulative IPC: 0.603564 (Simulation time: 0 hr 16 min 16 sec) 
select_counter is 82
Heartbeat CPU 0 instructions: 38000002 cycles: 52242069 heartbeat IPC: 0.605847 cumulative IPC: 0.603646 (Simulation time: 0 hr 16 min 40 sec) 
select_counter is 394
Heartbeat CPU 0 instructions: 39000001 cycles: 53901379 heartbeat IPC: 0.60266 cumulative IPC: 0.603612 (Simulation time: 0 hr 17 min 6 sec) 
select_counter is 656
Heartbeat CPU 0 instructions: 40000000 cycles: 55558258 heartbeat IPC: 0.603544 cumulative IPC: 0.603609 (Simulation time: 0 hr 17 min 31 sec) 
select_counter is 954
Heartbeat CPU 0 instructions: 41000002 cycles: 57212983 heartbeat IPC: 0.604331 cumulative IPC: 0.603633 (Simulation time: 0 hr 17 min 55 sec) 
select_counter is 215
Heartbeat CPU 0 instructions: 42000001 cycles: 58868032 heartbeat IPC: 0.604211 cumulative IPC: 0.603651 (Simulation time: 0 hr 18 min 19 sec) 
select_counter is 469
Heartbeat CPU 0 instructions: 43000000 cycles: 60523831 heartbeat IPC: 0.603937 cumulative IPC: 0.603659 (Simulation time: 0 hr 18 min 43 sec) 
select_counter is 841
Heartbeat CPU 0 instructions: 44000000 cycles: 62183907 heartbeat IPC: 0.602382 cumulative IPC: 0.603622 (Simulation time: 0 hr 19 min 8 sec) 
select_counter is 137
Heartbeat CPU 0 instructions: 45000000 cycles: 63840266 heartbeat IPC: 0.603734 cumulative IPC: 0.603625 (Simulation time: 0 hr 19 min 32 sec) 
select_counter is 341
Heartbeat CPU 0 instructions: 46000000 cycles: 65493058 heartbeat IPC: 0.605037 cumulative IPC: 0.603664 (Simulation time: 0 hr 19 min 57 sec) 
select_counter is 759
Heartbeat CPU 0 instructions: 47000002 cycles: 67146667 heartbeat IPC: 0.604739 cumulative IPC: 0.603693 (Simulation time: 0 hr 20 min 23 sec) 
select_counter is 1001
Heartbeat CPU 0 instructions: 48000000 cycles: 68800177 heartbeat IPC: 0.604773 cumulative IPC: 0.603721 (Simulation time: 0 hr 20 min 46 sec) 
select_counter is 270
Heartbeat CPU 0 instructions: 49000000 cycles: 70455159 heartbeat IPC: 0.604236 cumulative IPC: 0.603735 (Simulation time: 0 hr 21 min 10 sec) 
select_counter is 415
Heartbeat CPU 0 instructions: 50000001 cycles: 72111136 heartbeat IPC: 0.603874 cumulative IPC: 0.603738 (Simulation time: 0 hr 21 min 34 sec) 
select_counter is 738
Heartbeat CPU 0 instructions: 51000002 cycles: 73765675 heartbeat IPC: 0.604399 cumulative IPC: 0.603754 (Simulation time: 0 hr 21 min 59 sec) 
select_counter is 979
Heartbeat CPU 0 instructions: 52000000 cycles: 75765411 heartbeat IPC: 0.500065 cumulative IPC: 0.600788 (Simulation time: 0 hr 22 min 25 sec) 
select_counter is 594
Heartbeat CPU 0 instructions: 53000001 cycles: 78029133 heartbeat IPC: 0.441751 cumulative IPC: 0.5958 (Simulation time: 0 hr 22 min 53 sec) 
select_counter is 856
Heartbeat CPU 0 instructions: 54000001 cycles: 80218445 heartbeat IPC: 0.456764 cumulative IPC: 0.591706 (Simulation time: 0 hr 23 min 22 sec) 
select_counter is 226
Heartbeat CPU 0 instructions: 55000002 cycles: 82422831 heartbeat IPC: 0.453642 cumulative IPC: 0.587731 (Simulation time: 0 hr 23 min 51 sec) 
select_counter is 630
Heartbeat CPU 0 instructions: 56000000 cycles: 84663478 heartbeat IPC: 0.446299 cumulative IPC: 0.58371 (Simulation time: 0 hr 24 min 18 sec) 
select_counter is 12
Heartbeat CPU 0 instructions: 57000000 cycles: 86853798 heartbeat IPC: 0.456554 cumulative IPC: 0.580271 (Simulation time: 0 hr 24 min 47 sec) 
select_counter is 717
Heartbeat CPU 0 instructions: 58000002 cycles: 89013556 heartbeat IPC: 0.463016 cumulative IPC: 0.577226 (Simulation time: 0 hr 25 min 15 sec) 
select_counter is 854
Heartbeat CPU 0 instructions: 59000001 cycles: 90776164 heartbeat IPC: 0.567341 cumulative IPC: 0.577021 (Simulation time: 0 hr 25 min 39 sec) 
select_counter is 961
Heartbeat CPU 0 instructions: 60000000 cycles: 92437073 heartbeat IPC: 0.602079 cumulative IPC: 0.577502 (Simulation time: 0 hr 26 min 2 sec) 
select_counter is 175
Heartbeat CPU 0 instructions: 61000000 cycles: 94101168 heartbeat IPC: 0.600927 cumulative IPC: 0.577943 (Simulation time: 0 hr 26 min 26 sec) 
select_counter is 468
Heartbeat CPU 0 instructions: 62000000 cycles: 95766909 heartbeat IPC: 0.600333 cumulative IPC: 0.578358 (Simulation time: 0 hr 26 min 50 sec) 
select_counter is 585
Heartbeat CPU 0 instructions: 63000003 cycles: 97435425 heartbeat IPC: 0.599337 cumulative IPC: 0.57874 (Simulation time: 0 hr 27 min 14 sec) 
select_counter is 878
Heartbeat CPU 0 instructions: 64000000 cycles: 99100691 heartbeat IPC: 0.600503 cumulative IPC: 0.579129 (Simulation time: 0 hr 27 min 37 sec) 
select_counter is 101
Heartbeat CPU 0 instructions: 65000002 cycles: 100771584 heartbeat IPC: 0.598484 cumulative IPC: 0.57947 (Simulation time: 0 hr 28 min 1 sec) 
select_counter is 325
Heartbeat CPU 0 instructions: 66000002 cycles: 102441153 heartbeat IPC: 0.598957 cumulative IPC: 0.579807 (Simulation time: 0 hr 28 min 24 sec) 
select_counter is 674
Heartbeat CPU 0 instructions: 67000001 cycles: 104109477 heartbeat IPC: 0.599403 cumulative IPC: 0.580139 (Simulation time: 0 hr 28 min 48 sec) 
select_counter is 946
Heartbeat CPU 0 instructions: 68000000 cycles: 105775541 heartbeat IPC: 0.600216 cumulative IPC: 0.580474 (Simulation time: 0 hr 29 min 11 sec) 
select_counter is 166
Heartbeat CPU 0 instructions: 69000000 cycles: 107441693 heartbeat IPC: 0.600185 cumulative IPC: 0.580797 (Simulation time: 0 hr 29 min 35 sec) 
select_counter is 435
Heartbeat CPU 0 instructions: 70000000 cycles: 109109954 heartbeat IPC: 0.599427 cumulative IPC: 0.581098 (Simulation time: 0 hr 29 min 59 sec) 
select_counter is 724
Heartbeat CPU 0 instructions: 71000002 cycles: 110772668 heartbeat IPC: 0.601428 cumulative IPC: 0.581421 (Simulation time: 0 hr 30 min 23 sec) 
select_counter is 1021
Heartbeat CPU 0 instructions: 72000000 cycles: 112440930 heartbeat IPC: 0.599425 cumulative IPC: 0.581702 (Simulation time: 0 hr 30 min 48 sec) 
select_counter is 290
Heartbeat CPU 0 instructions: 73000003 cycles: 114108531 heartbeat IPC: 0.599666 cumulative IPC: 0.581979 (Simulation time: 0 hr 31 min 12 sec) 
select_counter is 534
Heartbeat CPU 0 instructions: 74000002 cycles: 115774551 heartbeat IPC: 0.600232 cumulative IPC: 0.582256 (Simulation time: 0 hr 31 min 36 sec) 
select_counter is 802
Heartbeat CPU 0 instructions: 75000003 cycles: 117439801 heartbeat IPC: 0.600511 cumulative IPC: 0.582528 (Simulation time: 0 hr 32 min 1 sec) 
select_counter is 982
Heartbeat CPU 0 instructions: 76000000 cycles: 119107937 heartbeat IPC: 0.59947 cumulative IPC: 0.582778 (Simulation time: 0 hr 32 min 25 sec) 
select_counter is 366
Heartbeat CPU 0 instructions: 77000003 cycles: 120777861 heartbeat IPC: 0.598831 cumulative IPC: 0.583011 (Simulation time: 0 hr 32 min 49 sec) 
select_counter is 708
Heartbeat CPU 0 instructions: 78000000 cycles: 122442651 heartbeat IPC: 0.600675 cumulative IPC: 0.583263 (Simulation time: 0 hr 33 min 13 sec) 
select_counter is 1002
Heartbeat CPU 0 instructions: 79000000 cycles: 124111028 heartbeat IPC: 0.599385 cumulative IPC: 0.583491 (Simulation time: 0 hr 33 min 36 sec) 
select_counter is 228
Heartbeat CPU 0 instructions: 80000000 cycles: 125772470 heartbeat IPC: 0.601887 cumulative IPC: 0.583746 (Simulation time: 0 hr 34 min 0 sec) 
select_counter is 597
Heartbeat CPU 0 instructions: 81000000 cycles: 127441264 heartbeat IPC: 0.599235 cumulative IPC: 0.583958 (Simulation time: 0 hr 34 min 23 sec) 
select_counter is 917
Heartbeat CPU 0 instructions: 82000002 cycles: 129105368 heartbeat IPC: 0.600925 cumulative IPC: 0.584187 (Simulation time: 0 hr 34 min 46 sec) 
select_counter is 125
Heartbeat CPU 0 instructions: 83000003 cycles: 130762939 heartbeat IPC: 0.603293 cumulative IPC: 0.584441 (Simulation time: 0 hr 35 min 10 sec) 
select_counter is 322
Heartbeat CPU 0 instructions: 84000000 cycles: 132422967 heartbeat IPC: 0.602398 cumulative IPC: 0.584676 (Simulation time: 0 hr 35 min 30 sec) 
select_counter is 592
Heartbeat CPU 0 instructions: 85000001 cycles: 134080563 heartbeat IPC: 0.603284 cumulative IPC: 0.584917 (Simulation time: 0 hr 35 min 50 sec) 
select_counter is 852
Heartbeat CPU 0 instructions: 86000002 cycles: 135744143 heartbeat IPC: 0.601114 cumulative IPC: 0.585124 (Simulation time: 0 hr 36 min 10 sec) 
select_counter is 110
Heartbeat CPU 0 instructions: 87000003 cycles: 137404704 heartbeat IPC: 0.602207 cumulative IPC: 0.58534 (Simulation time: 0 hr 36 min 28 sec) 
select_counter is 345
Heartbeat CPU 0 instructions: 88000000 cycles: 139065615 heartbeat IPC: 0.602077 cumulative IPC: 0.585549 (Simulation time: 0 hr 36 min 47 sec) 
select_counter is 600
Heartbeat CPU 0 instructions: 89000001 cycles: 140730695 heartbeat IPC: 0.600572 cumulative IPC: 0.585734 (Simulation time: 0 hr 37 min 5 sec) 
select_counter is 900
Heartbeat CPU 0 instructions: 90000002 cycles: 142396972 heartbeat IPC: 0.600141 cumulative IPC: 0.58591 (Simulation time: 0 hr 37 min 22 sec) 
select_counter is 205
Heartbeat CPU 0 instructions: 91000000 cycles: 144059091 heartbeat IPC: 0.60164 cumulative IPC: 0.586099 (Simulation time: 0 hr 37 min 39 sec) 
select_counter is 343
Heartbeat CPU 0 instructions: 92000000 cycles: 145718558 heartbeat IPC: 0.602603 cumulative IPC: 0.586295 (Simulation time: 0 hr 37 min 56 sec) 
select_counter is 685
Heartbeat CPU 0 instructions: 93000003 cycles: 147382081 heartbeat IPC: 0.601136 cumulative IPC: 0.586469 (Simulation time: 0 hr 38 min 12 sec) 
select_counter is 969
Heartbeat CPU 0 instructions: 94000002 cycles: 149041622 heartbeat IPC: 0.602576 cumulative IPC: 0.586656 (Simulation time: 0 hr 38 min 27 sec) 
select_counter is 182
Heartbeat CPU 0 instructions: 95000003 cycles: 150699929 heartbeat IPC: 0.603025 cumulative IPC: 0.586844 (Simulation time: 0 hr 38 min 43 sec) 
select_counter is 486
Heartbeat CPU 0 instructions: 96000000 cycles: 152362550 heartbeat IPC: 0.601458 cumulative IPC: 0.587009 (Simulation time: 0 hr 38 min 59 sec) 
select_counter is 837
Heartbeat CPU 0 instructions: 97000001 cycles: 154026786 heartbeat IPC: 0.600877 cumulative IPC: 0.587165 (Simulation time: 0 hr 39 min 14 sec) 
select_counter is 91
Heartbeat CPU 0 instructions: 98000002 cycles: 155688482 heartbeat IPC: 0.601795 cumulative IPC: 0.587327 (Simulation time: 0 hr 39 min 27 sec) 
select_counter is 349
Heartbeat CPU 0 instructions: 99000003 cycles: 157351434 heartbeat IPC: 0.601341 cumulative IPC: 0.587481 (Simulation time: 0 hr 39 min 41 sec) 
select_counter is 699
Heartbeat CPU 0 instructions: 100000000 cycles: 159009856 heartbeat IPC: 0.602981 cumulative IPC: 0.587649 (Simulation time: 0 hr 39 min 55 sec) 
select_counter is 995
Heartbeat CPU 0 instructions: 101000001 cycles: 160670717 heartbeat IPC: 0.602098 cumulative IPC: 0.587804 (Simulation time: 0 hr 40 min 8 sec) 
select_counter is 309
Heartbeat CPU 0 instructions: 102000002 cycles: 162330438 heartbeat IPC: 0.602512 cumulative IPC: 0.58796 (Simulation time: 0 hr 40 min 21 sec) 
select_counter is 429
Heartbeat CPU 0 instructions: 103000000 cycles: 163988466 heartbeat IPC: 0.603125 cumulative IPC: 0.588119 (Simulation time: 0 hr 40 min 33 sec) 
select_counter is 708
Heartbeat CPU 0 instructions: 104000000 cycles: 165644944 heartbeat IPC: 0.603691 cumulative IPC: 0.58828 (Simulation time: 0 hr 40 min 46 sec) 
select_counter is 1013
Heartbeat CPU 0 instructions: 105000003 cycles: 167536366 heartbeat IPC: 0.528704 cumulative IPC: 0.587584 (Simulation time: 0 hr 40 min 59 sec) 
select_counter is 13
Heartbeat CPU 0 instructions: 106000003 cycles: 171822570 heartbeat IPC: 0.233307 cumulative IPC: 0.578434 (Simulation time: 0 hr 41 min 21 sec) 
select_counter is 958
Heartbeat CPU 0 instructions: 107000000 cycles: 173615936 heartbeat IPC: 0.557609 cumulative IPC: 0.578211 (Simulation time: 0 hr 41 min 32 sec) 
select_counter is 649
Heartbeat CPU 0 instructions: 108000000 cycles: 175397922 heartbeat IPC: 0.561172 cumulative IPC: 0.578032 (Simulation time: 0 hr 41 min 42 sec) 
select_counter is 348
Heartbeat CPU 0 instructions: 109000001 cycles: 177170265 heartbeat IPC: 0.564225 cumulative IPC: 0.57789 (Simulation time: 0 hr 41 min 53 sec) 
select_counter is 1016
Heartbeat CPU 0 instructions: 110000001 cycles: 178948206 heartbeat IPC: 0.562448 cumulative IPC: 0.577731 (Simulation time: 0 hr 42 min 3 sec) 
select_counter is 636
Finished CPU 0 instructions: 100000003 cycles: 173090973 cummulative IPC: 0.577731 (Simulation time: 0 hr 42 min 3 sec) 

ChampSim completed all CPUs

Region of Interest Statistics

CPU 0 cummulative IPC: 0.577731 instructions: 100000003 cycles: 173090973
LLC TOTAL     ACCESS:    3300884  HIT:     154552  MISS:    3146332
LLC LOAD      ACCESS:     971742  HIT:       1014  MISS:     970728
LLC RFO       ACCESS:     136847  HIT:        257  MISS:     136590
LLC PREFETCH  ACCESS:    1334206  HIT:      14604  MISS:    1319602
LLC WRITEBACK ACCESS:     858089  HIT:     138677  MISS:     719412
Ship samples: 
7, 38, 64, 108, 133, 170, 199, 235, 259, 293, 330, 365, 391, 420, 457, 488, 512, 554, 580, 621, 645, 678, 711, 737, 775, 812, 832, 872, 906, 941, 974, 994, 1024, 1056, 1095, 1122, 1159, 1193, 1217, 1253, 1288, 1321, 1354, 1382, 1419, 1440, 1478, 1506, 1550, 1572, 1606, 1642, 1668, 1696, 1738, 1774, 1801, 1828, 1865, 1892, 1932, 1960, 1985, 2030, 
Lime duel samples: 
10, 18, 33, 55, 71, 87, 109, 122, 135, 151, 169, 179, 204, 213, 233, 246, 261, 274, 298, 315, 332, 339, 352, 368, 387, 409, 425, 436, 451, 466, 492, 502, 516, 535, 550, 569, 588, 605, 610, 628, 652, 666, 674, 692, 704, 730, 736, 760, 776, 787, 802, 818, 833, 852, 877, 880, 902, 920, 932, 953, 960, 987, 999, 1014, 1032, 1047, 1062, 1074, 1099, 1115, 1129, 1150, 1162, 1182, 1185, 1208, 1221, 1246, 1258, 1272, 1285, 1302, 1312, 1342, 1345, 1367, 1388, 1397, 1413, 1424, 1446, 1470, 1473, 1489, 1507, 1528, 1546, 1565, 1576, 1598, 1600, 1629, 1636, 1660, 1671, 1680, 1700, 1720, 1741, 1745, 1769, 1785, 1793, 1812, 1835, 1853, 1857, 1884, 1899, 1905, 1929, 1939, 1962, 1972, 1994, 2013, 2023, 2036, 
Lime samples: 
10, 109, 204, 298, 387, 492, 588, 674, 776, 877, 960, 1062, 1162, 1258, 1345, 1446, 1546, 1636, 1741, 1835, 1929, 
Insertion Distribution: 
	LOAD 0 0 0 0 0 0 4999 490291 
	RFO 0 0 0 0 0 0 25731 72626 
	PREF 0 0 0 0 0 0 35827 709086 
	WRITEBACK 0 0 0 0 0 0 0 414642 
Total Prefetch Downgrades: 45
