
*** ChampSim Multicore Out-of-Order Simulator ***

Warmup Instructions: 50000000
Simulation Instructions: 100000000
Configuration: 2
Number of CPUs: 1
LLC sets: 2048
LLC ways: 16
Off-chip DRAM Channels: 1 Width: 64-bit Data Rate: 1600 MT/s

CPU 0 runs /datasets/cs240c-wi22-a00-public/data/Assignment2-gz/leslie3d_1116B.trace.gz
CPU 0 L1D next line prefetcher
CPU 0 L2C IP-based stride prefetcher
Heartbeat CPU 0 instructions: 1000003 cycles: 535311 heartbeat IPC: 1.86808 cumulative IPC: 1.86808 (Simulation time: 0 hr 0 min 42 sec) 
Heartbeat CPU 0 instructions: 2000003 cycles: 1071193 heartbeat IPC: 1.86608 cumulative IPC: 1.86708 (Simulation time: 0 hr 1 min 22 sec) 
Heartbeat CPU 0 instructions: 3000003 cycles: 1607887 heartbeat IPC: 1.86326 cumulative IPC: 1.8658 (Simulation time: 0 hr 2 min 0 sec) 
Heartbeat CPU 0 instructions: 4000000 cycles: 2143250 heartbeat IPC: 1.86789 cumulative IPC: 1.86632 (Simulation time: 0 hr 2 min 42 sec) 
Heartbeat CPU 0 instructions: 5000001 cycles: 2678357 heartbeat IPC: 1.86879 cumulative IPC: 1.86682 (Simulation time: 0 hr 3 min 20 sec) 
Heartbeat CPU 0 instructions: 6000001 cycles: 3213847 heartbeat IPC: 1.86745 cumulative IPC: 1.86692 (Simulation time: 0 hr 4 min 0 sec) 
Heartbeat CPU 0 instructions: 7000001 cycles: 3749836 heartbeat IPC: 1.86571 cumulative IPC: 1.86675 (Simulation time: 0 hr 4 min 38 sec) 
Heartbeat CPU 0 instructions: 8000000 cycles: 4285887 heartbeat IPC: 1.86549 cumulative IPC: 1.86659 (Simulation time: 0 hr 5 min 18 sec) 
Heartbeat CPU 0 instructions: 9000003 cycles: 4820992 heartbeat IPC: 1.8688 cumulative IPC: 1.86684 (Simulation time: 0 hr 5 min 57 sec) 
Heartbeat CPU 0 instructions: 10000002 cycles: 5356022 heartbeat IPC: 1.86905 cumulative IPC: 1.86706 (Simulation time: 0 hr 6 min 33 sec) 
Heartbeat CPU 0 instructions: 11000001 cycles: 5891764 heartbeat IPC: 1.86657 cumulative IPC: 1.86701 (Simulation time: 0 hr 7 min 11 sec) 
Heartbeat CPU 0 instructions: 12000000 cycles: 6428249 heartbeat IPC: 1.86398 cumulative IPC: 1.86676 (Simulation time: 0 hr 7 min 44 sec) 
Heartbeat CPU 0 instructions: 13000002 cycles: 6963569 heartbeat IPC: 1.86805 cumulative IPC: 1.86686 (Simulation time: 0 hr 8 min 17 sec) 
Heartbeat CPU 0 instructions: 14000003 cycles: 7498317 heartbeat IPC: 1.87004 cumulative IPC: 1.86709 (Simulation time: 0 hr 8 min 49 sec) 
Heartbeat CPU 0 instructions: 15000002 cycles: 8033860 heartbeat IPC: 1.86726 cumulative IPC: 1.8671 (Simulation time: 0 hr 9 min 20 sec) 
Heartbeat CPU 0 instructions: 16000000 cycles: 8570021 heartbeat IPC: 1.86511 cumulative IPC: 1.86697 (Simulation time: 0 hr 9 min 53 sec) 
Heartbeat CPU 0 instructions: 17000003 cycles: 9106418 heartbeat IPC: 1.8643 cumulative IPC: 1.86682 (Simulation time: 0 hr 10 min 26 sec) 
Heartbeat CPU 0 instructions: 18000001 cycles: 9641467 heartbeat IPC: 1.86898 cumulative IPC: 1.86694 (Simulation time: 0 hr 10 min 59 sec) 
Heartbeat CPU 0 instructions: 19000001 cycles: 10176913 heartbeat IPC: 1.8676 cumulative IPC: 1.86697 (Simulation time: 0 hr 11 min 29 sec) 
Heartbeat CPU 0 instructions: 20000000 cycles: 10712340 heartbeat IPC: 1.86767 cumulative IPC: 1.86701 (Simulation time: 0 hr 12 min 1 sec) 
Heartbeat CPU 0 instructions: 21000000 cycles: 11248848 heartbeat IPC: 1.86391 cumulative IPC: 1.86686 (Simulation time: 0 hr 12 min 30 sec) 
Heartbeat CPU 0 instructions: 22000000 cycles: 11784023 heartbeat IPC: 1.86855 cumulative IPC: 1.86693 (Simulation time: 0 hr 12 min 59 sec) 
Heartbeat CPU 0 instructions: 23000003 cycles: 12319305 heartbeat IPC: 1.86818 cumulative IPC: 1.86699 (Simulation time: 0 hr 13 min 28 sec) 
Heartbeat CPU 0 instructions: 24000000 cycles: 12854373 heartbeat IPC: 1.86892 cumulative IPC: 1.86707 (Simulation time: 0 hr 13 min 57 sec) 
Heartbeat CPU 0 instructions: 25000001 cycles: 13390350 heartbeat IPC: 1.86575 cumulative IPC: 1.86702 (Simulation time: 0 hr 14 min 21 sec) 
Heartbeat CPU 0 instructions: 26000002 cycles: 13926719 heartbeat IPC: 1.86439 cumulative IPC: 1.86692 (Simulation time: 0 hr 14 min 46 sec) 
Heartbeat CPU 0 instructions: 27000003 cycles: 14461662 heartbeat IPC: 1.86936 cumulative IPC: 1.86701 (Simulation time: 0 hr 15 min 13 sec) 
Heartbeat CPU 0 instructions: 28000000 cycles: 14996752 heartbeat IPC: 1.86884 cumulative IPC: 1.86707 (Simulation time: 0 hr 15 min 39 sec) 
Heartbeat CPU 0 instructions: 29000000 cycles: 15532273 heartbeat IPC: 1.86734 cumulative IPC: 1.86708 (Simulation time: 0 hr 16 min 5 sec) 
Heartbeat CPU 0 instructions: 30000002 cycles: 16069153 heartbeat IPC: 1.86262 cumulative IPC: 1.86693 (Simulation time: 0 hr 16 min 33 sec) 
Heartbeat CPU 0 instructions: 31000001 cycles: 16604389 heartbeat IPC: 1.86833 cumulative IPC: 1.86698 (Simulation time: 0 hr 16 min 58 sec) 
Heartbeat CPU 0 instructions: 32000000 cycles: 17139917 heartbeat IPC: 1.86731 cumulative IPC: 1.86699 (Simulation time: 0 hr 17 min 26 sec) 
Heartbeat CPU 0 instructions: 33000001 cycles: 17675208 heartbeat IPC: 1.86814 cumulative IPC: 1.86702 (Simulation time: 0 hr 17 min 53 sec) 
Heartbeat CPU 0 instructions: 34000000 cycles: 18211003 heartbeat IPC: 1.86638 cumulative IPC: 1.867 (Simulation time: 0 hr 18 min 18 sec) 
Heartbeat CPU 0 instructions: 35000000 cycles: 18747112 heartbeat IPC: 1.86529 cumulative IPC: 1.86695 (Simulation time: 0 hr 18 min 43 sec) 
Heartbeat CPU 0 instructions: 36000000 cycles: 19281813 heartbeat IPC: 1.8702 cumulative IPC: 1.86704 (Simulation time: 0 hr 19 min 7 sec) 
Heartbeat CPU 0 instructions: 37000003 cycles: 19864164 heartbeat IPC: 1.71718 cumulative IPC: 1.86265 (Simulation time: 0 hr 19 min 33 sec) 
Heartbeat CPU 0 instructions: 38000003 cycles: 20282413 heartbeat IPC: 2.39092 cumulative IPC: 1.87354 (Simulation time: 0 hr 19 min 57 sec) 
Heartbeat CPU 0 instructions: 39000003 cycles: 20700575 heartbeat IPC: 2.39142 cumulative IPC: 1.88401 (Simulation time: 0 hr 20 min 19 sec) 
Heartbeat CPU 0 instructions: 40000000 cycles: 21118954 heartbeat IPC: 2.39017 cumulative IPC: 1.89403 (Simulation time: 0 hr 20 min 42 sec) 
Heartbeat CPU 0 instructions: 41000002 cycles: 21537121 heartbeat IPC: 2.39139 cumulative IPC: 1.90369 (Simulation time: 0 hr 21 min 3 sec) 
Heartbeat CPU 0 instructions: 42000001 cycles: 21954969 heartbeat IPC: 2.39321 cumulative IPC: 1.91301 (Simulation time: 0 hr 21 min 26 sec) 
Heartbeat CPU 0 instructions: 43000003 cycles: 22372997 heartbeat IPC: 2.39219 cumulative IPC: 1.92196 (Simulation time: 0 hr 21 min 47 sec) 
Heartbeat CPU 0 instructions: 44000000 cycles: 22790908 heartbeat IPC: 2.39285 cumulative IPC: 1.93059 (Simulation time: 0 hr 22 min 7 sec) 
Heartbeat CPU 0 instructions: 45000002 cycles: 23209037 heartbeat IPC: 2.39161 cumulative IPC: 1.9389 (Simulation time: 0 hr 22 min 29 sec) 
Heartbeat CPU 0 instructions: 46000002 cycles: 23626944 heartbeat IPC: 2.39288 cumulative IPC: 1.94693 (Simulation time: 0 hr 22 min 49 sec) 
Heartbeat CPU 0 instructions: 47000001 cycles: 24044628 heartbeat IPC: 2.39415 cumulative IPC: 1.9547 (Simulation time: 0 hr 23 min 11 sec) 
Heartbeat CPU 0 instructions: 48000000 cycles: 24462604 heartbeat IPC: 2.39248 cumulative IPC: 1.96218 (Simulation time: 0 hr 23 min 34 sec) 
Heartbeat CPU 0 instructions: 49000000 cycles: 24919850 heartbeat IPC: 2.18701 cumulative IPC: 1.9663 (Simulation time: 0 hr 23 min 58 sec) 
Heartbeat CPU 0 instructions: 50000000 cycles: 25407209 heartbeat IPC: 2.05188 cumulative IPC: 1.96795 (Simulation time: 0 hr 24 min 24 sec) 

Warmup complete CPU 0 instructions: 50000004 cycles: 25407211 (Simulation time: 0 hr 24 min 24 sec) 

Heartbeat CPU 0 instructions: 51000002 cycles: 27739685 heartbeat IPC: 0.42873 cumulative IPC: 0.428728 (Simulation time: 0 hr 24 min 56 sec) 
Heartbeat CPU 0 instructions: 52000000 cycles: 30151024 heartbeat IPC: 0.414707 cumulative IPC: 0.421601 (Simulation time: 0 hr 25 min 27 sec) 
Heartbeat CPU 0 instructions: 53000003 cycles: 32577719 heartbeat IPC: 0.412084 cumulative IPC: 0.41838 (Simulation time: 0 hr 25 min 58 sec) 
Heartbeat CPU 0 instructions: 54000000 cycles: 34952151 heartbeat IPC: 0.421152 cumulative IPC: 0.41907 (Simulation time: 0 hr 26 min 29 sec) 
Heartbeat CPU 0 instructions: 55000002 cycles: 37247580 heartbeat IPC: 0.435649 cumulative IPC: 0.422284 (Simulation time: 0 hr 27 min 1 sec) 
Heartbeat CPU 0 instructions: 56000000 cycles: 39533582 heartbeat IPC: 0.437444 cumulative IPC: 0.424737 (Simulation time: 0 hr 27 min 33 sec) 
Heartbeat CPU 0 instructions: 57000001 cycles: 41782528 heartbeat IPC: 0.444653 cumulative IPC: 0.427472 (Simulation time: 0 hr 28 min 5 sec) 
Heartbeat CPU 0 instructions: 58000001 cycles: 44002087 heartbeat IPC: 0.45054 cumulative IPC: 0.430226 (Simulation time: 0 hr 28 min 37 sec) 
Heartbeat CPU 0 instructions: 59000000 cycles: 45293797 heartbeat IPC: 0.774167 cumulative IPC: 0.452566 (Simulation time: 0 hr 29 min 2 sec) 
Heartbeat CPU 0 instructions: 60000000 cycles: 46586400 heartbeat IPC: 0.773633 cumulative IPC: 0.472161 (Simulation time: 0 hr 29 min 26 sec) 
Heartbeat CPU 0 instructions: 61000003 cycles: 47965991 heartbeat IPC: 0.724855 cumulative IPC: 0.487615 (Simulation time: 0 hr 29 min 51 sec) 
Heartbeat CPU 0 instructions: 62000002 cycles: 49383527 heartbeat IPC: 0.705449 cumulative IPC: 0.500494 (Simulation time: 0 hr 30 min 16 sec) 
Heartbeat CPU 0 instructions: 63000003 cycles: 50647067 heartbeat IPC: 0.791428 cumulative IPC: 0.515058 (Simulation time: 0 hr 30 min 43 sec) 
Heartbeat CPU 0 instructions: 64000000 cycles: 51929552 heartbeat IPC: 0.779734 cumulative IPC: 0.527857 (Simulation time: 0 hr 31 min 8 sec) 
