
*** ChampSim Multicore Out-of-Order Simulator ***

Warmup Instructions: 50000000
Simulation Instructions: 100000000
Configuration: 2
Number of CPUs: 1
LLC sets: 2048
LLC ways: 16
Off-chip DRAM Channels: 1 Width: 64-bit Data Rate: 1600 MT/s

CPU 0 runs /datasets/cs240c-wi22-a00-public/data/Assignment2-gz/GemsFDTD_109B.trace.gz
CPU 0 L1D next line prefetcher
CPU 0 L2C IP-based stride prefetcher
Heartbeat CPU 0 instructions: 1000002 cycles: 579772 heartbeat IPC: 1.72482 cumulative IPC: 1.72482 (Simulation time: 0 hr 0 min 50 sec) 
Heartbeat CPU 0 instructions: 2000001 cycles: 1159543 heartbeat IPC: 1.72482 cumulative IPC: 1.72482 (Simulation time: 0 hr 1 min 36 sec) 
Heartbeat CPU 0 instructions: 3000000 cycles: 1738726 heartbeat IPC: 1.72657 cumulative IPC: 1.7254 (Simulation time: 0 hr 2 min 26 sec) 
Heartbeat CPU 0 instructions: 4000000 cycles: 2317720 heartbeat IPC: 1.72713 cumulative IPC: 1.72583 (Simulation time: 0 hr 3 min 10 sec) 
Heartbeat CPU 0 instructions: 5000000 cycles: 2897559 heartbeat IPC: 1.72462 cumulative IPC: 1.72559 (Simulation time: 0 hr 3 min 52 sec) 
Heartbeat CPU 0 instructions: 6000002 cycles: 3478294 heartbeat IPC: 1.72196 cumulative IPC: 1.72498 (Simulation time: 0 hr 4 min 32 sec) 
Heartbeat CPU 0 instructions: 7000001 cycles: 4058999 heartbeat IPC: 1.72204 cumulative IPC: 1.72456 (Simulation time: 0 hr 5 min 15 sec) 
Heartbeat CPU 0 instructions: 8000000 cycles: 4639197 heartbeat IPC: 1.72355 cumulative IPC: 1.72444 (Simulation time: 0 hr 5 min 56 sec) 
Heartbeat CPU 0 instructions: 9000002 cycles: 5219385 heartbeat IPC: 1.72358 cumulative IPC: 1.72434 (Simulation time: 0 hr 6 min 37 sec) 
Heartbeat CPU 0 instructions: 10000001 cycles: 5799562 heartbeat IPC: 1.72361 cumulative IPC: 1.72427 (Simulation time: 0 hr 7 min 18 sec) 
Heartbeat CPU 0 instructions: 11000000 cycles: 6379416 heartbeat IPC: 1.72457 cumulative IPC: 1.7243 (Simulation time: 0 hr 7 min 55 sec) 
Heartbeat CPU 0 instructions: 12000000 cycles: 6959308 heartbeat IPC: 1.72446 cumulative IPC: 1.72431 (Simulation time: 0 hr 8 min 31 sec) 
Heartbeat CPU 0 instructions: 13000001 cycles: 7539442 heartbeat IPC: 1.72374 cumulative IPC: 1.72427 (Simulation time: 0 hr 9 min 5 sec) 
Heartbeat CPU 0 instructions: 14000003 cycles: 8119427 heartbeat IPC: 1.72419 cumulative IPC: 1.72426 (Simulation time: 0 hr 9 min 42 sec) 
Heartbeat CPU 0 instructions: 15000000 cycles: 8699553 heartbeat IPC: 1.72376 cumulative IPC: 1.72423 (Simulation time: 0 hr 10 min 16 sec) 
Heartbeat CPU 0 instructions: 16000000 cycles: 9279688 heartbeat IPC: 1.72374 cumulative IPC: 1.7242 (Simulation time: 0 hr 10 min 56 sec) 
Heartbeat CPU 0 instructions: 17000002 cycles: 9859897 heartbeat IPC: 1.72352 cumulative IPC: 1.72416 (Simulation time: 0 hr 11 min 32 sec) 
Heartbeat CPU 0 instructions: 18000003 cycles: 10439811 heartbeat IPC: 1.7244 cumulative IPC: 1.72417 (Simulation time: 0 hr 12 min 5 sec) 
Heartbeat CPU 0 instructions: 19000000 cycles: 11019691 heartbeat IPC: 1.72449 cumulative IPC: 1.72419 (Simulation time: 0 hr 12 min 38 sec) 
Heartbeat CPU 0 instructions: 20000000 cycles: 11596636 heartbeat IPC: 1.73327 cumulative IPC: 1.72464 (Simulation time: 0 hr 13 min 8 sec) 
Heartbeat CPU 0 instructions: 21000000 cycles: 12041773 heartbeat IPC: 2.2465 cumulative IPC: 1.74393 (Simulation time: 0 hr 13 min 32 sec) 
Heartbeat CPU 0 instructions: 22000000 cycles: 12573927 heartbeat IPC: 1.87916 cumulative IPC: 1.74965 (Simulation time: 0 hr 13 min 58 sec) 
Heartbeat CPU 0 instructions: 23000000 cycles: 13023371 heartbeat IPC: 2.22497 cumulative IPC: 1.76606 (Simulation time: 0 hr 14 min 17 sec) 
Heartbeat CPU 0 instructions: 24000000 cycles: 13565179 heartbeat IPC: 1.84567 cumulative IPC: 1.76924 (Simulation time: 0 hr 14 min 45 sec) 
Heartbeat CPU 0 instructions: 25000001 cycles: 14024262 heartbeat IPC: 2.17826 cumulative IPC: 1.78263 (Simulation time: 0 hr 15 min 6 sec) 
Heartbeat CPU 0 instructions: 26000000 cycles: 14554479 heartbeat IPC: 1.88602 cumulative IPC: 1.78639 (Simulation time: 0 hr 15 min 32 sec) 
Heartbeat CPU 0 instructions: 27000000 cycles: 15030451 heartbeat IPC: 2.10096 cumulative IPC: 1.79635 (Simulation time: 0 hr 15 min 52 sec) 
Heartbeat CPU 0 instructions: 28000000 cycles: 15533402 heartbeat IPC: 1.98827 cumulative IPC: 1.80257 (Simulation time: 0 hr 16 min 22 sec) 
Heartbeat CPU 0 instructions: 29000000 cycles: 16006372 heartbeat IPC: 2.1143 cumulative IPC: 1.81178 (Simulation time: 0 hr 16 min 44 sec) 
Heartbeat CPU 0 instructions: 30000001 cycles: 16526290 heartbeat IPC: 1.92338 cumulative IPC: 1.81529 (Simulation time: 0 hr 17 min 7 sec) 
Heartbeat CPU 0 instructions: 31000001 cycles: 17027019 heartbeat IPC: 1.99709 cumulative IPC: 1.82064 (Simulation time: 0 hr 17 min 26 sec) 
Heartbeat CPU 0 instructions: 32000000 cycles: 17509220 heartbeat IPC: 2.07382 cumulative IPC: 1.82761 (Simulation time: 0 hr 17 min 47 sec) 
Heartbeat CPU 0 instructions: 33000003 cycles: 18012222 heartbeat IPC: 1.98807 cumulative IPC: 1.83209 (Simulation time: 0 hr 18 min 7 sec) 
Heartbeat CPU 0 instructions: 34000002 cycles: 18492102 heartbeat IPC: 2.08385 cumulative IPC: 1.83862 (Simulation time: 0 hr 18 min 26 sec) 
Heartbeat CPU 0 instructions: 35000002 cycles: 18994825 heartbeat IPC: 1.98917 cumulative IPC: 1.84261 (Simulation time: 0 hr 18 min 48 sec) 
Heartbeat CPU 0 instructions: 36000000 cycles: 19486968 heartbeat IPC: 2.03193 cumulative IPC: 1.84739 (Simulation time: 0 hr 19 min 8 sec) 
Heartbeat CPU 0 instructions: 37000000 cycles: 19902015 heartbeat IPC: 2.40937 cumulative IPC: 1.85911 (Simulation time: 0 hr 19 min 27 sec) 
Heartbeat CPU 0 instructions: 38000001 cycles: 20317060 heartbeat IPC: 2.40938 cumulative IPC: 1.87035 (Simulation time: 0 hr 19 min 47 sec) 
Heartbeat CPU 0 instructions: 39000000 cycles: 20732046 heartbeat IPC: 2.40972 cumulative IPC: 1.88115 (Simulation time: 0 hr 20 min 7 sec) 
Heartbeat CPU 0 instructions: 40000000 cycles: 21147055 heartbeat IPC: 2.40959 cumulative IPC: 1.89152 (Simulation time: 0 hr 20 min 26 sec) 
Heartbeat CPU 0 instructions: 41000000 cycles: 21657785 heartbeat IPC: 1.95798 cumulative IPC: 1.89308 (Simulation time: 0 hr 20 min 44 sec) 
Heartbeat CPU 0 instructions: 42000000 cycles: 22072802 heartbeat IPC: 2.40954 cumulative IPC: 1.90279 (Simulation time: 0 hr 21 min 4 sec) 
Heartbeat CPU 0 instructions: 43000000 cycles: 22487855 heartbeat IPC: 2.40933 cumulative IPC: 1.91214 (Simulation time: 0 hr 21 min 24 sec) 
Heartbeat CPU 0 instructions: 44000000 cycles: 22902808 heartbeat IPC: 2.40991 cumulative IPC: 1.92116 (Simulation time: 0 hr 21 min 44 sec) 
Heartbeat CPU 0 instructions: 45000000 cycles: 23317817 heartbeat IPC: 2.40959 cumulative IPC: 1.92985 (Simulation time: 0 hr 22 min 3 sec) 
Heartbeat CPU 0 instructions: 46000003 cycles: 23728281 heartbeat IPC: 2.43627 cumulative IPC: 1.93862 (Simulation time: 0 hr 22 min 24 sec) 
Heartbeat CPU 0 instructions: 47000001 cycles: 24362153 heartbeat IPC: 1.5776 cumulative IPC: 1.92922 (Simulation time: 0 hr 22 min 39 sec) 
Heartbeat CPU 0 instructions: 48000000 cycles: 24962942 heartbeat IPC: 1.66448 cumulative IPC: 1.92285 (Simulation time: 0 hr 22 min 57 sec) 
Heartbeat CPU 0 instructions: 49000003 cycles: 25556970 heartbeat IPC: 1.68343 cumulative IPC: 1.91729 (Simulation time: 0 hr 23 min 36 sec) 
Heartbeat CPU 0 instructions: 50000001 cycles: 26223232 heartbeat IPC: 1.50091 cumulative IPC: 1.90671 (Simulation time: 0 hr 24 min 4 sec) 

Warmup complete CPU 0 instructions: 50000001 cycles: 26223232 (Simulation time: 0 hr 24 min 4 sec) 

Heartbeat CPU 0 instructions: 51000003 cycles: 27866990 heartbeat IPC: 0.608363 cumulative IPC: 0.608363 (Simulation time: 0 hr 24 min 36 sec) 
Heartbeat CPU 0 instructions: 52000000 cycles: 29521439 heartbeat IPC: 0.604429 cumulative IPC: 0.60639 (Simulation time: 0 hr 25 min 7 sec) 
