
*** ChampSim Multicore Out-of-Order Simulator ***

Warmup Instructions: 50000000
Simulation Instructions: 100000000
Configuration: 2
Number of CPUs: 1
LLC sets: 2048
LLC ways: 16
Off-chip DRAM Channels: 1 Width: 64-bit Data Rate: 1600 MT/s

CPU 0 runs /datasets/cs240c-wi22-a00-public/data/Assignment2-gz/milc_360B.trace.gz
CPU 0 L1D next line prefetcher
CPU 0 L2C IP-based stride prefetcher
Heartbeat CPU 0 instructions: 1000001 cycles: 549511 heartbeat IPC: 1.8198 cumulative IPC: 1.8198 (Simulation time: 0 hr 0 min 43 sec) 
Heartbeat CPU 0 instructions: 2000003 cycles: 1099026 heartbeat IPC: 1.81979 cumulative IPC: 1.8198 (Simulation time: 0 hr 1 min 22 sec) 
Heartbeat CPU 0 instructions: 3000001 cycles: 1648486 heartbeat IPC: 1.81997 cumulative IPC: 1.81985 (Simulation time: 0 hr 2 min 3 sec) 
Heartbeat CPU 0 instructions: 4000000 cycles: 2197959 heartbeat IPC: 1.81992 cumulative IPC: 1.81987 (Simulation time: 0 hr 2 min 39 sec) 
Heartbeat CPU 0 instructions: 5000002 cycles: 2747468 heartbeat IPC: 1.81981 cumulative IPC: 1.81986 (Simulation time: 0 hr 3 min 20 sec) 
Heartbeat CPU 0 instructions: 6000001 cycles: 3296983 heartbeat IPC: 1.81978 cumulative IPC: 1.81985 (Simulation time: 0 hr 3 min 55 sec) 
Heartbeat CPU 0 instructions: 7000000 cycles: 3846462 heartbeat IPC: 1.8199 cumulative IPC: 1.81985 (Simulation time: 0 hr 4 min 27 sec) 
Heartbeat CPU 0 instructions: 8000000 cycles: 4395923 heartbeat IPC: 1.81997 cumulative IPC: 1.81987 (Simulation time: 0 hr 5 min 7 sec) 
Heartbeat CPU 0 instructions: 9000001 cycles: 4945436 heartbeat IPC: 1.8198 cumulative IPC: 1.81986 (Simulation time: 0 hr 5 min 42 sec) 
Heartbeat CPU 0 instructions: 10000001 cycles: 5494911 heartbeat IPC: 1.81992 cumulative IPC: 1.81987 (Simulation time: 0 hr 6 min 17 sec) 
Heartbeat CPU 0 instructions: 11000001 cycles: 6044376 heartbeat IPC: 1.81995 cumulative IPC: 1.81987 (Simulation time: 0 hr 6 min 50 sec) 
Heartbeat CPU 0 instructions: 12000000 cycles: 6593855 heartbeat IPC: 1.8199 cumulative IPC: 1.81988 (Simulation time: 0 hr 7 min 21 sec) 
Heartbeat CPU 0 instructions: 13000001 cycles: 7143384 heartbeat IPC: 1.81974 cumulative IPC: 1.81987 (Simulation time: 0 hr 7 min 54 sec) 
Heartbeat CPU 0 instructions: 14000003 cycles: 7692851 heartbeat IPC: 1.81995 cumulative IPC: 1.81987 (Simulation time: 0 hr 8 min 27 sec) 
Heartbeat CPU 0 instructions: 15000003 cycles: 8242328 heartbeat IPC: 1.81991 cumulative IPC: 1.81987 (Simulation time: 0 hr 8 min 59 sec) 
Heartbeat CPU 0 instructions: 16000000 cycles: 8791808 heartbeat IPC: 1.8199 cumulative IPC: 1.81988 (Simulation time: 0 hr 9 min 29 sec) 
Heartbeat CPU 0 instructions: 17000001 cycles: 9341333 heartbeat IPC: 1.81976 cumulative IPC: 1.81987 (Simulation time: 0 hr 10 min 1 sec) 
Heartbeat CPU 0 instructions: 18000001 cycles: 9890809 heartbeat IPC: 1.81992 cumulative IPC: 1.81987 (Simulation time: 0 hr 10 min 29 sec) 
Heartbeat CPU 0 instructions: 19000000 cycles: 10440288 heartbeat IPC: 1.8199 cumulative IPC: 1.81987 (Simulation time: 0 hr 10 min 57 sec) 
Heartbeat CPU 0 instructions: 20000000 cycles: 10989424 heartbeat IPC: 1.82104 cumulative IPC: 1.81993 (Simulation time: 0 hr 11 min 26 sec) 
Heartbeat CPU 0 instructions: 21000000 cycles: 11536405 heartbeat IPC: 1.82822 cumulative IPC: 1.82032 (Simulation time: 0 hr 11 min 57 sec) 
Heartbeat CPU 0 instructions: 22000003 cycles: 12083409 heartbeat IPC: 1.82815 cumulative IPC: 1.82068 (Simulation time: 0 hr 12 min 27 sec) 
Heartbeat CPU 0 instructions: 23000003 cycles: 12630401 heartbeat IPC: 1.82818 cumulative IPC: 1.821 (Simulation time: 0 hr 12 min 58 sec) 
