
*** ChampSim Multicore Out-of-Order Simulator ***

Warmup Instructions: 50000000
Simulation Instructions: 100000000
Configuration: 2
Number of CPUs: 1
LLC sets: 2048
LLC ways: 16
Off-chip DRAM Channels: 1 Width: 64-bit Data Rate: 1600 MT/s

CPU 0 runs /datasets/cs240c-wi22-a00-public/data/Assignment2-gz/zeusmp_600B.trace.gz
CPU 0 L1D next line prefetcher
CPU 0 L2C IP-based stride prefetcher
Heartbeat CPU 0 instructions: 1000000 cycles: 407346 heartbeat IPC: 2.45492 cumulative IPC: 2.45492 (Simulation time: 0 hr 0 min 36 sec) 
Heartbeat CPU 0 instructions: 2000001 cycles: 814284 heartbeat IPC: 2.45738 cumulative IPC: 2.45615 (Simulation time: 0 hr 1 min 8 sec) 
Heartbeat CPU 0 instructions: 3000000 cycles: 1221753 heartbeat IPC: 2.45417 cumulative IPC: 2.45549 (Simulation time: 0 hr 1 min 41 sec) 
Heartbeat CPU 0 instructions: 4000000 cycles: 1629404 heartbeat IPC: 2.45308 cumulative IPC: 2.45489 (Simulation time: 0 hr 2 min 10 sec) 
Heartbeat CPU 0 instructions: 5000001 cycles: 2036967 heartbeat IPC: 2.45361 cumulative IPC: 2.45463 (Simulation time: 0 hr 2 min 37 sec) 
Heartbeat CPU 0 instructions: 6000000 cycles: 2444291 heartbeat IPC: 2.45505 cumulative IPC: 2.4547 (Simulation time: 0 hr 3 min 4 sec) 
Heartbeat CPU 0 instructions: 7000000 cycles: 2851775 heartbeat IPC: 2.45408 cumulative IPC: 2.45461 (Simulation time: 0 hr 3 min 31 sec) 
Heartbeat CPU 0 instructions: 8000000 cycles: 3259377 heartbeat IPC: 2.45337 cumulative IPC: 2.45446 (Simulation time: 0 hr 3 min 57 sec) 
Heartbeat CPU 0 instructions: 9000003 cycles: 3666454 heartbeat IPC: 2.45655 cumulative IPC: 2.45469 (Simulation time: 0 hr 4 min 24 sec) 
Heartbeat CPU 0 instructions: 10000001 cycles: 4073950 heartbeat IPC: 2.45401 cumulative IPC: 2.45462 (Simulation time: 0 hr 4 min 52 sec) 
Heartbeat CPU 0 instructions: 11000000 cycles: 4481317 heartbeat IPC: 2.45479 cumulative IPC: 2.45464 (Simulation time: 0 hr 5 min 23 sec) 
Heartbeat CPU 0 instructions: 12000000 cycles: 4888907 heartbeat IPC: 2.45345 cumulative IPC: 2.45454 (Simulation time: 0 hr 5 min 50 sec) 
Heartbeat CPU 0 instructions: 13000003 cycles: 5296035 heartbeat IPC: 2.45624 cumulative IPC: 2.45467 (Simulation time: 0 hr 6 min 16 sec) 
Heartbeat CPU 0 instructions: 14000001 cycles: 5703619 heartbeat IPC: 2.45348 cumulative IPC: 2.45458 (Simulation time: 0 hr 6 min 42 sec) 
Heartbeat CPU 0 instructions: 15000003 cycles: 6111274 heartbeat IPC: 2.45306 cumulative IPC: 2.45448 (Simulation time: 0 hr 7 min 10 sec) 
Heartbeat CPU 0 instructions: 16000000 cycles: 6519165 heartbeat IPC: 2.45163 cumulative IPC: 2.4543 (Simulation time: 0 hr 7 min 33 sec) 
Heartbeat CPU 0 instructions: 17000002 cycles: 6945435 heartbeat IPC: 2.34594 cumulative IPC: 2.44765 (Simulation time: 0 hr 7 min 58 sec) 
Heartbeat CPU 0 instructions: 18000000 cycles: 7402897 heartbeat IPC: 2.18597 cumulative IPC: 2.43148 (Simulation time: 0 hr 8 min 22 sec) 
Heartbeat CPU 0 instructions: 19000000 cycles: 7812641 heartbeat IPC: 2.44055 cumulative IPC: 2.43196 (Simulation time: 0 hr 8 min 46 sec) 
Heartbeat CPU 0 instructions: 20000000 cycles: 8225115 heartbeat IPC: 2.4244 cumulative IPC: 2.43158 (Simulation time: 0 hr 9 min 9 sec) 
Heartbeat CPU 0 instructions: 21000001 cycles: 8686472 heartbeat IPC: 2.16752 cumulative IPC: 2.41755 (Simulation time: 0 hr 9 min 33 sec) 
Heartbeat CPU 0 instructions: 22000000 cycles: 9108345 heartbeat IPC: 2.37038 cumulative IPC: 2.41537 (Simulation time: 0 hr 9 min 57 sec) 
Heartbeat CPU 0 instructions: 23000000 cycles: 9515157 heartbeat IPC: 2.45814 cumulative IPC: 2.4172 (Simulation time: 0 hr 10 min 18 sec) 
Heartbeat CPU 0 instructions: 24000000 cycles: 9968811 heartbeat IPC: 2.20432 cumulative IPC: 2.40751 (Simulation time: 0 hr 10 min 38 sec) 
Heartbeat CPU 0 instructions: 25000000 cycles: 10408192 heartbeat IPC: 2.27593 cumulative IPC: 2.40195 (Simulation time: 0 hr 10 min 59 sec) 
Heartbeat CPU 0 instructions: 26000000 cycles: 10815146 heartbeat IPC: 2.45728 cumulative IPC: 2.40404 (Simulation time: 0 hr 11 min 21 sec) 
Heartbeat CPU 0 instructions: 27000003 cycles: 11253221 heartbeat IPC: 2.28272 cumulative IPC: 2.39931 (Simulation time: 0 hr 11 min 43 sec) 
Heartbeat CPU 0 instructions: 28000000 cycles: 11711466 heartbeat IPC: 2.18223 cumulative IPC: 2.39082 (Simulation time: 0 hr 12 min 6 sec) 
Heartbeat CPU 0 instructions: 29000000 cycles: 12119009 heartbeat IPC: 2.45373 cumulative IPC: 2.39294 (Simulation time: 0 hr 12 min 29 sec) 
Heartbeat CPU 0 instructions: 30000002 cycles: 12541769 heartbeat IPC: 2.36541 cumulative IPC: 2.39201 (Simulation time: 0 hr 12 min 50 sec) 
Heartbeat CPU 0 instructions: 31000002 cycles: 13008154 heartbeat IPC: 2.14415 cumulative IPC: 2.38312 (Simulation time: 0 hr 13 min 10 sec) 
Heartbeat CPU 0 instructions: 32000000 cycles: 13426557 heartbeat IPC: 2.39004 cumulative IPC: 2.38334 (Simulation time: 0 hr 13 min 29 sec) 
Heartbeat CPU 0 instructions: 33000002 cycles: 13838108 heartbeat IPC: 2.42984 cumulative IPC: 2.38472 (Simulation time: 0 hr 13 min 49 sec) 
Heartbeat CPU 0 instructions: 34000000 cycles: 14301789 heartbeat IPC: 2.15665 cumulative IPC: 2.37733 (Simulation time: 0 hr 14 min 9 sec) 
Heartbeat CPU 0 instructions: 35000001 cycles: 14738018 heartbeat IPC: 2.29238 cumulative IPC: 2.37481 (Simulation time: 0 hr 14 min 28 sec) 
Heartbeat CPU 0 instructions: 36000000 cycles: 15145665 heartbeat IPC: 2.4531 cumulative IPC: 2.37692 (Simulation time: 0 hr 14 min 48 sec) 
Heartbeat CPU 0 instructions: 37000001 cycles: 15596605 heartbeat IPC: 2.21759 cumulative IPC: 2.37231 (Simulation time: 0 hr 15 min 7 sec) 
Heartbeat CPU 0 instructions: 38000001 cycles: 16052832 heartbeat IPC: 2.19189 cumulative IPC: 2.36718 (Simulation time: 0 hr 15 min 27 sec) 
Heartbeat CPU 0 instructions: 39000002 cycles: 16459968 heartbeat IPC: 2.45618 cumulative IPC: 2.36939 (Simulation time: 0 hr 15 min 46 sec) 
Heartbeat CPU 0 instructions: 40000000 cycles: 16894199 heartbeat IPC: 2.30292 cumulative IPC: 2.36768 (Simulation time: 0 hr 16 min 4 sec) 
Heartbeat CPU 0 instructions: 41000002 cycles: 17361935 heartbeat IPC: 2.13796 cumulative IPC: 2.36149 (Simulation time: 0 hr 16 min 24 sec) 
Heartbeat CPU 0 instructions: 42000000 cycles: 17776376 heartbeat IPC: 2.41288 cumulative IPC: 2.36269 (Simulation time: 0 hr 16 min 42 sec) 
Heartbeat CPU 0 instructions: 43000003 cycles: 18194819 heartbeat IPC: 2.38982 cumulative IPC: 2.36331 (Simulation time: 0 hr 16 min 59 sec) 
Heartbeat CPU 0 instructions: 44000000 cycles: 18662033 heartbeat IPC: 2.14034 cumulative IPC: 2.35773 (Simulation time: 0 hr 17 min 18 sec) 
Heartbeat CPU 0 instructions: 45000003 cycles: 19093780 heartbeat IPC: 2.31618 cumulative IPC: 2.35679 (Simulation time: 0 hr 17 min 37 sec) 
Heartbeat CPU 0 instructions: 46000003 cycles: 19502056 heartbeat IPC: 2.44932 cumulative IPC: 2.35873 (Simulation time: 0 hr 17 min 57 sec) 
Heartbeat CPU 0 instructions: 47000001 cycles: 19962549 heartbeat IPC: 2.17158 cumulative IPC: 2.35441 (Simulation time: 0 hr 18 min 14 sec) 
Heartbeat CPU 0 instructions: 48000000 cycles: 20413621 heartbeat IPC: 2.21694 cumulative IPC: 2.35137 (Simulation time: 0 hr 18 min 33 sec) 
Heartbeat CPU 0 instructions: 49000001 cycles: 20820471 heartbeat IPC: 2.45791 cumulative IPC: 2.35345 (Simulation time: 0 hr 18 min 52 sec) 
Heartbeat CPU 0 instructions: 50000000 cycles: 21265978 heartbeat IPC: 2.24463 cumulative IPC: 2.35117 (Simulation time: 0 hr 19 min 8 sec) 

Warmup complete CPU 0 instructions: 50000001 cycles: 21265979 (Simulation time: 0 hr 19 min 8 sec) 

Heartbeat CPU 0 instructions: 51000001 cycles: 22046357 heartbeat IPC: 1.28143 cumulative IPC: 1.28143 (Simulation time: 0 hr 19 min 27 sec) 
Heartbeat CPU 0 instructions: 52000000 cycles: 22815536 heartbeat IPC: 1.30009 cumulative IPC: 1.29069 (Simulation time: 0 hr 19 min 47 sec) 
Heartbeat CPU 0 instructions: 53000001 cycles: 23597181 heartbeat IPC: 1.27935 cumulative IPC: 1.28689 (Simulation time: 0 hr 20 min 5 sec) 
Heartbeat CPU 0 instructions: 54000000 cycles: 24378454 heartbeat IPC: 1.27996 cumulative IPC: 1.28515 (Simulation time: 0 hr 20 min 24 sec) 
Heartbeat CPU 0 instructions: 55000001 cycles: 25151729 heartbeat IPC: 1.2932 cumulative IPC: 1.28675 (Simulation time: 0 hr 20 min 45 sec) 
Heartbeat CPU 0 instructions: 56000000 cycles: 25929173 heartbeat IPC: 1.28627 cumulative IPC: 1.28667 (Simulation time: 0 hr 21 min 4 sec) 
Heartbeat CPU 0 instructions: 57000003 cycles: 26715821 heartbeat IPC: 1.27122 cumulative IPC: 1.28444 (Simulation time: 0 hr 21 min 23 sec) 
Heartbeat CPU 0 instructions: 58000001 cycles: 27486526 heartbeat IPC: 1.29751 cumulative IPC: 1.28606 (Simulation time: 0 hr 21 min 42 sec) 
Heartbeat CPU 0 instructions: 59000000 cycles: 28260275 heartbeat IPC: 1.29241 cumulative IPC: 1.28676 (Simulation time: 0 hr 22 min 3 sec) 
Heartbeat CPU 0 instructions: 60000000 cycles: 29037688 heartbeat IPC: 1.28632 cumulative IPC: 1.28672 (Simulation time: 0 hr 22 min 23 sec) 
Heartbeat CPU 0 instructions: 61000003 cycles: 29815076 heartbeat IPC: 1.28636 cumulative IPC: 1.28669 (Simulation time: 0 hr 22 min 42 sec) 
Heartbeat CPU 0 instructions: 62000001 cycles: 30595188 heartbeat IPC: 1.28186 cumulative IPC: 1.28628 (Simulation time: 0 hr 23 min 0 sec) 
Heartbeat CPU 0 instructions: 63000000 cycles: 31374926 heartbeat IPC: 1.28248 cumulative IPC: 1.28599 (Simulation time: 0 hr 23 min 20 sec) 
Heartbeat CPU 0 instructions: 64000000 cycles: 32150110 heartbeat IPC: 1.29002 cumulative IPC: 1.28628 (Simulation time: 0 hr 23 min 38 sec) 
Heartbeat CPU 0 instructions: 65000001 cycles: 32930514 heartbeat IPC: 1.28139 cumulative IPC: 1.28595 (Simulation time: 0 hr 23 min 57 sec) 
Heartbeat CPU 0 instructions: 66000000 cycles: 33715718 heartbeat IPC: 1.27355 cumulative IPC: 1.28517 (Simulation time: 0 hr 24 min 17 sec) 
Heartbeat CPU 0 instructions: 67000001 cycles: 34502112 heartbeat IPC: 1.27163 cumulative IPC: 1.28436 (Simulation time: 0 hr 24 min 36 sec) 
Heartbeat CPU 0 instructions: 68000000 cycles: 35284146 heartbeat IPC: 1.27872 cumulative IPC: 1.28405 (Simulation time: 0 hr 24 min 54 sec) 
Heartbeat CPU 0 instructions: 69000002 cycles: 36071538 heartbeat IPC: 1.27002 cumulative IPC: 1.2833 (Simulation time: 0 hr 25 min 13 sec) 
Heartbeat CPU 0 instructions: 70000000 cycles: 36852132 heartbeat IPC: 1.28107 cumulative IPC: 1.28319 (Simulation time: 0 hr 25 min 33 sec) 
Heartbeat CPU 0 instructions: 71000001 cycles: 37636925 heartbeat IPC: 1.27422 cumulative IPC: 1.28276 (Simulation time: 0 hr 25 min 53 sec) 
Heartbeat CPU 0 instructions: 72000000 cycles: 38414460 heartbeat IPC: 1.28611 cumulative IPC: 1.28291 (Simulation time: 0 hr 26 min 11 sec) 
Heartbeat CPU 0 instructions: 73000003 cycles: 39190205 heartbeat IPC: 1.28909 cumulative IPC: 1.28318 (Simulation time: 0 hr 26 min 29 sec) 
Heartbeat CPU 0 instructions: 74000002 cycles: 39971159 heartbeat IPC: 1.28048 cumulative IPC: 1.28307 (Simulation time: 0 hr 26 min 47 sec) 
Heartbeat CPU 0 instructions: 75000003 cycles: 40751212 heartbeat IPC: 1.28197 cumulative IPC: 1.28302 (Simulation time: 0 hr 27 min 4 sec) 
Heartbeat CPU 0 instructions: 76000000 cycles: 41531142 heartbeat IPC: 1.28216 cumulative IPC: 1.28299 (Simulation time: 0 hr 27 min 23 sec) 
Heartbeat CPU 0 instructions: 77000000 cycles: 42312631 heartbeat IPC: 1.27961 cumulative IPC: 1.28286 (Simulation time: 0 hr 27 min 43 sec) 
Heartbeat CPU 0 instructions: 78000003 cycles: 43091502 heartbeat IPC: 1.28391 cumulative IPC: 1.2829 (Simulation time: 0 hr 28 min 1 sec) 
Heartbeat CPU 0 instructions: 79000000 cycles: 43869824 heartbeat IPC: 1.28481 cumulative IPC: 1.28297 (Simulation time: 0 hr 28 min 20 sec) 
Heartbeat CPU 0 instructions: 80000000 cycles: 44651610 heartbeat IPC: 1.27912 cumulative IPC: 1.28284 (Simulation time: 0 hr 28 min 38 sec) 
Heartbeat CPU 0 instructions: 81000002 cycles: 45433340 heartbeat IPC: 1.27922 cumulative IPC: 1.28272 (Simulation time: 0 hr 28 min 57 sec) 
Heartbeat CPU 0 instructions: 82000002 cycles: 46209535 heartbeat IPC: 1.28834 cumulative IPC: 1.2829 (Simulation time: 0 hr 29 min 15 sec) 
Heartbeat CPU 0 instructions: 83000001 cycles: 46982994 heartbeat IPC: 1.29289 cumulative IPC: 1.2832 (Simulation time: 0 hr 29 min 34 sec) 
Heartbeat CPU 0 instructions: 84000000 cycles: 47766579 heartbeat IPC: 1.27618 cumulative IPC: 1.28299 (Simulation time: 0 hr 29 min 53 sec) 
Heartbeat CPU 0 instructions: 85000002 cycles: 48545149 heartbeat IPC: 1.28441 cumulative IPC: 1.28303 (Simulation time: 0 hr 30 min 9 sec) 
Heartbeat CPU 0 instructions: 86000002 cycles: 49321629 heartbeat IPC: 1.28786 cumulative IPC: 1.28316 (Simulation time: 0 hr 30 min 27 sec) 
Heartbeat CPU 0 instructions: 87000000 cycles: 50104478 heartbeat IPC: 1.27738 cumulative IPC: 1.28301 (Simulation time: 0 hr 30 min 44 sec) 
Heartbeat CPU 0 instructions: 88000000 cycles: 50883788 heartbeat IPC: 1.28319 cumulative IPC: 1.28301 (Simulation time: 0 hr 31 min 1 sec) 
Heartbeat CPU 0 instructions: 89000002 cycles: 51659760 heartbeat IPC: 1.28871 cumulative IPC: 1.28316 (Simulation time: 0 hr 31 min 18 sec) 
Heartbeat CPU 0 instructions: 90000002 cycles: 52434377 heartbeat IPC: 1.29096 cumulative IPC: 1.28335 (Simulation time: 0 hr 31 min 33 sec) 
Heartbeat CPU 0 instructions: 91000001 cycles: 53213643 heartbeat IPC: 1.28326 cumulative IPC: 1.28335 (Simulation time: 0 hr 31 min 49 sec) 
Heartbeat CPU 0 instructions: 92000000 cycles: 53998688 heartbeat IPC: 1.27381 cumulative IPC: 1.28312 (Simulation time: 0 hr 32 min 5 sec) 
Heartbeat CPU 0 instructions: 93000000 cycles: 54773419 heartbeat IPC: 1.29077 cumulative IPC: 1.2833 (Simulation time: 0 hr 32 min 21 sec) 
Heartbeat CPU 0 instructions: 94000002 cycles: 55554799 heartbeat IPC: 1.27979 cumulative IPC: 1.28322 (Simulation time: 0 hr 32 min 37 sec) 
Heartbeat CPU 0 instructions: 95000001 cycles: 56335683 heartbeat IPC: 1.2806 cumulative IPC: 1.28316 (Simulation time: 0 hr 32 min 53 sec) 
Heartbeat CPU 0 instructions: 96000000 cycles: 57116177 heartbeat IPC: 1.28124 cumulative IPC: 1.28312 (Simulation time: 0 hr 33 min 9 sec) 
Heartbeat CPU 0 instructions: 97000003 cycles: 57890360 heartbeat IPC: 1.29169 cumulative IPC: 1.2833 (Simulation time: 0 hr 33 min 24 sec) 
Heartbeat CPU 0 instructions: 98000002 cycles: 58663387 heartbeat IPC: 1.29361 cumulative IPC: 1.28351 (Simulation time: 0 hr 33 min 40 sec) 
Heartbeat CPU 0 instructions: 99000000 cycles: 59445047 heartbeat IPC: 1.27933 cumulative IPC: 1.28343 (Simulation time: 0 hr 33 min 55 sec) 
Heartbeat CPU 0 instructions: 100000000 cycles: 60221977 heartbeat IPC: 1.28712 cumulative IPC: 1.2835 (Simulation time: 0 hr 34 min 11 sec) 
Heartbeat CPU 0 instructions: 101000002 cycles: 60991824 heartbeat IPC: 1.29896 cumulative IPC: 1.2838 (Simulation time: 0 hr 34 min 25 sec) 
Heartbeat CPU 0 instructions: 102000002 cycles: 61780131 heartbeat IPC: 1.26854 cumulative IPC: 1.2835 (Simulation time: 0 hr 34 min 40 sec) 
Heartbeat CPU 0 instructions: 103000001 cycles: 62559717 heartbeat IPC: 1.28273 cumulative IPC: 1.28349 (Simulation time: 0 hr 34 min 56 sec) 
Heartbeat CPU 0 instructions: 104000000 cycles: 63343484 heartbeat IPC: 1.27589 cumulative IPC: 1.28335 (Simulation time: 0 hr 35 min 12 sec) 
Heartbeat CPU 0 instructions: 105000001 cycles: 64126513 heartbeat IPC: 1.27709 cumulative IPC: 1.28323 (Simulation time: 0 hr 35 min 29 sec) 
Heartbeat CPU 0 instructions: 106000000 cycles: 64905904 heartbeat IPC: 1.28305 cumulative IPC: 1.28323 (Simulation time: 0 hr 35 min 46 sec) 
Heartbeat CPU 0 instructions: 107000000 cycles: 65684717 heartbeat IPC: 1.28401 cumulative IPC: 1.28324 (Simulation time: 0 hr 36 min 3 sec) 
Heartbeat CPU 0 instructions: 108000000 cycles: 66464089 heartbeat IPC: 1.28308 cumulative IPC: 1.28324 (Simulation time: 0 hr 36 min 23 sec) 
Heartbeat CPU 0 instructions: 109000000 cycles: 67248827 heartbeat IPC: 1.27431 cumulative IPC: 1.28309 (Simulation time: 0 hr 36 min 40 sec) 
Heartbeat CPU 0 instructions: 110000002 cycles: 68033085 heartbeat IPC: 1.27509 cumulative IPC: 1.28295 (Simulation time: 0 hr 37 min 0 sec) 
Heartbeat CPU 0 instructions: 111000000 cycles: 68813820 heartbeat IPC: 1.28084 cumulative IPC: 1.28292 (Simulation time: 0 hr 37 min 19 sec) 
Heartbeat CPU 0 instructions: 112000000 cycles: 69597490 heartbeat IPC: 1.27605 cumulative IPC: 1.28281 (Simulation time: 0 hr 37 min 36 sec) 
Heartbeat CPU 0 instructions: 113000003 cycles: 70380623 heartbeat IPC: 1.27693 cumulative IPC: 1.28271 (Simulation time: 0 hr 37 min 54 sec) 
Heartbeat CPU 0 instructions: 114000000 cycles: 71160182 heartbeat IPC: 1.28277 cumulative IPC: 1.28271 (Simulation time: 0 hr 38 min 13 sec) 
Heartbeat CPU 0 instructions: 115000000 cycles: 71935774 heartbeat IPC: 1.28934 cumulative IPC: 1.28282 (Simulation time: 0 hr 38 min 33 sec) 
Heartbeat CPU 0 instructions: 116000000 cycles: 72717506 heartbeat IPC: 1.27921 cumulative IPC: 1.28276 (Simulation time: 0 hr 38 min 49 sec) 
Heartbeat CPU 0 instructions: 117000000 cycles: 73495618 heartbeat IPC: 1.28516 cumulative IPC: 1.2828 (Simulation time: 0 hr 39 min 8 sec) 
Heartbeat CPU 0 instructions: 118000000 cycles: 74275157 heartbeat IPC: 1.28281 cumulative IPC: 1.2828 (Simulation time: 0 hr 39 min 25 sec) 
Heartbeat CPU 0 instructions: 119000000 cycles: 75054278 heartbeat IPC: 1.2835 cumulative IPC: 1.28281 (Simulation time: 0 hr 39 min 42 sec) 
Heartbeat CPU 0 instructions: 120000000 cycles: 75838855 heartbeat IPC: 1.27457 cumulative IPC: 1.28269 (Simulation time: 0 hr 39 min 59 sec) 
Heartbeat CPU 0 instructions: 121000000 cycles: 76619076 heartbeat IPC: 1.28169 cumulative IPC: 1.28267 (Simulation time: 0 hr 40 min 16 sec) 
Heartbeat CPU 0 instructions: 122000003 cycles: 77394496 heartbeat IPC: 1.28963 cumulative IPC: 1.28277 (Simulation time: 0 hr 40 min 31 sec) 
Heartbeat CPU 0 instructions: 123000001 cycles: 78177812 heartbeat IPC: 1.27662 cumulative IPC: 1.28269 (Simulation time: 0 hr 40 min 47 sec) 
Heartbeat CPU 0 instructions: 124000000 cycles: 78958351 heartbeat IPC: 1.28116 cumulative IPC: 1.28267 (Simulation time: 0 hr 41 min 4 sec) 
Heartbeat CPU 0 instructions: 125000001 cycles: 79740121 heartbeat IPC: 1.27915 cumulative IPC: 1.28262 (Simulation time: 0 hr 41 min 20 sec) 
Heartbeat CPU 0 instructions: 126000003 cycles: 80524866 heartbeat IPC: 1.2743 cumulative IPC: 1.28251 (Simulation time: 0 hr 41 min 36 sec) 
Heartbeat CPU 0 instructions: 127000003 cycles: 81304187 heartbeat IPC: 1.28317 cumulative IPC: 1.28252 (Simulation time: 0 hr 41 min 53 sec) 
Heartbeat CPU 0 instructions: 128000000 cycles: 82076964 heartbeat IPC: 1.29403 cumulative IPC: 1.28266 (Simulation time: 0 hr 42 min 9 sec) 
Heartbeat CPU 0 instructions: 129000002 cycles: 82851649 heartbeat IPC: 1.29085 cumulative IPC: 1.28277 (Simulation time: 0 hr 42 min 26 sec) 
Heartbeat CPU 0 instructions: 130000003 cycles: 83635620 heartbeat IPC: 1.27556 cumulative IPC: 1.28268 (Simulation time: 0 hr 42 min 42 sec) 
Heartbeat CPU 0 instructions: 131000003 cycles: 84421116 heartbeat IPC: 1.27308 cumulative IPC: 1.28256 (Simulation time: 0 hr 42 min 59 sec) 
Heartbeat CPU 0 instructions: 132000000 cycles: 85199746 heartbeat IPC: 1.2843 cumulative IPC: 1.28258 (Simulation time: 0 hr 43 min 14 sec) 
Heartbeat CPU 0 instructions: 133000001 cycles: 85978927 heartbeat IPC: 1.2834 cumulative IPC: 1.28259 (Simulation time: 0 hr 43 min 29 sec) 
Heartbeat CPU 0 instructions: 134000003 cycles: 86764382 heartbeat IPC: 1.27315 cumulative IPC: 1.28247 (Simulation time: 0 hr 43 min 44 sec) 
Heartbeat CPU 0 instructions: 135000003 cycles: 87540864 heartbeat IPC: 1.28786 cumulative IPC: 1.28254 (Simulation time: 0 hr 43 min 59 sec) 
Heartbeat CPU 0 instructions: 136000000 cycles: 88323634 heartbeat IPC: 1.27751 cumulative IPC: 1.28248 (Simulation time: 0 hr 44 min 13 sec) 
Heartbeat CPU 0 instructions: 137000003 cycles: 89103601 heartbeat IPC: 1.28211 cumulative IPC: 1.28247 (Simulation time: 0 hr 44 min 28 sec) 
Heartbeat CPU 0 instructions: 138000000 cycles: 89871445 heartbeat IPC: 1.30234 cumulative IPC: 1.2827 (Simulation time: 0 hr 44 min 43 sec) 
Heartbeat CPU 0 instructions: 139000000 cycles: 90655962 heartbeat IPC: 1.27467 cumulative IPC: 1.28261 (Simulation time: 0 hr 44 min 57 sec) 
Heartbeat CPU 0 instructions: 140000000 cycles: 91440920 heartbeat IPC: 1.27395 cumulative IPC: 1.28251 (Simulation time: 0 hr 45 min 11 sec) 
Heartbeat CPU 0 instructions: 141000000 cycles: 92219530 heartbeat IPC: 1.28434 cumulative IPC: 1.28253 (Simulation time: 0 hr 45 min 26 sec) 
Heartbeat CPU 0 instructions: 142000003 cycles: 92997099 heartbeat IPC: 1.28606 cumulative IPC: 1.28257 (Simulation time: 0 hr 45 min 40 sec) 
Heartbeat CPU 0 instructions: 143000001 cycles: 93779606 heartbeat IPC: 1.27794 cumulative IPC: 1.28252 (Simulation time: 0 hr 45 min 53 sec) 
Heartbeat CPU 0 instructions: 144000000 cycles: 94561186 heartbeat IPC: 1.27946 cumulative IPC: 1.28248 (Simulation time: 0 hr 46 min 7 sec) 
Heartbeat CPU 0 instructions: 145000001 cycles: 95341948 heartbeat IPC: 1.2808 cumulative IPC: 1.28247 (Simulation time: 0 hr 46 min 19 sec) 
Heartbeat CPU 0 instructions: 146000000 cycles: 96125658 heartbeat IPC: 1.27598 cumulative IPC: 1.2824 (Simulation time: 0 hr 46 min 31 sec) 
Heartbeat CPU 0 instructions: 147000000 cycles: 96907900 heartbeat IPC: 1.27838 cumulative IPC: 1.28236 (Simulation time: 0 hr 46 min 44 sec) 
Heartbeat CPU 0 instructions: 148000000 cycles: 97687457 heartbeat IPC: 1.28278 cumulative IPC: 1.28236 (Simulation time: 0 hr 46 min 58 sec) 
Heartbeat CPU 0 instructions: 149000001 cycles: 98463542 heartbeat IPC: 1.28852 cumulative IPC: 1.28242 (Simulation time: 0 hr 47 min 11 sec) 
Heartbeat CPU 0 instructions: 150000000 cycles: 99245701 heartbeat IPC: 1.27851 cumulative IPC: 1.28238 (Simulation time: 0 hr 47 min 23 sec) 
Finished CPU 0 instructions: 100000003 cycles: 77979723 cummulative IPC: 1.28238 (Simulation time: 0 hr 47 min 23 sec) 

ChampSim completed all CPUs

Region of Interest Statistics

CPU 0 cummulative IPC: 1.28238 instructions: 100000003 cycles: 77979723
LLC TOTAL     ACCESS:     381303  HIT:      18142  MISS:     363161
LLC LOAD      ACCESS:      29511  HIT:        270  MISS:      29241
LLC RFO       ACCESS:          0  HIT:          0  MISS:          0
LLC PREFETCH  ACCESS:     288034  HIT:       3390  MISS:     284644
LLC WRITEBACK ACCESS:      63758  HIT:      14482  MISS:      49276
