
*** ChampSim Multicore Out-of-Order Simulator ***

Warmup Instructions: 50000000
Simulation Instructions: 100000000
Configuration: 2
Number of CPUs: 1
LLC sets: 2048
LLC ways: 16
Off-chip DRAM Channels: 1 Width: 64-bit Data Rate: 1600 MT/s

CPU 0 runs /datasets/cs240c-wi22-a00-public/data/Assignment2-gz/calculix_3812B.trace.gz
CPU 0 L1D next line prefetcher
CPU 0 L2C IP-based stride prefetcher
Heartbeat CPU 0 instructions: 1000001 cycles: 478689 heartbeat IPC: 2.08904 cumulative IPC: 2.08904 (Simulation time: 0 hr 0 min 43 sec) 
Heartbeat CPU 0 instructions: 2000002 cycles: 956483 heartbeat IPC: 2.09295 cumulative IPC: 2.091 (Simulation time: 0 hr 1 min 26 sec) 
Heartbeat CPU 0 instructions: 3000002 cycles: 1434999 heartbeat IPC: 2.08979 cumulative IPC: 2.0906 (Simulation time: 0 hr 2 min 4 sec) 
Heartbeat CPU 0 instructions: 4000000 cycles: 1907482 heartbeat IPC: 2.11647 cumulative IPC: 2.09701 (Simulation time: 0 hr 2 min 41 sec) 
Heartbeat CPU 0 instructions: 5000000 cycles: 2356307 heartbeat IPC: 2.22804 cumulative IPC: 2.12196 (Simulation time: 0 hr 3 min 10 sec) 
Heartbeat CPU 0 instructions: 6000003 cycles: 2761688 heartbeat IPC: 2.46682 cumulative IPC: 2.17259 (Simulation time: 0 hr 3 min 36 sec) 
Heartbeat CPU 0 instructions: 7000002 cycles: 3154798 heartbeat IPC: 2.54381 cumulative IPC: 2.21884 (Simulation time: 0 hr 3 min 58 sec) 
Heartbeat CPU 0 instructions: 8000000 cycles: 3547939 heartbeat IPC: 2.54361 cumulative IPC: 2.25483 (Simulation time: 0 hr 4 min 22 sec) 
Heartbeat CPU 0 instructions: 9000000 cycles: 3940928 heartbeat IPC: 2.5446 cumulative IPC: 2.28373 (Simulation time: 0 hr 4 min 47 sec) 
Heartbeat CPU 0 instructions: 10000003 cycles: 4334017 heartbeat IPC: 2.54396 cumulative IPC: 2.30733 (Simulation time: 0 hr 5 min 9 sec) 
Heartbeat CPU 0 instructions: 11000000 cycles: 4726964 heartbeat IPC: 2.54486 cumulative IPC: 2.32708 (Simulation time: 0 hr 5 min 32 sec) 
Heartbeat CPU 0 instructions: 12000000 cycles: 5120150 heartbeat IPC: 2.54333 cumulative IPC: 2.34368 (Simulation time: 0 hr 5 min 55 sec) 
Heartbeat CPU 0 instructions: 13000003 cycles: 5513237 heartbeat IPC: 2.54397 cumulative IPC: 2.35796 (Simulation time: 0 hr 6 min 16 sec) 
Heartbeat CPU 0 instructions: 14000001 cycles: 5942143 heartbeat IPC: 2.33151 cumulative IPC: 2.35605 (Simulation time: 0 hr 6 min 44 sec) 
Heartbeat CPU 0 instructions: 15000000 cycles: 6335382 heartbeat IPC: 2.54298 cumulative IPC: 2.36766 (Simulation time: 0 hr 7 min 6 sec) 
Heartbeat CPU 0 instructions: 16000000 cycles: 6728574 heartbeat IPC: 2.54329 cumulative IPC: 2.37792 (Simulation time: 0 hr 7 min 28 sec) 
Heartbeat CPU 0 instructions: 17000002 cycles: 7121750 heartbeat IPC: 2.5434 cumulative IPC: 2.38705 (Simulation time: 0 hr 7 min 48 sec) 
Heartbeat CPU 0 instructions: 18000001 cycles: 7515077 heartbeat IPC: 2.54241 cumulative IPC: 2.39519 (Simulation time: 0 hr 8 min 10 sec) 
Heartbeat CPU 0 instructions: 19000001 cycles: 7908294 heartbeat IPC: 2.54313 cumulative IPC: 2.40254 (Simulation time: 0 hr 8 min 31 sec) 
Heartbeat CPU 0 instructions: 20000000 cycles: 8301268 heartbeat IPC: 2.5447 cumulative IPC: 2.40927 (Simulation time: 0 hr 8 min 51 sec) 
Heartbeat CPU 0 instructions: 21000000 cycles: 8694479 heartbeat IPC: 2.54316 cumulative IPC: 2.41533 (Simulation time: 0 hr 9 min 12 sec) 
Heartbeat CPU 0 instructions: 22000003 cycles: 9087728 heartbeat IPC: 2.54293 cumulative IPC: 2.42085 (Simulation time: 0 hr 9 min 32 sec) 
Heartbeat CPU 0 instructions: 23000002 cycles: 9480995 heartbeat IPC: 2.5428 cumulative IPC: 2.42591 (Simulation time: 0 hr 9 min 53 sec) 
Heartbeat CPU 0 instructions: 24000000 cycles: 9874253 heartbeat IPC: 2.54285 cumulative IPC: 2.43056 (Simulation time: 0 hr 10 min 13 sec) 
Heartbeat CPU 0 instructions: 25000003 cycles: 10262723 heartbeat IPC: 2.57421 cumulative IPC: 2.436 (Simulation time: 0 hr 10 min 34 sec) 
Heartbeat CPU 0 instructions: 26000003 cycles: 10649332 heartbeat IPC: 2.58659 cumulative IPC: 2.44147 (Simulation time: 0 hr 10 min 56 sec) 
Heartbeat CPU 0 instructions: 27000000 cycles: 11035434 heartbeat IPC: 2.58998 cumulative IPC: 2.44666 (Simulation time: 0 hr 11 min 17 sec) 
Heartbeat CPU 0 instructions: 28000000 cycles: 11422756 heartbeat IPC: 2.58183 cumulative IPC: 2.45125 (Simulation time: 0 hr 11 min 41 sec) 
Heartbeat CPU 0 instructions: 29000003 cycles: 11815304 heartbeat IPC: 2.54747 cumulative IPC: 2.45444 (Simulation time: 0 hr 12 min 1 sec) 
Heartbeat CPU 0 instructions: 30000001 cycles: 12202095 heartbeat IPC: 2.58537 cumulative IPC: 2.45859 (Simulation time: 0 hr 12 min 22 sec) 
Heartbeat CPU 0 instructions: 31000001 cycles: 12567510 heartbeat IPC: 2.73661 cumulative IPC: 2.46668 (Simulation time: 0 hr 12 min 44 sec) 
Heartbeat CPU 0 instructions: 32000000 cycles: 13033829 heartbeat IPC: 2.14445 cumulative IPC: 2.45515 (Simulation time: 0 hr 13 min 10 sec) 
Heartbeat CPU 0 instructions: 33000003 cycles: 13513410 heartbeat IPC: 2.08516 cumulative IPC: 2.44202 (Simulation time: 0 hr 13 min 40 sec) 
Heartbeat CPU 0 instructions: 34000000 cycles: 13993160 heartbeat IPC: 2.08441 cumulative IPC: 2.42976 (Simulation time: 0 hr 14 min 4 sec) 
Heartbeat CPU 0 instructions: 35000000 cycles: 14471851 heartbeat IPC: 2.08903 cumulative IPC: 2.41849 (Simulation time: 0 hr 14 min 28 sec) 
Heartbeat CPU 0 instructions: 36000000 cycles: 14948719 heartbeat IPC: 2.09702 cumulative IPC: 2.40823 (Simulation time: 0 hr 14 min 52 sec) 
Heartbeat CPU 0 instructions: 37000003 cycles: 15427170 heartbeat IPC: 2.09008 cumulative IPC: 2.39837 (Simulation time: 0 hr 15 min 17 sec) 
Heartbeat CPU 0 instructions: 38000003 cycles: 15900975 heartbeat IPC: 2.11057 cumulative IPC: 2.38979 (Simulation time: 0 hr 15 min 42 sec) 
Heartbeat CPU 0 instructions: 39000001 cycles: 16324223 heartbeat IPC: 2.36268 cumulative IPC: 2.38909 (Simulation time: 0 hr 16 min 2 sec) 
Heartbeat CPU 0 instructions: 40000000 cycles: 16759312 heartbeat IPC: 2.29838 cumulative IPC: 2.38673 (Simulation time: 0 hr 16 min 24 sec) 
Heartbeat CPU 0 instructions: 41000002 cycles: 17202578 heartbeat IPC: 2.25599 cumulative IPC: 2.38336 (Simulation time: 0 hr 16 min 45 sec) 
Heartbeat CPU 0 instructions: 42000003 cycles: 17578754 heartbeat IPC: 2.65833 cumulative IPC: 2.38925 (Simulation time: 0 hr 17 min 5 sec) 
Heartbeat CPU 0 instructions: 43000000 cycles: 17973903 heartbeat IPC: 2.53068 cumulative IPC: 2.39236 (Simulation time: 0 hr 17 min 27 sec) 
Heartbeat CPU 0 instructions: 44000000 cycles: 18451690 heartbeat IPC: 2.09298 cumulative IPC: 2.38461 (Simulation time: 0 hr 17 min 54 sec) 
Heartbeat CPU 0 instructions: 45000002 cycles: 18927029 heartbeat IPC: 2.10377 cumulative IPC: 2.37755 (Simulation time: 0 hr 18 min 18 sec) 
Heartbeat CPU 0 instructions: 46000002 cycles: 19404931 heartbeat IPC: 2.09248 cumulative IPC: 2.37053 (Simulation time: 0 hr 18 min 42 sec) 
Heartbeat CPU 0 instructions: 47000002 cycles: 19840756 heartbeat IPC: 2.2945 cumulative IPC: 2.36886 (Simulation time: 0 hr 19 min 1 sec) 
Heartbeat CPU 0 instructions: 48000000 cycles: 20234640 heartbeat IPC: 2.53881 cumulative IPC: 2.37217 (Simulation time: 0 hr 19 min 16 sec) 
Heartbeat CPU 0 instructions: 49000001 cycles: 20628126 heartbeat IPC: 2.54139 cumulative IPC: 2.3754 (Simulation time: 0 hr 19 min 32 sec) 
Heartbeat CPU 0 instructions: 50000000 cycles: 21023198 heartbeat IPC: 2.53118 cumulative IPC: 2.37833 (Simulation time: 0 hr 19 min 48 sec) 

Warmup complete CPU 0 instructions: 50000004 cycles: 21023199 (Simulation time: 0 hr 19 min 48 sec) 

Heartbeat CPU 0 instructions: 51000000 cycles: 21637627 heartbeat IPC: 1.62753 cumulative IPC: 1.62752 (Simulation time: 0 hr 20 min 7 sec) 
Heartbeat CPU 0 instructions: 52000000 cycles: 22253854 heartbeat IPC: 1.62278 cumulative IPC: 1.62515 (Simulation time: 0 hr 20 min 24 sec) 
Heartbeat CPU 0 instructions: 53000000 cycles: 22802871 heartbeat IPC: 1.82144 cumulative IPC: 1.6857 (Simulation time: 0 hr 20 min 42 sec) 
Heartbeat CPU 0 instructions: 54000003 cycles: 23340378 heartbeat IPC: 1.86045 cumulative IPC: 1.72624 (Simulation time: 0 hr 20 min 59 sec) 
Heartbeat CPU 0 instructions: 55000001 cycles: 23869664 heartbeat IPC: 1.88933 cumulative IPC: 1.75656 (Simulation time: 0 hr 21 min 16 sec) 
Heartbeat CPU 0 instructions: 56000000 cycles: 24397374 heartbeat IPC: 1.89498 cumulative IPC: 1.77821 (Simulation time: 0 hr 21 min 33 sec) 
Heartbeat CPU 0 instructions: 57000003 cycles: 24927171 heartbeat IPC: 1.88752 cumulative IPC: 1.79305 (Simulation time: 0 hr 21 min 50 sec) 
Heartbeat CPU 0 instructions: 58000000 cycles: 25454255 heartbeat IPC: 1.89723 cumulative IPC: 1.80544 (Simulation time: 0 hr 22 min 7 sec) 
Heartbeat CPU 0 instructions: 59000001 cycles: 25937831 heartbeat IPC: 2.06793 cumulative IPC: 1.83127 (Simulation time: 0 hr 22 min 22 sec) 
Heartbeat CPU 0 instructions: 60000000 cycles: 26413491 heartbeat IPC: 2.10234 cumulative IPC: 1.85519 (Simulation time: 0 hr 22 min 38 sec) 
Heartbeat CPU 0 instructions: 61000003 cycles: 26891851 heartbeat IPC: 2.09048 cumulative IPC: 1.87437 (Simulation time: 0 hr 22 min 53 sec) 
Heartbeat CPU 0 instructions: 62000002 cycles: 27365854 heartbeat IPC: 2.10969 cumulative IPC: 1.89195 (Simulation time: 0 hr 23 min 9 sec) 
Heartbeat CPU 0 instructions: 63000003 cycles: 27838209 heartbeat IPC: 2.11705 cumulative IPC: 1.90755 (Simulation time: 0 hr 23 min 25 sec) 
Heartbeat CPU 0 instructions: 64000000 cycles: 28306021 heartbeat IPC: 2.1376 cumulative IPC: 1.92233 (Simulation time: 0 hr 23 min 41 sec) 
Heartbeat CPU 0 instructions: 65000000 cycles: 28960841 heartbeat IPC: 1.52714 cumulative IPC: 1.88973 (Simulation time: 0 hr 24 min 0 sec) 
Heartbeat CPU 0 instructions: 66000002 cycles: 29464138 heartbeat IPC: 1.9869 cumulative IPC: 1.89552 (Simulation time: 0 hr 24 min 17 sec) 
Heartbeat CPU 0 instructions: 67000002 cycles: 29922948 heartbeat IPC: 2.17955 cumulative IPC: 1.91017 (Simulation time: 0 hr 24 min 34 sec) 
Heartbeat CPU 0 instructions: 68000000 cycles: 30377981 heartbeat IPC: 2.19764 cumulative IPC: 1.92415 (Simulation time: 0 hr 24 min 51 sec) 
Heartbeat CPU 0 instructions: 69000001 cycles: 30871944 heartbeat IPC: 2.02445 cumulative IPC: 1.92918 (Simulation time: 0 hr 25 min 7 sec) 
Heartbeat CPU 0 instructions: 70000000 cycles: 31338200 heartbeat IPC: 2.14474 cumulative IPC: 1.93892 (Simulation time: 0 hr 25 min 22 sec) 
Heartbeat CPU 0 instructions: 71000000 cycles: 31805023 heartbeat IPC: 2.14214 cumulative IPC: 1.94772 (Simulation time: 0 hr 25 min 38 sec) 
Heartbeat CPU 0 instructions: 72000000 cycles: 32300073 heartbeat IPC: 2.02 cumulative IPC: 1.95089 (Simulation time: 0 hr 25 min 54 sec) 
Heartbeat CPU 0 instructions: 73000001 cycles: 32857887 heartbeat IPC: 1.79271 cumulative IPC: 1.94344 (Simulation time: 0 hr 26 min 10 sec) 
Heartbeat CPU 0 instructions: 74000002 cycles: 33480484 heartbeat IPC: 1.60618 cumulative IPC: 1.92658 (Simulation time: 0 hr 26 min 27 sec) 
Heartbeat CPU 0 instructions: 75000000 cycles: 34021148 heartbeat IPC: 1.84957 cumulative IPC: 1.92338 (Simulation time: 0 hr 26 min 43 sec) 
Heartbeat CPU 0 instructions: 76000000 cycles: 34777376 heartbeat IPC: 1.32235 cumulative IPC: 1.89033 (Simulation time: 0 hr 27 min 2 sec) 
Heartbeat CPU 0 instructions: 77000000 cycles: 35505754 heartbeat IPC: 1.37291 cumulative IPC: 1.86431 (Simulation time: 0 hr 27 min 19 sec) 
Heartbeat CPU 0 instructions: 78000003 cycles: 36228222 heartbeat IPC: 1.38415 cumulative IPC: 1.8415 (Simulation time: 0 hr 27 min 38 sec) 
Heartbeat CPU 0 instructions: 79000000 cycles: 36939361 heartbeat IPC: 1.40619 cumulative IPC: 1.82205 (Simulation time: 0 hr 27 min 56 sec) 
Heartbeat CPU 0 instructions: 80000000 cycles: 37624562 heartbeat IPC: 1.45943 cumulative IPC: 1.80708 (Simulation time: 0 hr 28 min 14 sec) 
Heartbeat CPU 0 instructions: 81000001 cycles: 38288894 heartbeat IPC: 1.50527 cumulative IPC: 1.79547 (Simulation time: 0 hr 28 min 33 sec) 
Heartbeat CPU 0 instructions: 82000002 cycles: 38931852 heartbeat IPC: 1.55531 cumulative IPC: 1.78685 (Simulation time: 0 hr 28 min 51 sec) 
Heartbeat CPU 0 instructions: 83000002 cycles: 39733177 heartbeat IPC: 1.24793 cumulative IPC: 1.76376 (Simulation time: 0 hr 29 min 11 sec) 
Heartbeat CPU 0 instructions: 84000000 cycles: 40429728 heartbeat IPC: 1.43564 cumulative IPC: 1.75199 (Simulation time: 0 hr 29 min 26 sec) 
Heartbeat CPU 0 instructions: 85000000 cycles: 41001154 heartbeat IPC: 1.75001 cumulative IPC: 1.75193 (Simulation time: 0 hr 29 min 42 sec) 
Heartbeat CPU 0 instructions: 86000001 cycles: 41566376 heartbeat IPC: 1.76922 cumulative IPC: 1.75241 (Simulation time: 0 hr 29 min 57 sec) 
Heartbeat CPU 0 instructions: 87000002 cycles: 42111171 heartbeat IPC: 1.83555 cumulative IPC: 1.75455 (Simulation time: 0 hr 30 min 12 sec) 
Heartbeat CPU 0 instructions: 88000000 cycles: 42644858 heartbeat IPC: 1.87375 cumulative IPC: 1.7575 (Simulation time: 0 hr 30 min 27 sec) 
Heartbeat CPU 0 instructions: 89000003 cycles: 43174715 heartbeat IPC: 1.88731 cumulative IPC: 1.7606 (Simulation time: 0 hr 30 min 43 sec) 
Heartbeat CPU 0 instructions: 90000001 cycles: 43700322 heartbeat IPC: 1.90256 cumulative IPC: 1.76389 (Simulation time: 0 hr 30 min 59 sec) 
Heartbeat CPU 0 instructions: 91000003 cycles: 44238195 heartbeat IPC: 1.85918 cumulative IPC: 1.7661 (Simulation time: 0 hr 31 min 13 sec) 
Heartbeat CPU 0 instructions: 92000000 cycles: 44714102 heartbeat IPC: 2.10124 cumulative IPC: 1.77283 (Simulation time: 0 hr 31 min 27 sec) 
Heartbeat CPU 0 instructions: 93000000 cycles: 45161836 heartbeat IPC: 2.23347 cumulative IPC: 1.78138 (Simulation time: 0 hr 31 min 41 sec) 
Heartbeat CPU 0 instructions: 94000003 cycles: 45608072 heartbeat IPC: 2.24097 cumulative IPC: 1.78972 (Simulation time: 0 hr 31 min 55 sec) 
Heartbeat CPU 0 instructions: 95000001 cycles: 46226439 heartbeat IPC: 1.61716 cumulative IPC: 1.78548 (Simulation time: 0 hr 32 min 10 sec) 
Heartbeat CPU 0 instructions: 96000000 cycles: 46802441 heartbeat IPC: 1.7361 cumulative IPC: 1.78438 (Simulation time: 0 hr 32 min 24 sec) 
Heartbeat CPU 0 instructions: 97000000 cycles: 47325105 heartbeat IPC: 1.91328 cumulative IPC: 1.78694 (Simulation time: 0 hr 32 min 38 sec) 
Heartbeat CPU 0 instructions: 98000003 cycles: 47841535 heartbeat IPC: 1.93638 cumulative IPC: 1.78982 (Simulation time: 0 hr 32 min 52 sec) 
Heartbeat CPU 0 instructions: 99000000 cycles: 48360146 heartbeat IPC: 1.92822 cumulative IPC: 1.79245 (Simulation time: 0 hr 33 min 6 sec) 
Heartbeat CPU 0 instructions: 100000000 cycles: 48873313 heartbeat IPC: 1.94868 cumulative IPC: 1.79532 (Simulation time: 0 hr 33 min 19 sec) 
Heartbeat CPU 0 instructions: 101000003 cycles: 49377401 heartbeat IPC: 1.98379 cumulative IPC: 1.79868 (Simulation time: 0 hr 33 min 32 sec) 
Heartbeat CPU 0 instructions: 102000002 cycles: 49887093 heartbeat IPC: 1.96197 cumulative IPC: 1.80156 (Simulation time: 0 hr 33 min 45 sec) 
Heartbeat CPU 0 instructions: 103000000 cycles: 50370887 heartbeat IPC: 2.06699 cumulative IPC: 1.80593 (Simulation time: 0 hr 33 min 58 sec) 
Heartbeat CPU 0 instructions: 104000000 cycles: 50849147 heartbeat IPC: 2.09091 cumulative IPC: 1.8105 (Simulation time: 0 hr 34 min 11 sec) 
Heartbeat CPU 0 instructions: 105000000 cycles: 51327524 heartbeat IPC: 2.0904 cumulative IPC: 1.81492 (Simulation time: 0 hr 34 min 24 sec) 
Heartbeat CPU 0 instructions: 106000003 cycles: 51801192 heartbeat IPC: 2.11119 cumulative IPC: 1.81948 (Simulation time: 0 hr 34 min 37 sec) 
Heartbeat CPU 0 instructions: 107000003 cycles: 52270518 heartbeat IPC: 2.13072 cumulative IPC: 1.82416 (Simulation time: 0 hr 34 min 51 sec) 
Heartbeat CPU 0 instructions: 108000000 cycles: 52808214 heartbeat IPC: 1.85978 cumulative IPC: 1.82476 (Simulation time: 0 hr 35 min 5 sec) 
Heartbeat CPU 0 instructions: 109000002 cycles: 53420496 heartbeat IPC: 1.63324 cumulative IPC: 1.82114 (Simulation time: 0 hr 35 min 19 sec) 
Heartbeat CPU 0 instructions: 110000003 cycles: 53866675 heartbeat IPC: 2.24126 cumulative IPC: 1.82685 (Simulation time: 0 hr 35 min 33 sec) 
Heartbeat CPU 0 instructions: 111000001 cycles: 54312642 heartbeat IPC: 2.24231 cumulative IPC: 1.83241 (Simulation time: 0 hr 35 min 46 sec) 
Heartbeat CPU 0 instructions: 112000000 cycles: 54779954 heartbeat IPC: 2.1399 cumulative IPC: 1.83667 (Simulation time: 0 hr 35 min 58 sec) 
Heartbeat CPU 0 instructions: 113000003 cycles: 55246962 heartbeat IPC: 2.1413 cumulative IPC: 1.84083 (Simulation time: 0 hr 36 min 11 sec) 
Heartbeat CPU 0 instructions: 114000003 cycles: 55703413 heartbeat IPC: 2.19082 cumulative IPC: 1.84543 (Simulation time: 0 hr 36 min 24 sec) 
Heartbeat CPU 0 instructions: 115000002 cycles: 56162614 heartbeat IPC: 2.17769 cumulative IPC: 1.84977 (Simulation time: 0 hr 36 min 37 sec) 
Heartbeat CPU 0 instructions: 116000000 cycles: 56667869 heartbeat IPC: 1.97919 cumulative IPC: 1.85161 (Simulation time: 0 hr 36 min 50 sec) 
Heartbeat CPU 0 instructions: 117000000 cycles: 57223495 heartbeat IPC: 1.79977 cumulative IPC: 1.85081 (Simulation time: 0 hr 37 min 4 sec) 
Heartbeat CPU 0 instructions: 118000001 cycles: 57850639 heartbeat IPC: 1.59453 cumulative IPC: 1.84645 (Simulation time: 0 hr 37 min 19 sec) 
Heartbeat CPU 0 instructions: 119000003 cycles: 58581313 heartbeat IPC: 1.3686 cumulative IPC: 1.83715 (Simulation time: 0 hr 37 min 35 sec) 
Heartbeat CPU 0 instructions: 120000000 cycles: 59298628 heartbeat IPC: 1.39408 cumulative IPC: 1.82885 (Simulation time: 0 hr 37 min 51 sec) 
Heartbeat CPU 0 instructions: 121000001 cycles: 60013989 heartbeat IPC: 1.3979 cumulative IPC: 1.82094 (Simulation time: 0 hr 38 min 6 sec) 
Heartbeat CPU 0 instructions: 122000002 cycles: 60720227 heartbeat IPC: 1.41595 cumulative IPC: 1.81374 (Simulation time: 0 hr 38 min 22 sec) 
Heartbeat CPU 0 instructions: 123000002 cycles: 61403053 heartbeat IPC: 1.4645 cumulative IPC: 1.80783 (Simulation time: 0 hr 38 min 39 sec) 
Heartbeat CPU 0 instructions: 124000000 cycles: 62067006 heartbeat IPC: 1.50613 cumulative IPC: 1.80295 (Simulation time: 0 hr 38 min 55 sec) 
Heartbeat CPU 0 instructions: 125000002 cycles: 62715220 heartbeat IPC: 1.5427 cumulative IPC: 1.79891 (Simulation time: 0 hr 39 min 11 sec) 
Heartbeat CPU 0 instructions: 126000001 cycles: 63636235 heartbeat IPC: 1.08576 cumulative IPC: 1.78349 (Simulation time: 0 hr 39 min 28 sec) 
Heartbeat CPU 0 instructions: 127000003 cycles: 64382734 heartbeat IPC: 1.33959 cumulative IPC: 1.77585 (Simulation time: 0 hr 39 min 43 sec) 
Heartbeat CPU 0 instructions: 128000000 cycles: 64994537 heartbeat IPC: 1.63451 cumulative IPC: 1.77388 (Simulation time: 0 hr 39 min 57 sec) 
Heartbeat CPU 0 instructions: 129000002 cycles: 65601659 heartbeat IPC: 1.64712 cumulative IPC: 1.77216 (Simulation time: 0 hr 40 min 11 sec) 
Heartbeat CPU 0 instructions: 130000000 cycles: 66185361 heartbeat IPC: 1.7132 cumulative IPC: 1.77139 (Simulation time: 0 hr 40 min 25 sec) 
Heartbeat CPU 0 instructions: 131000000 cycles: 66758835 heartbeat IPC: 1.74376 cumulative IPC: 1.77105 (Simulation time: 0 hr 40 min 39 sec) 
Heartbeat CPU 0 instructions: 132000000 cycles: 67335000 heartbeat IPC: 1.73561 cumulative IPC: 1.77061 (Simulation time: 0 hr 40 min 53 sec) 
Heartbeat CPU 0 instructions: 133000000 cycles: 67909349 heartbeat IPC: 1.7411 cumulative IPC: 1.77025 (Simulation time: 0 hr 41 min 7 sec) 
Heartbeat CPU 0 instructions: 134000000 cycles: 68498759 heartbeat IPC: 1.69661 cumulative IPC: 1.76933 (Simulation time: 0 hr 41 min 23 sec) 
Heartbeat CPU 0 instructions: 135000000 cycles: 69080253 heartbeat IPC: 1.71971 cumulative IPC: 1.76873 (Simulation time: 0 hr 41 min 37 sec) 
Heartbeat CPU 0 instructions: 136000000 cycles: 69655078 heartbeat IPC: 1.73966 cumulative IPC: 1.76839 (Simulation time: 0 hr 41 min 51 sec) 
Heartbeat CPU 0 instructions: 137000002 cycles: 70218698 heartbeat IPC: 1.77425 cumulative IPC: 1.76845 (Simulation time: 0 hr 42 min 5 sec) 
Heartbeat CPU 0 instructions: 138000002 cycles: 70788135 heartbeat IPC: 1.75612 cumulative IPC: 1.76831 (Simulation time: 0 hr 42 min 19 sec) 
Heartbeat CPU 0 instructions: 139000000 cycles: 71344027 heartbeat IPC: 1.79891 cumulative IPC: 1.76865 (Simulation time: 0 hr 42 min 34 sec) 
Heartbeat CPU 0 instructions: 140000000 cycles: 71883478 heartbeat IPC: 1.85374 cumulative IPC: 1.76955 (Simulation time: 0 hr 42 min 47 sec) 
Heartbeat CPU 0 instructions: 141000000 cycles: 72417928 heartbeat IPC: 1.87108 cumulative IPC: 1.77061 (Simulation time: 0 hr 43 min 0 sec) 
Heartbeat CPU 0 instructions: 142000003 cycles: 72931275 heartbeat IPC: 1.94801 cumulative IPC: 1.77236 (Simulation time: 0 hr 43 min 13 sec) 
Heartbeat CPU 0 instructions: 143000002 cycles: 73393829 heartbeat IPC: 2.16191 cumulative IPC: 1.7758 (Simulation time: 0 hr 43 min 25 sec) 
Heartbeat CPU 0 instructions: 144000000 cycles: 73862536 heartbeat IPC: 2.13352 cumulative IPC: 1.77898 (Simulation time: 0 hr 43 min 36 sec) 
Heartbeat CPU 0 instructions: 145000001 cycles: 74542754 heartbeat IPC: 1.47012 cumulative IPC: 1.77505 (Simulation time: 0 hr 43 min 50 sec) 
Heartbeat CPU 0 instructions: 146000003 cycles: 75109449 heartbeat IPC: 1.76462 cumulative IPC: 1.77494 (Simulation time: 0 hr 44 min 2 sec) 
Heartbeat CPU 0 instructions: 147000002 cycles: 75636811 heartbeat IPC: 1.89623 cumulative IPC: 1.77611 (Simulation time: 0 hr 44 min 15 sec) 
Heartbeat CPU 0 instructions: 148000000 cycles: 76147935 heartbeat IPC: 1.95647 cumulative IPC: 1.77779 (Simulation time: 0 hr 44 min 28 sec) 
Heartbeat CPU 0 instructions: 149000002 cycles: 76664580 heartbeat IPC: 1.93557 cumulative IPC: 1.77925 (Simulation time: 0 hr 44 min 40 sec) 
Heartbeat CPU 0 instructions: 150000003 cycles: 77173298 heartbeat IPC: 1.96573 cumulative IPC: 1.78094 (Simulation time: 0 hr 44 min 52 sec) 
Finished CPU 0 instructions: 100000003 cycles: 56150100 cummulative IPC: 1.78094 (Simulation time: 0 hr 44 min 52 sec) 

ChampSim completed all CPUs

Region of Interest Statistics

CPU 0 cummulative IPC: 1.78094 instructions: 100000003 cycles: 56150100
LLC TOTAL     ACCESS:    1256018  HIT:     996633  MISS:     259385
LLC LOAD      ACCESS:     149409  HIT:     122902  MISS:      26507
LLC RFO       ACCESS:      37520  HIT:      11507  MISS:      26013
LLC PREFETCH  ACCESS:     776764  HIT:     609301  MISS:     167463
LLC WRITEBACK ACCESS:     292325  HIT:     252923  MISS:      39402
