
*** ChampSim Multicore Out-of-Order Simulator ***

Warmup Instructions: 50000000
Simulation Instructions: 100000000
Configuration: 2
Number of CPUs: 1
LLC sets: 2048
LLC ways: 16
Off-chip DRAM Channels: 1 Width: 64-bit Data Rate: 1600 MT/s

CPU 0 runs /datasets/cs240c-wi22-a00-public/data/Assignment2-gz/omnetpp_17B.trace.gz
CPU 0 L1D next line prefetcher
CPU 0 L2C IP-based stride prefetcher
Heartbeat CPU 0 instructions: 1000000 cycles: 559584 heartbeat IPC: 1.78704 cumulative IPC: 1.78704 (Simulation time: 0 hr 0 min 40 sec) 
Heartbeat CPU 0 instructions: 2000002 cycles: 1133706 heartbeat IPC: 1.74179 cumulative IPC: 1.76413 (Simulation time: 0 hr 1 min 14 sec) 
Heartbeat CPU 0 instructions: 3000001 cycles: 1769145 heartbeat IPC: 1.57371 cumulative IPC: 1.69573 (Simulation time: 0 hr 1 min 44 sec) 
Heartbeat CPU 0 instructions: 4000000 cycles: 2334171 heartbeat IPC: 1.76983 cumulative IPC: 1.71367 (Simulation time: 0 hr 2 min 14 sec) 
Heartbeat CPU 0 instructions: 5000002 cycles: 2893336 heartbeat IPC: 1.78838 cumulative IPC: 1.72811 (Simulation time: 0 hr 2 min 43 sec) 
Heartbeat CPU 0 instructions: 6000000 cycles: 3472013 heartbeat IPC: 1.72808 cumulative IPC: 1.7281 (Simulation time: 0 hr 3 min 14 sec) 
Heartbeat CPU 0 instructions: 7000000 cycles: 4036594 heartbeat IPC: 1.77122 cumulative IPC: 1.73414 (Simulation time: 0 hr 3 min 45 sec) 
Heartbeat CPU 0 instructions: 8000000 cycles: 4698328 heartbeat IPC: 1.51118 cumulative IPC: 1.70273 (Simulation time: 0 hr 4 min 10 sec) 
Heartbeat CPU 0 instructions: 9000000 cycles: 5360133 heartbeat IPC: 1.51102 cumulative IPC: 1.67906 (Simulation time: 0 hr 4 min 36 sec) 
Heartbeat CPU 0 instructions: 10000001 cycles: 6021703 heartbeat IPC: 1.51156 cumulative IPC: 1.66066 (Simulation time: 0 hr 5 min 3 sec) 
Heartbeat CPU 0 instructions: 11000001 cycles: 6683093 heartbeat IPC: 1.51197 cumulative IPC: 1.64594 (Simulation time: 0 hr 5 min 32 sec) 
Heartbeat CPU 0 instructions: 12000000 cycles: 7343868 heartbeat IPC: 1.51337 cumulative IPC: 1.63402 (Simulation time: 0 hr 5 min 59 sec) 
Heartbeat CPU 0 instructions: 13000001 cycles: 8002570 heartbeat IPC: 1.51814 cumulative IPC: 1.62448 (Simulation time: 0 hr 6 min 26 sec) 
Heartbeat CPU 0 instructions: 14000000 cycles: 8663859 heartbeat IPC: 1.5122 cumulative IPC: 1.61591 (Simulation time: 0 hr 6 min 53 sec) 
Heartbeat CPU 0 instructions: 15000000 cycles: 9325574 heartbeat IPC: 1.51122 cumulative IPC: 1.60848 (Simulation time: 0 hr 7 min 15 sec) 
Heartbeat CPU 0 instructions: 16000000 cycles: 9987484 heartbeat IPC: 1.51078 cumulative IPC: 1.60201 (Simulation time: 0 hr 7 min 38 sec) 
Heartbeat CPU 0 instructions: 17000000 cycles: 10653211 heartbeat IPC: 1.50212 cumulative IPC: 1.59576 (Simulation time: 0 hr 8 min 1 sec) 
Heartbeat CPU 0 instructions: 18000001 cycles: 11319768 heartbeat IPC: 1.50025 cumulative IPC: 1.59014 (Simulation time: 0 hr 8 min 25 sec) 
Heartbeat CPU 0 instructions: 19000002 cycles: 11988575 heartbeat IPC: 1.4952 cumulative IPC: 1.58484 (Simulation time: 0 hr 8 min 49 sec) 
Heartbeat CPU 0 instructions: 20000000 cycles: 12560470 heartbeat IPC: 1.74857 cumulative IPC: 1.5923 (Simulation time: 0 hr 9 min 19 sec) 
Heartbeat CPU 0 instructions: 21000000 cycles: 13149526 heartbeat IPC: 1.69763 cumulative IPC: 1.59702 (Simulation time: 0 hr 9 min 46 sec) 
Heartbeat CPU 0 instructions: 22000001 cycles: 13761580 heartbeat IPC: 1.63384 cumulative IPC: 1.59865 (Simulation time: 0 hr 10 min 8 sec) 
Heartbeat CPU 0 instructions: 23000000 cycles: 14319577 heartbeat IPC: 1.79212 cumulative IPC: 1.60619 (Simulation time: 0 hr 10 min 31 sec) 
Heartbeat CPU 0 instructions: 24000000 cycles: 14879367 heartbeat IPC: 1.78638 cumulative IPC: 1.61297 (Simulation time: 0 hr 10 min 54 sec) 
Heartbeat CPU 0 instructions: 25000001 cycles: 15462961 heartbeat IPC: 1.71352 cumulative IPC: 1.61677 (Simulation time: 0 hr 11 min 20 sec) 
Heartbeat CPU 0 instructions: 26000001 cycles: 16079928 heartbeat IPC: 1.62083 cumulative IPC: 1.61692 (Simulation time: 0 hr 11 min 44 sec) 
Heartbeat CPU 0 instructions: 27000000 cycles: 16639753 heartbeat IPC: 1.78627 cumulative IPC: 1.62262 (Simulation time: 0 hr 12 min 8 sec) 
Heartbeat CPU 0 instructions: 28000000 cycles: 17198249 heartbeat IPC: 1.79052 cumulative IPC: 1.62807 (Simulation time: 0 hr 12 min 31 sec) 
Heartbeat CPU 0 instructions: 29000000 cycles: 17777037 heartbeat IPC: 1.72775 cumulative IPC: 1.63132 (Simulation time: 0 hr 12 min 53 sec) 
Heartbeat CPU 0 instructions: 30000000 cycles: 18399674 heartbeat IPC: 1.60607 cumulative IPC: 1.63046 (Simulation time: 0 hr 13 min 13 sec) 
Heartbeat CPU 0 instructions: 31000000 cycles: 18961243 heartbeat IPC: 1.78073 cumulative IPC: 1.63491 (Simulation time: 0 hr 13 min 34 sec) 
Heartbeat CPU 0 instructions: 32000000 cycles: 19518634 heartbeat IPC: 1.79407 cumulative IPC: 1.63946 (Simulation time: 0 hr 13 min 58 sec) 
Heartbeat CPU 0 instructions: 33000001 cycles: 20090613 heartbeat IPC: 1.74832 cumulative IPC: 1.64256 (Simulation time: 0 hr 14 min 20 sec) 
Heartbeat CPU 0 instructions: 34000001 cycles: 20726357 heartbeat IPC: 1.57296 cumulative IPC: 1.64042 (Simulation time: 0 hr 14 min 38 sec) 
Heartbeat CPU 0 instructions: 35000002 cycles: 21291700 heartbeat IPC: 1.76884 cumulative IPC: 1.64383 (Simulation time: 0 hr 14 min 59 sec) 
Heartbeat CPU 0 instructions: 36000000 cycles: 21851628 heartbeat IPC: 1.78594 cumulative IPC: 1.64747 (Simulation time: 0 hr 15 min 22 sec) 
Heartbeat CPU 0 instructions: 37000001 cycles: 22429874 heartbeat IPC: 1.72937 cumulative IPC: 1.64959 (Simulation time: 0 hr 15 min 42 sec) 
Heartbeat CPU 0 instructions: 38000002 cycles: 23058951 heartbeat IPC: 1.58963 cumulative IPC: 1.64795 (Simulation time: 0 hr 16 min 0 sec) 
Heartbeat CPU 0 instructions: 39000000 cycles: 23621804 heartbeat IPC: 1.77666 cumulative IPC: 1.65102 (Simulation time: 0 hr 16 min 21 sec) 
Heartbeat CPU 0 instructions: 40000000 cycles: 24182049 heartbeat IPC: 1.78493 cumulative IPC: 1.65412 (Simulation time: 0 hr 16 min 42 sec) 
Heartbeat CPU 0 instructions: 41000002 cycles: 24765208 heartbeat IPC: 1.7148 cumulative IPC: 1.65555 (Simulation time: 0 hr 17 min 3 sec) 
Heartbeat CPU 0 instructions: 42000000 cycles: 25392266 heartbeat IPC: 1.59475 cumulative IPC: 1.65405 (Simulation time: 0 hr 17 min 22 sec) 
Heartbeat CPU 0 instructions: 43000001 cycles: 25879916 heartbeat IPC: 2.05065 cumulative IPC: 1.66152 (Simulation time: 0 hr 17 min 47 sec) 
Heartbeat CPU 0 instructions: 44000000 cycles: 26540613 heartbeat IPC: 1.51355 cumulative IPC: 1.65784 (Simulation time: 0 hr 18 min 5 sec) 
Heartbeat CPU 0 instructions: 45000003 cycles: 27202256 heartbeat IPC: 1.51139 cumulative IPC: 1.65427 (Simulation time: 0 hr 18 min 22 sec) 
Heartbeat CPU 0 instructions: 46000000 cycles: 27864634 heartbeat IPC: 1.50971 cumulative IPC: 1.65084 (Simulation time: 0 hr 18 min 38 sec) 
Heartbeat CPU 0 instructions: 47000001 cycles: 28527651 heartbeat IPC: 1.50826 cumulative IPC: 1.64752 (Simulation time: 0 hr 18 min 54 sec) 
Heartbeat CPU 0 instructions: 48000000 cycles: 29190402 heartbeat IPC: 1.50886 cumulative IPC: 1.64438 (Simulation time: 0 hr 19 min 9 sec) 
Heartbeat CPU 0 instructions: 49000000 cycles: 29851900 heartbeat IPC: 1.51172 cumulative IPC: 1.64144 (Simulation time: 0 hr 19 min 26 sec) 
Heartbeat CPU 0 instructions: 50000000 cycles: 30514091 heartbeat IPC: 1.51014 cumulative IPC: 1.63859 (Simulation time: 0 hr 19 min 45 sec) 

Warmup complete CPU 0 instructions: 50000002 cycles: 30514092 (Simulation time: 0 hr 19 min 45 sec) 

Heartbeat CPU 0 instructions: 51000002 cycles: 31557444 heartbeat IPC: 0.95845 cumulative IPC: 0.958449 (Simulation time: 0 hr 20 min 2 sec) 
Heartbeat CPU 0 instructions: 52000000 cycles: 32601703 heartbeat IPC: 0.957615 cumulative IPC: 0.958032 (Simulation time: 0 hr 20 min 19 sec) 
Heartbeat CPU 0 instructions: 53000001 cycles: 33644497 heartbeat IPC: 0.958963 cumulative IPC: 0.958342 (Simulation time: 0 hr 20 min 35 sec) 
Heartbeat CPU 0 instructions: 54000002 cycles: 34712622 heartbeat IPC: 0.936221 cumulative IPC: 0.952714 (Simulation time: 0 hr 20 min 52 sec) 
Heartbeat CPU 0 instructions: 55000003 cycles: 35753027 heartbeat IPC: 0.961165 cumulative IPC: 0.954393 (Simulation time: 0 hr 21 min 8 sec) 
Heartbeat CPU 0 instructions: 56000000 cycles: 37998138 heartbeat IPC: 0.445411 cumulative IPC: 0.801705 (Simulation time: 0 hr 21 min 28 sec) 
Heartbeat CPU 0 instructions: 57000003 cycles: 40144285 heartbeat IPC: 0.465953 cumulative IPC: 0.726881 (Simulation time: 0 hr 21 min 47 sec) 
Heartbeat CPU 0 instructions: 58000000 cycles: 43519451 heartbeat IPC: 0.296281 cumulative IPC: 0.615131 (Simulation time: 0 hr 22 min 9 sec) 
Heartbeat CPU 0 instructions: 59000003 cycles: 46898992 heartbeat IPC: 0.295899 cumulative IPC: 0.549286 (Simulation time: 0 hr 22 min 32 sec) 
Heartbeat CPU 0 instructions: 60000000 cycles: 49319031 heartbeat IPC: 0.413215 cumulative IPC: 0.531775 (Simulation time: 0 hr 22 min 49 sec) 
Heartbeat CPU 0 instructions: 61000001 cycles: 51288427 heartbeat IPC: 0.50777 cumulative IPC: 0.529499 (Simulation time: 0 hr 23 min 7 sec) 
Heartbeat CPU 0 instructions: 62000001 cycles: 54657588 heartbeat IPC: 0.29681 cumulative IPC: 0.497028 (Simulation time: 0 hr 23 min 29 sec) 
Heartbeat CPU 0 instructions: 63000000 cycles: 58030060 heartbeat IPC: 0.296518 cumulative IPC: 0.472453 (Simulation time: 0 hr 23 min 51 sec) 
Heartbeat CPU 0 instructions: 64000000 cycles: 60634259 heartbeat IPC: 0.383995 cumulative IPC: 0.464805 (Simulation time: 0 hr 24 min 10 sec) 
Heartbeat CPU 0 instructions: 65000000 cycles: 62419339 heartbeat IPC: 0.560199 cumulative IPC: 0.470142 (Simulation time: 0 hr 24 min 28 sec) 
Heartbeat CPU 0 instructions: 66000000 cycles: 65784235 heartbeat IPC: 0.297186 cumulative IPC: 0.453641 (Simulation time: 0 hr 24 min 50 sec) 
Heartbeat CPU 0 instructions: 67000001 cycles: 69158049 heartbeat IPC: 0.296401 cumulative IPC: 0.439914 (Simulation time: 0 hr 25 min 11 sec) 
Heartbeat CPU 0 instructions: 68000000 cycles: 71970477 heartbeat IPC: 0.355564 cumulative IPC: 0.434191 (Simulation time: 0 hr 25 min 31 sec) 
Heartbeat CPU 0 instructions: 69000001 cycles: 73558508 heartbeat IPC: 0.629711 cumulative IPC: 0.441404 (Simulation time: 0 hr 25 min 49 sec) 
Heartbeat CPU 0 instructions: 70000001 cycles: 76918423 heartbeat IPC: 0.297627 cumulative IPC: 0.430994 (Simulation time: 0 hr 26 min 9 sec) 
Heartbeat CPU 0 instructions: 71000001 cycles: 80284772 heartbeat IPC: 0.297058 cumulative IPC: 0.421935 (Simulation time: 0 hr 26 min 30 sec) 
Heartbeat CPU 0 instructions: 72000000 cycles: 83103833 heartbeat IPC: 0.354728 cumulative IPC: 0.418333 (Simulation time: 0 hr 26 min 48 sec) 
Heartbeat CPU 0 instructions: 73000000 cycles: 84698707 heartbeat IPC: 0.627009 cumulative IPC: 0.424475 (Simulation time: 0 hr 27 min 5 sec) 
Heartbeat CPU 0 instructions: 74000003 cycles: 88073100 heartbeat IPC: 0.29635 cumulative IPC: 0.416963 (Simulation time: 0 hr 27 min 26 sec) 
Heartbeat CPU 0 instructions: 75000001 cycles: 91443266 heartbeat IPC: 0.296721 cumulative IPC: 0.410312 (Simulation time: 0 hr 27 min 47 sec) 
Heartbeat CPU 0 instructions: 76000000 cycles: 94136990 heartbeat IPC: 0.371233 cumulative IPC: 0.408658 (Simulation time: 0 hr 28 min 7 sec) 
Heartbeat CPU 0 instructions: 77000001 cycles: 95838718 heartbeat IPC: 0.587639 cumulative IPC: 0.41332 (Simulation time: 0 hr 28 min 24 sec) 
Heartbeat CPU 0 instructions: 78000000 cycles: 99208987 heartbeat IPC: 0.296712 cumulative IPC: 0.407599 (Simulation time: 0 hr 28 min 46 sec) 
Heartbeat CPU 0 instructions: 79000000 cycles: 102755868 heartbeat IPC: 0.281938 cumulative IPC: 0.40143 (Simulation time: 0 hr 29 min 8 sec) 
Heartbeat CPU 0 instructions: 80000000 cycles: 104593142 heartbeat IPC: 0.544285 cumulative IPC: 0.404973 (Simulation time: 0 hr 29 min 24 sec) 
Heartbeat CPU 0 instructions: 81000001 cycles: 107154261 heartbeat IPC: 0.390455 cumulative IPC: 0.404488 (Simulation time: 0 hr 29 min 43 sec) 
Heartbeat CPU 0 instructions: 82000000 cycles: 110529641 heartbeat IPC: 0.296263 cumulative IPC: 0.399922 (Simulation time: 0 hr 30 min 4 sec) 
Heartbeat CPU 0 instructions: 83000000 cycles: 113902340 heartbeat IPC: 0.296498 cumulative IPC: 0.395739 (Simulation time: 0 hr 30 min 25 sec) 
Heartbeat CPU 0 instructions: 84000000 cycles: 115704005 heartbeat IPC: 0.555042 cumulative IPC: 0.399108 (Simulation time: 0 hr 30 min 41 sec) 
Heartbeat CPU 0 instructions: 85000003 cycles: 118294604 heartbeat IPC: 0.386012 cumulative IPC: 0.398722 (Simulation time: 0 hr 30 min 59 sec) 
Heartbeat CPU 0 instructions: 86000001 cycles: 121673710 heartbeat IPC: 0.295936 cumulative IPC: 0.394912 (Simulation time: 0 hr 31 min 18 sec) 
Heartbeat CPU 0 instructions: 87000000 cycles: 125037251 heartbeat IPC: 0.297305 cumulative IPC: 0.391438 (Simulation time: 0 hr 31 min 36 sec) 
Heartbeat CPU 0 instructions: 88000000 cycles: 126726555 heartbeat IPC: 0.59196 cumulative IPC: 0.394959 (Simulation time: 0 hr 31 min 51 sec) 
Heartbeat CPU 0 instructions: 89000000 cycles: 131644365 heartbeat IPC: 0.203343 cumulative IPC: 0.385641 (Simulation time: 0 hr 32 min 13 sec) 
Heartbeat CPU 0 instructions: 90000002 cycles: 132687994 heartbeat IPC: 0.958197 cumulative IPC: 0.391489 (Simulation time: 0 hr 32 min 27 sec) 
Heartbeat CPU 0 instructions: 91000001 cycles: 133732387 heartbeat IPC: 0.957493 cumulative IPC: 0.397216 (Simulation time: 0 hr 32 min 41 sec) 
Heartbeat CPU 0 instructions: 92000000 cycles: 134776033 heartbeat IPC: 0.958178 cumulative IPC: 0.402832 (Simulation time: 0 hr 32 min 55 sec) 
Heartbeat CPU 0 instructions: 93000002 cycles: 135820373 heartbeat IPC: 0.957545 cumulative IPC: 0.408333 (Simulation time: 0 hr 33 min 8 sec) 
Heartbeat CPU 0 instructions: 94000001 cycles: 136864220 heartbeat IPC: 0.957994 cumulative IPC: 0.413728 (Simulation time: 0 hr 33 min 21 sec) 
Heartbeat CPU 0 instructions: 95000000 cycles: 137908505 heartbeat IPC: 0.957592 cumulative IPC: 0.419016 (Simulation time: 0 hr 33 min 34 sec) 
Heartbeat CPU 0 instructions: 96000000 cycles: 138953485 heartbeat IPC: 0.956956 cumulative IPC: 0.4242 (Simulation time: 0 hr 33 min 48 sec) 
Heartbeat CPU 0 instructions: 97000002 cycles: 140024377 heartbeat IPC: 0.933803 cumulative IPC: 0.429183 (Simulation time: 0 hr 34 min 1 sec) 
Heartbeat CPU 0 instructions: 98000000 cycles: 141070190 heartbeat IPC: 0.956192 cumulative IPC: 0.434169 (Simulation time: 0 hr 34 min 15 sec) 
Heartbeat CPU 0 instructions: 99000003 cycles: 142108795 heartbeat IPC: 0.962833 cumulative IPC: 0.439089 (Simulation time: 0 hr 34 min 29 sec) 
Heartbeat CPU 0 instructions: 100000000 cycles: 143145269 heartbeat IPC: 0.964807 cumulative IPC: 0.443927 (Simulation time: 0 hr 34 min 42 sec) 
Heartbeat CPU 0 instructions: 101000001 cycles: 144186487 heartbeat IPC: 0.960415 cumulative IPC: 0.448658 (Simulation time: 0 hr 34 min 55 sec) 
Heartbeat CPU 0 instructions: 102000001 cycles: 147499001 heartbeat IPC: 0.301886 cumulative IPC: 0.444502 (Simulation time: 0 hr 35 min 13 sec) 
Heartbeat CPU 0 instructions: 103000001 cycles: 148913411 heartbeat IPC: 0.707009 cumulative IPC: 0.447638 (Simulation time: 0 hr 35 min 27 sec) 
Heartbeat CPU 0 instructions: 104000000 cycles: 151949559 heartbeat IPC: 0.329364 cumulative IPC: 0.444681 (Simulation time: 0 hr 35 min 44 sec) 
Heartbeat CPU 0 instructions: 105000000 cycles: 155310412 heartbeat IPC: 0.297543 cumulative IPC: 0.440718 (Simulation time: 0 hr 36 min 1 sec) 
Heartbeat CPU 0 instructions: 106000000 cycles: 158617873 heartbeat IPC: 0.302347 cumulative IPC: 0.437146 (Simulation time: 0 hr 36 min 19 sec) 
Heartbeat CPU 0 instructions: 107000001 cycles: 160179261 heartbeat IPC: 0.640456 cumulative IPC: 0.439594 (Simulation time: 0 hr 36 min 33 sec) 
Heartbeat CPU 0 instructions: 108000000 cycles: 163068364 heartbeat IPC: 0.346128 cumulative IPC: 0.437557 (Simulation time: 0 hr 36 min 51 sec) 
Heartbeat CPU 0 instructions: 109000000 cycles: 166441750 heartbeat IPC: 0.296438 cumulative IPC: 0.434054 (Simulation time: 0 hr 37 min 9 sec) 
Heartbeat CPU 0 instructions: 110000000 cycles: 169788417 heartbeat IPC: 0.298805 cumulative IPC: 0.430804 (Simulation time: 0 hr 37 min 26 sec) 
Heartbeat CPU 0 instructions: 111000000 cycles: 171481225 heartbeat IPC: 0.590734 cumulative IPC: 0.432725 (Simulation time: 0 hr 37 min 41 sec) 
Heartbeat CPU 0 instructions: 112000000 cycles: 174198098 heartbeat IPC: 0.36807 cumulative IPC: 0.431502 (Simulation time: 0 hr 37 min 57 sec) 
Heartbeat CPU 0 instructions: 113000001 cycles: 177572080 heartbeat IPC: 0.296386 cumulative IPC: 0.428402 (Simulation time: 0 hr 38 min 15 sec) 
Heartbeat CPU 0 instructions: 114000001 cycles: 180948780 heartbeat IPC: 0.296147 cumulative IPC: 0.425434 (Simulation time: 0 hr 38 min 32 sec) 
Heartbeat CPU 0 instructions: 115000002 cycles: 182800217 heartbeat IPC: 0.540122 cumulative IPC: 0.426828 (Simulation time: 0 hr 38 min 47 sec) 
Heartbeat CPU 0 instructions: 116000000 cycles: 185343743 heartbeat IPC: 0.393154 cumulative IPC: 0.426275 (Simulation time: 0 hr 39 min 2 sec) 
Heartbeat CPU 0 instructions: 117000000 cycles: 188703310 heartbeat IPC: 0.297657 cumulative IPC: 0.423543 (Simulation time: 0 hr 39 min 20 sec) 
Heartbeat CPU 0 instructions: 118000001 cycles: 192107537 heartbeat IPC: 0.293753 cumulative IPC: 0.420809 (Simulation time: 0 hr 39 min 38 sec) 
Heartbeat CPU 0 instructions: 119000002 cycles: 193865168 heartbeat IPC: 0.568948 cumulative IPC: 0.422403 (Simulation time: 0 hr 39 min 52 sec) 
Heartbeat CPU 0 instructions: 120000000 cycles: 196506037 heartbeat IPC: 0.378662 cumulative IPC: 0.421707 (Simulation time: 0 hr 40 min 7 sec) 
Heartbeat CPU 0 instructions: 121000000 cycles: 199878994 heartbeat IPC: 0.296476 cumulative IPC: 0.419213 (Simulation time: 0 hr 40 min 25 sec) 
Heartbeat CPU 0 instructions: 122000000 cycles: 203247969 heartbeat IPC: 0.296826 cumulative IPC: 0.416826 (Simulation time: 0 hr 40 min 42 sec) 
Heartbeat CPU 0 instructions: 123000002 cycles: 204922668 heartbeat IPC: 0.597123 cumulative IPC: 0.418557 (Simulation time: 0 hr 40 min 56 sec) 
Heartbeat CPU 0 instructions: 124000000 cycles: 207642103 heartbeat IPC: 0.367723 cumulative IPC: 0.417777 (Simulation time: 0 hr 41 min 13 sec) 
Heartbeat CPU 0 instructions: 125000000 cycles: 211170880 heartbeat IPC: 0.283384 cumulative IPC: 0.415152 (Simulation time: 0 hr 41 min 31 sec) 
Heartbeat CPU 0 instructions: 126000001 cycles: 214396015 heartbeat IPC: 0.310065 cumulative IPC: 0.413309 (Simulation time: 0 hr 41 min 48 sec) 
Heartbeat CPU 0 instructions: 127000002 cycles: 215570043 heartbeat IPC: 0.851769 cumulative IPC: 0.41609 (Simulation time: 0 hr 42 min 3 sec) 
Heartbeat CPU 0 instructions: 128000000 cycles: 218946220 heartbeat IPC: 0.296192 cumulative IPC: 0.413942 (Simulation time: 0 hr 42 min 21 sec) 
Heartbeat CPU 0 instructions: 129000000 cycles: 222313848 heartbeat IPC: 0.296945 cumulative IPC: 0.411888 (Simulation time: 0 hr 42 min 39 sec) 
Heartbeat CPU 0 instructions: 130000001 cycles: 225501469 heartbeat IPC: 0.313714 cumulative IPC: 0.410283 (Simulation time: 0 hr 42 min 57 sec) 
Heartbeat CPU 0 instructions: 131000002 cycles: 226718737 heartbeat IPC: 0.821513 cumulative IPC: 0.412834 (Simulation time: 0 hr 43 min 9 sec) 
Heartbeat CPU 0 instructions: 132000000 cycles: 230086836 heartbeat IPC: 0.296903 cumulative IPC: 0.410878 (Simulation time: 0 hr 43 min 27 sec) 
Heartbeat CPU 0 instructions: 133000000 cycles: 233447967 heartbeat IPC: 0.297519 cumulative IPC: 0.409 (Simulation time: 0 hr 43 min 44 sec) 
Heartbeat CPU 0 instructions: 134000000 cycles: 236490870 heartbeat IPC: 0.328634 cumulative IPC: 0.407813 (Simulation time: 0 hr 44 min 0 sec) 
Heartbeat CPU 0 instructions: 135000001 cycles: 240046782 heartbeat IPC: 0.281222 cumulative IPC: 0.405665 (Simulation time: 0 hr 44 min 17 sec) 
Heartbeat CPU 0 instructions: 136000000 cycles: 241090953 heartbeat IPC: 0.957697 cumulative IPC: 0.408402 (Simulation time: 0 hr 44 min 30 sec) 
Heartbeat CPU 0 instructions: 137000001 cycles: 242136138 heartbeat IPC: 0.956769 cumulative IPC: 0.41111 (Simulation time: 0 hr 44 min 42 sec) 
Heartbeat CPU 0 instructions: 138000001 cycles: 243180712 heartbeat IPC: 0.957328 cumulative IPC: 0.413793 (Simulation time: 0 hr 44 min 53 sec) 
Heartbeat CPU 0 instructions: 139000001 cycles: 244226243 heartbeat IPC: 0.956452 cumulative IPC: 0.416448 (Simulation time: 0 hr 45 min 5 sec) 
Heartbeat CPU 0 instructions: 140000000 cycles: 245272767 heartbeat IPC: 0.955543 cumulative IPC: 0.419075 (Simulation time: 0 hr 45 min 18 sec) 
Heartbeat CPU 0 instructions: 141000001 cycles: 246343182 heartbeat IPC: 0.934218 cumulative IPC: 0.42163 (Simulation time: 0 hr 45 min 30 sec) 
Heartbeat CPU 0 instructions: 142000002 cycles: 247387056 heartbeat IPC: 0.957971 cumulative IPC: 0.424211 (Simulation time: 0 hr 45 min 41 sec) 
Heartbeat CPU 0 instructions: 143000001 cycles: 248432190 heartbeat IPC: 0.956814 cumulative IPC: 0.426766 (Simulation time: 0 hr 45 min 52 sec) 
Heartbeat CPU 0 instructions: 144000000 cycles: 249476362 heartbeat IPC: 0.957696 cumulative IPC: 0.429298 (Simulation time: 0 hr 46 min 2 sec) 
Heartbeat CPU 0 instructions: 145000003 cycles: 250519276 heartbeat IPC: 0.958855 cumulative IPC: 0.431808 (Simulation time: 0 hr 46 min 13 sec) 
Heartbeat CPU 0 instructions: 146000001 cycles: 251560602 heartbeat IPC: 0.960312 cumulative IPC: 0.434298 (Simulation time: 0 hr 46 min 23 sec) 
Heartbeat CPU 0 instructions: 147000000 cycles: 252602714 heartbeat IPC: 0.959589 cumulative IPC: 0.436763 (Simulation time: 0 hr 46 min 34 sec) 
Heartbeat CPU 0 instructions: 148000000 cycles: 255966897 heartbeat IPC: 0.297249 cumulative IPC: 0.434681 (Simulation time: 0 hr 46 min 49 sec) 
Heartbeat CPU 0 instructions: 149000000 cycles: 258623844 heartbeat IPC: 0.376372 cumulative IPC: 0.434002 (Simulation time: 0 hr 47 min 2 sec) 
Heartbeat CPU 0 instructions: 150000000 cycles: 260352933 heartbeat IPC: 0.578339 cumulative IPC: 0.435087 (Simulation time: 0 hr 47 min 13 sec) 
Finished CPU 0 instructions: 100000002 cycles: 229838847 cummulative IPC: 0.435087 (Simulation time: 0 hr 47 min 13 sec) 

ChampSim completed all CPUs

Region of Interest Statistics

CPU 0 cummulative IPC: 0.435087 instructions: 100000002 cycles: 229838847
LLC TOTAL     ACCESS:    3408969  HIT:    1676385  MISS:    1732584
LLC LOAD      ACCESS:    1618059  HIT:     803059  MISS:     815000
LLC RFO       ACCESS:       5352  HIT:       1228  MISS:       4124
LLC PREFETCH  ACCESS:    1768157  HIT:     868470  MISS:     899687
LLC WRITEBACK ACCESS:      17401  HIT:       3628  MISS:      13773
