
*** ChampSim Multicore Out-of-Order Simulator ***

Warmup Instructions: 50000000
Simulation Instructions: 100000000
Configuration: 2
Number of CPUs: 1
LLC sets: 2048
LLC ways: 16
Off-chip DRAM Channels: 1 Width: 64-bit Data Rate: 1600 MT/s

CPU 0 runs /datasets/cs240c-wi22-a00-public/data/Assignment2-gz/bzip2_183B.trace.gz
CPU 0 L1D next line prefetcher
CPU 0 L2C IP-based stride prefetcher
Heartbeat CPU 0 instructions: 1000000 cycles: 447972 heartbeat IPC: 2.23228 cumulative IPC: 2.23228 (Simulation time: 0 hr 0 min 40 sec) 
Heartbeat CPU 0 instructions: 2000001 cycles: 951246 heartbeat IPC: 1.98699 cumulative IPC: 2.10251 (Simulation time: 0 hr 1 min 17 sec) 
Heartbeat CPU 0 instructions: 3000001 cycles: 1457934 heartbeat IPC: 1.9736 cumulative IPC: 2.05771 (Simulation time: 0 hr 1 min 54 sec) 
Heartbeat CPU 0 instructions: 4000000 cycles: 1928638 heartbeat IPC: 2.12448 cumulative IPC: 2.074 (Simulation time: 0 hr 2 min 29 sec) 
Heartbeat CPU 0 instructions: 5000000 cycles: 2425967 heartbeat IPC: 2.01074 cumulative IPC: 2.06103 (Simulation time: 0 hr 3 min 5 sec) 
Heartbeat CPU 0 instructions: 6000001 cycles: 2887578 heartbeat IPC: 2.16633 cumulative IPC: 2.07787 (Simulation time: 0 hr 3 min 34 sec) 
Heartbeat CPU 0 instructions: 7000002 cycles: 3343474 heartbeat IPC: 2.19349 cumulative IPC: 2.09363 (Simulation time: 0 hr 4 min 5 sec) 
Heartbeat CPU 0 instructions: 8000000 cycles: 3813077 heartbeat IPC: 2.12945 cumulative IPC: 2.09804 (Simulation time: 0 hr 4 min 36 sec) 
Heartbeat CPU 0 instructions: 9000003 cycles: 4278346 heartbeat IPC: 2.1493 cumulative IPC: 2.10362 (Simulation time: 0 hr 5 min 10 sec) 
Heartbeat CPU 0 instructions: 10000000 cycles: 4746811 heartbeat IPC: 2.13462 cumulative IPC: 2.10668 (Simulation time: 0 hr 5 min 41 sec) 
Heartbeat CPU 0 instructions: 11000000 cycles: 5209553 heartbeat IPC: 2.16103 cumulative IPC: 2.11151 (Simulation time: 0 hr 6 min 18 sec) 
Heartbeat CPU 0 instructions: 12000000 cycles: 5685175 heartbeat IPC: 2.10251 cumulative IPC: 2.11075 (Simulation time: 0 hr 6 min 50 sec) 
Heartbeat CPU 0 instructions: 13000003 cycles: 6152358 heartbeat IPC: 2.1405 cumulative IPC: 2.11301 (Simulation time: 0 hr 7 min 16 sec) 
Heartbeat CPU 0 instructions: 14000003 cycles: 6651620 heartbeat IPC: 2.00296 cumulative IPC: 2.10475 (Simulation time: 0 hr 7 min 48 sec) 
Heartbeat CPU 0 instructions: 15000002 cycles: 7120717 heartbeat IPC: 2.13175 cumulative IPC: 2.10653 (Simulation time: 0 hr 8 min 20 sec) 
Heartbeat CPU 0 instructions: 16000000 cycles: 7634783 heartbeat IPC: 1.94527 cumulative IPC: 2.09567 (Simulation time: 0 hr 8 min 50 sec) 
Heartbeat CPU 0 instructions: 17000000 cycles: 8128814 heartbeat IPC: 2.02416 cumulative IPC: 2.09133 (Simulation time: 0 hr 9 min 24 sec) 
Heartbeat CPU 0 instructions: 18000001 cycles: 8693029 heartbeat IPC: 1.77238 cumulative IPC: 2.07062 (Simulation time: 0 hr 9 min 56 sec) 
Heartbeat CPU 0 instructions: 19000000 cycles: 9204588 heartbeat IPC: 1.95481 cumulative IPC: 2.06419 (Simulation time: 0 hr 10 min 25 sec) 
Heartbeat CPU 0 instructions: 20000000 cycles: 9694550 heartbeat IPC: 2.04097 cumulative IPC: 2.06301 (Simulation time: 0 hr 10 min 53 sec) 
Heartbeat CPU 0 instructions: 21000003 cycles: 10143354 heartbeat IPC: 2.22815 cumulative IPC: 2.07032 (Simulation time: 0 hr 11 min 22 sec) 
Heartbeat CPU 0 instructions: 22000003 cycles: 10608343 heartbeat IPC: 2.15059 cumulative IPC: 2.07384 (Simulation time: 0 hr 11 min 49 sec) 
Heartbeat CPU 0 instructions: 23000002 cycles: 11089577 heartbeat IPC: 2.07799 cumulative IPC: 2.07402 (Simulation time: 0 hr 12 min 19 sec) 
Heartbeat CPU 0 instructions: 24000000 cycles: 11585971 heartbeat IPC: 2.01452 cumulative IPC: 2.07147 (Simulation time: 0 hr 12 min 45 sec) 
Heartbeat CPU 0 instructions: 25000001 cycles: 12038666 heartbeat IPC: 2.209 cumulative IPC: 2.07664 (Simulation time: 0 hr 13 min 11 sec) 
Heartbeat CPU 0 instructions: 26000003 cycles: 12531107 heartbeat IPC: 2.0307 cumulative IPC: 2.07484 (Simulation time: 0 hr 13 min 35 sec) 
Heartbeat CPU 0 instructions: 27000000 cycles: 13048205 heartbeat IPC: 1.93386 cumulative IPC: 2.06925 (Simulation time: 0 hr 14 min 2 sec) 
Heartbeat CPU 0 instructions: 28000000 cycles: 13507792 heartbeat IPC: 2.17587 cumulative IPC: 2.07288 (Simulation time: 0 hr 14 min 25 sec) 
Heartbeat CPU 0 instructions: 29000000 cycles: 13996623 heartbeat IPC: 2.0457 cumulative IPC: 2.07193 (Simulation time: 0 hr 14 min 52 sec) 
Heartbeat CPU 0 instructions: 30000000 cycles: 14449932 heartbeat IPC: 2.206 cumulative IPC: 2.07613 (Simulation time: 0 hr 15 min 19 sec) 
Heartbeat CPU 0 instructions: 31000002 cycles: 14908950 heartbeat IPC: 2.17857 cumulative IPC: 2.07929 (Simulation time: 0 hr 15 min 44 sec) 
Heartbeat CPU 0 instructions: 32000000 cycles: 15367661 heartbeat IPC: 2.18002 cumulative IPC: 2.08229 (Simulation time: 0 hr 16 min 6 sec) 
Heartbeat CPU 0 instructions: 33000001 cycles: 15838464 heartbeat IPC: 2.12403 cumulative IPC: 2.08354 (Simulation time: 0 hr 16 min 29 sec) 
Heartbeat CPU 0 instructions: 34000001 cycles: 16348371 heartbeat IPC: 1.96114 cumulative IPC: 2.07972 (Simulation time: 0 hr 16 min 52 sec) 
Heartbeat CPU 0 instructions: 35000002 cycles: 16857220 heartbeat IPC: 1.96522 cumulative IPC: 2.07626 (Simulation time: 0 hr 17 min 16 sec) 
Heartbeat CPU 0 instructions: 36000000 cycles: 17329825 heartbeat IPC: 2.11593 cumulative IPC: 2.07734 (Simulation time: 0 hr 17 min 38 sec) 
Heartbeat CPU 0 instructions: 37000002 cycles: 17805996 heartbeat IPC: 2.10009 cumulative IPC: 2.07795 (Simulation time: 0 hr 18 min 1 sec) 
Heartbeat CPU 0 instructions: 38000001 cycles: 18249041 heartbeat IPC: 2.2571 cumulative IPC: 2.0823 (Simulation time: 0 hr 18 min 23 sec) 
Heartbeat CPU 0 instructions: 39000001 cycles: 18713819 heartbeat IPC: 2.15156 cumulative IPC: 2.08402 (Simulation time: 0 hr 18 min 48 sec) 
Heartbeat CPU 0 instructions: 40000000 cycles: 19223784 heartbeat IPC: 1.96092 cumulative IPC: 2.08076 (Simulation time: 0 hr 19 min 12 sec) 
Heartbeat CPU 0 instructions: 41000000 cycles: 19683060 heartbeat IPC: 2.17734 cumulative IPC: 2.08301 (Simulation time: 0 hr 19 min 33 sec) 
Heartbeat CPU 0 instructions: 42000000 cycles: 20163157 heartbeat IPC: 2.08291 cumulative IPC: 2.08301 (Simulation time: 0 hr 19 min 52 sec) 
Heartbeat CPU 0 instructions: 43000001 cycles: 20622642 heartbeat IPC: 2.17635 cumulative IPC: 2.08509 (Simulation time: 0 hr 20 min 11 sec) 
Heartbeat CPU 0 instructions: 44000000 cycles: 21113699 heartbeat IPC: 2.03642 cumulative IPC: 2.08396 (Simulation time: 0 hr 20 min 32 sec) 
Heartbeat CPU 0 instructions: 45000000 cycles: 21572480 heartbeat IPC: 2.17969 cumulative IPC: 2.08599 (Simulation time: 0 hr 20 min 52 sec) 
Heartbeat CPU 0 instructions: 46000000 cycles: 22064341 heartbeat IPC: 2.03309 cumulative IPC: 2.08481 (Simulation time: 0 hr 21 min 15 sec) 
Heartbeat CPU 0 instructions: 47000002 cycles: 22566311 heartbeat IPC: 1.99215 cumulative IPC: 2.08275 (Simulation time: 0 hr 21 min 37 sec) 
Heartbeat CPU 0 instructions: 48000000 cycles: 22998907 heartbeat IPC: 2.31162 cumulative IPC: 2.08706 (Simulation time: 0 hr 21 min 56 sec) 
Heartbeat CPU 0 instructions: 49000003 cycles: 23457225 heartbeat IPC: 2.1819 cumulative IPC: 2.08891 (Simulation time: 0 hr 22 min 15 sec) 
Heartbeat CPU 0 instructions: 50000001 cycles: 23889144 heartbeat IPC: 2.31524 cumulative IPC: 2.093 (Simulation time: 0 hr 22 min 33 sec) 

Warmup complete CPU 0 instructions: 50000001 cycles: 23889144 (Simulation time: 0 hr 22 min 33 sec) 

Heartbeat CPU 0 instructions: 51000000 cycles: 24918784 heartbeat IPC: 0.971212 cumulative IPC: 0.971212 (Simulation time: 0 hr 22 min 47 sec) 
Heartbeat CPU 0 instructions: 52000000 cycles: 25940223 heartbeat IPC: 0.979011 cumulative IPC: 0.975096 (Simulation time: 0 hr 23 min 3 sec) 
Heartbeat CPU 0 instructions: 53000001 cycles: 26906636 heartbeat IPC: 1.03476 cumulative IPC: 0.994203 (Simulation time: 0 hr 23 min 22 sec) 
Heartbeat CPU 0 instructions: 54000001 cycles: 27914454 heartbeat IPC: 0.992243 cumulative IPC: 0.993712 (Simulation time: 0 hr 23 min 40 sec) 
Heartbeat CPU 0 instructions: 55000001 cycles: 29146470 heartbeat IPC: 0.811678 cumulative IPC: 0.951054 (Simulation time: 0 hr 23 min 57 sec) 
Heartbeat CPU 0 instructions: 56000000 cycles: 30342630 heartbeat IPC: 0.836008 cumulative IPC: 0.92973 (Simulation time: 0 hr 24 min 16 sec) 
Heartbeat CPU 0 instructions: 57000003 cycles: 31718753 heartbeat IPC: 0.726681 cumulative IPC: 0.894042 (Simulation time: 0 hr 24 min 35 sec) 
Heartbeat CPU 0 instructions: 58000001 cycles: 33295105 heartbeat IPC: 0.634375 cumulative IPC: 0.850524 (Simulation time: 0 hr 24 min 51 sec) 
Heartbeat CPU 0 instructions: 59000003 cycles: 34607240 heartbeat IPC: 0.762118 cumulative IPC: 0.839702 (Simulation time: 0 hr 25 min 10 sec) 
Heartbeat CPU 0 instructions: 60000000 cycles: 36204142 heartbeat IPC: 0.626211 cumulative IPC: 0.812018 (Simulation time: 0 hr 25 min 27 sec) 
Heartbeat CPU 0 instructions: 61000003 cycles: 37941441 heartbeat IPC: 0.575608 cumulative IPC: 0.78279 (Simulation time: 0 hr 25 min 44 sec) 
Heartbeat CPU 0 instructions: 62000002 cycles: 39491175 heartbeat IPC: 0.645271 cumulative IPC: 0.769131 (Simulation time: 0 hr 26 min 1 sec) 
