
*** ChampSim Multicore Out-of-Order Simulator ***

Warmup Instructions: 50000000
Simulation Instructions: 100000000
Configuration: 2
Number of CPUs: 1
LLC sets: 2048
LLC ways: 16
Off-chip DRAM Channels: 1 Width: 64-bit Data Rate: 1600 MT/s

CPU 0 runs /datasets/cs240c-wi22-a00-public/data/Assignment2-gz/astar_163B.trace.gz
CPU 0 L1D next line prefetcher
CPU 0 L2C IP-based stride prefetcher
Heartbeat CPU 0 instructions: 1000002 cycles: 531212 heartbeat IPC: 1.88249 cumulative IPC: 1.88249 (Simulation time: 0 hr 0 min 40 sec) 
Heartbeat CPU 0 instructions: 2000003 cycles: 1060827 heartbeat IPC: 1.88817 cumulative IPC: 1.88532 (Simulation time: 0 hr 1 min 18 sec) 
Heartbeat CPU 0 instructions: 3000003 cycles: 1590860 heartbeat IPC: 1.88668 cumulative IPC: 1.88577 (Simulation time: 0 hr 1 min 52 sec) 
Heartbeat CPU 0 instructions: 4000000 cycles: 2120959 heartbeat IPC: 1.88643 cumulative IPC: 1.88594 (Simulation time: 0 hr 2 min 24 sec) 
Heartbeat CPU 0 instructions: 5000000 cycles: 2652859 heartbeat IPC: 1.88005 cumulative IPC: 1.88476 (Simulation time: 0 hr 3 min 2 sec) 
Heartbeat CPU 0 instructions: 6000002 cycles: 3181375 heartbeat IPC: 1.89209 cumulative IPC: 1.88598 (Simulation time: 0 hr 3 min 39 sec) 
Heartbeat CPU 0 instructions: 7000003 cycles: 3710899 heartbeat IPC: 1.88849 cumulative IPC: 1.88634 (Simulation time: 0 hr 4 min 14 sec) 
Heartbeat CPU 0 instructions: 8000000 cycles: 4240169 heartbeat IPC: 1.88939 cumulative IPC: 1.88672 (Simulation time: 0 hr 4 min 45 sec) 
Heartbeat CPU 0 instructions: 9000000 cycles: 4771191 heartbeat IPC: 1.88316 cumulative IPC: 1.88632 (Simulation time: 0 hr 5 min 20 sec) 
Heartbeat CPU 0 instructions: 10000001 cycles: 5301219 heartbeat IPC: 1.88669 cumulative IPC: 1.88636 (Simulation time: 0 hr 5 min 56 sec) 
Heartbeat CPU 0 instructions: 11000003 cycles: 5830234 heartbeat IPC: 1.89031 cumulative IPC: 1.88672 (Simulation time: 0 hr 6 min 29 sec) 
Heartbeat CPU 0 instructions: 12000000 cycles: 6358983 heartbeat IPC: 1.89125 cumulative IPC: 1.88709 (Simulation time: 0 hr 6 min 58 sec) 
Heartbeat CPU 0 instructions: 13000002 cycles: 6888822 heartbeat IPC: 1.88737 cumulative IPC: 1.88712 (Simulation time: 0 hr 7 min 33 sec) 
Heartbeat CPU 0 instructions: 14000000 cycles: 7418928 heartbeat IPC: 1.88641 cumulative IPC: 1.88707 (Simulation time: 0 hr 8 min 5 sec) 
Heartbeat CPU 0 instructions: 15000000 cycles: 7949339 heartbeat IPC: 1.88533 cumulative IPC: 1.88695 (Simulation time: 0 hr 8 min 37 sec) 
Heartbeat CPU 0 instructions: 16000000 cycles: 8480200 heartbeat IPC: 1.88373 cumulative IPC: 1.88675 (Simulation time: 0 hr 9 min 9 sec) 
Heartbeat CPU 0 instructions: 17000002 cycles: 9009813 heartbeat IPC: 1.88817 cumulative IPC: 1.88683 (Simulation time: 0 hr 9 min 42 sec) 
Heartbeat CPU 0 instructions: 18000002 cycles: 9539205 heartbeat IPC: 1.88896 cumulative IPC: 1.88695 (Simulation time: 0 hr 10 min 10 sec) 
Heartbeat CPU 0 instructions: 19000003 cycles: 10069747 heartbeat IPC: 1.88487 cumulative IPC: 1.88684 (Simulation time: 0 hr 10 min 36 sec) 
Heartbeat CPU 0 instructions: 20000000 cycles: 10599995 heartbeat IPC: 1.8859 cumulative IPC: 1.88679 (Simulation time: 0 hr 11 min 4 sec) 
Heartbeat CPU 0 instructions: 21000003 cycles: 11130133 heartbeat IPC: 1.88631 cumulative IPC: 1.88677 (Simulation time: 0 hr 11 min 34 sec) 
Heartbeat CPU 0 instructions: 22000001 cycles: 11661728 heartbeat IPC: 1.88113 cumulative IPC: 1.88651 (Simulation time: 0 hr 12 min 2 sec) 
Heartbeat CPU 0 instructions: 23000001 cycles: 12191833 heartbeat IPC: 1.88642 cumulative IPC: 1.88651 (Simulation time: 0 hr 12 min 30 sec) 
Heartbeat CPU 0 instructions: 24000000 cycles: 12722668 heartbeat IPC: 1.88382 cumulative IPC: 1.8864 (Simulation time: 0 hr 12 min 55 sec) 
Heartbeat CPU 0 instructions: 25000003 cycles: 13223470 heartbeat IPC: 1.9968 cumulative IPC: 1.89058 (Simulation time: 0 hr 13 min 21 sec) 
Heartbeat CPU 0 instructions: 26000002 cycles: 13727797 heartbeat IPC: 1.98284 cumulative IPC: 1.89397 (Simulation time: 0 hr 13 min 46 sec) 
Heartbeat CPU 0 instructions: 27000000 cycles: 14239805 heartbeat IPC: 1.95309 cumulative IPC: 1.89609 (Simulation time: 0 hr 14 min 10 sec) 
Heartbeat CPU 0 instructions: 28000000 cycles: 14763312 heartbeat IPC: 1.91019 cumulative IPC: 1.89659 (Simulation time: 0 hr 14 min 33 sec) 
Heartbeat CPU 0 instructions: 29000003 cycles: 15291218 heartbeat IPC: 1.89428 cumulative IPC: 1.89651 (Simulation time: 0 hr 14 min 58 sec) 
Heartbeat CPU 0 instructions: 30000000 cycles: 15814616 heartbeat IPC: 1.91059 cumulative IPC: 1.89698 (Simulation time: 0 hr 15 min 21 sec) 
Heartbeat CPU 0 instructions: 31000001 cycles: 16335270 heartbeat IPC: 1.92066 cumulative IPC: 1.89773 (Simulation time: 0 hr 15 min 46 sec) 
Heartbeat CPU 0 instructions: 32000000 cycles: 16862553 heartbeat IPC: 1.89651 cumulative IPC: 1.8977 (Simulation time: 0 hr 16 min 12 sec) 
Heartbeat CPU 0 instructions: 33000001 cycles: 17383017 heartbeat IPC: 1.92136 cumulative IPC: 1.8984 (Simulation time: 0 hr 16 min 35 sec) 
Heartbeat CPU 0 instructions: 34000001 cycles: 17905924 heartbeat IPC: 1.91239 cumulative IPC: 1.89881 (Simulation time: 0 hr 16 min 59 sec) 
Heartbeat CPU 0 instructions: 35000000 cycles: 18431464 heartbeat IPC: 1.9028 cumulative IPC: 1.89893 (Simulation time: 0 hr 17 min 22 sec) 
Heartbeat CPU 0 instructions: 36000000 cycles: 18958373 heartbeat IPC: 1.89786 cumulative IPC: 1.8989 (Simulation time: 0 hr 17 min 48 sec) 
Heartbeat CPU 0 instructions: 37000002 cycles: 19475820 heartbeat IPC: 1.93257 cumulative IPC: 1.89979 (Simulation time: 0 hr 18 min 9 sec) 
Heartbeat CPU 0 instructions: 38000002 cycles: 19995848 heartbeat IPC: 1.92297 cumulative IPC: 1.90039 (Simulation time: 0 hr 18 min 32 sec) 
Heartbeat CPU 0 instructions: 39000001 cycles: 20516235 heartbeat IPC: 1.92164 cumulative IPC: 1.90093 (Simulation time: 0 hr 18 min 57 sec) 
Heartbeat CPU 0 instructions: 40000000 cycles: 21035149 heartbeat IPC: 1.9271 cumulative IPC: 1.90158 (Simulation time: 0 hr 19 min 21 sec) 
Heartbeat CPU 0 instructions: 41000001 cycles: 21556514 heartbeat IPC: 1.91804 cumulative IPC: 1.90198 (Simulation time: 0 hr 19 min 43 sec) 
Heartbeat CPU 0 instructions: 42000002 cycles: 22070449 heartbeat IPC: 1.94577 cumulative IPC: 1.903 (Simulation time: 0 hr 20 min 6 sec) 
Heartbeat CPU 0 instructions: 43000001 cycles: 22584064 heartbeat IPC: 1.94698 cumulative IPC: 1.904 (Simulation time: 0 hr 20 min 27 sec) 
Heartbeat CPU 0 instructions: 44000000 cycles: 23104065 heartbeat IPC: 1.92307 cumulative IPC: 1.90443 (Simulation time: 0 hr 20 min 48 sec) 
Heartbeat CPU 0 instructions: 45000001 cycles: 23620337 heartbeat IPC: 1.93697 cumulative IPC: 1.90514 (Simulation time: 0 hr 21 min 9 sec) 
Heartbeat CPU 0 instructions: 46000003 cycles: 24144658 heartbeat IPC: 1.90723 cumulative IPC: 1.90518 (Simulation time: 0 hr 21 min 28 sec) 
Heartbeat CPU 0 instructions: 47000000 cycles: 24668264 heartbeat IPC: 1.90983 cumulative IPC: 1.90528 (Simulation time: 0 hr 21 min 50 sec) 
Heartbeat CPU 0 instructions: 48000000 cycles: 25188598 heartbeat IPC: 1.92184 cumulative IPC: 1.90562 (Simulation time: 0 hr 22 min 10 sec) 
Heartbeat CPU 0 instructions: 49000003 cycles: 25714510 heartbeat IPC: 1.90146 cumulative IPC: 1.90554 (Simulation time: 0 hr 22 min 30 sec) 
Heartbeat CPU 0 instructions: 50000001 cycles: 26241126 heartbeat IPC: 1.89891 cumulative IPC: 1.90541 (Simulation time: 0 hr 22 min 51 sec) 

Warmup complete CPU 0 instructions: 50000001 cycles: 26241126 (Simulation time: 0 hr 22 min 51 sec) 

Heartbeat CPU 0 instructions: 51000003 cycles: 28173792 heartbeat IPC: 0.517421 cumulative IPC: 0.517421 (Simulation time: 0 hr 23 min 16 sec) 
Heartbeat CPU 0 instructions: 52000000 cycles: 30195052 heartbeat IPC: 0.494739 cumulative IPC: 0.505826 (Simulation time: 0 hr 23 min 40 sec) 
Heartbeat CPU 0 instructions: 53000001 cycles: 32168698 heartbeat IPC: 0.506677 cumulative IPC: 0.506109 (Simulation time: 0 hr 24 min 3 sec) 
Heartbeat CPU 0 instructions: 54000003 cycles: 34075117 heartbeat IPC: 0.524545 cumulative IPC: 0.510596 (Simulation time: 0 hr 24 min 30 sec) 
Heartbeat CPU 0 instructions: 55000000 cycles: 35955444 heartbeat IPC: 0.531821 cumulative IPC: 0.514704 (Simulation time: 0 hr 24 min 55 sec) 
Heartbeat CPU 0 instructions: 56000000 cycles: 37856786 heartbeat IPC: 0.525944 cumulative IPC: 0.516544 (Simulation time: 0 hr 25 min 20 sec) 
Heartbeat CPU 0 instructions: 57000000 cycles: 39731162 heartbeat IPC: 0.533511 cumulative IPC: 0.518901 (Simulation time: 0 hr 25 min 44 sec) 
Heartbeat CPU 0 instructions: 58000001 cycles: 41664403 heartbeat IPC: 0.517267 cumulative IPC: 0.518696 (Simulation time: 0 hr 26 min 8 sec) 
Heartbeat CPU 0 instructions: 59000003 cycles: 43583318 heartbeat IPC: 0.521129 cumulative IPC: 0.518966 (Simulation time: 0 hr 26 min 32 sec) 
Heartbeat CPU 0 instructions: 60000000 cycles: 45503905 heartbeat IPC: 0.520673 cumulative IPC: 0.519136 (Simulation time: 0 hr 26 min 56 sec) 
Heartbeat CPU 0 instructions: 61000002 cycles: 47419838 heartbeat IPC: 0.52194 cumulative IPC: 0.51939 (Simulation time: 0 hr 27 min 22 sec) 
Heartbeat CPU 0 instructions: 62000001 cycles: 49330966 heartbeat IPC: 0.523251 cumulative IPC: 0.519709 (Simulation time: 0 hr 27 min 48 sec) 
Heartbeat CPU 0 instructions: 63000001 cycles: 51377194 heartbeat IPC: 0.488704 cumulative IPC: 0.517185 (Simulation time: 0 hr 28 min 11 sec) 
Heartbeat CPU 0 instructions: 64000000 cycles: 53327708 heartbeat IPC: 0.512685 cumulative IPC: 0.516861 (Simulation time: 0 hr 28 min 36 sec) 
Heartbeat CPU 0 instructions: 65000000 cycles: 55266430 heartbeat IPC: 0.515804 cumulative IPC: 0.51679 (Simulation time: 0 hr 29 min 0 sec) 
Heartbeat CPU 0 instructions: 66000000 cycles: 57213941 heartbeat IPC: 0.513476 cumulative IPC: 0.516582 (Simulation time: 0 hr 29 min 23 sec) 
Heartbeat CPU 0 instructions: 67000003 cycles: 59158478 heartbeat IPC: 0.514263 cumulative IPC: 0.516445 (Simulation time: 0 hr 29 min 46 sec) 
Heartbeat CPU 0 instructions: 68000000 cycles: 61085977 heartbeat IPC: 0.518805 cumulative IPC: 0.516576 (Simulation time: 0 hr 30 min 9 sec) 
Heartbeat CPU 0 instructions: 69000000 cycles: 63018125 heartbeat IPC: 0.517559 cumulative IPC: 0.516627 (Simulation time: 0 hr 30 min 32 sec) 
Heartbeat CPU 0 instructions: 70000003 cycles: 64971742 heartbeat IPC: 0.511873 cumulative IPC: 0.516387 (Simulation time: 0 hr 30 min 55 sec) 
Heartbeat CPU 0 instructions: 71000001 cycles: 66928795 heartbeat IPC: 0.510971 cumulative IPC: 0.516127 (Simulation time: 0 hr 31 min 16 sec) 
Heartbeat CPU 0 instructions: 72000000 cycles: 68884719 heartbeat IPC: 0.511267 cumulative IPC: 0.515904 (Simulation time: 0 hr 31 min 38 sec) 
Heartbeat CPU 0 instructions: 73000000 cycles: 70842369 heartbeat IPC: 0.510817 cumulative IPC: 0.515681 (Simulation time: 0 hr 31 min 59 sec) 
Heartbeat CPU 0 instructions: 74000000 cycles: 72797326 heartbeat IPC: 0.51152 cumulative IPC: 0.515506 (Simulation time: 0 hr 32 min 21 sec) 
Heartbeat CPU 0 instructions: 75000001 cycles: 74714329 heartbeat IPC: 0.521648 cumulative IPC: 0.515749 (Simulation time: 0 hr 32 min 42 sec) 
Heartbeat CPU 0 instructions: 76000000 cycles: 76648560 heartbeat IPC: 0.517001 cumulative IPC: 0.515797 (Simulation time: 0 hr 33 min 2 sec) 
Heartbeat CPU 0 instructions: 77000001 cycles: 78692384 heartbeat IPC: 0.489279 cumulative IPC: 0.514764 (Simulation time: 0 hr 33 min 22 sec) 
Heartbeat CPU 0 instructions: 78000000 cycles: 80657999 heartbeat IPC: 0.508746 cumulative IPC: 0.514546 (Simulation time: 0 hr 33 min 42 sec) 
Heartbeat CPU 0 instructions: 79000003 cycles: 82720108 heartbeat IPC: 0.484942 cumulative IPC: 0.513465 (Simulation time: 0 hr 34 min 2 sec) 
Heartbeat CPU 0 instructions: 80000000 cycles: 84843590 heartbeat IPC: 0.470923 cumulative IPC: 0.511924 (Simulation time: 0 hr 34 min 20 sec) 
Heartbeat CPU 0 instructions: 81000003 cycles: 86973077 heartbeat IPC: 0.469598 cumulative IPC: 0.51044 (Simulation time: 0 hr 34 min 39 sec) 
Heartbeat CPU 0 instructions: 82000000 cycles: 89042143 heartbeat IPC: 0.483308 cumulative IPC: 0.509546 (Simulation time: 0 hr 34 min 58 sec) 
Heartbeat CPU 0 instructions: 83000000 cycles: 91040716 heartbeat IPC: 0.500357 cumulative IPC: 0.509262 (Simulation time: 0 hr 35 min 18 sec) 
Heartbeat CPU 0 instructions: 84000000 cycles: 93035316 heartbeat IPC: 0.501354 cumulative IPC: 0.509026 (Simulation time: 0 hr 35 min 38 sec) 
Heartbeat CPU 0 instructions: 85000001 cycles: 95010387 heartbeat IPC: 0.506311 cumulative IPC: 0.508948 (Simulation time: 0 hr 35 min 58 sec) 
Heartbeat CPU 0 instructions: 86000002 cycles: 96976753 heartbeat IPC: 0.508553 cumulative IPC: 0.508937 (Simulation time: 0 hr 36 min 17 sec) 
Heartbeat CPU 0 instructions: 87000000 cycles: 98981403 heartbeat IPC: 0.498839 cumulative IPC: 0.508659 (Simulation time: 0 hr 36 min 36 sec) 
Heartbeat CPU 0 instructions: 88000000 cycles: 101047331 heartbeat IPC: 0.484044 cumulative IPC: 0.507979 (Simulation time: 0 hr 36 min 56 sec) 
Heartbeat CPU 0 instructions: 89000003 cycles: 103043094 heartbeat IPC: 0.501063 cumulative IPC: 0.5078 (Simulation time: 0 hr 37 min 16 sec) 
Heartbeat CPU 0 instructions: 90000000 cycles: 105026802 heartbeat IPC: 0.504105 cumulative IPC: 0.507706 (Simulation time: 0 hr 37 min 36 sec) 
Heartbeat CPU 0 instructions: 91000000 cycles: 107013087 heartbeat IPC: 0.503452 cumulative IPC: 0.507602 (Simulation time: 0 hr 37 min 56 sec) 
Heartbeat CPU 0 instructions: 92000000 cycles: 109014302 heartbeat IPC: 0.499696 cumulative IPC: 0.507411 (Simulation time: 0 hr 38 min 15 sec) 
Heartbeat CPU 0 instructions: 93000003 cycles: 110977065 heartbeat IPC: 0.509487 cumulative IPC: 0.507459 (Simulation time: 0 hr 38 min 35 sec) 
Heartbeat CPU 0 instructions: 94000000 cycles: 112924231 heartbeat IPC: 0.513565 cumulative IPC: 0.507596 (Simulation time: 0 hr 38 min 56 sec) 
Heartbeat CPU 0 instructions: 95000000 cycles: 114902963 heartbeat IPC: 0.505374 cumulative IPC: 0.507546 (Simulation time: 0 hr 39 min 16 sec) 
Heartbeat CPU 0 instructions: 96000000 cycles: 116921112 heartbeat IPC: 0.495504 cumulative IPC: 0.507278 (Simulation time: 0 hr 39 min 35 sec) 
Heartbeat CPU 0 instructions: 97000000 cycles: 118934853 heartbeat IPC: 0.496588 cumulative IPC: 0.507046 (Simulation time: 0 hr 39 min 55 sec) 
Heartbeat CPU 0 instructions: 98000000 cycles: 120924588 heartbeat IPC: 0.50258 cumulative IPC: 0.506952 (Simulation time: 0 hr 40 min 15 sec) 
Heartbeat CPU 0 instructions: 99000000 cycles: 123013127 heartbeat IPC: 0.478804 cumulative IPC: 0.506345 (Simulation time: 0 hr 40 min 34 sec) 
Heartbeat CPU 0 instructions: 100000000 cycles: 125024749 heartbeat IPC: 0.497111 cumulative IPC: 0.506157 (Simulation time: 0 hr 40 min 54 sec) 
Heartbeat CPU 0 instructions: 101000000 cycles: 127076241 heartbeat IPC: 0.48745 cumulative IPC: 0.505776 (Simulation time: 0 hr 41 min 13 sec) 
Heartbeat CPU 0 instructions: 102000003 cycles: 129091194 heartbeat IPC: 0.496291 cumulative IPC: 0.50559 (Simulation time: 0 hr 41 min 33 sec) 
Heartbeat CPU 0 instructions: 103000000 cycles: 131057067 heartbeat IPC: 0.508678 cumulative IPC: 0.505648 (Simulation time: 0 hr 41 min 54 sec) 
Heartbeat CPU 0 instructions: 104000000 cycles: 133011694 heartbeat IPC: 0.511607 cumulative IPC: 0.505757 (Simulation time: 0 hr 42 min 15 sec) 
Heartbeat CPU 0 instructions: 105000002 cycles: 134963541 heartbeat IPC: 0.512336 cumulative IPC: 0.505875 (Simulation time: 0 hr 42 min 36 sec) 
Heartbeat CPU 0 instructions: 106000003 cycles: 136905859 heartbeat IPC: 0.514849 cumulative IPC: 0.506033 (Simulation time: 0 hr 42 min 57 sec) 
Heartbeat CPU 0 instructions: 107000000 cycles: 138858555 heartbeat IPC: 0.512111 cumulative IPC: 0.506138 (Simulation time: 0 hr 43 min 17 sec) 
Heartbeat CPU 0 instructions: 108000000 cycles: 140932974 heartbeat IPC: 0.482063 cumulative IPC: 0.505703 (Simulation time: 0 hr 43 min 35 sec) 
Heartbeat CPU 0 instructions: 109000003 cycles: 142972345 heartbeat IPC: 0.490349 cumulative IPC: 0.505435 (Simulation time: 0 hr 43 min 53 sec) 
Heartbeat CPU 0 instructions: 110000002 cycles: 144985168 heartbeat IPC: 0.496814 cumulative IPC: 0.505289 (Simulation time: 0 hr 44 min 12 sec) 
Heartbeat CPU 0 instructions: 111000002 cycles: 146990822 heartbeat IPC: 0.49859 cumulative IPC: 0.505177 (Simulation time: 0 hr 44 min 31 sec) 
Heartbeat CPU 0 instructions: 112000000 cycles: 148997229 heartbeat IPC: 0.498402 cumulative IPC: 0.505067 (Simulation time: 0 hr 44 min 50 sec) 
Heartbeat CPU 0 instructions: 113000000 cycles: 150990282 heartbeat IPC: 0.501743 cumulative IPC: 0.505013 (Simulation time: 0 hr 45 min 9 sec) 
Heartbeat CPU 0 instructions: 114000001 cycles: 153001971 heartbeat IPC: 0.497095 cumulative IPC: 0.504888 (Simulation time: 0 hr 45 min 27 sec) 
Heartbeat CPU 0 instructions: 115000000 cycles: 155015697 heartbeat IPC: 0.496591 cumulative IPC: 0.504758 (Simulation time: 0 hr 45 min 45 sec) 
Heartbeat CPU 0 instructions: 116000000 cycles: 157052590 heartbeat IPC: 0.490944 cumulative IPC: 0.504543 (Simulation time: 0 hr 46 min 2 sec) 
Heartbeat CPU 0 instructions: 117000000 cycles: 159131232 heartbeat IPC: 0.481083 cumulative IPC: 0.504176 (Simulation time: 0 hr 46 min 17 sec) 
Heartbeat CPU 0 instructions: 118000002 cycles: 161239043 heartbeat IPC: 0.474427 cumulative IPC: 0.503711 (Simulation time: 0 hr 46 min 33 sec) 
Heartbeat CPU 0 instructions: 119000001 cycles: 163314295 heartbeat IPC: 0.481869 cumulative IPC: 0.503381 (Simulation time: 0 hr 46 min 47 sec) 
Heartbeat CPU 0 instructions: 120000000 cycles: 165345732 heartbeat IPC: 0.492262 cumulative IPC: 0.503218 (Simulation time: 0 hr 47 min 3 sec) 
Heartbeat CPU 0 instructions: 121000000 cycles: 167423027 heartbeat IPC: 0.481395 cumulative IPC: 0.502897 (Simulation time: 0 hr 47 min 17 sec) 
Heartbeat CPU 0 instructions: 122000001 cycles: 169570553 heartbeat IPC: 0.465653 cumulative IPC: 0.502339 (Simulation time: 0 hr 47 min 30 sec) 
Heartbeat CPU 0 instructions: 123000000 cycles: 171639296 heartbeat IPC: 0.483385 cumulative IPC: 0.50207 (Simulation time: 0 hr 47 min 43 sec) 
Heartbeat CPU 0 instructions: 124000000 cycles: 173649091 heartbeat IPC: 0.497563 cumulative IPC: 0.502008 (Simulation time: 0 hr 47 min 56 sec) 
Heartbeat CPU 0 instructions: 125000001 cycles: 175644095 heartbeat IPC: 0.501253 cumulative IPC: 0.501998 (Simulation time: 0 hr 48 min 7 sec) 
Heartbeat CPU 0 instructions: 126000000 cycles: 177658942 heartbeat IPC: 0.496315 cumulative IPC: 0.501922 (Simulation time: 0 hr 48 min 19 sec) 
Heartbeat CPU 0 instructions: 127000001 cycles: 179665184 heartbeat IPC: 0.498445 cumulative IPC: 0.501877 (Simulation time: 0 hr 48 min 31 sec) 
Heartbeat CPU 0 instructions: 128000000 cycles: 181710602 heartbeat IPC: 0.488897 cumulative IPC: 0.501706 (Simulation time: 0 hr 48 min 42 sec) 
Heartbeat CPU 0 instructions: 129000000 cycles: 183775659 heartbeat IPC: 0.484248 cumulative IPC: 0.501477 (Simulation time: 0 hr 48 min 52 sec) 
Heartbeat CPU 0 instructions: 130000002 cycles: 185805919 heartbeat IPC: 0.492549 cumulative IPC: 0.501364 (Simulation time: 0 hr 49 min 2 sec) 
Heartbeat CPU 0 instructions: 131000001 cycles: 187807014 heartbeat IPC: 0.499726 cumulative IPC: 0.501343 (Simulation time: 0 hr 49 min 12 sec) 
Heartbeat CPU 0 instructions: 132000000 cycles: 189812613 heartbeat IPC: 0.498604 cumulative IPC: 0.50131 (Simulation time: 0 hr 49 min 20 sec) 
Heartbeat CPU 0 instructions: 133000001 cycles: 191826769 heartbeat IPC: 0.496486 cumulative IPC: 0.501251 (Simulation time: 0 hr 49 min 28 sec) 
Heartbeat CPU 0 instructions: 134000002 cycles: 193831649 heartbeat IPC: 0.498783 cumulative IPC: 0.501222 (Simulation time: 0 hr 49 min 36 sec) 
Heartbeat CPU 0 instructions: 135000003 cycles: 195850264 heartbeat IPC: 0.49539 cumulative IPC: 0.501152 (Simulation time: 0 hr 49 min 45 sec) 
Heartbeat CPU 0 instructions: 136000000 cycles: 197850176 heartbeat IPC: 0.500021 cumulative IPC: 0.501139 (Simulation time: 0 hr 49 min 53 sec) 
Heartbeat CPU 0 instructions: 137000000 cycles: 199843109 heartbeat IPC: 0.501773 cumulative IPC: 0.501146 (Simulation time: 0 hr 50 min 1 sec) 
Heartbeat CPU 0 instructions: 138000003 cycles: 201842570 heartbeat IPC: 0.500136 cumulative IPC: 0.501135 (Simulation time: 0 hr 50 min 9 sec) 
Heartbeat CPU 0 instructions: 139000000 cycles: 203874752 heartbeat IPC: 0.49208 cumulative IPC: 0.501031 (Simulation time: 0 hr 50 min 17 sec) 
Heartbeat CPU 0 instructions: 140000000 cycles: 205924257 heartbeat IPC: 0.487923 cumulative IPC: 0.500882 (Simulation time: 0 hr 50 min 25 sec) 
Heartbeat CPU 0 instructions: 141000002 cycles: 207938895 heartbeat IPC: 0.496368 cumulative IPC: 0.500832 (Simulation time: 0 hr 50 min 33 sec) 
Heartbeat CPU 0 instructions: 142000002 cycles: 209936516 heartbeat IPC: 0.500595 cumulative IPC: 0.500829 (Simulation time: 0 hr 50 min 41 sec) 
Heartbeat CPU 0 instructions: 143000002 cycles: 211948423 heartbeat IPC: 0.497041 cumulative IPC: 0.500788 (Simulation time: 0 hr 50 min 49 sec) 
Heartbeat CPU 0 instructions: 144000000 cycles: 213965825 heartbeat IPC: 0.495686 cumulative IPC: 0.500733 (Simulation time: 0 hr 50 min 58 sec) 
Heartbeat CPU 0 instructions: 145000001 cycles: 216054926 heartbeat IPC: 0.478675 cumulative IPC: 0.50049 (Simulation time: 0 hr 51 min 6 sec) 
Heartbeat CPU 0 instructions: 146000000 cycles: 218251578 heartbeat IPC: 0.455238 cumulative IPC: 0.499973 (Simulation time: 0 hr 51 min 14 sec) 
Heartbeat CPU 0 instructions: 147000000 cycles: 220387430 heartbeat IPC: 0.468197 cumulative IPC: 0.499623 (Simulation time: 0 hr 51 min 21 sec) 
Heartbeat CPU 0 instructions: 148000000 cycles: 222550779 heartbeat IPC: 0.462246 cumulative IPC: 0.499211 (Simulation time: 0 hr 51 min 29 sec) 
Heartbeat CPU 0 instructions: 149000000 cycles: 224681747 heartbeat IPC: 0.46927 cumulative IPC: 0.49889 (Simulation time: 0 hr 51 min 37 sec) 
Heartbeat CPU 0 instructions: 150000000 cycles: 226849719 heartbeat IPC: 0.461261 cumulative IPC: 0.498483 (Simulation time: 0 hr 51 min 45 sec) 
Finished CPU 0 instructions: 100000003 cycles: 200608594 cummulative IPC: 0.498483 (Simulation time: 0 hr 51 min 45 sec) 

ChampSim completed all CPUs

Region of Interest Statistics

CPU 0 cummulative IPC: 0.498483 instructions: 100000003 cycles: 200608594
LLC TOTAL     ACCESS:     476996  HIT:     283148  MISS:     193848
LLC LOAD      ACCESS:     104803  HIT:      57033  MISS:      47770
LLC RFO       ACCESS:      70516  HIT:      38903  MISS:      31613
LLC PREFETCH  ACCESS:     138024  HIT:      75045  MISS:      62979
LLC WRITEBACK ACCESS:     163653  HIT:     112167  MISS:      51486
