
*** ChampSim Multicore Out-of-Order Simulator ***

Warmup Instructions: 50000000
Simulation Instructions: 100000000
Configuration: 2
Number of CPUs: 1
LLC sets: 2048
LLC ways: 16
Off-chip DRAM Channels: 1 Width: 64-bit Data Rate: 1600 MT/s

CPU 0 runs /datasets/cs240c-wi22-a00-public/data/Assignment2-gz/perlbench_53B.trace.gz
CPU 0 L1D next line prefetcher
CPU 0 L2C IP-based stride prefetcher
Heartbeat CPU 0 instructions: 1000000 cycles: 615801 heartbeat IPC: 1.6239 cumulative IPC: 1.6239 (Simulation time: 0 hr 0 min 42 sec) 
Heartbeat CPU 0 instructions: 2000001 cycles: 1252973 heartbeat IPC: 1.56944 cumulative IPC: 1.5962 (Simulation time: 0 hr 1 min 21 sec) 
Heartbeat CPU 0 instructions: 3000002 cycles: 1908460 heartbeat IPC: 1.52558 cumulative IPC: 1.57195 (Simulation time: 0 hr 2 min 5 sec) 
Heartbeat CPU 0 instructions: 4000000 cycles: 2523965 heartbeat IPC: 1.62468 cumulative IPC: 1.58481 (Simulation time: 0 hr 2 min 41 sec) 
Heartbeat CPU 0 instructions: 5000001 cycles: 3151964 heartbeat IPC: 1.59236 cumulative IPC: 1.58631 (Simulation time: 0 hr 3 min 16 sec) 
Heartbeat CPU 0 instructions: 6000001 cycles: 3767491 heartbeat IPC: 1.62462 cumulative IPC: 1.59257 (Simulation time: 0 hr 3 min 51 sec) 
Heartbeat CPU 0 instructions: 7000002 cycles: 4390268 heartbeat IPC: 1.60571 cumulative IPC: 1.59444 (Simulation time: 0 hr 4 min 27 sec) 
Heartbeat CPU 0 instructions: 8000000 cycles: 5000661 heartbeat IPC: 1.63829 cumulative IPC: 1.59979 (Simulation time: 0 hr 5 min 3 sec) 
Heartbeat CPU 0 instructions: 9000000 cycles: 5652410 heartbeat IPC: 1.53433 cumulative IPC: 1.59224 (Simulation time: 0 hr 5 min 46 sec) 
Heartbeat CPU 0 instructions: 10000001 cycles: 6287609 heartbeat IPC: 1.57431 cumulative IPC: 1.59043 (Simulation time: 0 hr 6 min 18 sec) 
Heartbeat CPU 0 instructions: 11000000 cycles: 6904377 heartbeat IPC: 1.62135 cumulative IPC: 1.59319 (Simulation time: 0 hr 6 min 47 sec) 
Heartbeat CPU 0 instructions: 12000000 cycles: 7561532 heartbeat IPC: 1.52171 cumulative IPC: 1.58698 (Simulation time: 0 hr 7 min 19 sec) 
Heartbeat CPU 0 instructions: 13000000 cycles: 8151260 heartbeat IPC: 1.6957 cumulative IPC: 1.59485 (Simulation time: 0 hr 7 min 50 sec) 
Heartbeat CPU 0 instructions: 14000000 cycles: 8768170 heartbeat IPC: 1.62098 cumulative IPC: 1.59668 (Simulation time: 0 hr 8 min 22 sec) 
Heartbeat CPU 0 instructions: 15000001 cycles: 9380159 heartbeat IPC: 1.63402 cumulative IPC: 1.59912 (Simulation time: 0 hr 8 min 56 sec) 
Heartbeat CPU 0 instructions: 16000000 cycles: 9994269 heartbeat IPC: 1.62837 cumulative IPC: 1.60092 (Simulation time: 0 hr 9 min 30 sec) 
Heartbeat CPU 0 instructions: 17000002 cycles: 10626504 heartbeat IPC: 1.58169 cumulative IPC: 1.59977 (Simulation time: 0 hr 10 min 1 sec) 
Heartbeat CPU 0 instructions: 18000002 cycles: 11286930 heartbeat IPC: 1.51417 cumulative IPC: 1.59477 (Simulation time: 0 hr 10 min 34 sec) 
Heartbeat CPU 0 instructions: 19000001 cycles: 11893913 heartbeat IPC: 1.64749 cumulative IPC: 1.59746 (Simulation time: 0 hr 11 min 3 sec) 
Heartbeat CPU 0 instructions: 20000000 cycles: 12569328 heartbeat IPC: 1.48057 cumulative IPC: 1.59117 (Simulation time: 0 hr 11 min 37 sec) 
Heartbeat CPU 0 instructions: 21000000 cycles: 13181820 heartbeat IPC: 1.63267 cumulative IPC: 1.5931 (Simulation time: 0 hr 12 min 9 sec) 
Heartbeat CPU 0 instructions: 22000000 cycles: 13737535 heartbeat IPC: 1.79948 cumulative IPC: 1.60145 (Simulation time: 0 hr 12 min 37 sec) 
Heartbeat CPU 0 instructions: 23000001 cycles: 14276611 heartbeat IPC: 1.85503 cumulative IPC: 1.61103 (Simulation time: 0 hr 13 min 4 sec) 
Heartbeat CPU 0 instructions: 24000000 cycles: 14899468 heartbeat IPC: 1.6055 cumulative IPC: 1.6108 (Simulation time: 0 hr 13 min 32 sec) 
Heartbeat CPU 0 instructions: 25000000 cycles: 15451773 heartbeat IPC: 1.81059 cumulative IPC: 1.61794 (Simulation time: 0 hr 13 min 58 sec) 
Heartbeat CPU 0 instructions: 26000001 cycles: 16005372 heartbeat IPC: 1.80636 cumulative IPC: 1.62445 (Simulation time: 0 hr 14 min 22 sec) 
Heartbeat CPU 0 instructions: 27000001 cycles: 16597461 heartbeat IPC: 1.68894 cumulative IPC: 1.62675 (Simulation time: 0 hr 14 min 48 sec) 
Heartbeat CPU 0 instructions: 28000000 cycles: 17240181 heartbeat IPC: 1.55589 cumulative IPC: 1.62411 (Simulation time: 0 hr 15 min 15 sec) 
Heartbeat CPU 0 instructions: 29000000 cycles: 17851483 heartbeat IPC: 1.63585 cumulative IPC: 1.62451 (Simulation time: 0 hr 15 min 39 sec) 
Heartbeat CPU 0 instructions: 30000000 cycles: 18406474 heartbeat IPC: 1.80183 cumulative IPC: 1.62986 (Simulation time: 0 hr 16 min 1 sec) 
Heartbeat CPU 0 instructions: 31000001 cycles: 18957797 heartbeat IPC: 1.81382 cumulative IPC: 1.63521 (Simulation time: 0 hr 16 min 24 sec) 
Heartbeat CPU 0 instructions: 32000000 cycles: 19514519 heartbeat IPC: 1.79623 cumulative IPC: 1.6398 (Simulation time: 0 hr 16 min 48 sec) 
Heartbeat CPU 0 instructions: 33000003 cycles: 20103879 heartbeat IPC: 1.69676 cumulative IPC: 1.64147 (Simulation time: 0 hr 17 min 14 sec) 
Heartbeat CPU 0 instructions: 34000001 cycles: 20712405 heartbeat IPC: 1.64331 cumulative IPC: 1.64153 (Simulation time: 0 hr 17 min 41 sec) 
Heartbeat CPU 0 instructions: 35000001 cycles: 21323774 heartbeat IPC: 1.63567 cumulative IPC: 1.64136 (Simulation time: 0 hr 18 min 6 sec) 
Heartbeat CPU 0 instructions: 36000000 cycles: 21979015 heartbeat IPC: 1.52615 cumulative IPC: 1.63793 (Simulation time: 0 hr 18 min 32 sec) 
Heartbeat CPU 0 instructions: 37000002 cycles: 22612542 heartbeat IPC: 1.57847 cumulative IPC: 1.63626 (Simulation time: 0 hr 18 min 56 sec) 
Heartbeat CPU 0 instructions: 38000000 cycles: 23232550 heartbeat IPC: 1.61288 cumulative IPC: 1.63564 (Simulation time: 0 hr 19 min 18 sec) 
Heartbeat CPU 0 instructions: 39000001 cycles: 23862543 heartbeat IPC: 1.58732 cumulative IPC: 1.63436 (Simulation time: 0 hr 19 min 43 sec) 
Heartbeat CPU 0 instructions: 40000000 cycles: 24485686 heartbeat IPC: 1.60477 cumulative IPC: 1.63361 (Simulation time: 0 hr 20 min 6 sec) 
Heartbeat CPU 0 instructions: 41000002 cycles: 25109540 heartbeat IPC: 1.60294 cumulative IPC: 1.63285 (Simulation time: 0 hr 20 min 28 sec) 
Heartbeat CPU 0 instructions: 42000000 cycles: 25723325 heartbeat IPC: 1.62923 cumulative IPC: 1.63276 (Simulation time: 0 hr 20 min 50 sec) 
Heartbeat CPU 0 instructions: 43000002 cycles: 26363118 heartbeat IPC: 1.56301 cumulative IPC: 1.63107 (Simulation time: 0 hr 21 min 13 sec) 
Heartbeat CPU 0 instructions: 44000000 cycles: 27023666 heartbeat IPC: 1.51389 cumulative IPC: 1.6282 (Simulation time: 0 hr 21 min 37 sec) 
Heartbeat CPU 0 instructions: 45000001 cycles: 27482192 heartbeat IPC: 2.1809 cumulative IPC: 1.63742 (Simulation time: 0 hr 21 min 54 sec) 
Heartbeat CPU 0 instructions: 46000000 cycles: 28032862 heartbeat IPC: 1.81597 cumulative IPC: 1.64093 (Simulation time: 0 hr 22 min 15 sec) 
Heartbeat CPU 0 instructions: 47000002 cycles: 28570715 heartbeat IPC: 1.85925 cumulative IPC: 1.64504 (Simulation time: 0 hr 22 min 33 sec) 
Heartbeat CPU 0 instructions: 48000000 cycles: 29108546 heartbeat IPC: 1.85932 cumulative IPC: 1.649 (Simulation time: 0 hr 22 min 53 sec) 
Heartbeat CPU 0 instructions: 49000000 cycles: 29709410 heartbeat IPC: 1.66427 cumulative IPC: 1.64931 (Simulation time: 0 hr 23 min 17 sec) 
Heartbeat CPU 0 instructions: 50000002 cycles: 30240734 heartbeat IPC: 1.88209 cumulative IPC: 1.6534 (Simulation time: 0 hr 23 min 37 sec) 

Warmup complete CPU 0 instructions: 50000002 cycles: 30240734 (Simulation time: 0 hr 23 min 37 sec) 

Heartbeat CPU 0 instructions: 51000000 cycles: 32172529 heartbeat IPC: 0.517652 cumulative IPC: 0.517652 (Simulation time: 0 hr 24 min 2 sec) 
Heartbeat CPU 0 instructions: 52000000 cycles: 34087534 heartbeat IPC: 0.522192 cumulative IPC: 0.519912 (Simulation time: 0 hr 24 min 26 sec) 
Heartbeat CPU 0 instructions: 53000002 cycles: 36038543 heartbeat IPC: 0.512556 cumulative IPC: 0.517437 (Simulation time: 0 hr 24 min 50 sec) 
Heartbeat CPU 0 instructions: 54000000 cycles: 38957966 heartbeat IPC: 0.342533 cumulative IPC: 0.458861 (Simulation time: 0 hr 25 min 17 sec) 
Heartbeat CPU 0 instructions: 55000000 cycles: 41462173 heartbeat IPC: 0.399328 cumulative IPC: 0.445575 (Simulation time: 0 hr 25 min 44 sec) 
Heartbeat CPU 0 instructions: 56000000 cycles: 44268621 heartbeat IPC: 0.356322 cumulative IPC: 0.427719 (Simulation time: 0 hr 26 min 9 sec) 
Heartbeat CPU 0 instructions: 57000001 cycles: 47265692 heartbeat IPC: 0.333659 cumulative IPC: 0.411161 (Simulation time: 0 hr 26 min 36 sec) 
Heartbeat CPU 0 instructions: 58000003 cycles: 50233359 heartbeat IPC: 0.336966 cumulative IPC: 0.400148 (Simulation time: 0 hr 27 min 8 sec) 
Heartbeat CPU 0 instructions: 59000002 cycles: 53067751 heartbeat IPC: 0.352809 cumulative IPC: 0.39427 (Simulation time: 0 hr 27 min 34 sec) 
Heartbeat CPU 0 instructions: 60000000 cycles: 55903292 heartbeat IPC: 0.352666 cumulative IPC: 0.389673 (Simulation time: 0 hr 28 min 0 sec) 
Heartbeat CPU 0 instructions: 61000002 cycles: 58616059 heartbeat IPC: 0.368628 cumulative IPC: 0.387661 (Simulation time: 0 hr 28 min 26 sec) 
Heartbeat CPU 0 instructions: 62000002 cycles: 61364962 heartbeat IPC: 0.363781 cumulative IPC: 0.385552 (Simulation time: 0 hr 28 min 51 sec) 
Heartbeat CPU 0 instructions: 63000001 cycles: 64059942 heartbeat IPC: 0.37106 cumulative IPC: 0.384397 (Simulation time: 0 hr 29 min 18 sec) 
Heartbeat CPU 0 instructions: 64000000 cycles: 66726152 heartbeat IPC: 0.375064 cumulative IPC: 0.383715 (Simulation time: 0 hr 29 min 44 sec) 
Heartbeat CPU 0 instructions: 65000003 cycles: 69369526 heartbeat IPC: 0.378306 cumulative IPC: 0.383349 (Simulation time: 0 hr 30 min 10 sec) 
Heartbeat CPU 0 instructions: 66000001 cycles: 72006509 heartbeat IPC: 0.37922 cumulative IPC: 0.383089 (Simulation time: 0 hr 30 min 36 sec) 
Heartbeat CPU 0 instructions: 67000001 cycles: 74621243 heartbeat IPC: 0.382448 cumulative IPC: 0.383051 (Simulation time: 0 hr 31 min 2 sec) 
Heartbeat CPU 0 instructions: 68000000 cycles: 77310366 heartbeat IPC: 0.371868 cumulative IPC: 0.382412 (Simulation time: 0 hr 31 min 27 sec) 
Heartbeat CPU 0 instructions: 69000001 cycles: 79971596 heartbeat IPC: 0.375766 cumulative IPC: 0.382057 (Simulation time: 0 hr 31 min 51 sec) 
Heartbeat CPU 0 instructions: 70000001 cycles: 82612455 heartbeat IPC: 0.378665 cumulative IPC: 0.381885 (Simulation time: 0 hr 32 min 13 sec) 
Heartbeat CPU 0 instructions: 71000001 cycles: 85339359 heartbeat IPC: 0.366716 cumulative IPC: 0.381135 (Simulation time: 0 hr 32 min 38 sec) 
Heartbeat CPU 0 instructions: 72000000 cycles: 87951124 heartbeat IPC: 0.382882 cumulative IPC: 0.381214 (Simulation time: 0 hr 33 min 3 sec) 
Heartbeat CPU 0 instructions: 73000002 cycles: 90677883 heartbeat IPC: 0.366736 cumulative IPC: 0.380561 (Simulation time: 0 hr 33 min 26 sec) 
Heartbeat CPU 0 instructions: 74000001 cycles: 93376915 heartbeat IPC: 0.370503 cumulative IPC: 0.380131 (Simulation time: 0 hr 33 min 48 sec) 
Heartbeat CPU 0 instructions: 75000001 cycles: 96052137 heartbeat IPC: 0.373801 cumulative IPC: 0.379873 (Simulation time: 0 hr 34 min 9 sec) 
Heartbeat CPU 0 instructions: 76000000 cycles: 98706113 heartbeat IPC: 0.376793 cumulative IPC: 0.379754 (Simulation time: 0 hr 34 min 32 sec) 
Heartbeat CPU 0 instructions: 77000002 cycles: 101383974 heartbeat IPC: 0.373433 cumulative IPC: 0.379516 (Simulation time: 0 hr 34 min 54 sec) 
Heartbeat CPU 0 instructions: 78000000 cycles: 104040761 heartbeat IPC: 0.376394 cumulative IPC: 0.379404 (Simulation time: 0 hr 35 min 16 sec) 
Heartbeat CPU 0 instructions: 79000002 cycles: 106703552 heartbeat IPC: 0.375547 cumulative IPC: 0.379269 (Simulation time: 0 hr 35 min 39 sec) 
Heartbeat CPU 0 instructions: 80000000 cycles: 109341675 heartbeat IPC: 0.379057 cumulative IPC: 0.379262 (Simulation time: 0 hr 36 min 0 sec) 
Heartbeat CPU 0 instructions: 81000000 cycles: 111956634 heartbeat IPC: 0.382415 cumulative IPC: 0.379363 (Simulation time: 0 hr 36 min 21 sec) 
Heartbeat CPU 0 instructions: 82000002 cycles: 114639607 heartbeat IPC: 0.372722 cumulative IPC: 0.379152 (Simulation time: 0 hr 36 min 43 sec) 
Heartbeat CPU 0 instructions: 83000000 cycles: 117289497 heartbeat IPC: 0.377373 cumulative IPC: 0.379098 (Simulation time: 0 hr 37 min 6 sec) 
Heartbeat CPU 0 instructions: 84000000 cycles: 119953709 heartbeat IPC: 0.375345 cumulative IPC: 0.378986 (Simulation time: 0 hr 37 min 28 sec) 
Heartbeat CPU 0 instructions: 85000001 cycles: 122644186 heartbeat IPC: 0.371682 cumulative IPC: 0.378774 (Simulation time: 0 hr 37 min 50 sec) 
Heartbeat CPU 0 instructions: 86000000 cycles: 125147629 heartbeat IPC: 0.399449 cumulative IPC: 0.379319 (Simulation time: 0 hr 38 min 14 sec) 
Heartbeat CPU 0 instructions: 87000000 cycles: 127290112 heartbeat IPC: 0.466748 cumulative IPC: 0.381249 (Simulation time: 0 hr 38 min 34 sec) 
Heartbeat CPU 0 instructions: 88000000 cycles: 129287642 heartbeat IPC: 0.500618 cumulative IPC: 0.383657 (Simulation time: 0 hr 38 min 54 sec) 
Heartbeat CPU 0 instructions: 89000001 cycles: 131366206 heartbeat IPC: 0.481102 cumulative IPC: 0.385659 (Simulation time: 0 hr 39 min 13 sec) 
Heartbeat CPU 0 instructions: 90000000 cycles: 134055874 heartbeat IPC: 0.371793 cumulative IPC: 0.3853 (Simulation time: 0 hr 39 min 38 sec) 
Heartbeat CPU 0 instructions: 91000001 cycles: 136870945 heartbeat IPC: 0.355231 cumulative IPC: 0.384506 (Simulation time: 0 hr 40 min 3 sec) 
Heartbeat CPU 0 instructions: 92000000 cycles: 139568226 heartbeat IPC: 0.370743 cumulative IPC: 0.384167 (Simulation time: 0 hr 40 min 24 sec) 
Heartbeat CPU 0 instructions: 93000000 cycles: 142230551 heartbeat IPC: 0.375612 cumulative IPC: 0.383963 (Simulation time: 0 hr 40 min 46 sec) 
Heartbeat CPU 0 instructions: 94000002 cycles: 144882895 heartbeat IPC: 0.377026 cumulative IPC: 0.383803 (Simulation time: 0 hr 41 min 9 sec) 
Heartbeat CPU 0 instructions: 95000000 cycles: 147507051 heartbeat IPC: 0.381074 cumulative IPC: 0.383742 (Simulation time: 0 hr 41 min 30 sec) 
Heartbeat CPU 0 instructions: 96000000 cycles: 150173909 heartbeat IPC: 0.374973 cumulative IPC: 0.383547 (Simulation time: 0 hr 41 min 51 sec) 
Heartbeat CPU 0 instructions: 97000000 cycles: 152815664 heartbeat IPC: 0.378536 cumulative IPC: 0.383439 (Simulation time: 0 hr 42 min 12 sec) 
Heartbeat CPU 0 instructions: 98000000 cycles: 155439838 heartbeat IPC: 0.381072 cumulative IPC: 0.383389 (Simulation time: 0 hr 42 min 34 sec) 
Heartbeat CPU 0 instructions: 99000002 cycles: 158050369 heartbeat IPC: 0.383065 cumulative IPC: 0.383383 (Simulation time: 0 hr 42 min 55 sec) 
Heartbeat CPU 0 instructions: 100000000 cycles: 160678949 heartbeat IPC: 0.380433 cumulative IPC: 0.383323 (Simulation time: 0 hr 43 min 15 sec) 
Heartbeat CPU 0 instructions: 101000002 cycles: 163335321 heartbeat IPC: 0.376454 cumulative IPC: 0.383186 (Simulation time: 0 hr 43 min 35 sec) 
Heartbeat CPU 0 instructions: 102000000 cycles: 165971414 heartbeat IPC: 0.379349 cumulative IPC: 0.383112 (Simulation time: 0 hr 43 min 54 sec) 
Heartbeat CPU 0 instructions: 103000000 cycles: 168600950 heartbeat IPC: 0.380295 cumulative IPC: 0.383058 (Simulation time: 0 hr 44 min 14 sec) 
Heartbeat CPU 0 instructions: 104000000 cycles: 171276299 heartbeat IPC: 0.373783 cumulative IPC: 0.382882 (Simulation time: 0 hr 44 min 37 sec) 
Heartbeat CPU 0 instructions: 105000003 cycles: 173464822 heartbeat IPC: 0.456931 cumulative IPC: 0.384014 (Simulation time: 0 hr 44 min 58 sec) 
Heartbeat CPU 0 instructions: 106000000 cycles: 175443807 heartbeat IPC: 0.505308 cumulative IPC: 0.385667 (Simulation time: 0 hr 45 min 16 sec) 
Heartbeat CPU 0 instructions: 107000003 cycles: 177420827 heartbeat IPC: 0.505813 cumulative IPC: 0.387281 (Simulation time: 0 hr 45 min 34 sec) 
Heartbeat CPU 0 instructions: 108000000 cycles: 180173224 heartbeat IPC: 0.363319 cumulative IPC: 0.386841 (Simulation time: 0 hr 45 min 53 sec) 
Heartbeat CPU 0 instructions: 109000001 cycles: 182900620 heartbeat IPC: 0.36665 cumulative IPC: 0.38648 (Simulation time: 0 hr 46 min 11 sec) 
Heartbeat CPU 0 instructions: 110000000 cycles: 185426191 heartbeat IPC: 0.39595 cumulative IPC: 0.386634 (Simulation time: 0 hr 46 min 28 sec) 
Heartbeat CPU 0 instructions: 111000000 cycles: 188234636 heartbeat IPC: 0.356069 cumulative IPC: 0.386091 (Simulation time: 0 hr 46 min 47 sec) 
Heartbeat CPU 0 instructions: 112000000 cycles: 191148209 heartbeat IPC: 0.343221 cumulative IPC: 0.385315 (Simulation time: 0 hr 47 min 4 sec) 
Heartbeat CPU 0 instructions: 113000000 cycles: 194060297 heartbeat IPC: 0.343396 cumulative IPC: 0.384569 (Simulation time: 0 hr 47 min 21 sec) 
Heartbeat CPU 0 instructions: 114000000 cycles: 196679352 heartbeat IPC: 0.381817 cumulative IPC: 0.384526 (Simulation time: 0 hr 47 min 36 sec) 
Heartbeat CPU 0 instructions: 115000000 cycles: 199403782 heartbeat IPC: 0.367049 cumulative IPC: 0.384245 (Simulation time: 0 hr 47 min 51 sec) 
Heartbeat CPU 0 instructions: 116000000 cycles: 202123826 heartbeat IPC: 0.367641 cumulative IPC: 0.383982 (Simulation time: 0 hr 48 min 5 sec) 
Heartbeat CPU 0 instructions: 117000000 cycles: 204993228 heartbeat IPC: 0.348505 cumulative IPC: 0.383399 (Simulation time: 0 hr 48 min 19 sec) 
Heartbeat CPU 0 instructions: 118000003 cycles: 207552717 heartbeat IPC: 0.390704 cumulative IPC: 0.383505 (Simulation time: 0 hr 48 min 33 sec) 
Heartbeat CPU 0 instructions: 119000002 cycles: 209063105 heartbeat IPC: 0.662081 cumulative IPC: 0.385858 (Simulation time: 0 hr 48 min 44 sec) 
Heartbeat CPU 0 instructions: 120000000 cycles: 211108971 heartbeat IPC: 0.48879 cumulative IPC: 0.387022 (Simulation time: 0 hr 48 min 54 sec) 
Heartbeat CPU 0 instructions: 121000003 cycles: 213038113 heartbeat IPC: 0.518367 cumulative IPC: 0.388408 (Simulation time: 0 hr 49 min 4 sec) 
Heartbeat CPU 0 instructions: 122000000 cycles: 214965818 heartbeat IPC: 0.51875 cumulative IPC: 0.389768 (Simulation time: 0 hr 49 min 13 sec) 
Heartbeat CPU 0 instructions: 123000000 cycles: 216990076 heartbeat IPC: 0.494008 cumulative IPC: 0.390898 (Simulation time: 0 hr 49 min 23 sec) 
Heartbeat CPU 0 instructions: 124000000 cycles: 219396573 heartbeat IPC: 0.415542 cumulative IPC: 0.391212 (Simulation time: 0 hr 49 min 33 sec) 
Heartbeat CPU 0 instructions: 125000002 cycles: 221177628 heartbeat IPC: 0.561466 cumulative IPC: 0.3928 (Simulation time: 0 hr 49 min 42 sec) 
Heartbeat CPU 0 instructions: 126000001 cycles: 223105314 heartbeat IPC: 0.518756 cumulative IPC: 0.394059 (Simulation time: 0 hr 49 min 51 sec) 
Heartbeat CPU 0 instructions: 127000001 cycles: 225031706 heartbeat IPC: 0.519105 cumulative IPC: 0.395296 (Simulation time: 0 hr 49 min 59 sec) 
Heartbeat CPU 0 instructions: 128000000 cycles: 227232439 heartbeat IPC: 0.454394 cumulative IPC: 0.395956 (Simulation time: 0 hr 50 min 8 sec) 
Heartbeat CPU 0 instructions: 129000001 cycles: 230027124 heartbeat IPC: 0.357822 cumulative IPC: 0.395422 (Simulation time: 0 hr 50 min 18 sec) 
Heartbeat CPU 0 instructions: 130000002 cycles: 232586498 heartbeat IPC: 0.390721 cumulative IPC: 0.395363 (Simulation time: 0 hr 50 min 28 sec) 
Heartbeat CPU 0 instructions: 131000000 cycles: 235427183 heartbeat IPC: 0.352027 cumulative IPC: 0.394763 (Simulation time: 0 hr 50 min 39 sec) 
Heartbeat CPU 0 instructions: 132000000 cycles: 238210546 heartbeat IPC: 0.359278 cumulative IPC: 0.394288 (Simulation time: 0 hr 50 min 49 sec) 
Heartbeat CPU 0 instructions: 133000000 cycles: 241190891 heartbeat IPC: 0.335532 cumulative IPC: 0.393458 (Simulation time: 0 hr 50 min 59 sec) 
Heartbeat CPU 0 instructions: 134000000 cycles: 243906724 heartbeat IPC: 0.368211 cumulative IPC: 0.393137 (Simulation time: 0 hr 51 min 9 sec) 
Heartbeat CPU 0 instructions: 135000000 cycles: 246723844 heartbeat IPC: 0.354972 cumulative IPC: 0.39264 (Simulation time: 0 hr 51 min 19 sec) 
Heartbeat CPU 0 instructions: 136000000 cycles: 249619729 heartbeat IPC: 0.345318 cumulative IPC: 0.392016 (Simulation time: 0 hr 51 min 29 sec) 
Heartbeat CPU 0 instructions: 137000003 cycles: 252407794 heartbeat IPC: 0.358673 cumulative IPC: 0.391597 (Simulation time: 0 hr 51 min 41 sec) 
Heartbeat CPU 0 instructions: 138000000 cycles: 254546413 heartbeat IPC: 0.46759 cumulative IPC: 0.392322 (Simulation time: 0 hr 51 min 51 sec) 
Heartbeat CPU 0 instructions: 139000000 cycles: 257274406 heartbeat IPC: 0.36657 cumulative IPC: 0.392012 (Simulation time: 0 hr 52 min 2 sec) 
Heartbeat CPU 0 instructions: 140000000 cycles: 260080873 heartbeat IPC: 0.35632 cumulative IPC: 0.391576 (Simulation time: 0 hr 52 min 11 sec) 
Heartbeat CPU 0 instructions: 141000001 cycles: 262779106 heartbeat IPC: 0.370613 cumulative IPC: 0.391333 (Simulation time: 0 hr 52 min 20 sec) 
Heartbeat CPU 0 instructions: 142000002 cycles: 265396873 heartbeat IPC: 0.382005 cumulative IPC: 0.391229 (Simulation time: 0 hr 52 min 27 sec) 
Heartbeat CPU 0 instructions: 143000001 cycles: 268051353 heartbeat IPC: 0.376721 cumulative IPC: 0.391067 (Simulation time: 0 hr 52 min 35 sec) 
Heartbeat CPU 0 instructions: 144000000 cycles: 270652803 heartbeat IPC: 0.384401 cumulative IPC: 0.390995 (Simulation time: 0 hr 52 min 44 sec) 
Heartbeat CPU 0 instructions: 145000000 cycles: 273265239 heartbeat IPC: 0.382784 cumulative IPC: 0.390907 (Simulation time: 0 hr 52 min 51 sec) 
Heartbeat CPU 0 instructions: 146000000 cycles: 275888204 heartbeat IPC: 0.381248 cumulative IPC: 0.390804 (Simulation time: 0 hr 52 min 58 sec) 
Heartbeat CPU 0 instructions: 147000002 cycles: 278284977 heartbeat IPC: 0.417228 cumulative IPC: 0.391059 (Simulation time: 0 hr 53 min 5 sec) 
Heartbeat CPU 0 instructions: 148000000 cycles: 280358094 heartbeat IPC: 0.482364 cumulative IPC: 0.391816 (Simulation time: 0 hr 53 min 11 sec) 
Heartbeat CPU 0 instructions: 149000001 cycles: 282811378 heartbeat IPC: 0.407617 cumulative IPC: 0.39197 (Simulation time: 0 hr 53 min 18 sec) 
Heartbeat CPU 0 instructions: 150000002 cycles: 285648167 heartbeat IPC: 0.352512 cumulative IPC: 0.391531 (Simulation time: 0 hr 53 min 24 sec) 
Finished CPU 0 instructions: 100000000 cycles: 255407433 cummulative IPC: 0.391531 (Simulation time: 0 hr 53 min 24 sec) 

ChampSim completed all CPUs

Region of Interest Statistics

CPU 0 cummulative IPC: 0.391531 instructions: 100000000 cycles: 255407433
LLC TOTAL     ACCESS:     651899  HIT:     594705  MISS:      57194
LLC LOAD      ACCESS:     308399  HIT:     285738  MISS:      22661
LLC RFO       ACCESS:      29186  HIT:      25169  MISS:       4017
LLC PREFETCH  ACCESS:     213193  HIT:     187986  MISS:      25207
LLC WRITEBACK ACCESS:     101121  HIT:      95812  MISS:       5309
