
*** ChampSim Multicore Out-of-Order Simulator ***

Warmup Instructions: 50000000
Simulation Instructions: 100000000
Configuration: 2
Number of CPUs: 1
LLC sets: 2048
LLC ways: 16
Off-chip DRAM Channels: 1 Width: 64-bit Data Rate: 1600 MT/s

CPU 0 runs /datasets/cs240c-wi22-a00-public/data/Assignment2-gz/bzip2_281B.trace.gz
CPU 0 L1D next line prefetcher
CPU 0 L2C IP-based stride prefetcher
Heartbeat CPU 0 instructions: 1000000 cycles: 445877 heartbeat IPC: 2.24277 cumulative IPC: 2.24277 (Simulation time: 0 hr 0 min 41 sec) 
Heartbeat CPU 0 instructions: 2000003 cycles: 900175 heartbeat IPC: 2.20121 cumulative IPC: 2.22179 (Simulation time: 0 hr 1 min 18 sec) 
Heartbeat CPU 0 instructions: 3000002 cycles: 1315031 heartbeat IPC: 2.41047 cumulative IPC: 2.28132 (Simulation time: 0 hr 1 min 55 sec) 
Heartbeat CPU 0 instructions: 4000000 cycles: 1753509 heartbeat IPC: 2.28061 cumulative IPC: 2.28114 (Simulation time: 0 hr 2 min 34 sec) 
Heartbeat CPU 0 instructions: 5000002 cycles: 2175489 heartbeat IPC: 2.36979 cumulative IPC: 2.29833 (Simulation time: 0 hr 3 min 8 sec) 
Heartbeat CPU 0 instructions: 6000000 cycles: 2666156 heartbeat IPC: 2.03804 cumulative IPC: 2.25043 (Simulation time: 0 hr 3 min 47 sec) 
Heartbeat CPU 0 instructions: 7000001 cycles: 3193363 heartbeat IPC: 1.89679 cumulative IPC: 2.19205 (Simulation time: 0 hr 4 min 22 sec) 
Heartbeat CPU 0 instructions: 8000000 cycles: 3725914 heartbeat IPC: 1.87775 cumulative IPC: 2.14712 (Simulation time: 0 hr 5 min 0 sec) 
Heartbeat CPU 0 instructions: 9000000 cycles: 4232219 heartbeat IPC: 1.97509 cumulative IPC: 2.12654 (Simulation time: 0 hr 5 min 37 sec) 
Heartbeat CPU 0 instructions: 10000002 cycles: 4685165 heartbeat IPC: 2.20777 cumulative IPC: 2.1344 (Simulation time: 0 hr 6 min 7 sec) 
Heartbeat CPU 0 instructions: 11000000 cycles: 5132588 heartbeat IPC: 2.23502 cumulative IPC: 2.14317 (Simulation time: 0 hr 6 min 37 sec) 
Heartbeat CPU 0 instructions: 12000000 cycles: 5613622 heartbeat IPC: 2.07886 cumulative IPC: 2.13766 (Simulation time: 0 hr 7 min 8 sec) 
Heartbeat CPU 0 instructions: 13000001 cycles: 6025098 heartbeat IPC: 2.43028 cumulative IPC: 2.15764 (Simulation time: 0 hr 7 min 39 sec) 
Heartbeat CPU 0 instructions: 14000003 cycles: 6483500 heartbeat IPC: 2.1815 cumulative IPC: 2.15933 (Simulation time: 0 hr 8 min 8 sec) 
Heartbeat CPU 0 instructions: 15000003 cycles: 6943891 heartbeat IPC: 2.17207 cumulative IPC: 2.16017 (Simulation time: 0 hr 8 min 39 sec) 
Heartbeat CPU 0 instructions: 16000000 cycles: 7340038 heartbeat IPC: 2.52431 cumulative IPC: 2.17983 (Simulation time: 0 hr 9 min 11 sec) 
Heartbeat CPU 0 instructions: 17000000 cycles: 7729197 heartbeat IPC: 2.56964 cumulative IPC: 2.19945 (Simulation time: 0 hr 9 min 42 sec) 
Heartbeat CPU 0 instructions: 18000002 cycles: 8185337 heartbeat IPC: 2.19231 cumulative IPC: 2.19905 (Simulation time: 0 hr 10 min 11 sec) 
Heartbeat CPU 0 instructions: 19000000 cycles: 8631276 heartbeat IPC: 2.24245 cumulative IPC: 2.2013 (Simulation time: 0 hr 10 min 41 sec) 
Heartbeat CPU 0 instructions: 20000000 cycles: 9076315 heartbeat IPC: 2.24699 cumulative IPC: 2.20354 (Simulation time: 0 hr 11 min 9 sec) 
