
*** ChampSim Multicore Out-of-Order Simulator ***

Warmup Instructions: 50000000
Simulation Instructions: 100000000
Configuration: 2
Number of CPUs: 1
LLC sets: 2048
LLC ways: 16
Off-chip DRAM Channels: 1 Width: 64-bit Data Rate: 1600 MT/s

CPU 0 runs /datasets/cs240c-wi22-a00-public/data/Assignment2-gz/cactusADM_734B.trace.gz
CPU 0 L1D next line prefetcher
CPU 0 L2C IP-based stride prefetcher
Heartbeat CPU 0 instructions: 1000003 cycles: 592726 heartbeat IPC: 1.68713 cumulative IPC: 1.68713 (Simulation time: 0 hr 0 min 47 sec) 
Heartbeat CPU 0 instructions: 2000001 cycles: 1185927 heartbeat IPC: 1.68577 cumulative IPC: 1.68645 (Simulation time: 0 hr 1 min 27 sec) 
Heartbeat CPU 0 instructions: 3000003 cycles: 1778979 heartbeat IPC: 1.6862 cumulative IPC: 1.68636 (Simulation time: 0 hr 2 min 9 sec) 
Heartbeat CPU 0 instructions: 4000000 cycles: 2371929 heartbeat IPC: 1.68648 cumulative IPC: 1.68639 (Simulation time: 0 hr 2 min 53 sec) 
Heartbeat CPU 0 instructions: 5000000 cycles: 2965279 heartbeat IPC: 1.68535 cumulative IPC: 1.68618 (Simulation time: 0 hr 3 min 38 sec) 
Heartbeat CPU 0 instructions: 6000002 cycles: 3558551 heartbeat IPC: 1.68557 cumulative IPC: 1.68608 (Simulation time: 0 hr 4 min 22 sec) 
Heartbeat CPU 0 instructions: 7000000 cycles: 4151394 heartbeat IPC: 1.68678 cumulative IPC: 1.68618 (Simulation time: 0 hr 5 min 5 sec) 
Heartbeat CPU 0 instructions: 8000000 cycles: 4744343 heartbeat IPC: 1.68649 cumulative IPC: 1.68622 (Simulation time: 0 hr 5 min 45 sec) 
Heartbeat CPU 0 instructions: 9000001 cycles: 5337493 heartbeat IPC: 1.68592 cumulative IPC: 1.68619 (Simulation time: 0 hr 6 min 23 sec) 
Heartbeat CPU 0 instructions: 10000003 cycles: 5958967 heartbeat IPC: 1.60908 cumulative IPC: 1.67814 (Simulation time: 0 hr 6 min 56 sec) 
Heartbeat CPU 0 instructions: 11000003 cycles: 6686272 heartbeat IPC: 1.37494 cumulative IPC: 1.64516 (Simulation time: 0 hr 7 min 42 sec) 
Heartbeat CPU 0 instructions: 12000000 cycles: 7278970 heartbeat IPC: 1.68719 cumulative IPC: 1.64858 (Simulation time: 0 hr 8 min 15 sec) 
Heartbeat CPU 0 instructions: 13000002 cycles: 7872581 heartbeat IPC: 1.68461 cumulative IPC: 1.6513 (Simulation time: 0 hr 8 min 51 sec) 
Heartbeat CPU 0 instructions: 14000000 cycles: 8465721 heartbeat IPC: 1.68594 cumulative IPC: 1.65373 (Simulation time: 0 hr 9 min 28 sec) 
Heartbeat CPU 0 instructions: 15000000 cycles: 9058617 heartbeat IPC: 1.68664 cumulative IPC: 1.65588 (Simulation time: 0 hr 10 min 3 sec) 
Heartbeat CPU 0 instructions: 16000000 cycles: 9651864 heartbeat IPC: 1.68564 cumulative IPC: 1.65771 (Simulation time: 0 hr 10 min 38 sec) 
Heartbeat CPU 0 instructions: 17000002 cycles: 10244981 heartbeat IPC: 1.68601 cumulative IPC: 1.65935 (Simulation time: 0 hr 11 min 12 sec) 
Heartbeat CPU 0 instructions: 18000001 cycles: 10838429 heartbeat IPC: 1.68507 cumulative IPC: 1.66076 (Simulation time: 0 hr 11 min 43 sec) 
Heartbeat CPU 0 instructions: 19000001 cycles: 11431232 heartbeat IPC: 1.6869 cumulative IPC: 1.66211 (Simulation time: 0 hr 12 min 17 sec) 
Heartbeat CPU 0 instructions: 20000000 cycles: 12024462 heartbeat IPC: 1.68569 cumulative IPC: 1.66328 (Simulation time: 0 hr 12 min 52 sec) 
Heartbeat CPU 0 instructions: 21000002 cycles: 12617744 heartbeat IPC: 1.68554 cumulative IPC: 1.66432 (Simulation time: 0 hr 13 min 23 sec) 
Heartbeat CPU 0 instructions: 22000000 cycles: 13210780 heartbeat IPC: 1.68623 cumulative IPC: 1.66531 (Simulation time: 0 hr 13 min 53 sec) 
Heartbeat CPU 0 instructions: 23000001 cycles: 13804174 heartbeat IPC: 1.68522 cumulative IPC: 1.66616 (Simulation time: 0 hr 14 min 23 sec) 
Heartbeat CPU 0 instructions: 24000000 cycles: 14558530 heartbeat IPC: 1.32563 cumulative IPC: 1.64852 (Simulation time: 0 hr 15 min 0 sec) 
Heartbeat CPU 0 instructions: 25000000 cycles: 15151531 heartbeat IPC: 1.68634 cumulative IPC: 1.65 (Simulation time: 0 hr 15 min 26 sec) 
Heartbeat CPU 0 instructions: 26000001 cycles: 15744198 heartbeat IPC: 1.68729 cumulative IPC: 1.6514 (Simulation time: 0 hr 15 min 55 sec) 
Heartbeat CPU 0 instructions: 27000003 cycles: 16337575 heartbeat IPC: 1.68527 cumulative IPC: 1.65263 (Simulation time: 0 hr 16 min 24 sec) 
Heartbeat CPU 0 instructions: 28000000 cycles: 16930546 heartbeat IPC: 1.68642 cumulative IPC: 1.65382 (Simulation time: 0 hr 16 min 50 sec) 
Heartbeat CPU 0 instructions: 29000001 cycles: 17523808 heartbeat IPC: 1.6856 cumulative IPC: 1.65489 (Simulation time: 0 hr 17 min 17 sec) 
Heartbeat CPU 0 instructions: 30000001 cycles: 18116375 heartbeat IPC: 1.68757 cumulative IPC: 1.65596 (Simulation time: 0 hr 17 min 43 sec) 
Heartbeat CPU 0 instructions: 31000000 cycles: 18709513 heartbeat IPC: 1.68595 cumulative IPC: 1.65691 (Simulation time: 0 hr 18 min 8 sec) 
Heartbeat CPU 0 instructions: 32000000 cycles: 19302619 heartbeat IPC: 1.68604 cumulative IPC: 1.65781 (Simulation time: 0 hr 18 min 33 sec) 
Heartbeat CPU 0 instructions: 33000000 cycles: 19895370 heartbeat IPC: 1.68705 cumulative IPC: 1.65868 (Simulation time: 0 hr 18 min 59 sec) 
Heartbeat CPU 0 instructions: 34000002 cycles: 20488622 heartbeat IPC: 1.68563 cumulative IPC: 1.65946 (Simulation time: 0 hr 19 min 27 sec) 
Heartbeat CPU 0 instructions: 35000001 cycles: 21081647 heartbeat IPC: 1.68627 cumulative IPC: 1.66021 (Simulation time: 0 hr 19 min 55 sec) 
Heartbeat CPU 0 instructions: 36000000 cycles: 21674743 heartbeat IPC: 1.68607 cumulative IPC: 1.66092 (Simulation time: 0 hr 20 min 19 sec) 
Heartbeat CPU 0 instructions: 37000003 cycles: 22428911 heartbeat IPC: 1.32597 cumulative IPC: 1.64966 (Simulation time: 0 hr 20 min 50 sec) 
Heartbeat CPU 0 instructions: 38000001 cycles: 23022001 heartbeat IPC: 1.68608 cumulative IPC: 1.6506 (Simulation time: 0 hr 21 min 13 sec) 
Heartbeat CPU 0 instructions: 39000003 cycles: 23614988 heartbeat IPC: 1.68638 cumulative IPC: 1.65149 (Simulation time: 0 hr 21 min 36 sec) 
Heartbeat CPU 0 instructions: 40000000 cycles: 24207789 heartbeat IPC: 1.6869 cumulative IPC: 1.65236 (Simulation time: 0 hr 22 min 1 sec) 
Heartbeat CPU 0 instructions: 41000001 cycles: 24801008 heartbeat IPC: 1.68572 cumulative IPC: 1.65316 (Simulation time: 0 hr 22 min 25 sec) 
Heartbeat CPU 0 instructions: 42000002 cycles: 25394084 heartbeat IPC: 1.68613 cumulative IPC: 1.65393 (Simulation time: 0 hr 22 min 48 sec) 
Heartbeat CPU 0 instructions: 43000000 cycles: 25987143 heartbeat IPC: 1.68617 cumulative IPC: 1.65466 (Simulation time: 0 hr 23 min 11 sec) 
Heartbeat CPU 0 instructions: 44000000 cycles: 26580000 heartbeat IPC: 1.68675 cumulative IPC: 1.65538 (Simulation time: 0 hr 23 min 34 sec) 
Heartbeat CPU 0 instructions: 45000003 cycles: 27172980 heartbeat IPC: 1.6864 cumulative IPC: 1.65606 (Simulation time: 0 hr 23 min 59 sec) 
Heartbeat CPU 0 instructions: 46000003 cycles: 27766247 heartbeat IPC: 1.68558 cumulative IPC: 1.65669 (Simulation time: 0 hr 24 min 23 sec) 
Heartbeat CPU 0 instructions: 47000001 cycles: 28358864 heartbeat IPC: 1.68743 cumulative IPC: 1.65733 (Simulation time: 0 hr 24 min 48 sec) 
Heartbeat CPU 0 instructions: 48000000 cycles: 28951825 heartbeat IPC: 1.68645 cumulative IPC: 1.65793 (Simulation time: 0 hr 25 min 11 sec) 
Heartbeat CPU 0 instructions: 49000000 cycles: 29544828 heartbeat IPC: 1.68633 cumulative IPC: 1.6585 (Simulation time: 0 hr 25 min 34 sec) 
Heartbeat CPU 0 instructions: 50000000 cycles: 30299331 heartbeat IPC: 1.32538 cumulative IPC: 1.6502 (Simulation time: 0 hr 26 min 2 sec) 

Warmup complete CPU 0 instructions: 50000004 cycles: 30299332 (Simulation time: 0 hr 26 min 2 sec) 

Heartbeat CPU 0 instructions: 51000000 cycles: 32027304 heartbeat IPC: 0.578713 cumulative IPC: 0.578711 (Simulation time: 0 hr 26 min 24 sec) 
Heartbeat CPU 0 instructions: 52000000 cycles: 33765040 heartbeat IPC: 0.575461 cumulative IPC: 0.577082 (Simulation time: 0 hr 26 min 48 sec) 
Heartbeat CPU 0 instructions: 53000003 cycles: 35501866 heartbeat IPC: 0.575765 cumulative IPC: 0.576642 (Simulation time: 0 hr 27 min 10 sec) 
Heartbeat CPU 0 instructions: 54000000 cycles: 37189816 heartbeat IPC: 0.592433 cumulative IPC: 0.58051 (Simulation time: 0 hr 27 min 34 sec) 
Heartbeat CPU 0 instructions: 55000001 cycles: 38863049 heartbeat IPC: 0.597646 cumulative IPC: 0.583858 (Simulation time: 0 hr 27 min 58 sec) 
Heartbeat CPU 0 instructions: 56000000 cycles: 40613892 heartbeat IPC: 0.571153 cumulative IPC: 0.581702 (Simulation time: 0 hr 28 min 20 sec) 
Heartbeat CPU 0 instructions: 57000000 cycles: 42361420 heartbeat IPC: 0.572237 cumulative IPC: 0.58033 (Simulation time: 0 hr 28 min 43 sec) 
Heartbeat CPU 0 instructions: 58000001 cycles: 44094147 heartbeat IPC: 0.577126 cumulative IPC: 0.579928 (Simulation time: 0 hr 29 min 6 sec) 
Heartbeat CPU 0 instructions: 59000000 cycles: 45751913 heartbeat IPC: 0.603221 cumulative IPC: 0.582427 (Simulation time: 0 hr 29 min 30 sec) 
Heartbeat CPU 0 instructions: 60000000 cycles: 47456817 heartbeat IPC: 0.586543 cumulative IPC: 0.582836 (Simulation time: 0 hr 29 min 53 sec) 
Heartbeat CPU 0 instructions: 61000002 cycles: 49194902 heartbeat IPC: 0.575347 cumulative IPC: 0.582147 (Simulation time: 0 hr 30 min 17 sec) 
Heartbeat CPU 0 instructions: 62000002 cycles: 50933363 heartbeat IPC: 0.575221 cumulative IPC: 0.581563 (Simulation time: 0 hr 30 min 43 sec) 
Heartbeat CPU 0 instructions: 63000002 cycles: 58332620 heartbeat IPC: 0.135149 cumulative IPC: 0.463734 (Simulation time: 0 hr 31 min 12 sec) 
Heartbeat CPU 0 instructions: 64000000 cycles: 60283931 heartbeat IPC: 0.512475 cumulative IPC: 0.466906 (Simulation time: 0 hr 31 min 36 sec) 
Heartbeat CPU 0 instructions: 65000003 cycles: 62019270 heartbeat IPC: 0.576258 cumulative IPC: 0.472889 (Simulation time: 0 hr 31 min 59 sec) 
Heartbeat CPU 0 instructions: 66000001 cycles: 63758259 heartbeat IPC: 0.575046 cumulative IPC: 0.478198 (Simulation time: 0 hr 32 min 21 sec) 
Heartbeat CPU 0 instructions: 67000000 cycles: 65494923 heartbeat IPC: 0.575816 cumulative IPC: 0.483015 (Simulation time: 0 hr 32 min 44 sec) 
Heartbeat CPU 0 instructions: 68000000 cycles: 67156072 heartbeat IPC: 0.601993 cumulative IPC: 0.488377 (Simulation time: 0 hr 33 min 6 sec) 
Heartbeat CPU 0 instructions: 69000000 cycles: 68856142 heartbeat IPC: 0.588211 cumulative IPC: 0.492779 (Simulation time: 0 hr 33 min 28 sec) 
Heartbeat CPU 0 instructions: 70000001 cycles: 70595458 heartbeat IPC: 0.574939 cumulative IPC: 0.496326 (Simulation time: 0 hr 33 min 49 sec) 
Heartbeat CPU 0 instructions: 71000001 cycles: 72334998 heartbeat IPC: 0.574865 cumulative IPC: 0.499576 (Simulation time: 0 hr 34 min 10 sec) 
Heartbeat CPU 0 instructions: 72000000 cycles: 74055366 heartbeat IPC: 0.58127 cumulative IPC: 0.502788 (Simulation time: 0 hr 34 min 32 sec) 
Heartbeat CPU 0 instructions: 73000003 cycles: 75702732 heartbeat IPC: 0.607031 cumulative IPC: 0.50657 (Simulation time: 0 hr 34 min 53 sec) 
Heartbeat CPU 0 instructions: 74000002 cycles: 77432651 heartbeat IPC: 0.578061 cumulative IPC: 0.509194 (Simulation time: 0 hr 35 min 16 sec) 
Heartbeat CPU 0 instructions: 75000002 cycles: 79170822 heartbeat IPC: 0.575317 cumulative IPC: 0.511546 (Simulation time: 0 hr 35 min 37 sec) 
Heartbeat CPU 0 instructions: 76000000 cycles: 85368394 heartbeat IPC: 0.161353 cumulative IPC: 0.472134 (Simulation time: 0 hr 36 min 3 sec) 
Heartbeat CPU 0 instructions: 77000000 cycles: 88554443 heartbeat IPC: 0.313868 cumulative IPC: 0.463479 (Simulation time: 0 hr 36 min 26 sec) 
Heartbeat CPU 0 instructions: 78000002 cycles: 90250494 heartbeat IPC: 0.589606 cumulative IPC: 0.467047 (Simulation time: 0 hr 36 min 47 sec) 
Heartbeat CPU 0 instructions: 79000002 cycles: 91989463 heartbeat IPC: 0.575053 cumulative IPC: 0.470091 (Simulation time: 0 hr 37 min 8 sec) 
Heartbeat CPU 0 instructions: 80000000 cycles: 93727518 heartbeat IPC: 0.575355 cumulative IPC: 0.472976 (Simulation time: 0 hr 37 min 30 sec) 
Heartbeat CPU 0 instructions: 81000000 cycles: 95452489 heartbeat IPC: 0.57972 cumulative IPC: 0.475802 (Simulation time: 0 hr 37 min 52 sec) 
Heartbeat CPU 0 instructions: 82000003 cycles: 97096931 heartbeat IPC: 0.608111 cumulative IPC: 0.479059 (Simulation time: 0 hr 38 min 14 sec) 
Heartbeat CPU 0 instructions: 83000003 cycles: 98824950 heartbeat IPC: 0.578697 cumulative IPC: 0.481572 (Simulation time: 0 hr 38 min 35 sec) 
Heartbeat CPU 0 instructions: 84000000 cycles: 100560912 heartbeat IPC: 0.576048 cumulative IPC: 0.483906 (Simulation time: 0 hr 38 min 58 sec) 
Heartbeat CPU 0 instructions: 85000003 cycles: 102300290 heartbeat IPC: 0.57492 cumulative IPC: 0.486105 (Simulation time: 0 hr 39 min 20 sec) 
Heartbeat CPU 0 instructions: 86000000 cycles: 103992684 heartbeat IPC: 0.590877 cumulative IPC: 0.488511 (Simulation time: 0 hr 39 min 41 sec) 
Heartbeat CPU 0 instructions: 87000000 cycles: 105663466 heartbeat IPC: 0.598522 cumulative IPC: 0.49095 (Simulation time: 0 hr 40 min 3 sec) 
Heartbeat CPU 0 instructions: 88000000 cycles: 107428126 heartbeat IPC: 0.566681 cumulative IPC: 0.492682 (Simulation time: 0 hr 40 min 24 sec) 
Heartbeat CPU 0 instructions: 89000002 cycles: 112531735 heartbeat IPC: 0.19594 cumulative IPC: 0.474266 (Simulation time: 0 hr 40 min 49 sec) 
Heartbeat CPU 0 instructions: 90000002 cycles: 116790563 heartbeat IPC: 0.234806 cumulative IPC: 0.462475 (Simulation time: 0 hr 41 min 13 sec) 
Heartbeat CPU 0 instructions: 91000003 cycles: 118438164 heartbeat IPC: 0.606944 cumulative IPC: 0.465175 (Simulation time: 0 hr 41 min 35 sec) 
Heartbeat CPU 0 instructions: 92000000 cycles: 120164712 heartbeat IPC: 0.579189 cumulative IPC: 0.467366 (Simulation time: 0 hr 41 min 55 sec) 
Heartbeat CPU 0 instructions: 93000000 cycles: 121905072 heartbeat IPC: 0.574594 cumulative IPC: 0.469403 (Simulation time: 0 hr 42 min 16 sec) 
Heartbeat CPU 0 instructions: 94000003 cycles: 123646082 heartbeat IPC: 0.574381 cumulative IPC: 0.471361 (Simulation time: 0 hr 42 min 36 sec) 
Heartbeat CPU 0 instructions: 95000000 cycles: 125344717 heartbeat IPC: 0.588706 cumulative IPC: 0.473458 (Simulation time: 0 hr 42 min 55 sec) 
Heartbeat CPU 0 instructions: 96000000 cycles: 127013695 heartbeat IPC: 0.599169 cumulative IPC: 0.475627 (Simulation time: 0 hr 43 min 13 sec) 
Heartbeat CPU 0 instructions: 97000001 cycles: 128747564 heartbeat IPC: 0.576745 cumulative IPC: 0.477408 (Simulation time: 0 hr 43 min 32 sec) 
Heartbeat CPU 0 instructions: 98000000 cycles: 130487856 heartbeat IPC: 0.574616 cumulative IPC: 0.479097 (Simulation time: 0 hr 43 min 50 sec) 
Heartbeat CPU 0 instructions: 99000001 cycles: 132224935 heartbeat IPC: 0.57568 cumulative IPC: 0.480743 (Simulation time: 0 hr 44 min 7 sec) 
Heartbeat CPU 0 instructions: 100000000 cycles: 133892656 heartbeat IPC: 0.59962 cumulative IPC: 0.482657 (Simulation time: 0 hr 44 min 25 sec) 
Heartbeat CPU 0 instructions: 101000000 cycles: 135592008 heartbeat IPC: 0.58846 cumulative IPC: 0.484364 (Simulation time: 0 hr 44 min 43 sec) 
Heartbeat CPU 0 instructions: 102000000 cycles: 139617190 heartbeat IPC: 0.248436 cumulative IPC: 0.475677 (Simulation time: 0 hr 45 min 3 sec) 
Heartbeat CPU 0 instructions: 103000000 cycles: 144976085 heartbeat IPC: 0.186606 cumulative IPC: 0.462169 (Simulation time: 0 hr 45 min 23 sec) 
Heartbeat CPU 0 instructions: 104000000 cycles: 146678930 heartbeat IPC: 0.587252 cumulative IPC: 0.463999 (Simulation time: 0 hr 45 min 41 sec) 
Heartbeat CPU 0 instructions: 105000000 cycles: 148340636 heartbeat IPC: 0.601791 cumulative IPC: 0.465939 (Simulation time: 0 hr 45 min 57 sec) 
Heartbeat CPU 0 instructions: 106000002 cycles: 150074838 heartbeat IPC: 0.576635 cumulative IPC: 0.467541 (Simulation time: 0 hr 46 min 13 sec) 
Heartbeat CPU 0 instructions: 107000001 cycles: 151815304 heartbeat IPC: 0.574558 cumulative IPC: 0.469074 (Simulation time: 0 hr 46 min 29 sec) 
Heartbeat CPU 0 instructions: 108000000 cycles: 153550629 heartbeat IPC: 0.57626 cumulative IPC: 0.470583 (Simulation time: 0 hr 46 min 45 sec) 
Heartbeat CPU 0 instructions: 109000001 cycles: 155222576 heartbeat IPC: 0.598106 cumulative IPC: 0.47229 (Simulation time: 0 hr 47 min 2 sec) 
Heartbeat CPU 0 instructions: 110000003 cycles: 156913746 heartbeat IPC: 0.591308 cumulative IPC: 0.47388 (Simulation time: 0 hr 47 min 17 sec) 
Heartbeat CPU 0 instructions: 111000002 cycles: 158651473 heartbeat IPC: 0.575464 cumulative IPC: 0.475255 (Simulation time: 0 hr 47 min 32 sec) 
Heartbeat CPU 0 instructions: 112000000 cycles: 160390941 heartbeat IPC: 0.574887 cumulative IPC: 0.476587 (Simulation time: 0 hr 47 min 45 sec) 
Heartbeat CPU 0 instructions: 113000002 cycles: 162116926 heartbeat IPC: 0.57938 cumulative IPC: 0.477933 (Simulation time: 0 hr 47 min 58 sec) 
Heartbeat CPU 0 instructions: 114000000 cycles: 163761235 heartbeat IPC: 0.608157 cumulative IPC: 0.479538 (Simulation time: 0 hr 48 min 11 sec) 
Heartbeat CPU 0 instructions: 115000002 cycles: 166571114 heartbeat IPC: 0.355888 cumulative IPC: 0.476988 (Simulation time: 0 hr 48 min 24 sec) 
Heartbeat CPU 0 instructions: 116000000 cycles: 173128753 heartbeat IPC: 0.152494 cumulative IPC: 0.46209 (Simulation time: 0 hr 48 min 39 sec) 
Heartbeat CPU 0 instructions: 117000000 cycles: 174878041 heartbeat IPC: 0.571661 cumulative IPC: 0.463415 (Simulation time: 0 hr 48 min 50 sec) 
Heartbeat CPU 0 instructions: 118000002 cycles: 176556151 heartbeat IPC: 0.59591 cumulative IPC: 0.464936 (Simulation time: 0 hr 49 min 1 sec) 
Heartbeat CPU 0 instructions: 119000003 cycles: 178247974 heartbeat IPC: 0.591079 cumulative IPC: 0.466378 (Simulation time: 0 hr 49 min 12 sec) 
Heartbeat CPU 0 instructions: 120000000 cycles: 179990185 heartbeat IPC: 0.573982 cumulative IPC: 0.46763 (Simulation time: 0 hr 49 min 21 sec) 
Heartbeat CPU 0 instructions: 121000001 cycles: 181732202 heartbeat IPC: 0.574048 cumulative IPC: 0.468855 (Simulation time: 0 hr 49 min 31 sec) 
Heartbeat CPU 0 instructions: 122000003 cycles: 183461159 heartbeat IPC: 0.578385 cumulative IPC: 0.470091 (Simulation time: 0 hr 49 min 41 sec) 
Heartbeat CPU 0 instructions: 123000000 cycles: 185113787 heartbeat IPC: 0.605095 cumulative IPC: 0.471532 (Simulation time: 0 hr 49 min 50 sec) 
Heartbeat CPU 0 instructions: 124000000 cycles: 186837310 heartbeat IPC: 0.580207 cumulative IPC: 0.472729 (Simulation time: 0 hr 50 min 1 sec) 
Heartbeat CPU 0 instructions: 125000002 cycles: 188578914 heartbeat IPC: 0.574184 cumulative IPC: 0.473845 (Simulation time: 0 hr 50 min 10 sec) 
Heartbeat CPU 0 instructions: 126000000 cycles: 190318612 heartbeat IPC: 0.574811 cumulative IPC: 0.474943 (Simulation time: 0 hr 50 min 20 sec) 
Heartbeat CPU 0 instructions: 127000001 cycles: 192022462 heartbeat IPC: 0.586907 cumulative IPC: 0.476122 (Simulation time: 0 hr 50 min 29 sec) 
Heartbeat CPU 0 instructions: 128000000 cycles: 193690001 heartbeat IPC: 0.599686 cumulative IPC: 0.477383 (Simulation time: 0 hr 50 min 39 sec) 
Heartbeat CPU 0 instructions: 129000002 cycles: 201326557 heartbeat IPC: 0.130949 cumulative IPC: 0.461915 (Simulation time: 0 hr 50 min 51 sec) 
Heartbeat CPU 0 instructions: 130000001 cycles: 203065464 heartbeat IPC: 0.575073 cumulative IPC: 0.463054 (Simulation time: 0 hr 51 min 0 sec) 
Heartbeat CPU 0 instructions: 131000002 cycles: 204797846 heartbeat IPC: 0.57724 cumulative IPC: 0.464187 (Simulation time: 0 hr 51 min 9 sec) 
Heartbeat CPU 0 instructions: 132000000 cycles: 206454668 heartbeat IPC: 0.603564 cumulative IPC: 0.465498 (Simulation time: 0 hr 51 min 19 sec) 
Heartbeat CPU 0 instructions: 133000000 cycles: 208174515 heartbeat IPC: 0.581447 cumulative IPC: 0.466619 (Simulation time: 0 hr 51 min 28 sec) 
Heartbeat CPU 0 instructions: 134000000 cycles: 209914884 heartbeat IPC: 0.574591 cumulative IPC: 0.467665 (Simulation time: 0 hr 51 min 38 sec) 
Heartbeat CPU 0 instructions: 135000003 cycles: 211655436 heartbeat IPC: 0.574532 cumulative IPC: 0.468691 (Simulation time: 0 hr 51 min 47 sec) 
Heartbeat CPU 0 instructions: 136000000 cycles: 213362042 heartbeat IPC: 0.585957 cumulative IPC: 0.469784 (Simulation time: 0 hr 51 min 56 sec) 
Heartbeat CPU 0 instructions: 137000001 cycles: 215025664 heartbeat IPC: 0.601099 cumulative IPC: 0.470967 (Simulation time: 0 hr 52 min 5 sec) 
Heartbeat CPU 0 instructions: 138000003 cycles: 216760165 heartbeat IPC: 0.576536 cumulative IPC: 0.471949 (Simulation time: 0 hr 52 min 14 sec) 
Heartbeat CPU 0 instructions: 139000000 cycles: 218501169 heartbeat IPC: 0.57438 cumulative IPC: 0.472897 (Simulation time: 0 hr 52 min 21 sec) 
Heartbeat CPU 0 instructions: 140000000 cycles: 220239457 heartbeat IPC: 0.575279 cumulative IPC: 0.473834 (Simulation time: 0 hr 52 min 28 sec) 
Heartbeat CPU 0 instructions: 141000002 cycles: 221913877 heartbeat IPC: 0.597223 cumulative IPC: 0.474912 (Simulation time: 0 hr 52 min 36 sec) 
