
*** ChampSim Multicore Out-of-Order Simulator ***

Warmup Instructions: 50000000
Simulation Instructions: 100000000
Configuration: 2
Number of CPUs: 1
LLC sets: 2048
LLC ways: 16
Off-chip DRAM Channels: 1 Width: 64-bit Data Rate: 1600 MT/s

CPU 0 runs /datasets/cs240c-wi22-a00-public/data/Assignment2-gz/leslie3d_1186B.trace.gz
CPU 0 L1D next line prefetcher
CPU 0 L2C IP-based stride prefetcher
Heartbeat CPU 0 instructions: 1000002 cycles: 564513 heartbeat IPC: 1.77144 cumulative IPC: 1.77144 (Simulation time: 0 hr 0 min 41 sec) 
Heartbeat CPU 0 instructions: 2000000 cycles: 1215804 heartbeat IPC: 1.53541 cumulative IPC: 1.645 (Simulation time: 0 hr 1 min 29 sec) 
Heartbeat CPU 0 instructions: 3000000 cycles: 1867525 heartbeat IPC: 1.5344 cumulative IPC: 1.6064 (Simulation time: 0 hr 2 min 15 sec) 
Heartbeat CPU 0 instructions: 4000000 cycles: 2473054 heartbeat IPC: 1.65145 cumulative IPC: 1.61743 (Simulation time: 0 hr 2 min 58 sec) 
Heartbeat CPU 0 instructions: 5000000 cycles: 3083373 heartbeat IPC: 1.63849 cumulative IPC: 1.6216 (Simulation time: 0 hr 3 min 39 sec) 
Heartbeat CPU 0 instructions: 6000000 cycles: 3735090 heartbeat IPC: 1.53441 cumulative IPC: 1.60639 (Simulation time: 0 hr 4 min 16 sec) 
Heartbeat CPU 0 instructions: 7000001 cycles: 4386323 heartbeat IPC: 1.53555 cumulative IPC: 1.59587 (Simulation time: 0 hr 5 min 0 sec) 
Heartbeat CPU 0 instructions: 8000000 cycles: 4950912 heartbeat IPC: 1.7712 cumulative IPC: 1.61586 (Simulation time: 0 hr 5 min 42 sec) 
Heartbeat CPU 0 instructions: 9000003 cycles: 5602193 heartbeat IPC: 1.53544 cumulative IPC: 1.60651 (Simulation time: 0 hr 6 min 19 sec) 
Heartbeat CPU 0 instructions: 10000001 cycles: 6253344 heartbeat IPC: 1.53574 cumulative IPC: 1.59914 (Simulation time: 0 hr 6 min 54 sec) 
Heartbeat CPU 0 instructions: 11000000 cycles: 6820134 heartbeat IPC: 1.76432 cumulative IPC: 1.61287 (Simulation time: 0 hr 7 min 31 sec) 
Heartbeat CPU 0 instructions: 12000000 cycles: 7469199 heartbeat IPC: 1.54068 cumulative IPC: 1.6066 (Simulation time: 0 hr 8 min 9 sec) 
Heartbeat CPU 0 instructions: 13000002 cycles: 8120677 heartbeat IPC: 1.53497 cumulative IPC: 1.60085 (Simulation time: 0 hr 8 min 42 sec) 
Heartbeat CPU 0 instructions: 14000000 cycles: 8755072 heartbeat IPC: 1.5763 cumulative IPC: 1.59907 (Simulation time: 0 hr 9 min 14 sec) 
Heartbeat CPU 0 instructions: 15000000 cycles: 9336128 heartbeat IPC: 1.721 cumulative IPC: 1.60666 (Simulation time: 0 hr 9 min 50 sec) 
Heartbeat CPU 0 instructions: 16000000 cycles: 9987687 heartbeat IPC: 1.53478 cumulative IPC: 1.60197 (Simulation time: 0 hr 10 min 23 sec) 
Heartbeat CPU 0 instructions: 17000000 cycles: 10638748 heartbeat IPC: 1.53595 cumulative IPC: 1.59793 (Simulation time: 0 hr 10 min 55 sec) 
Heartbeat CPU 0 instructions: 18000003 cycles: 11203218 heartbeat IPC: 1.77158 cumulative IPC: 1.60668 (Simulation time: 0 hr 11 min 30 sec) 
Heartbeat CPU 0 instructions: 19000003 cycles: 11854509 heartbeat IPC: 1.53541 cumulative IPC: 1.60277 (Simulation time: 0 hr 12 min 3 sec) 
Heartbeat CPU 0 instructions: 20000000 cycles: 12505664 heartbeat IPC: 1.53573 cumulative IPC: 1.59928 (Simulation time: 0 hr 12 min 37 sec) 
Heartbeat CPU 0 instructions: 21000001 cycles: 13101296 heartbeat IPC: 1.67889 cumulative IPC: 1.60289 (Simulation time: 0 hr 13 min 9 sec) 
Heartbeat CPU 0 instructions: 22000003 cycles: 13721239 heartbeat IPC: 1.61305 cumulative IPC: 1.60335 (Simulation time: 0 hr 13 min 39 sec) 
Heartbeat CPU 0 instructions: 23000001 cycles: 14372361 heartbeat IPC: 1.53581 cumulative IPC: 1.60029 (Simulation time: 0 hr 14 min 9 sec) 
Heartbeat CPU 0 instructions: 24000000 cycles: 15023965 heartbeat IPC: 1.53467 cumulative IPC: 1.59745 (Simulation time: 0 hr 14 min 41 sec) 
Heartbeat CPU 0 instructions: 25000000 cycles: 15588000 heartbeat IPC: 1.77294 cumulative IPC: 1.6038 (Simulation time: 0 hr 15 min 8 sec) 
Heartbeat CPU 0 instructions: 26000003 cycles: 16239932 heartbeat IPC: 1.53391 cumulative IPC: 1.60099 (Simulation time: 0 hr 15 min 39 sec) 
Heartbeat CPU 0 instructions: 27000000 cycles: 16891532 heartbeat IPC: 1.53468 cumulative IPC: 1.59843 (Simulation time: 0 hr 16 min 7 sec) 
Heartbeat CPU 0 instructions: 28000000 cycles: 17455649 heartbeat IPC: 1.77268 cumulative IPC: 1.60407 (Simulation time: 0 hr 16 min 33 sec) 
Heartbeat CPU 0 instructions: 29000002 cycles: 18107085 heartbeat IPC: 1.53507 cumulative IPC: 1.60158 (Simulation time: 0 hr 17 min 0 sec) 
Heartbeat CPU 0 instructions: 30000002 cycles: 18758427 heartbeat IPC: 1.53529 cumulative IPC: 1.59928 (Simulation time: 0 hr 17 min 29 sec) 
Heartbeat CPU 0 instructions: 31000002 cycles: 19382473 heartbeat IPC: 1.60245 cumulative IPC: 1.59938 (Simulation time: 0 hr 17 min 55 sec) 
Heartbeat CPU 0 instructions: 32000000 cycles: 19973950 heartbeat IPC: 1.69068 cumulative IPC: 1.60209 (Simulation time: 0 hr 18 min 24 sec) 
Heartbeat CPU 0 instructions: 33000000 cycles: 20625494 heartbeat IPC: 1.53482 cumulative IPC: 1.59996 (Simulation time: 0 hr 18 min 49 sec) 
Heartbeat CPU 0 instructions: 34000000 cycles: 21277504 heartbeat IPC: 1.53372 cumulative IPC: 1.59793 (Simulation time: 0 hr 19 min 14 sec) 
Heartbeat CPU 0 instructions: 35000000 cycles: 21841739 heartbeat IPC: 1.77231 cumulative IPC: 1.60244 (Simulation time: 0 hr 19 min 40 sec) 
Heartbeat CPU 0 instructions: 36000000 cycles: 22493295 heartbeat IPC: 1.53479 cumulative IPC: 1.60048 (Simulation time: 0 hr 20 min 4 sec) 
Heartbeat CPU 0 instructions: 37000003 cycles: 23144987 heartbeat IPC: 1.53447 cumulative IPC: 1.59862 (Simulation time: 0 hr 20 min 29 sec) 
Heartbeat CPU 0 instructions: 38000002 cycles: 23730653 heartbeat IPC: 1.70746 cumulative IPC: 1.6013 (Simulation time: 0 hr 20 min 54 sec) 
Heartbeat CPU 0 instructions: 39000000 cycles: 24360853 heartbeat IPC: 1.58679 cumulative IPC: 1.60093 (Simulation time: 0 hr 21 min 19 sec) 
Heartbeat CPU 0 instructions: 40000000 cycles: 25012642 heartbeat IPC: 1.53424 cumulative IPC: 1.59919 (Simulation time: 0 hr 21 min 44 sec) 
Heartbeat CPU 0 instructions: 41000000 cycles: 25663624 heartbeat IPC: 1.53614 cumulative IPC: 1.59759 (Simulation time: 0 hr 22 min 10 sec) 
Heartbeat CPU 0 instructions: 42000000 cycles: 26228428 heartbeat IPC: 1.77053 cumulative IPC: 1.60132 (Simulation time: 0 hr 22 min 34 sec) 
Heartbeat CPU 0 instructions: 43000002 cycles: 26879515 heartbeat IPC: 1.5359 cumulative IPC: 1.59973 (Simulation time: 0 hr 22 min 58 sec) 
Heartbeat CPU 0 instructions: 44000000 cycles: 27530999 heartbeat IPC: 1.53495 cumulative IPC: 1.5982 (Simulation time: 0 hr 23 min 23 sec) 
Heartbeat CPU 0 instructions: 45000001 cycles: 28090126 heartbeat IPC: 1.7885 cumulative IPC: 1.60199 (Simulation time: 0 hr 23 min 48 sec) 
Heartbeat CPU 0 instructions: 46000001 cycles: 28590900 heartbeat IPC: 1.99691 cumulative IPC: 1.6089 (Simulation time: 0 hr 24 min 13 sec) 
Heartbeat CPU 0 instructions: 47000001 cycles: 29091610 heartbeat IPC: 1.99716 cumulative IPC: 1.61559 (Simulation time: 0 hr 24 min 38 sec) 
Heartbeat CPU 0 instructions: 48000000 cycles: 29592508 heartbeat IPC: 1.99641 cumulative IPC: 1.62203 (Simulation time: 0 hr 25 min 1 sec) 
Heartbeat CPU 0 instructions: 49000002 cycles: 30092904 heartbeat IPC: 1.99842 cumulative IPC: 1.62829 (Simulation time: 0 hr 25 min 26 sec) 
Heartbeat CPU 0 instructions: 50000001 cycles: 30593879 heartbeat IPC: 1.99611 cumulative IPC: 1.63431 (Simulation time: 0 hr 25 min 49 sec) 

Warmup complete CPU 0 instructions: 50000001 cycles: 30593879 (Simulation time: 0 hr 25 min 49 sec) 

Heartbeat CPU 0 instructions: 51000000 cycles: 32590933 heartbeat IPC: 0.500737 cumulative IPC: 0.500737 (Simulation time: 0 hr 26 min 18 sec) 
Heartbeat CPU 0 instructions: 52000000 cycles: 34557669 heartbeat IPC: 0.508457 cumulative IPC: 0.504567 (Simulation time: 0 hr 26 min 45 sec) 
Heartbeat CPU 0 instructions: 53000003 cycles: 36552644 heartbeat IPC: 0.501261 cumulative IPC: 0.50346 (Simulation time: 0 hr 27 min 12 sec) 
Heartbeat CPU 0 instructions: 54000003 cycles: 38550279 heartbeat IPC: 0.500592 cumulative IPC: 0.50274 (Simulation time: 0 hr 27 min 40 sec) 
Heartbeat CPU 0 instructions: 55000001 cycles: 40672758 heartbeat IPC: 0.471146 cumulative IPC: 0.496087 (Simulation time: 0 hr 28 min 7 sec) 
Heartbeat CPU 0 instructions: 56000000 cycles: 43002096 heartbeat IPC: 0.429306 cumulative IPC: 0.48355 (Simulation time: 0 hr 28 min 37 sec) 
Heartbeat CPU 0 instructions: 57000003 cycles: 45317586 heartbeat IPC: 0.431875 cumulative IPC: 0.475424 (Simulation time: 0 hr 29 min 6 sec) 
Heartbeat CPU 0 instructions: 58000001 cycles: 47683049 heartbeat IPC: 0.422749 cumulative IPC: 0.468133 (Simulation time: 0 hr 29 min 33 sec) 
Heartbeat CPU 0 instructions: 59000003 cycles: 49974780 heartbeat IPC: 0.436352 cumulative IPC: 0.464375 (Simulation time: 0 hr 30 min 5 sec) 
Heartbeat CPU 0 instructions: 60000000 cycles: 52286083 heartbeat IPC: 0.432655 cumulative IPC: 0.460995 (Simulation time: 0 hr 30 min 35 sec) 
