
*** ChampSim Multicore Out-of-Order Simulator ***

Warmup Instructions: 50000000
Simulation Instructions: 100000000
Configuration: 2
Number of CPUs: 1
LLC sets: 2048
LLC ways: 16
Off-chip DRAM Channels: 1 Width: 64-bit Data Rate: 1600 MT/s

CPU 0 runs /datasets/cs240c-wi22-a00-public/data/Assignment2-gz/soplex_217B.trace.gz
CPU 0 L1D next line prefetcher
CPU 0 L2C IP-based stride prefetcher
Heartbeat CPU 0 instructions: 1000002 cycles: 441294 heartbeat IPC: 2.26607 cumulative IPC: 2.26607 (Simulation time: 0 hr 0 min 50 sec) 
Heartbeat CPU 0 instructions: 2000003 cycles: 800449 heartbeat IPC: 2.78432 cumulative IPC: 2.4986 (Simulation time: 0 hr 1 min 32 sec) 
Heartbeat CPU 0 instructions: 3000001 cycles: 1245373 heartbeat IPC: 2.24757 cumulative IPC: 2.40892 (Simulation time: 0 hr 2 min 16 sec) 
Heartbeat CPU 0 instructions: 4000000 cycles: 1673719 heartbeat IPC: 2.33456 cumulative IPC: 2.38989 (Simulation time: 0 hr 3 min 1 sec) 
Heartbeat CPU 0 instructions: 5000001 cycles: 2057769 heartbeat IPC: 2.60383 cumulative IPC: 2.42982 (Simulation time: 0 hr 3 min 33 sec) 
Heartbeat CPU 0 instructions: 6000000 cycles: 2432324 heartbeat IPC: 2.66983 cumulative IPC: 2.46678 (Simulation time: 0 hr 4 min 2 sec) 
Heartbeat CPU 0 instructions: 7000003 cycles: 2962691 heartbeat IPC: 1.88549 cumulative IPC: 2.36272 (Simulation time: 0 hr 4 min 35 sec) 
Heartbeat CPU 0 instructions: 8000000 cycles: 3409218 heartbeat IPC: 2.2395 cumulative IPC: 2.34658 (Simulation time: 0 hr 5 min 18 sec) 
Heartbeat CPU 0 instructions: 9000001 cycles: 3833887 heartbeat IPC: 2.35478 cumulative IPC: 2.34749 (Simulation time: 0 hr 5 min 57 sec) 
Heartbeat CPU 0 instructions: 10000000 cycles: 4246333 heartbeat IPC: 2.42456 cumulative IPC: 2.35497 (Simulation time: 0 hr 6 min 29 sec) 
Heartbeat CPU 0 instructions: 11000002 cycles: 4674868 heartbeat IPC: 2.33354 cumulative IPC: 2.35301 (Simulation time: 0 hr 7 min 12 sec) 
Heartbeat CPU 0 instructions: 12000000 cycles: 5079242 heartbeat IPC: 2.47295 cumulative IPC: 2.36256 (Simulation time: 0 hr 7 min 44 sec) 
Heartbeat CPU 0 instructions: 13000000 cycles: 5463491 heartbeat IPC: 2.60248 cumulative IPC: 2.37943 (Simulation time: 0 hr 8 min 12 sec) 
Heartbeat CPU 0 instructions: 14000000 cycles: 5914429 heartbeat IPC: 2.2176 cumulative IPC: 2.36709 (Simulation time: 0 hr 8 min 39 sec) 
Heartbeat CPU 0 instructions: 15000001 cycles: 6440912 heartbeat IPC: 1.8994 cumulative IPC: 2.32886 (Simulation time: 0 hr 9 min 12 sec) 
Heartbeat CPU 0 instructions: 16000000 cycles: 6899631 heartbeat IPC: 2.17998 cumulative IPC: 2.31896 (Simulation time: 0 hr 9 min 55 sec) 
Heartbeat CPU 0 instructions: 17000002 cycles: 7279678 heartbeat IPC: 2.63126 cumulative IPC: 2.33527 (Simulation time: 0 hr 10 min 22 sec) 
Heartbeat CPU 0 instructions: 18000002 cycles: 7709352 heartbeat IPC: 2.32735 cumulative IPC: 2.33483 (Simulation time: 0 hr 10 min 55 sec) 
Heartbeat CPU 0 instructions: 19000001 cycles: 8133188 heartbeat IPC: 2.3594 cumulative IPC: 2.33611 (Simulation time: 0 hr 11 min 28 sec) 
Heartbeat CPU 0 instructions: 20000000 cycles: 8517533 heartbeat IPC: 2.60183 cumulative IPC: 2.3481 (Simulation time: 0 hr 11 min 53 sec) 
Heartbeat CPU 0 instructions: 21000000 cycles: 8895127 heartbeat IPC: 2.64835 cumulative IPC: 2.36084 (Simulation time: 0 hr 12 min 17 sec) 
Heartbeat CPU 0 instructions: 22000001 cycles: 9430275 heartbeat IPC: 1.86864 cumulative IPC: 2.33291 (Simulation time: 0 hr 12 min 46 sec) 
Heartbeat CPU 0 instructions: 23000001 cycles: 9878859 heartbeat IPC: 2.22924 cumulative IPC: 2.3282 (Simulation time: 0 hr 13 min 16 sec) 
Heartbeat CPU 0 instructions: 24000000 cycles: 10296076 heartbeat IPC: 2.39683 cumulative IPC: 2.33099 (Simulation time: 0 hr 13 min 49 sec) 
Heartbeat CPU 0 instructions: 25000001 cycles: 10708811 heartbeat IPC: 2.42286 cumulative IPC: 2.33453 (Simulation time: 0 hr 14 min 12 sec) 
Heartbeat CPU 0 instructions: 26000002 cycles: 11140615 heartbeat IPC: 2.31587 cumulative IPC: 2.3338 (Simulation time: 0 hr 14 min 39 sec) 
Heartbeat CPU 0 instructions: 27000002 cycles: 11542694 heartbeat IPC: 2.48707 cumulative IPC: 2.33914 (Simulation time: 0 hr 15 min 3 sec) 
Heartbeat CPU 0 instructions: 28000000 cycles: 11927007 heartbeat IPC: 2.60204 cumulative IPC: 2.34761 (Simulation time: 0 hr 15 min 21 sec) 
Heartbeat CPU 0 instructions: 29000002 cycles: 12381539 heartbeat IPC: 2.20007 cumulative IPC: 2.3422 (Simulation time: 0 hr 15 min 43 sec) 
Heartbeat CPU 0 instructions: 30000002 cycles: 12909679 heartbeat IPC: 1.89344 cumulative IPC: 2.32384 (Simulation time: 0 hr 16 min 8 sec) 
Heartbeat CPU 0 instructions: 31000000 cycles: 13315369 heartbeat IPC: 2.46493 cumulative IPC: 2.32814 (Simulation time: 0 hr 16 min 37 sec) 
Heartbeat CPU 0 instructions: 32000000 cycles: 13723913 heartbeat IPC: 2.44772 cumulative IPC: 2.3317 (Simulation time: 0 hr 16 min 59 sec) 
Heartbeat CPU 0 instructions: 33000001 cycles: 14148547 heartbeat IPC: 2.35497 cumulative IPC: 2.3324 (Simulation time: 0 hr 17 min 27 sec) 
Heartbeat CPU 0 instructions: 34000000 cycles: 14556811 heartbeat IPC: 2.44939 cumulative IPC: 2.33568 (Simulation time: 0 hr 17 min 52 sec) 
Heartbeat CPU 0 instructions: 35000002 cycles: 14941507 heartbeat IPC: 2.59946 cumulative IPC: 2.34247 (Simulation time: 0 hr 18 min 11 sec) 
Heartbeat CPU 0 instructions: 36000000 cycles: 15378665 heartbeat IPC: 2.2875 cumulative IPC: 2.34091 (Simulation time: 0 hr 18 min 30 sec) 
Heartbeat CPU 0 instructions: 37000001 cycles: 15909944 heartbeat IPC: 1.88225 cumulative IPC: 2.32559 (Simulation time: 0 hr 18 min 51 sec) 
Heartbeat CPU 0 instructions: 38000000 cycles: 16338892 heartbeat IPC: 2.33128 cumulative IPC: 2.32574 (Simulation time: 0 hr 19 min 19 sec) 
Heartbeat CPU 0 instructions: 39000001 cycles: 16735571 heartbeat IPC: 2.52093 cumulative IPC: 2.33037 (Simulation time: 0 hr 19 min 39 sec) 
Heartbeat CPU 0 instructions: 40000000 cycles: 17159992 heartbeat IPC: 2.35615 cumulative IPC: 2.331 (Simulation time: 0 hr 20 min 2 sec) 
Heartbeat CPU 0 instructions: 41000000 cycles: 17575071 heartbeat IPC: 2.40918 cumulative IPC: 2.33285 (Simulation time: 0 hr 20 min 26 sec) 
Heartbeat CPU 0 instructions: 42000002 cycles: 17958998 heartbeat IPC: 2.60467 cumulative IPC: 2.33866 (Simulation time: 0 hr 20 min 44 sec) 
Heartbeat CPU 0 instructions: 43000000 cycles: 18379953 heartbeat IPC: 2.37555 cumulative IPC: 2.33951 (Simulation time: 0 hr 21 min 0 sec) 
Heartbeat CPU 0 instructions: 44000000 cycles: 18916499 heartbeat IPC: 1.86377 cumulative IPC: 2.32601 (Simulation time: 0 hr 21 min 17 sec) 
Heartbeat CPU 0 instructions: 45000003 cycles: 19376997 heartbeat IPC: 2.17157 cumulative IPC: 2.32234 (Simulation time: 0 hr 21 min 42 sec) 
