
*** ChampSim Multicore Out-of-Order Simulator ***

Warmup Instructions: 50000000
Simulation Instructions: 100000000
Configuration: 2
Number of CPUs: 1
LLC sets: 2048
LLC ways: 16
Off-chip DRAM Channels: 1 Width: 64-bit Data Rate: 1600 MT/s

CPU 0 runs /datasets/cs240c-wi22-a00-public/data/Assignment2-gz/libquantum_1210B.trace.gz
CPU 0 L1D next line prefetcher
CPU 0 L2C IP-based stride prefetcher
Heartbeat CPU 0 instructions: 1000003 cycles: 314916 heartbeat IPC: 3.17546 cumulative IPC: 3.17546 (Simulation time: 0 hr 0 min 25 sec) 
Heartbeat CPU 0 instructions: 2000000 cycles: 630170 heartbeat IPC: 3.17204 cumulative IPC: 3.17375 (Simulation time: 0 hr 0 min 52 sec) 
Heartbeat CPU 0 instructions: 3000001 cycles: 945979 heartbeat IPC: 3.16647 cumulative IPC: 3.17132 (Simulation time: 0 hr 1 min 19 sec) 
Heartbeat CPU 0 instructions: 4000000 cycles: 1260333 heartbeat IPC: 3.18112 cumulative IPC: 3.17376 (Simulation time: 0 hr 1 min 47 sec) 
Heartbeat CPU 0 instructions: 5000001 cycles: 1576818 heartbeat IPC: 3.15971 cumulative IPC: 3.17094 (Simulation time: 0 hr 2 min 16 sec) 
Heartbeat CPU 0 instructions: 6000002 cycles: 1891318 heartbeat IPC: 3.17965 cumulative IPC: 3.17239 (Simulation time: 0 hr 2 min 41 sec) 
Heartbeat CPU 0 instructions: 7000001 cycles: 2206981 heartbeat IPC: 3.16793 cumulative IPC: 3.17175 (Simulation time: 0 hr 3 min 2 sec) 
Heartbeat CPU 0 instructions: 8000000 cycles: 2522385 heartbeat IPC: 3.17053 cumulative IPC: 3.1716 (Simulation time: 0 hr 3 min 22 sec) 
Heartbeat CPU 0 instructions: 9000002 cycles: 2837144 heartbeat IPC: 3.17704 cumulative IPC: 3.1722 (Simulation time: 0 hr 3 min 46 sec) 
Heartbeat CPU 0 instructions: 10000003 cycles: 3153454 heartbeat IPC: 3.16146 cumulative IPC: 3.17113 (Simulation time: 0 hr 4 min 6 sec) 
Heartbeat CPU 0 instructions: 11000001 cycles: 3467723 heartbeat IPC: 3.18198 cumulative IPC: 3.17211 (Simulation time: 0 hr 4 min 29 sec) 
Heartbeat CPU 0 instructions: 12000000 cycles: 3783792 heartbeat IPC: 3.16386 cumulative IPC: 3.17142 (Simulation time: 0 hr 4 min 52 sec) 
Heartbeat CPU 0 instructions: 13000003 cycles: 4264651 heartbeat IPC: 2.07962 cumulative IPC: 3.04832 (Simulation time: 0 hr 5 min 24 sec) 
Heartbeat CPU 0 instructions: 14000001 cycles: 4772750 heartbeat IPC: 1.96812 cumulative IPC: 2.93332 (Simulation time: 0 hr 5 min 54 sec) 
Heartbeat CPU 0 instructions: 15000001 cycles: 5279404 heartbeat IPC: 1.97373 cumulative IPC: 2.84123 (Simulation time: 0 hr 6 min 22 sec) 
Heartbeat CPU 0 instructions: 16000000 cycles: 5788628 heartbeat IPC: 1.96377 cumulative IPC: 2.76404 (Simulation time: 0 hr 6 min 49 sec) 
Heartbeat CPU 0 instructions: 17000000 cycles: 6300340 heartbeat IPC: 1.95422 cumulative IPC: 2.69827 (Simulation time: 0 hr 7 min 12 sec) 
Heartbeat CPU 0 instructions: 18000000 cycles: 6813181 heartbeat IPC: 1.94992 cumulative IPC: 2.64194 (Simulation time: 0 hr 7 min 41 sec) 
Heartbeat CPU 0 instructions: 19000000 cycles: 7322395 heartbeat IPC: 1.96381 cumulative IPC: 2.59478 (Simulation time: 0 hr 8 min 10 sec) 
Heartbeat CPU 0 instructions: 20000000 cycles: 7829903 heartbeat IPC: 1.97041 cumulative IPC: 2.55431 (Simulation time: 0 hr 8 min 34 sec) 
Heartbeat CPU 0 instructions: 21000000 cycles: 8337993 heartbeat IPC: 1.96816 cumulative IPC: 2.51859 (Simulation time: 0 hr 8 min 58 sec) 
Heartbeat CPU 0 instructions: 22000003 cycles: 8846001 heartbeat IPC: 1.96848 cumulative IPC: 2.487 (Simulation time: 0 hr 9 min 22 sec) 
Heartbeat CPU 0 instructions: 23000000 cycles: 9351005 heartbeat IPC: 1.98018 cumulative IPC: 2.45963 (Simulation time: 0 hr 9 min 46 sec) 
Heartbeat CPU 0 instructions: 24000000 cycles: 9861573 heartbeat IPC: 1.9586 cumulative IPC: 2.43369 (Simulation time: 0 hr 10 min 10 sec) 
Heartbeat CPU 0 instructions: 25000000 cycles: 10373026 heartbeat IPC: 1.95521 cumulative IPC: 2.4101 (Simulation time: 0 hr 10 min 33 sec) 
Heartbeat CPU 0 instructions: 26000000 cycles: 10885679 heartbeat IPC: 1.95064 cumulative IPC: 2.38846 (Simulation time: 0 hr 10 min 58 sec) 
Heartbeat CPU 0 instructions: 27000000 cycles: 11394032 heartbeat IPC: 1.96714 cumulative IPC: 2.36966 (Simulation time: 0 hr 11 min 21 sec) 
Heartbeat CPU 0 instructions: 28000000 cycles: 11879872 heartbeat IPC: 2.05829 cumulative IPC: 2.35693 (Simulation time: 0 hr 11 min 45 sec) 
Heartbeat CPU 0 instructions: 29000002 cycles: 12219283 heartbeat IPC: 2.94629 cumulative IPC: 2.3733 (Simulation time: 0 hr 12 min 4 sec) 
Heartbeat CPU 0 instructions: 30000001 cycles: 12558692 heartbeat IPC: 2.94629 cumulative IPC: 2.38878 (Simulation time: 0 hr 12 min 24 sec) 
Heartbeat CPU 0 instructions: 31000000 cycles: 12898106 heartbeat IPC: 2.94625 cumulative IPC: 2.40345 (Simulation time: 0 hr 12 min 44 sec) 
Heartbeat CPU 0 instructions: 32000000 cycles: 13237511 heartbeat IPC: 2.94633 cumulative IPC: 2.41737 (Simulation time: 0 hr 13 min 4 sec) 
Heartbeat CPU 0 instructions: 33000000 cycles: 13576921 heartbeat IPC: 2.94629 cumulative IPC: 2.4306 (Simulation time: 0 hr 13 min 23 sec) 
Heartbeat CPU 0 instructions: 34000002 cycles: 13916331 heartbeat IPC: 2.9463 cumulative IPC: 2.44317 (Simulation time: 0 hr 13 min 41 sec) 
Heartbeat CPU 0 instructions: 35000001 cycles: 14255743 heartbeat IPC: 2.94627 cumulative IPC: 2.45515 (Simulation time: 0 hr 14 min 0 sec) 
Heartbeat CPU 0 instructions: 36000000 cycles: 14595152 heartbeat IPC: 2.94629 cumulative IPC: 2.46657 (Simulation time: 0 hr 14 min 18 sec) 
Heartbeat CPU 0 instructions: 37000003 cycles: 14934562 heartbeat IPC: 2.9463 cumulative IPC: 2.47747 (Simulation time: 0 hr 14 min 34 sec) 
Heartbeat CPU 0 instructions: 38000002 cycles: 15273971 heartbeat IPC: 2.94629 cumulative IPC: 2.48789 (Simulation time: 0 hr 14 min 50 sec) 
Heartbeat CPU 0 instructions: 39000001 cycles: 15613380 heartbeat IPC: 2.94629 cumulative IPC: 2.49786 (Simulation time: 0 hr 15 min 4 sec) 
Heartbeat CPU 0 instructions: 40000000 cycles: 15952789 heartbeat IPC: 2.94629 cumulative IPC: 2.5074 (Simulation time: 0 hr 15 min 19 sec) 
Heartbeat CPU 0 instructions: 41000001 cycles: 16292201 heartbeat IPC: 2.94627 cumulative IPC: 2.51654 (Simulation time: 0 hr 15 min 36 sec) 
Heartbeat CPU 0 instructions: 42000000 cycles: 16631610 heartbeat IPC: 2.94629 cumulative IPC: 2.52531 (Simulation time: 0 hr 15 min 50 sec) 
Heartbeat CPU 0 instructions: 43000002 cycles: 16971016 heartbeat IPC: 2.94633 cumulative IPC: 2.53373 (Simulation time: 0 hr 16 min 6 sec) 
Heartbeat CPU 0 instructions: 44000000 cycles: 17310420 heartbeat IPC: 2.94634 cumulative IPC: 2.54182 (Simulation time: 0 hr 16 min 22 sec) 
Heartbeat CPU 0 instructions: 45000000 cycles: 17649818 heartbeat IPC: 2.94639 cumulative IPC: 2.5496 (Simulation time: 0 hr 16 min 36 sec) 
Heartbeat CPU 0 instructions: 46000003 cycles: 17989203 heartbeat IPC: 2.94652 cumulative IPC: 2.55709 (Simulation time: 0 hr 16 min 53 sec) 
Heartbeat CPU 0 instructions: 47000001 cycles: 18365034 heartbeat IPC: 2.66077 cumulative IPC: 2.55921 (Simulation time: 0 hr 17 min 8 sec) 
Heartbeat CPU 0 instructions: 48000000 cycles: 18859700 heartbeat IPC: 2.02156 cumulative IPC: 2.54511 (Simulation time: 0 hr 17 min 29 sec) 
Heartbeat CPU 0 instructions: 49000000 cycles: 19352494 heartbeat IPC: 2.02925 cumulative IPC: 2.53197 (Simulation time: 0 hr 17 min 47 sec) 
