
*** ChampSim Multicore Out-of-Order Simulator ***

Warmup Instructions: 50000000
Simulation Instructions: 100000000
Configuration: 2
Number of CPUs: 1
LLC sets: 2048
LLC ways: 16
Off-chip DRAM Channels: 1 Width: 64-bit Data Rate: 1600 MT/s

CPU 0 runs /datasets/cs240c-wi22-a00-public/data/Assignment2-gz/cactusADM_1495B.trace.gz
CPU 0 L1D next line prefetcher
CPU 0 L2C IP-based stride prefetcher
Heartbeat CPU 0 instructions: 1000003 cycles: 593383 heartbeat IPC: 1.68526 cumulative IPC: 1.68526 (Simulation time: 0 hr 0 min 48 sec) 
Heartbeat CPU 0 instructions: 2000000 cycles: 1186345 heartbeat IPC: 1.68644 cumulative IPC: 1.68585 (Simulation time: 0 hr 1 min 33 sec) 
Heartbeat CPU 0 instructions: 3000003 cycles: 1779703 heartbeat IPC: 1.68533 cumulative IPC: 1.68568 (Simulation time: 0 hr 2 min 8 sec) 
Heartbeat CPU 0 instructions: 4000000 cycles: 2372522 heartbeat IPC: 1.68685 cumulative IPC: 1.68597 (Simulation time: 0 hr 2 min 50 sec) 
Heartbeat CPU 0 instructions: 5000000 cycles: 2965579 heartbeat IPC: 1.68618 cumulative IPC: 1.68601 (Simulation time: 0 hr 3 min 25 sec) 
Heartbeat CPU 0 instructions: 6000001 cycles: 3558796 heartbeat IPC: 1.68573 cumulative IPC: 1.68596 (Simulation time: 0 hr 4 min 8 sec) 
Heartbeat CPU 0 instructions: 7000000 cycles: 4151738 heartbeat IPC: 1.6865 cumulative IPC: 1.68604 (Simulation time: 0 hr 4 min 47 sec) 
Heartbeat CPU 0 instructions: 8000000 cycles: 4906647 heartbeat IPC: 1.32466 cumulative IPC: 1.63044 (Simulation time: 0 hr 5 min 36 sec) 
Heartbeat CPU 0 instructions: 9000002 cycles: 5499844 heartbeat IPC: 1.68578 cumulative IPC: 1.63641 (Simulation time: 0 hr 6 min 16 sec) 
Heartbeat CPU 0 instructions: 10000002 cycles: 6092767 heartbeat IPC: 1.68656 cumulative IPC: 1.64129 (Simulation time: 0 hr 6 min 48 sec) 
Heartbeat CPU 0 instructions: 11000001 cycles: 6685895 heartbeat IPC: 1.68598 cumulative IPC: 1.64525 (Simulation time: 0 hr 7 min 25 sec) 
Heartbeat CPU 0 instructions: 12000000 cycles: 7279052 heartbeat IPC: 1.68589 cumulative IPC: 1.64857 (Simulation time: 0 hr 8 min 0 sec) 
Heartbeat CPU 0 instructions: 13000001 cycles: 7871964 heartbeat IPC: 1.68659 cumulative IPC: 1.65143 (Simulation time: 0 hr 8 min 35 sec) 
Heartbeat CPU 0 instructions: 14000003 cycles: 8465237 heartbeat IPC: 1.68557 cumulative IPC: 1.65382 (Simulation time: 0 hr 9 min 7 sec) 
Heartbeat CPU 0 instructions: 15000001 cycles: 9058329 heartbeat IPC: 1.68608 cumulative IPC: 1.65593 (Simulation time: 0 hr 9 min 39 sec) 
Heartbeat CPU 0 instructions: 16000000 cycles: 9651591 heartbeat IPC: 1.68559 cumulative IPC: 1.65776 (Simulation time: 0 hr 10 min 12 sec) 
Heartbeat CPU 0 instructions: 17000002 cycles: 10244578 heartbeat IPC: 1.68638 cumulative IPC: 1.65941 (Simulation time: 0 hr 10 min 47 sec) 
Heartbeat CPU 0 instructions: 18000000 cycles: 10837566 heartbeat IPC: 1.68637 cumulative IPC: 1.66089 (Simulation time: 0 hr 11 min 18 sec) 
Heartbeat CPU 0 instructions: 19000002 cycles: 11430585 heartbeat IPC: 1.68629 cumulative IPC: 1.66221 (Simulation time: 0 hr 11 min 52 sec) 
Heartbeat CPU 0 instructions: 20000000 cycles: 12023957 heartbeat IPC: 1.68528 cumulative IPC: 1.66335 (Simulation time: 0 hr 12 min 26 sec) 
Heartbeat CPU 0 instructions: 21000002 cycles: 12766136 heartbeat IPC: 1.34739 cumulative IPC: 1.64498 (Simulation time: 0 hr 13 min 8 sec) 
Heartbeat CPU 0 instructions: 22000003 cycles: 13371157 heartbeat IPC: 1.65284 cumulative IPC: 1.64533 (Simulation time: 0 hr 13 min 39 sec) 
Heartbeat CPU 0 instructions: 23000000 cycles: 13963855 heartbeat IPC: 1.68719 cumulative IPC: 1.64711 (Simulation time: 0 hr 14 min 4 sec) 
Heartbeat CPU 0 instructions: 24000000 cycles: 14557535 heartbeat IPC: 1.68441 cumulative IPC: 1.64863 (Simulation time: 0 hr 14 min 29 sec) 
Heartbeat CPU 0 instructions: 25000002 cycles: 15150686 heartbeat IPC: 1.68591 cumulative IPC: 1.65009 (Simulation time: 0 hr 14 min 58 sec) 
Heartbeat CPU 0 instructions: 26000003 cycles: 15743246 heartbeat IPC: 1.68759 cumulative IPC: 1.6515 (Simulation time: 0 hr 15 min 23 sec) 
Heartbeat CPU 0 instructions: 27000001 cycles: 16336338 heartbeat IPC: 1.68608 cumulative IPC: 1.65276 (Simulation time: 0 hr 15 min 49 sec) 
Heartbeat CPU 0 instructions: 28000000 cycles: 16929429 heartbeat IPC: 1.68608 cumulative IPC: 1.65392 (Simulation time: 0 hr 16 min 18 sec) 
Heartbeat CPU 0 instructions: 29000002 cycles: 17522574 heartbeat IPC: 1.68593 cumulative IPC: 1.65501 (Simulation time: 0 hr 16 min 44 sec) 
Heartbeat CPU 0 instructions: 30000002 cycles: 18115666 heartbeat IPC: 1.68608 cumulative IPC: 1.65603 (Simulation time: 0 hr 17 min 10 sec) 
Heartbeat CPU 0 instructions: 31000002 cycles: 18708934 heartbeat IPC: 1.68558 cumulative IPC: 1.65696 (Simulation time: 0 hr 17 min 35 sec) 
Heartbeat CPU 0 instructions: 32000000 cycles: 19302308 heartbeat IPC: 1.68527 cumulative IPC: 1.65783 (Simulation time: 0 hr 18 min 1 sec) 
Heartbeat CPU 0 instructions: 33000001 cycles: 19895024 heartbeat IPC: 1.68715 cumulative IPC: 1.65871 (Simulation time: 0 hr 18 min 29 sec) 
Heartbeat CPU 0 instructions: 34000002 cycles: 20607552 heartbeat IPC: 1.40346 cumulative IPC: 1.64988 (Simulation time: 0 hr 18 min 59 sec) 
Heartbeat CPU 0 instructions: 35000001 cycles: 21243757 heartbeat IPC: 1.57182 cumulative IPC: 1.64754 (Simulation time: 0 hr 19 min 27 sec) 
Heartbeat CPU 0 instructions: 36000000 cycles: 21836823 heartbeat IPC: 1.68615 cumulative IPC: 1.64859 (Simulation time: 0 hr 19 min 51 sec) 
Heartbeat CPU 0 instructions: 37000000 cycles: 22429627 heartbeat IPC: 1.6869 cumulative IPC: 1.6496 (Simulation time: 0 hr 20 min 16 sec) 
Heartbeat CPU 0 instructions: 38000003 cycles: 23022565 heartbeat IPC: 1.68652 cumulative IPC: 1.65055 (Simulation time: 0 hr 20 min 39 sec) 
Heartbeat CPU 0 instructions: 39000002 cycles: 23615884 heartbeat IPC: 1.68543 cumulative IPC: 1.65143 (Simulation time: 0 hr 21 min 5 sec) 
Heartbeat CPU 0 instructions: 40000000 cycles: 24208782 heartbeat IPC: 1.68663 cumulative IPC: 1.65229 (Simulation time: 0 hr 21 min 28 sec) 
Heartbeat CPU 0 instructions: 41000002 cycles: 24801679 heartbeat IPC: 1.68664 cumulative IPC: 1.65311 (Simulation time: 0 hr 21 min 52 sec) 
Heartbeat CPU 0 instructions: 42000000 cycles: 25394604 heartbeat IPC: 1.68655 cumulative IPC: 1.65389 (Simulation time: 0 hr 22 min 15 sec) 
Heartbeat CPU 0 instructions: 43000000 cycles: 25987597 heartbeat IPC: 1.68636 cumulative IPC: 1.65464 (Simulation time: 0 hr 22 min 41 sec) 
Heartbeat CPU 0 instructions: 44000000 cycles: 26580431 heartbeat IPC: 1.68681 cumulative IPC: 1.65535 (Simulation time: 0 hr 23 min 3 sec) 
Heartbeat CPU 0 instructions: 45000003 cycles: 27173419 heartbeat IPC: 1.68638 cumulative IPC: 1.65603 (Simulation time: 0 hr 23 min 27 sec) 
Heartbeat CPU 0 instructions: 46000001 cycles: 27766544 heartbeat IPC: 1.68598 cumulative IPC: 1.65667 (Simulation time: 0 hr 23 min 52 sec) 
Heartbeat CPU 0 instructions: 47000001 cycles: 28446745 heartbeat IPC: 1.47015 cumulative IPC: 1.65221 (Simulation time: 0 hr 24 min 21 sec) 
Heartbeat CPU 0 instructions: 48000000 cycles: 29113805 heartbeat IPC: 1.49911 cumulative IPC: 1.6487 (Simulation time: 0 hr 24 min 49 sec) 
Heartbeat CPU 0 instructions: 49000001 cycles: 29706747 heartbeat IPC: 1.68651 cumulative IPC: 1.64946 (Simulation time: 0 hr 25 min 13 sec) 
Heartbeat CPU 0 instructions: 50000003 cycles: 30299673 heartbeat IPC: 1.68655 cumulative IPC: 1.65018 (Simulation time: 0 hr 25 min 37 sec) 

Warmup complete CPU 0 instructions: 50000003 cycles: 30299673 (Simulation time: 0 hr 25 min 37 sec) 

Heartbeat CPU 0 instructions: 51000000 cycles: 31985816 heartbeat IPC: 0.593068 cumulative IPC: 0.593068 (Simulation time: 0 hr 26 min 3 sec) 
Heartbeat CPU 0 instructions: 52000000 cycles: 33665919 heartbeat IPC: 0.595202 cumulative IPC: 0.594133 (Simulation time: 0 hr 26 min 27 sec) 
Heartbeat CPU 0 instructions: 53000003 cycles: 35403880 heartbeat IPC: 0.575389 cumulative IPC: 0.58775 (Simulation time: 0 hr 26 min 52 sec) 
Heartbeat CPU 0 instructions: 54000001 cycles: 37142408 heartbeat IPC: 0.575198 cumulative IPC: 0.584561 (Simulation time: 0 hr 27 min 17 sec) 
Heartbeat CPU 0 instructions: 55000000 cycles: 38877487 heartbeat IPC: 0.576342 cumulative IPC: 0.582899 (Simulation time: 0 hr 27 min 43 sec) 
Heartbeat CPU 0 instructions: 56000000 cycles: 40535069 heartbeat IPC: 0.603288 cumulative IPC: 0.586201 (Simulation time: 0 hr 28 min 9 sec) 
Heartbeat CPU 0 instructions: 57000000 cycles: 42246638 heartbeat IPC: 0.584259 cumulative IPC: 0.585923 (Simulation time: 0 hr 28 min 34 sec) 
Heartbeat CPU 0 instructions: 58000002 cycles: 43986608 heartbeat IPC: 0.574724 cumulative IPC: 0.584499 (Simulation time: 0 hr 28 min 58 sec) 
Heartbeat CPU 0 instructions: 59000001 cycles: 45726332 heartbeat IPC: 0.574803 cumulative IPC: 0.583405 (Simulation time: 0 hr 29 min 24 sec) 
Heartbeat CPU 0 instructions: 60000000 cycles: 49104802 heartbeat IPC: 0.295992 cumulative IPC: 0.53177 (Simulation time: 0 hr 29 min 51 sec) 
Heartbeat CPU 0 instructions: 61000001 cycles: 54107242 heartbeat IPC: 0.199903 cumulative IPC: 0.462038 (Simulation time: 0 hr 30 min 21 sec) 
Heartbeat CPU 0 instructions: 62000000 cycles: 55844140 heartbeat IPC: 0.575738 cumulative IPC: 0.469769 (Simulation time: 0 hr 30 min 45 sec) 
Heartbeat CPU 0 instructions: 63000000 cycles: 57584093 heartbeat IPC: 0.574728 cumulative IPC: 0.476462 (Simulation time: 0 hr 31 min 11 sec) 
Heartbeat CPU 0 instructions: 64000000 cycles: 59317871 heartbeat IPC: 0.576775 cumulative IPC: 0.482456 (Simulation time: 0 hr 31 min 34 sec) 
Heartbeat CPU 0 instructions: 65000002 cycles: 60978529 heartbeat IPC: 0.602172 cumulative IPC: 0.488936 (Simulation time: 0 hr 31 min 57 sec) 
Heartbeat CPU 0 instructions: 66000003 cycles: 62685321 heartbeat IPC: 0.585895 cumulative IPC: 0.494046 (Simulation time: 0 hr 32 min 20 sec) 
Heartbeat CPU 0 instructions: 67000001 cycles: 64424924 heartbeat IPC: 0.574843 cumulative IPC: 0.498165 (Simulation time: 0 hr 32 min 42 sec) 
Heartbeat CPU 0 instructions: 68000000 cycles: 66164825 heartbeat IPC: 0.574745 cumulative IPC: 0.50188 (Simulation time: 0 hr 33 min 5 sec) 
Heartbeat CPU 0 instructions: 69000003 cycles: 67881497 heartbeat IPC: 0.582524 cumulative IPC: 0.505564 (Simulation time: 0 hr 33 min 27 sec) 
Heartbeat CPU 0 instructions: 70000000 cycles: 69536570 heartbeat IPC: 0.604201 cumulative IPC: 0.509724 (Simulation time: 0 hr 33 min 49 sec) 
Heartbeat CPU 0 instructions: 71000002 cycles: 71267019 heartbeat IPC: 0.577886 cumulative IPC: 0.512603 (Simulation time: 0 hr 34 min 10 sec) 
Heartbeat CPU 0 instructions: 72000000 cycles: 73007883 heartbeat IPC: 0.574426 cumulative IPC: 0.515123 (Simulation time: 0 hr 34 min 32 sec) 
Heartbeat CPU 0 instructions: 73000001 cycles: 75482556 heartbeat IPC: 0.404094 cumulative IPC: 0.509042 (Simulation time: 0 hr 34 min 54 sec) 
Heartbeat CPU 0 instructions: 74000002 cycles: 81449203 heartbeat IPC: 0.167598 cumulative IPC: 0.469213 (Simulation time: 0 hr 35 min 22 sec) 
Heartbeat CPU 0 instructions: 75000002 cycles: 83149053 heartbeat IPC: 0.588287 cumulative IPC: 0.473042 (Simulation time: 0 hr 35 min 45 sec) 
Heartbeat CPU 0 instructions: 76000000 cycles: 84888496 heartbeat IPC: 0.574896 cumulative IPC: 0.476288 (Simulation time: 0 hr 36 min 5 sec) 
Heartbeat CPU 0 instructions: 77000001 cycles: 86627424 heartbeat IPC: 0.575068 cumulative IPC: 0.479337 (Simulation time: 0 hr 36 min 27 sec) 
Heartbeat CPU 0 instructions: 78000000 cycles: 88351309 heartbeat IPC: 0.580085 cumulative IPC: 0.482329 (Simulation time: 0 hr 36 min 48 sec) 
Heartbeat CPU 0 instructions: 79000003 cycles: 89999264 heartbeat IPC: 0.606815 cumulative IPC: 0.485765 (Simulation time: 0 hr 37 min 10 sec) 
Heartbeat CPU 0 instructions: 80000000 cycles: 91730691 heartbeat IPC: 0.577557 cumulative IPC: 0.488353 (Simulation time: 0 hr 37 min 31 sec) 
Heartbeat CPU 0 instructions: 81000002 cycles: 93470945 heartbeat IPC: 0.57463 cumulative IPC: 0.490729 (Simulation time: 0 hr 37 min 53 sec) 
Heartbeat CPU 0 instructions: 82000000 cycles: 95210345 heartbeat IPC: 0.57491 cumulative IPC: 0.492985 (Simulation time: 0 hr 38 min 15 sec) 
Heartbeat CPU 0 instructions: 83000000 cycles: 96899392 heartbeat IPC: 0.59205 cumulative IPC: 0.495498 (Simulation time: 0 hr 38 min 37 sec) 
Heartbeat CPU 0 instructions: 84000000 cycles: 98576464 heartbeat IPC: 0.596277 cumulative IPC: 0.497973 (Simulation time: 0 hr 38 min 59 sec) 
Heartbeat CPU 0 instructions: 85000003 cycles: 100339602 heartbeat IPC: 0.567172 cumulative IPC: 0.499715 (Simulation time: 0 hr 39 min 20 sec) 
Heartbeat CPU 0 instructions: 86000000 cycles: 102081550 heartbeat IPC: 0.574068 cumulative IPC: 0.501519 (Simulation time: 0 hr 39 min 42 sec) 
Heartbeat CPU 0 instructions: 87000001 cycles: 108834907 heartbeat IPC: 0.148075 cumulative IPC: 0.471126 (Simulation time: 0 hr 40 min 9 sec) 
Heartbeat CPU 0 instructions: 88000000 cycles: 110481294 heartbeat IPC: 0.60739 cumulative IPC: 0.473924 (Simulation time: 0 hr 40 min 31 sec) 
Heartbeat CPU 0 instructions: 89000002 cycles: 112209432 heartbeat IPC: 0.578659 cumulative IPC: 0.476134 (Simulation time: 0 hr 40 min 52 sec) 
Heartbeat CPU 0 instructions: 90000001 cycles: 113975703 heartbeat IPC: 0.566164 cumulative IPC: 0.478034 (Simulation time: 0 hr 41 min 14 sec) 
Heartbeat CPU 0 instructions: 91000002 cycles: 115715157 heartbeat IPC: 0.574894 cumulative IPC: 0.480007 (Simulation time: 0 hr 41 min 35 sec) 
Heartbeat CPU 0 instructions: 92000000 cycles: 117409528 heartbeat IPC: 0.590188 cumulative IPC: 0.48215 (Simulation time: 0 hr 41 min 55 sec) 
Heartbeat CPU 0 instructions: 93000002 cycles: 119081343 heartbeat IPC: 0.598154 cumulative IPC: 0.484334 (Simulation time: 0 hr 42 min 16 sec) 
Heartbeat CPU 0 instructions: 94000002 cycles: 120816420 heartbeat IPC: 0.576343 cumulative IPC: 0.486098 (Simulation time: 0 hr 42 min 36 sec) 
Heartbeat CPU 0 instructions: 95000003 cycles: 122556903 heartbeat IPC: 0.574554 cumulative IPC: 0.487767 (Simulation time: 0 hr 42 min 57 sec) 
Heartbeat CPU 0 instructions: 96000000 cycles: 124292883 heartbeat IPC: 0.576042 cumulative IPC: 0.489397 (Simulation time: 0 hr 43 min 18 sec) 
Heartbeat CPU 0 instructions: 97000003 cycles: 125956507 heartbeat IPC: 0.601099 cumulative IPC: 0.49134 (Simulation time: 0 hr 43 min 37 sec) 
Heartbeat CPU 0 instructions: 98000003 cycles: 127658262 heartbeat IPC: 0.587629 cumulative IPC: 0.493023 (Simulation time: 0 hr 43 min 57 sec) 
Heartbeat CPU 0 instructions: 99000000 cycles: 129397803 heartbeat IPC: 0.574863 cumulative IPC: 0.494459 (Simulation time: 0 hr 44 min 16 sec) 
Heartbeat CPU 0 instructions: 100000000 cycles: 136199225 heartbeat IPC: 0.147028 cumulative IPC: 0.472145 (Simulation time: 0 hr 44 min 42 sec) 
Heartbeat CPU 0 instructions: 101000000 cycles: 137898729 heartbeat IPC: 0.588407 cumulative IPC: 0.473982 (Simulation time: 0 hr 45 min 1 sec) 
Heartbeat CPU 0 instructions: 102000003 cycles: 139566974 heartbeat IPC: 0.599434 cumulative IPC: 0.475897 (Simulation time: 0 hr 45 min 20 sec) 
Heartbeat CPU 0 instructions: 103000000 cycles: 141300672 heartbeat IPC: 0.5768 cumulative IPC: 0.477473 (Simulation time: 0 hr 45 min 38 sec) 
Heartbeat CPU 0 instructions: 104000000 cycles: 143040407 heartbeat IPC: 0.5748 cumulative IPC: 0.478975 (Simulation time: 0 hr 45 min 55 sec) 
Heartbeat CPU 0 instructions: 105000001 cycles: 144775866 heartbeat IPC: 0.576217 cumulative IPC: 0.480449 (Simulation time: 0 hr 46 min 12 sec) 
Heartbeat CPU 0 instructions: 106000000 cycles: 146445292 heartbeat IPC: 0.599008 cumulative IPC: 0.482153 (Simulation time: 0 hr 46 min 30 sec) 
Heartbeat CPU 0 instructions: 107000001 cycles: 148141462 heartbeat IPC: 0.589564 cumulative IPC: 0.483699 (Simulation time: 0 hr 46 min 47 sec) 
Heartbeat CPU 0 instructions: 108000000 cycles: 149880185 heartbeat IPC: 0.575134 cumulative IPC: 0.485029 (Simulation time: 0 hr 47 min 4 sec) 
Heartbeat CPU 0 instructions: 109000002 cycles: 151619422 heartbeat IPC: 0.574966 cumulative IPC: 0.486318 (Simulation time: 0 hr 47 min 20 sec) 
Heartbeat CPU 0 instructions: 110000001 cycles: 153345418 heartbeat IPC: 0.579375 cumulative IPC: 0.487624 (Simulation time: 0 hr 47 min 35 sec) 
Heartbeat CPU 0 instructions: 111000003 cycles: 154993509 heartbeat IPC: 0.606764 cumulative IPC: 0.489198 (Simulation time: 0 hr 47 min 50 sec) 
Heartbeat CPU 0 instructions: 112000000 cycles: 156721767 heartbeat IPC: 0.578616 cumulative IPC: 0.490421 (Simulation time: 0 hr 48 min 4 sec) 
Heartbeat CPU 0 instructions: 113000001 cycles: 163463439 heartbeat IPC: 0.148331 cumulative IPC: 0.473102 (Simulation time: 0 hr 48 min 21 sec) 
Heartbeat CPU 0 instructions: 114000003 cycles: 165200547 heartbeat IPC: 0.575671 cumulative IPC: 0.474422 (Simulation time: 0 hr 48 min 34 sec) 
Heartbeat CPU 0 instructions: 115000003 cycles: 166874556 heartbeat IPC: 0.597368 cumulative IPC: 0.475929 (Simulation time: 0 hr 48 min 46 sec) 
Heartbeat CPU 0 instructions: 116000000 cycles: 168568020 heartbeat IPC: 0.590504 cumulative IPC: 0.477333 (Simulation time: 0 hr 48 min 57 sec) 
Heartbeat CPU 0 instructions: 117000002 cycles: 170308030 heartbeat IPC: 0.57471 cumulative IPC: 0.478543 (Simulation time: 0 hr 49 min 8 sec) 
Heartbeat CPU 0 instructions: 118000001 cycles: 172048126 heartbeat IPC: 0.57468 cumulative IPC: 0.479723 (Simulation time: 0 hr 49 min 17 sec) 
Heartbeat CPU 0 instructions: 119000000 cycles: 173776133 heartbeat IPC: 0.578701 cumulative IPC: 0.480915 (Simulation time: 0 hr 49 min 27 sec) 
Heartbeat CPU 0 instructions: 120000000 cycles: 175422469 heartbeat IPC: 0.607409 cumulative IPC: 0.48235 (Simulation time: 0 hr 49 min 37 sec) 
Heartbeat CPU 0 instructions: 121000003 cycles: 177147950 heartbeat IPC: 0.57955 cumulative IPC: 0.483492 (Simulation time: 0 hr 49 min 47 sec) 
Heartbeat CPU 0 instructions: 122000003 cycles: 178889598 heartbeat IPC: 0.574169 cumulative IPC: 0.484555 (Simulation time: 0 hr 49 min 57 sec) 
Heartbeat CPU 0 instructions: 123000001 cycles: 180628385 heartbeat IPC: 0.575112 cumulative IPC: 0.485602 (Simulation time: 0 hr 50 min 6 sec) 
Heartbeat CPU 0 instructions: 124000000 cycles: 182328779 heartbeat IPC: 0.588098 cumulative IPC: 0.486749 (Simulation time: 0 hr 50 min 16 sec) 
Heartbeat CPU 0 instructions: 125000000 cycles: 183998430 heartbeat IPC: 0.598928 cumulative IPC: 0.487967 (Simulation time: 0 hr 50 min 25 sec) 
Heartbeat CPU 0 instructions: 126000002 cycles: 190450498 heartbeat IPC: 0.154989 cumulative IPC: 0.474553 (Simulation time: 0 hr 50 min 37 sec) 
Heartbeat CPU 0 instructions: 127000002 cycles: 192442951 heartbeat IPC: 0.501894 cumulative IPC: 0.474889 (Simulation time: 0 hr 50 min 47 sec) 
Heartbeat CPU 0 instructions: 128000000 cycles: 194171918 heartbeat IPC: 0.578379 cumulative IPC: 0.475981 (Simulation time: 0 hr 50 min 56 sec) 
Heartbeat CPU 0 instructions: 129000001 cycles: 195821624 heartbeat IPC: 0.606169 cumulative IPC: 0.477278 (Simulation time: 0 hr 51 min 6 sec) 
Heartbeat CPU 0 instructions: 130000001 cycles: 197542751 heartbeat IPC: 0.581015 cumulative IPC: 0.478346 (Simulation time: 0 hr 51 min 15 sec) 
Heartbeat CPU 0 instructions: 131000002 cycles: 199281455 heartbeat IPC: 0.575142 cumulative IPC: 0.479342 (Simulation time: 0 hr 51 min 25 sec) 
Heartbeat CPU 0 instructions: 132000000 cycles: 201020363 heartbeat IPC: 0.575072 cumulative IPC: 0.480317 (Simulation time: 0 hr 51 min 35 sec) 
Heartbeat CPU 0 instructions: 133000002 cycles: 202719508 heartbeat IPC: 0.588532 cumulative IPC: 0.481383 (Simulation time: 0 hr 51 min 44 sec) 
Heartbeat CPU 0 instructions: 134000000 cycles: 204382158 heartbeat IPC: 0.601448 cumulative IPC: 0.48253 (Simulation time: 0 hr 51 min 53 sec) 
Heartbeat CPU 0 instructions: 135000003 cycles: 206116370 heartbeat IPC: 0.576632 cumulative IPC: 0.483458 (Simulation time: 0 hr 52 min 2 sec) 
Heartbeat CPU 0 instructions: 136000000 cycles: 207853577 heartbeat IPC: 0.575635 cumulative IPC: 0.48436 (Simulation time: 0 hr 52 min 10 sec) 
Heartbeat CPU 0 instructions: 137000003 cycles: 209590438 heartbeat IPC: 0.575753 cumulative IPC: 0.485245 (Simulation time: 0 hr 52 min 18 sec) 
Heartbeat CPU 0 instructions: 138000003 cycles: 211260921 heartbeat IPC: 0.598629 cumulative IPC: 0.486292 (Simulation time: 0 hr 52 min 26 sec) 
Heartbeat CPU 0 instructions: 139000000 cycles: 216690082 heartbeat IPC: 0.18419 cumulative IPC: 0.477492 (Simulation time: 0 hr 52 min 35 sec) 
Heartbeat CPU 0 instructions: 140000000 cycles: 219671928 heartbeat IPC: 0.335363 cumulative IPC: 0.475254 (Simulation time: 0 hr 52 min 43 sec) 
Heartbeat CPU 0 instructions: 141000001 cycles: 221408388 heartbeat IPC: 0.575885 cumulative IPC: 0.476169 (Simulation time: 0 hr 52 min 49 sec) 
Heartbeat CPU 0 instructions: 142000000 cycles: 223115098 heartbeat IPC: 0.585922 cumulative IPC: 0.47714 (Simulation time: 0 hr 52 min 55 sec) 
Heartbeat CPU 0 instructions: 143000003 cycles: 224775110 heartbeat IPC: 0.602407 cumulative IPC: 0.478209 (Simulation time: 0 hr 53 min 1 sec) 
Heartbeat CPU 0 instructions: 144000000 cycles: 226506219 heartbeat IPC: 0.577663 cumulative IPC: 0.479087 (Simulation time: 0 hr 53 min 7 sec) 
Heartbeat CPU 0 instructions: 145000002 cycles: 228261024 heartbeat IPC: 0.569865 cumulative IPC: 0.479892 (Simulation time: 0 hr 53 min 13 sec) 
Heartbeat CPU 0 instructions: 146000001 cycles: 229996212 heartbeat IPC: 0.576306 cumulative IPC: 0.480729 (Simulation time: 0 hr 53 min 19 sec) 
Heartbeat CPU 0 instructions: 147000000 cycles: 231667954 heartbeat IPC: 0.598178 cumulative IPC: 0.481704 (Simulation time: 0 hr 53 min 24 sec) 
Heartbeat CPU 0 instructions: 148000000 cycles: 233354166 heartbeat IPC: 0.593045 cumulative IPC: 0.482629 (Simulation time: 0 hr 53 min 30 sec) 
Heartbeat CPU 0 instructions: 149000000 cycles: 235107510 heartbeat IPC: 0.570339 cumulative IPC: 0.48338 (Simulation time: 0 hr 53 min 35 sec) 
Heartbeat CPU 0 instructions: 150000002 cycles: 236864316 heartbeat IPC: 0.569216 cumulative IPC: 0.48411 (Simulation time: 0 hr 53 min 40 sec) 
Finished CPU 0 instructions: 100000003 cycles: 206564644 cummulative IPC: 0.48411 (Simulation time: 0 hr 53 min 40 sec) 

ChampSim completed all CPUs

Region of Interest Statistics

CPU 0 cummulative IPC: 0.48411 instructions: 100000003 cycles: 206564644
LLC TOTAL     ACCESS:    1109375  HIT:     285976  MISS:     823399
LLC LOAD      ACCESS:      25147  HIT:       3204  MISS:      21943
LLC RFO       ACCESS:     245174  HIT:      44910  MISS:     200264
LLC PREFETCH  ACCESS:     593491  HIT:     161895  MISS:     431596
LLC WRITEBACK ACCESS:     245563  HIT:      75967  MISS:     169596
