
*** ChampSim Multicore Out-of-Order Simulator ***

Warmup Instructions: 50000000
Simulation Instructions: 100000000
Configuration: 2
Number of CPUs: 1
LLC sets: 2048
LLC ways: 16
Off-chip DRAM Channels: 1 Width: 64-bit Data Rate: 1600 MT/s

CPU 0 runs /datasets/cs240c-wi22-a00-public/data/Assignment2-gz/bzip2_259B.trace.gz
CPU 0 L1D next line prefetcher
CPU 0 L2C IP-based stride prefetcher
Heartbeat CPU 0 instructions: 1000002 cycles: 428875 heartbeat IPC: 2.33169 cumulative IPC: 2.33169 (Simulation time: 0 hr 0 min 44 sec) 
Heartbeat CPU 0 instructions: 2000003 cycles: 861057 heartbeat IPC: 2.31384 cumulative IPC: 2.32273 (Simulation time: 0 hr 1 min 27 sec) 
Heartbeat CPU 0 instructions: 3000001 cycles: 1286790 heartbeat IPC: 2.34889 cumulative IPC: 2.33138 (Simulation time: 0 hr 2 min 4 sec) 
Heartbeat CPU 0 instructions: 4000000 cycles: 1685062 heartbeat IPC: 2.51084 cumulative IPC: 2.3738 (Simulation time: 0 hr 2 min 38 sec) 
Heartbeat CPU 0 instructions: 5000001 cycles: 2103495 heartbeat IPC: 2.38987 cumulative IPC: 2.377 (Simulation time: 0 hr 3 min 7 sec) 
Heartbeat CPU 0 instructions: 6000001 cycles: 2532858 heartbeat IPC: 2.32903 cumulative IPC: 2.36887 (Simulation time: 0 hr 3 min 41 sec) 
Heartbeat CPU 0 instructions: 7000003 cycles: 2961906 heartbeat IPC: 2.33075 cumulative IPC: 2.36334 (Simulation time: 0 hr 4 min 14 sec) 
Heartbeat CPU 0 instructions: 8000000 cycles: 3391719 heartbeat IPC: 2.32659 cumulative IPC: 2.35869 (Simulation time: 0 hr 4 min 45 sec) 
Heartbeat CPU 0 instructions: 9000000 cycles: 3819845 heartbeat IPC: 2.33576 cumulative IPC: 2.35612 (Simulation time: 0 hr 5 min 17 sec) 
Heartbeat CPU 0 instructions: 10000002 cycles: 4193917 heartbeat IPC: 2.67329 cumulative IPC: 2.38441 (Simulation time: 0 hr 5 min 43 sec) 
Heartbeat CPU 0 instructions: 11000003 cycles: 4560316 heartbeat IPC: 2.72927 cumulative IPC: 2.41211 (Simulation time: 0 hr 6 min 7 sec) 
Heartbeat CPU 0 instructions: 12000000 cycles: 5001191 heartbeat IPC: 2.26821 cumulative IPC: 2.39943 (Simulation time: 0 hr 6 min 36 sec) 
Heartbeat CPU 0 instructions: 13000003 cycles: 5458026 heartbeat IPC: 2.18898 cumulative IPC: 2.38181 (Simulation time: 0 hr 7 min 4 sec) 
Heartbeat CPU 0 instructions: 14000002 cycles: 5909699 heartbeat IPC: 2.21399 cumulative IPC: 2.36899 (Simulation time: 0 hr 7 min 33 sec) 
Heartbeat CPU 0 instructions: 15000003 cycles: 6349535 heartbeat IPC: 2.27358 cumulative IPC: 2.36238 (Simulation time: 0 hr 8 min 1 sec) 
Heartbeat CPU 0 instructions: 16000000 cycles: 6790851 heartbeat IPC: 2.26594 cumulative IPC: 2.35611 (Simulation time: 0 hr 8 min 31 sec) 
Heartbeat CPU 0 instructions: 17000003 cycles: 7220662 heartbeat IPC: 2.32661 cumulative IPC: 2.35436 (Simulation time: 0 hr 8 min 58 sec) 
Heartbeat CPU 0 instructions: 18000000 cycles: 7664894 heartbeat IPC: 2.25107 cumulative IPC: 2.34837 (Simulation time: 0 hr 9 min 22 sec) 
Heartbeat CPU 0 instructions: 19000002 cycles: 8147337 heartbeat IPC: 2.07279 cumulative IPC: 2.33205 (Simulation time: 0 hr 9 min 44 sec) 
Heartbeat CPU 0 instructions: 20000000 cycles: 8642694 heartbeat IPC: 2.01874 cumulative IPC: 2.31409 (Simulation time: 0 hr 10 min 2 sec) 
Heartbeat CPU 0 instructions: 21000001 cycles: 9134619 heartbeat IPC: 2.03283 cumulative IPC: 2.29895 (Simulation time: 0 hr 10 min 21 sec) 
Heartbeat CPU 0 instructions: 22000002 cycles: 9617981 heartbeat IPC: 2.06884 cumulative IPC: 2.28738 (Simulation time: 0 hr 10 min 41 sec) 
Heartbeat CPU 0 instructions: 23000003 cycles: 10103359 heartbeat IPC: 2.06025 cumulative IPC: 2.27647 (Simulation time: 0 hr 10 min 58 sec) 
Heartbeat CPU 0 instructions: 24000000 cycles: 10587041 heartbeat IPC: 2.06747 cumulative IPC: 2.26692 (Simulation time: 0 hr 11 min 18 sec) 
Heartbeat CPU 0 instructions: 25000000 cycles: 11072605 heartbeat IPC: 2.05946 cumulative IPC: 2.25782 (Simulation time: 0 hr 11 min 35 sec) 
Heartbeat CPU 0 instructions: 26000003 cycles: 11574608 heartbeat IPC: 1.99203 cumulative IPC: 2.2463 (Simulation time: 0 hr 11 min 53 sec) 
Heartbeat CPU 0 instructions: 27000000 cycles: 12067117 heartbeat IPC: 2.03041 cumulative IPC: 2.23749 (Simulation time: 0 hr 12 min 11 sec) 
Heartbeat CPU 0 instructions: 28000000 cycles: 12555047 heartbeat IPC: 2.04947 cumulative IPC: 2.23018 (Simulation time: 0 hr 12 min 30 sec) 
Heartbeat CPU 0 instructions: 29000000 cycles: 13044055 heartbeat IPC: 2.04496 cumulative IPC: 2.22324 (Simulation time: 0 hr 12 min 47 sec) 
Heartbeat CPU 0 instructions: 30000000 cycles: 13545686 heartbeat IPC: 1.9935 cumulative IPC: 2.21473 (Simulation time: 0 hr 13 min 4 sec) 
Heartbeat CPU 0 instructions: 31000000 cycles: 14109047 heartbeat IPC: 1.77506 cumulative IPC: 2.19717 (Simulation time: 0 hr 13 min 26 sec) 
Heartbeat CPU 0 instructions: 32000000 cycles: 14702040 heartbeat IPC: 1.68636 cumulative IPC: 2.17657 (Simulation time: 0 hr 13 min 45 sec) 
Heartbeat CPU 0 instructions: 33000003 cycles: 15224689 heartbeat IPC: 1.91334 cumulative IPC: 2.16753 (Simulation time: 0 hr 14 min 3 sec) 
Heartbeat CPU 0 instructions: 34000002 cycles: 15624672 heartbeat IPC: 2.5001 cumulative IPC: 2.17605 (Simulation time: 0 hr 14 min 20 sec) 
Heartbeat CPU 0 instructions: 35000003 cycles: 16022071 heartbeat IPC: 2.51637 cumulative IPC: 2.18449 (Simulation time: 0 hr 14 min 36 sec) 
Heartbeat CPU 0 instructions: 36000000 cycles: 16462732 heartbeat IPC: 2.26931 cumulative IPC: 2.18676 (Simulation time: 0 hr 14 min 55 sec) 
Heartbeat CPU 0 instructions: 37000000 cycles: 16854130 heartbeat IPC: 2.55494 cumulative IPC: 2.19531 (Simulation time: 0 hr 15 min 13 sec) 
Heartbeat CPU 0 instructions: 38000000 cycles: 17276545 heartbeat IPC: 2.36734 cumulative IPC: 2.19951 (Simulation time: 0 hr 15 min 34 sec) 
Heartbeat CPU 0 instructions: 39000000 cycles: 17707901 heartbeat IPC: 2.31827 cumulative IPC: 2.20241 (Simulation time: 0 hr 15 min 59 sec) 
Heartbeat CPU 0 instructions: 40000000 cycles: 18129614 heartbeat IPC: 2.37128 cumulative IPC: 2.20633 (Simulation time: 0 hr 16 min 23 sec) 
Heartbeat CPU 0 instructions: 41000001 cycles: 18554149 heartbeat IPC: 2.35552 cumulative IPC: 2.20975 (Simulation time: 0 hr 16 min 47 sec) 
Heartbeat CPU 0 instructions: 42000000 cycles: 18991851 heartbeat IPC: 2.28466 cumulative IPC: 2.21147 (Simulation time: 0 hr 17 min 9 sec) 
Heartbeat CPU 0 instructions: 43000003 cycles: 19424801 heartbeat IPC: 2.30974 cumulative IPC: 2.21367 (Simulation time: 0 hr 17 min 31 sec) 
Heartbeat CPU 0 instructions: 44000000 cycles: 19856779 heartbeat IPC: 2.31493 cumulative IPC: 2.21587 (Simulation time: 0 hr 17 min 56 sec) 
Heartbeat CPU 0 instructions: 45000002 cycles: 20287770 heartbeat IPC: 2.32024 cumulative IPC: 2.21809 (Simulation time: 0 hr 18 min 20 sec) 
Heartbeat CPU 0 instructions: 46000001 cycles: 20719182 heartbeat IPC: 2.31797 cumulative IPC: 2.22017 (Simulation time: 0 hr 18 min 43 sec) 
Heartbeat CPU 0 instructions: 47000003 cycles: 21150541 heartbeat IPC: 2.31826 cumulative IPC: 2.22217 (Simulation time: 0 hr 19 min 3 sec) 
Heartbeat CPU 0 instructions: 48000000 cycles: 21584039 heartbeat IPC: 2.30681 cumulative IPC: 2.22387 (Simulation time: 0 hr 19 min 25 sec) 
Heartbeat CPU 0 instructions: 49000003 cycles: 22022143 heartbeat IPC: 2.28257 cumulative IPC: 2.22503 (Simulation time: 0 hr 19 min 46 sec) 
Heartbeat CPU 0 instructions: 50000003 cycles: 22439943 heartbeat IPC: 2.39349 cumulative IPC: 2.22817 (Simulation time: 0 hr 20 min 8 sec) 

Warmup complete CPU 0 instructions: 50000003 cycles: 22439943 (Simulation time: 0 hr 20 min 8 sec) 

Heartbeat CPU 0 instructions: 51000002 cycles: 23603667 heartbeat IPC: 0.859309 cumulative IPC: 0.859309 (Simulation time: 0 hr 20 min 26 sec) 
Heartbeat CPU 0 instructions: 52000000 cycles: 24721820 heartbeat IPC: 0.89433 cumulative IPC: 0.87647 (Simulation time: 0 hr 20 min 45 sec) 
Heartbeat CPU 0 instructions: 53000001 cycles: 25917602 heartbeat IPC: 0.836274 cumulative IPC: 0.862649 (Simulation time: 0 hr 21 min 3 sec) 
Heartbeat CPU 0 instructions: 54000000 cycles: 27142290 heartbeat IPC: 0.816534 cumulative IPC: 0.850638 (Simulation time: 0 hr 21 min 21 sec) 
Heartbeat CPU 0 instructions: 55000000 cycles: 28293994 heartbeat IPC: 0.868279 cumulative IPC: 0.854109 (Simulation time: 0 hr 21 min 39 sec) 
Heartbeat CPU 0 instructions: 56000000 cycles: 29518257 heartbeat IPC: 0.816818 cumulative IPC: 0.847659 (Simulation time: 0 hr 21 min 58 sec) 
Heartbeat CPU 0 instructions: 57000000 cycles: 30739305 heartbeat IPC: 0.818969 cumulative IPC: 0.843438 (Simulation time: 0 hr 22 min 16 sec) 
Heartbeat CPU 0 instructions: 58000002 cycles: 31771241 heartbeat IPC: 0.969054 cumulative IPC: 0.85733 (Simulation time: 0 hr 22 min 33 sec) 
Heartbeat CPU 0 instructions: 59000000 cycles: 32872880 heartbeat IPC: 0.907737 cumulative IPC: 0.862652 (Simulation time: 0 hr 22 min 49 sec) 
Heartbeat CPU 0 instructions: 60000000 cycles: 34052190 heartbeat IPC: 0.847953 cumulative IPC: 0.86116 (Simulation time: 0 hr 23 min 6 sec) 
Heartbeat CPU 0 instructions: 61000000 cycles: 35196698 heartbeat IPC: 0.873738 cumulative IPC: 0.862288 (Simulation time: 0 hr 23 min 24 sec) 
Heartbeat CPU 0 instructions: 62000002 cycles: 36040075 heartbeat IPC: 1.18571 cumulative IPC: 0.882344 (Simulation time: 0 hr 23 min 42 sec) 
Heartbeat CPU 0 instructions: 63000003 cycles: 36932653 heartbeat IPC: 1.12035 cumulative IPC: 0.897003 (Simulation time: 0 hr 24 min 1 sec) 
Heartbeat CPU 0 instructions: 64000000 cycles: 37994914 heartbeat IPC: 0.941385 cumulative IPC: 0.900034 (Simulation time: 0 hr 24 min 24 sec) 
Heartbeat CPU 0 instructions: 65000003 cycles: 38962242 heartbeat IPC: 1.03378 cumulative IPC: 0.907864 (Simulation time: 0 hr 24 min 46 sec) 
Heartbeat CPU 0 instructions: 66000003 cycles: 39911532 heartbeat IPC: 1.05342 cumulative IPC: 0.915772 (Simulation time: 0 hr 25 min 10 sec) 
Heartbeat CPU 0 instructions: 67000003 cycles: 40962866 heartbeat IPC: 0.951173 cumulative IPC: 0.917782 (Simulation time: 0 hr 25 min 33 sec) 
Heartbeat CPU 0 instructions: 68000000 cycles: 42035582 heartbeat IPC: 0.93221 cumulative IPC: 0.918572 (Simulation time: 0 hr 25 min 55 sec) 
Heartbeat CPU 0 instructions: 69000003 cycles: 43138700 heartbeat IPC: 0.906524 cumulative IPC: 0.91793 (Simulation time: 0 hr 26 min 18 sec) 
Heartbeat CPU 0 instructions: 70000003 cycles: 44381278 heartbeat IPC: 0.804778 cumulative IPC: 0.911522 (Simulation time: 0 hr 26 min 39 sec) 
Heartbeat CPU 0 instructions: 71000000 cycles: 45863964 heartbeat IPC: 0.67445 cumulative IPC: 0.896515 (Simulation time: 0 hr 27 min 0 sec) 
Heartbeat CPU 0 instructions: 72000000 cycles: 47118888 heartbeat IPC: 0.796861 cumulative IPC: 0.891448 (Simulation time: 0 hr 27 min 19 sec) 
Heartbeat CPU 0 instructions: 73000003 cycles: 48522733 heartbeat IPC: 0.712331 cumulative IPC: 0.881808 (Simulation time: 0 hr 27 min 41 sec) 
Heartbeat CPU 0 instructions: 74000001 cycles: 49974633 heartbeat IPC: 0.688751 cumulative IPC: 0.871628 (Simulation time: 0 hr 28 min 4 sec) 
Heartbeat CPU 0 instructions: 75000000 cycles: 51356889 heartbeat IPC: 0.723454 cumulative IPC: 0.864545 (Simulation time: 0 hr 28 min 26 sec) 
Heartbeat CPU 0 instructions: 76000000 cycles: 52611811 heartbeat IPC: 0.796862 cumulative IPC: 0.86173 (Simulation time: 0 hr 28 min 48 sec) 
Heartbeat CPU 0 instructions: 77000003 cycles: 53637534 heartbeat IPC: 0.974925 cumulative IPC: 0.865451 (Simulation time: 0 hr 29 min 8 sec) 
Heartbeat CPU 0 instructions: 78000000 cycles: 54642394 heartbeat IPC: 0.995161 cumulative IPC: 0.869499 (Simulation time: 0 hr 29 min 28 sec) 
Heartbeat CPU 0 instructions: 79000003 cycles: 55743417 heartbeat IPC: 0.908249 cumulative IPC: 0.87078 (Simulation time: 0 hr 29 min 47 sec) 
Heartbeat CPU 0 instructions: 80000000 cycles: 56996242 heartbeat IPC: 0.798194 cumulative IPC: 0.868148 (Simulation time: 0 hr 30 min 7 sec) 
Heartbeat CPU 0 instructions: 81000001 cycles: 58287743 heartbeat IPC: 0.774294 cumulative IPC: 0.864767 (Simulation time: 0 hr 30 min 29 sec) 
Heartbeat CPU 0 instructions: 82000003 cycles: 59522052 heartbeat IPC: 0.810172 cumulative IPC: 0.86295 (Simulation time: 0 hr 30 min 49 sec) 
Heartbeat CPU 0 instructions: 83000002 cycles: 60679201 heartbeat IPC: 0.864192 cumulative IPC: 0.862987 (Simulation time: 0 hr 31 min 8 sec) 
Heartbeat CPU 0 instructions: 84000000 cycles: 61653085 heartbeat IPC: 1.02681 cumulative IPC: 0.867056 (Simulation time: 0 hr 31 min 26 sec) 
Heartbeat CPU 0 instructions: 85000003 cycles: 62614465 heartbeat IPC: 1.04017 cumulative IPC: 0.871199 (Simulation time: 0 hr 31 min 45 sec) 
Heartbeat CPU 0 instructions: 86000003 cycles: 63685807 heartbeat IPC: 0.933409 cumulative IPC: 0.872815 (Simulation time: 0 hr 32 min 2 sec) 
Heartbeat CPU 0 instructions: 87000002 cycles: 64836059 heartbeat IPC: 0.869374 cumulative IPC: 0.872721 (Simulation time: 0 hr 32 min 19 sec) 
Heartbeat CPU 0 instructions: 88000000 cycles: 65968508 heartbeat IPC: 0.88304 cumulative IPC: 0.87299 (Simulation time: 0 hr 32 min 35 sec) 
Heartbeat CPU 0 instructions: 89000002 cycles: 66975254 heartbeat IPC: 0.993301 cumulative IPC: 0.87571 (Simulation time: 0 hr 32 min 50 sec) 
Heartbeat CPU 0 instructions: 90000001 cycles: 68099009 heartbeat IPC: 0.889873 cumulative IPC: 0.876058 (Simulation time: 0 hr 33 min 4 sec) 
Heartbeat CPU 0 instructions: 91000002 cycles: 69212564 heartbeat IPC: 0.898026 cumulative IPC: 0.876581 (Simulation time: 0 hr 33 min 18 sec) 
Heartbeat CPU 0 instructions: 92000000 cycles: 70252653 heartbeat IPC: 0.961454 cumulative IPC: 0.878427 (Simulation time: 0 hr 33 min 32 sec) 
Heartbeat CPU 0 instructions: 93000000 cycles: 71441694 heartbeat IPC: 0.841014 cumulative IPC: 0.87752 (Simulation time: 0 hr 33 min 46 sec) 
Heartbeat CPU 0 instructions: 94000003 cycles: 72617890 heartbeat IPC: 0.850201 cumulative IPC: 0.876879 (Simulation time: 0 hr 34 min 1 sec) 
Heartbeat CPU 0 instructions: 95000002 cycles: 73802864 heartbeat IPC: 0.8439 cumulative IPC: 0.876118 (Simulation time: 0 hr 34 min 16 sec) 
Heartbeat CPU 0 instructions: 96000000 cycles: 74972028 heartbeat IPC: 0.85531 cumulative IPC: 0.875655 (Simulation time: 0 hr 34 min 32 sec) 
Heartbeat CPU 0 instructions: 97000002 cycles: 76189317 heartbeat IPC: 0.821499 cumulative IPC: 0.874429 (Simulation time: 0 hr 34 min 46 sec) 
Heartbeat CPU 0 instructions: 98000000 cycles: 77421892 heartbeat IPC: 0.811308 cumulative IPC: 0.873014 (Simulation time: 0 hr 35 min 0 sec) 
Heartbeat CPU 0 instructions: 99000000 cycles: 78661239 heartbeat IPC: 0.806877 cumulative IPC: 0.871556 (Simulation time: 0 hr 35 min 15 sec) 
Heartbeat CPU 0 instructions: 100000000 cycles: 79903298 heartbeat IPC: 0.805115 cumulative IPC: 0.87012 (Simulation time: 0 hr 35 min 30 sec) 
Heartbeat CPU 0 instructions: 101000003 cycles: 81051481 heartbeat IPC: 0.870944 cumulative IPC: 0.870136 (Simulation time: 0 hr 35 min 45 sec) 
Heartbeat CPU 0 instructions: 102000000 cycles: 82170767 heartbeat IPC: 0.893424 cumulative IPC: 0.870572 (Simulation time: 0 hr 35 min 59 sec) 
Heartbeat CPU 0 instructions: 103000000 cycles: 83272125 heartbeat IPC: 0.90797 cumulative IPC: 0.871249 (Simulation time: 0 hr 36 min 13 sec) 
Heartbeat CPU 0 instructions: 104000000 cycles: 84425589 heartbeat IPC: 0.866954 cumulative IPC: 0.871169 (Simulation time: 0 hr 36 min 26 sec) 
Heartbeat CPU 0 instructions: 105000002 cycles: 85637187 heartbeat IPC: 0.825358 cumulative IPC: 0.870291 (Simulation time: 0 hr 36 min 42 sec) 
Heartbeat CPU 0 instructions: 106000001 cycles: 86770743 heartbeat IPC: 0.882179 cumulative IPC: 0.870501 (Simulation time: 0 hr 36 min 56 sec) 
Heartbeat CPU 0 instructions: 107000000 cycles: 87974003 heartbeat IPC: 0.831075 cumulative IPC: 0.869777 (Simulation time: 0 hr 37 min 10 sec) 
Heartbeat CPU 0 instructions: 108000000 cycles: 89172347 heartbeat IPC: 0.834485 cumulative IPC: 0.869143 (Simulation time: 0 hr 37 min 23 sec) 
Heartbeat CPU 0 instructions: 109000000 cycles: 90184694 heartbeat IPC: 0.987804 cumulative IPC: 0.870916 (Simulation time: 0 hr 37 min 37 sec) 
Heartbeat CPU 0 instructions: 110000000 cycles: 91345326 heartbeat IPC: 0.8616 cumulative IPC: 0.870759 (Simulation time: 0 hr 37 min 51 sec) 
Heartbeat CPU 0 instructions: 111000002 cycles: 92470382 heartbeat IPC: 0.888846 cumulative IPC: 0.87105 (Simulation time: 0 hr 38 min 5 sec) 
Heartbeat CPU 0 instructions: 112000000 cycles: 93617414 heartbeat IPC: 0.871814 cumulative IPC: 0.871062 (Simulation time: 0 hr 38 min 19 sec) 
Heartbeat CPU 0 instructions: 113000003 cycles: 94548119 heartbeat IPC: 1.07446 cumulative IPC: 0.873687 (Simulation time: 0 hr 38 min 33 sec) 
Heartbeat CPU 0 instructions: 114000001 cycles: 95288057 heartbeat IPC: 1.35146 cumulative IPC: 0.87854 (Simulation time: 0 hr 38 min 48 sec) 
Heartbeat CPU 0 instructions: 115000000 cycles: 96366760 heartbeat IPC: 0.927038 cumulative IPC: 0.879248 (Simulation time: 0 hr 39 min 6 sec) 
Heartbeat CPU 0 instructions: 116000000 cycles: 97298111 heartbeat IPC: 1.07371 cumulative IPC: 0.881667 (Simulation time: 0 hr 39 min 25 sec) 
Heartbeat CPU 0 instructions: 117000003 cycles: 98227892 heartbeat IPC: 1.07553 cumulative IPC: 0.884046 (Simulation time: 0 hr 39 min 44 sec) 
Heartbeat CPU 0 instructions: 118000001 cycles: 99162550 heartbeat IPC: 1.06991 cumulative IPC: 0.88631 (Simulation time: 0 hr 40 min 3 sec) 
Heartbeat CPU 0 instructions: 119000001 cycles: 100195935 heartbeat IPC: 0.967694 cumulative IPC: 0.887391 (Simulation time: 0 hr 40 min 22 sec) 
Heartbeat CPU 0 instructions: 120000000 cycles: 101299772 heartbeat IPC: 0.90593 cumulative IPC: 0.887651 (Simulation time: 0 hr 40 min 41 sec) 
Heartbeat CPU 0 instructions: 121000002 cycles: 102432165 heartbeat IPC: 0.883087 cumulative IPC: 0.887586 (Simulation time: 0 hr 41 min 1 sec) 
Heartbeat CPU 0 instructions: 122000000 cycles: 103922019 heartbeat IPC: 0.671205 cumulative IPC: 0.88363 (Simulation time: 0 hr 41 min 19 sec) 
Heartbeat CPU 0 instructions: 123000001 cycles: 105449657 heartbeat IPC: 0.654606 cumulative IPC: 0.879415 (Simulation time: 0 hr 41 min 37 sec) 
Heartbeat CPU 0 instructions: 124000000 cycles: 106925047 heartbeat IPC: 0.677786 cumulative IPC: 0.875894 (Simulation time: 0 hr 41 min 56 sec) 
Heartbeat CPU 0 instructions: 125000001 cycles: 108287203 heartbeat IPC: 0.734131 cumulative IPC: 0.873645 (Simulation time: 0 hr 42 min 15 sec) 
Heartbeat CPU 0 instructions: 126000002 cycles: 109345453 heartbeat IPC: 0.944957 cumulative IPC: 0.874513 (Simulation time: 0 hr 42 min 33 sec) 
Heartbeat CPU 0 instructions: 127000001 cycles: 110404301 heartbeat IPC: 0.944422 cumulative IPC: 0.875355 (Simulation time: 0 hr 42 min 50 sec) 
Heartbeat CPU 0 instructions: 128000000 cycles: 111570532 heartbeat IPC: 0.857462 cumulative IPC: 0.87512 (Simulation time: 0 hr 43 min 7 sec) 
Heartbeat CPU 0 instructions: 129000002 cycles: 112768575 heartbeat IPC: 0.834696 cumulative IPC: 0.874584 (Simulation time: 0 hr 43 min 24 sec) 
Heartbeat CPU 0 instructions: 130000001 cycles: 114194362 heartbeat IPC: 0.701366 cumulative IPC: 0.871893 (Simulation time: 0 hr 43 min 42 sec) 
Heartbeat CPU 0 instructions: 131000003 cycles: 115600052 heartbeat IPC: 0.711396 cumulative IPC: 0.869471 (Simulation time: 0 hr 43 min 59 sec) 
Heartbeat CPU 0 instructions: 132000000 cycles: 116684645 heartbeat IPC: 0.922002 cumulative IPC: 0.870075 (Simulation time: 0 hr 44 min 15 sec) 
Heartbeat CPU 0 instructions: 133000001 cycles: 117668245 heartbeat IPC: 1.01667 cumulative IPC: 0.87159 (Simulation time: 0 hr 44 min 31 sec) 
Heartbeat CPU 0 instructions: 134000002 cycles: 118620137 heartbeat IPC: 1.05054 cumulative IPC: 0.873361 (Simulation time: 0 hr 44 min 45 sec) 
Heartbeat CPU 0 instructions: 135000000 cycles: 119609207 heartbeat IPC: 1.01105 cumulative IPC: 0.874762 (Simulation time: 0 hr 44 min 59 sec) 
Heartbeat CPU 0 instructions: 136000000 cycles: 120517498 heartbeat IPC: 1.10097 cumulative IPC: 0.876857 (Simulation time: 0 hr 45 min 13 sec) 
Heartbeat CPU 0 instructions: 137000000 cycles: 121423819 heartbeat IPC: 1.10336 cumulative IPC: 0.878931 (Simulation time: 0 hr 45 min 28 sec) 
Heartbeat CPU 0 instructions: 138000003 cycles: 122330820 heartbeat IPC: 1.10254 cumulative IPC: 0.880961 (Simulation time: 0 hr 45 min 40 sec) 
Heartbeat CPU 0 instructions: 139000001 cycles: 123389170 heartbeat IPC: 0.944865 cumulative IPC: 0.881631 (Simulation time: 0 hr 45 min 54 sec) 
Heartbeat CPU 0 instructions: 140000000 cycles: 124412200 heartbeat IPC: 0.977487 cumulative IPC: 0.882593 (Simulation time: 0 hr 46 min 5 sec) 
Heartbeat CPU 0 instructions: 141000000 cycles: 125486560 heartbeat IPC: 0.930787 cumulative IPC: 0.883095 (Simulation time: 0 hr 46 min 17 sec) 
Heartbeat CPU 0 instructions: 142000000 cycles: 126404571 heartbeat IPC: 1.08931 cumulative IPC: 0.884916 (Simulation time: 0 hr 46 min 28 sec) 
Heartbeat CPU 0 instructions: 143000001 cycles: 127199092 heartbeat IPC: 1.25862 cumulative IPC: 0.887751 (Simulation time: 0 hr 46 min 41 sec) 
Heartbeat CPU 0 instructions: 144000000 cycles: 128022489 heartbeat IPC: 1.21448 cumulative IPC: 0.890299 (Simulation time: 0 hr 46 min 54 sec) 
Heartbeat CPU 0 instructions: 145000001 cycles: 129020367 heartbeat IPC: 1.00213 cumulative IPC: 0.891346 (Simulation time: 0 hr 47 min 6 sec) 
Heartbeat CPU 0 instructions: 146000000 cycles: 129974008 heartbeat IPC: 1.04861 cumulative IPC: 0.89274 (Simulation time: 0 hr 47 min 18 sec) 
Heartbeat CPU 0 instructions: 147000001 cycles: 130978451 heartbeat IPC: 0.995578 cumulative IPC: 0.893692 (Simulation time: 0 hr 47 min 28 sec) 
Heartbeat CPU 0 instructions: 148000000 cycles: 131956210 heartbeat IPC: 1.02275 cumulative IPC: 0.894844 (Simulation time: 0 hr 47 min 38 sec) 
Heartbeat CPU 0 instructions: 149000003 cycles: 132949197 heartbeat IPC: 1.00707 cumulative IPC: 0.895853 (Simulation time: 0 hr 47 min 48 sec) 
Heartbeat CPU 0 instructions: 150000003 cycles: 133961627 heartbeat IPC: 0.987723 cumulative IPC: 0.896687 (Simulation time: 0 hr 47 min 58 sec) 
Finished CPU 0 instructions: 100000000 cycles: 111521684 cummulative IPC: 0.896687 (Simulation time: 0 hr 47 min 58 sec) 

ChampSim completed all CPUs

Region of Interest Statistics

CPU 0 cummulative IPC: 0.896687 instructions: 100000000 cycles: 111521684
LLC TOTAL     ACCESS:    1666364  HIT:    1275006  MISS:     391358
LLC LOAD      ACCESS:     531457  HIT:     441063  MISS:      90394
LLC RFO       ACCESS:     108421  HIT:      60546  MISS:      47875
LLC PREFETCH  ACCESS:     824388  HIT:     637741  MISS:     186647
LLC WRITEBACK ACCESS:     202098  HIT:     135656  MISS:      66442
