Initialize SIGNATURE TABLE
ST_SET: 1
ST_WAY: 256
ST_TAG_BIT: 16
ST_TAG_MASK: ffff

Initialize PATTERN TABLE
PT_SET: 512
PT_WAY: 4
SIG_DELTA_BIT: 7
C_SIG_BIT: 4
C_DELTA_BIT: 4

Initialize PREFETCH FILTER
FILTER_SET: 1024

*** ChampSim Multicore Out-of-Order Simulator ***

Warmup Instructions: 50000000
Simulation Instructions: 50000000
Number of CPUs: 1
LLC sets: 2048
LLC ways: 16
Off-chip DRAM Size: 4096 MB Channels: 1 Width: 64-bit Data Rate: 3200 MT/s

CPU 0 runs /Users/gandhardeshpande/Desktop/CSE240C/HW1/ChampSim/ipc1_public/client_001.champsimtrace.xz
CPU 0 L1I next line prefetcher
Running FNL-MMA for L1I
CPU 0 L1D next line prefetcher
Heartbeat CPU 0 instructions: 10000003 cycles: 3409978 heartbeat IPC: 2.93257 cumulative IPC: 2.93257 (Simulation time: 0 hr 0 min 14 sec) 
Heartbeat CPU 0 instructions: 20000001 cycles: 7118170 heartbeat IPC: 2.69673 cumulative IPC: 2.80971 (Simulation time: 0 hr 0 min 27 sec) 
Heartbeat CPU 0 instructions: 30000001 cycles: 10480676 heartbeat IPC: 2.97397 cumulative IPC: 2.86241 (Simulation time: 0 hr 0 min 40 sec) 
Heartbeat CPU 0 instructions: 40000003 cycles: 14350365 heartbeat IPC: 2.58419 cumulative IPC: 2.78739 (Simulation time: 0 hr 0 min 54 sec) 
Heartbeat CPU 0 instructions: 50000003 cycles: 17647192 heartbeat IPC: 3.03322 cumulative IPC: 2.83331 (Simulation time: 0 hr 1 min 7 sec) 

Warmup complete CPU 0 instructions: 50000003 cycles: 17647192 (Simulation time: 0 hr 1 min 7 sec) 

Heartbeat CPU 0 instructions: 60000000 cycles: 26693124 heartbeat IPC: 1.10547 cumulative IPC: 1.10547 (Simulation time: 0 hr 1 min 20 sec) 
Heartbeat CPU 0 instructions: 70000000 cycles: 33046354 heartbeat IPC: 1.574 cumulative IPC: 1.29877 (Simulation time: 0 hr 1 min 30 sec) 
Heartbeat CPU 0 instructions: 80000002 cycles: 42391475 heartbeat IPC: 1.07008 cumulative IPC: 1.2124 (Simulation time: 0 hr 1 min 44 sec) 
Heartbeat CPU 0 instructions: 90000000 cycles: 48600378 heartbeat IPC: 1.61059 cumulative IPC: 1.29227 (Simulation time: 0 hr 1 min 54 sec) 
Heartbeat CPU 0 instructions: 100000002 cycles: 57450548 heartbeat IPC: 1.12992 cumulative IPC: 1.25618 (Simulation time: 0 hr 2 min 6 sec) 
Finished CPU 0 instructions: 50000003 cycles: 39803357 cumulative IPC: 1.25618 (Simulation time: 0 hr 2 min 6 sec) 

ChampSim completed all CPUs

Region of Interest Statistics

CPU 0 cumulative IPC: 1.25618 instructions: 50000003 cycles: 39803357
L1D TOTAL     ACCESS:   21237754  HIT:   20401334  MISS:     836420
L1D LOAD      ACCESS:    8820493  HIT:    8425731  MISS:     394762
L1D RFO       ACCESS:    4040533  HIT:    3981503  MISS:      59030
L1D PREFETCH  ACCESS:    8376728  HIT:    7994100  MISS:     382628
L1D WRITEBACK ACCESS:          0  HIT:          0  MISS:          0
L1D PREFETCH  REQUESTED:    8865694  ISSUED:    8555860  USEFUL:     129618  USELESS:     252984
L1D AVERAGE MISS LATENCY: 47.61 cycles
L1I TOTAL     ACCESS:   10123099  HIT:    9697326  MISS:     425773
L1I LOAD      ACCESS:    8920387  HIT:    8900942  MISS:      19445
L1I RFO       ACCESS:          0  HIT:          0  MISS:          0
L1I PREFETCH  ACCESS:    1202712  HIT:     796384  MISS:     406328
L1I WRITEBACK ACCESS:          0  HIT:          0  MISS:          0
L1I PREFETCH  REQUESTED:    1227571  ISSUED:    1227567  USEFUL:     296757  USELESS:     109579
L1I AVERAGE MISS LATENCY: 21.5113 cycles
L2C TOTAL     ACCESS:    1928984  HIT:    1620068  MISS:     308916
L2C LOAD      ACCESS:     388762  HIT:     273561  MISS:     115201
L2C RFO       ACCESS:      58266  HIT:      21035  MISS:      37231
L2C PREFETCH  ACCESS:    1292375  HIT:    1136129  MISS:     156246
L2C WRITEBACK ACCESS:     189581  HIT:     189343  MISS:        238
L2C PREFETCH  REQUESTED:    1714125  ISSUED:    1710511  USEFUL:      14092  USELESS:     141180
L2C AVERAGE MISS LATENCY: 104.87 cycles
LLC TOTAL     ACCESS:     818427  HIT:     619583  MISS:     198844
LLC LOAD      ACCESS:     114874  HIT:      72258  MISS:      42616
LLC RFO       ACCESS:      37231  HIT:       9161  MISS:      28070
LLC PREFETCH  ACCESS:     559420  HIT:     431927  MISS:     127493
LLC WRITEBACK ACCESS:     106902  HIT:     106237  MISS:        665
LLC PREFETCH  REQUESTED:          0  ISSUED:          0  USEFUL:      28553  USELESS:     100470
LLC AVERAGE MISS LATENCY: 188.458 cycles
Major fault: 0 Minor fault: 3440
I-Shadow cache 408 bytes
Touched + WorthPF tables 3072 bytes 
MMA filter 174 bytes 
FNL filter 272 bytes 
TOTAL PREFETCHER STORAGE SIZE: 13014 bytes
CPU 0 L1I next line prefetcher final stats
CPU 0 L1D next line prefetcher final stats

DRAM Statistics
 CHANNEL 0
 RQ ROW_BUFFER_HIT:      49650  ROW_BUFFER_MISS:     148523
 DBUS_CONGESTED:     119900
 WQ ROW_BUFFER_HIT:      15950  ROW_BUFFER_MISS:      64925  FULL:          0

 AVG_CONGESTED_CYCLE: 5

CPU 0 Branch Prediction Accuracy: 97.9037% MPKI: 3.63418 Average ROB Occupancy at Mispredict: 86.5589

Branch types
NOT_BRANCH: 41331383 82.6628%
BRANCH_DIRECT_JUMP: 455615 0.91123%
BRANCH_INDIRECT: 20390 0.04078%
BRANCH_CONDITIONAL: 6745374 13.4907%
BRANCH_DIRECT_CALL: 494532 0.989064%
BRANCH_INDIRECT_CALL: 228815 0.45763%
BRANCH_RETURN: 723560 1.44712%
BRANCH_OTHER: 0 0%

