Initialize SIGNATURE TABLE
ST_SET: 1
ST_WAY: 256
ST_TAG_BIT: 16
ST_TAG_MASK: ffff

Initialize PATTERN TABLE
PT_SET: 512
PT_WAY: 4
SIG_DELTA_BIT: 7
C_SIG_BIT: 4
C_DELTA_BIT: 4

Initialize PREFETCH FILTER
FILTER_SET: 1024

*** ChampSim Multicore Out-of-Order Simulator ***

Warmup Instructions: 50000000
Simulation Instructions: 50000000
Number of CPUs: 1
LLC sets: 2048
LLC ways: 16
Off-chip DRAM Size: 4096 MB Channels: 1 Width: 64-bit Data Rate: 3200 MT/s

CPU 0 runs /Users/gandhardeshpande/Desktop/CSE240C/HW1/ChampSim/ipc1_public/client_005.champsimtrace.xz
CPU 0 L1I next line prefetcher
Running FNL-MMA for L1I
CPU 0 L1D next line prefetcher
Heartbeat CPU 0 instructions: 10000001 cycles: 3292601 heartbeat IPC: 3.03711 cumulative IPC: 3.03711 (Simulation time: 0 hr 0 min 14 sec) 
Heartbeat CPU 0 instructions: 20000002 cycles: 6699466 heartbeat IPC: 2.93525 cumulative IPC: 2.98531 (Simulation time: 0 hr 0 min 28 sec) 
Heartbeat CPU 0 instructions: 30000001 cycles: 10392782 heartbeat IPC: 2.70759 cumulative IPC: 2.88662 (Simulation time: 0 hr 0 min 43 sec) 
Heartbeat CPU 0 instructions: 40000000 cycles: 14070622 heartbeat IPC: 2.71899 cumulative IPC: 2.8428 (Simulation time: 0 hr 0 min 58 sec) 
Heartbeat CPU 0 instructions: 50000001 cycles: 17344114 heartbeat IPC: 3.05484 cumulative IPC: 2.88282 (Simulation time: 0 hr 1 min 12 sec) 

Warmup complete CPU 0 instructions: 50000001 cycles: 17344114 (Simulation time: 0 hr 1 min 12 sec) 

Heartbeat CPU 0 instructions: 60000002 cycles: 25346827 heartbeat IPC: 1.24958 cumulative IPC: 1.24958 (Simulation time: 0 hr 1 min 23 sec) 
Heartbeat CPU 0 instructions: 70000003 cycles: 32797811 heartbeat IPC: 1.3421 cumulative IPC: 1.29419 (Simulation time: 0 hr 1 min 36 sec) 
Heartbeat CPU 0 instructions: 80000001 cycles: 39718596 heartbeat IPC: 1.44492 cumulative IPC: 1.34081 (Simulation time: 0 hr 1 min 49 sec) 
Heartbeat CPU 0 instructions: 90000002 cycles: 49248033 heartbeat IPC: 1.04938 cumulative IPC: 1.25376 (Simulation time: 0 hr 2 min 3 sec) 
Heartbeat CPU 0 instructions: 100000002 cycles: 56976422 heartbeat IPC: 1.29393 cumulative IPC: 1.2616 (Simulation time: 0 hr 2 min 14 sec) 
Finished CPU 0 instructions: 50000001 cycles: 39632308 cumulative IPC: 1.2616 (Simulation time: 0 hr 2 min 14 sec) 

ChampSim completed all CPUs

Region of Interest Statistics

CPU 0 cumulative IPC: 1.2616 instructions: 50000001 cycles: 39632308
L1D TOTAL     ACCESS:   19759912  HIT:   19223902  MISS:     536010
L1D LOAD      ACCESS:    6706632  HIT:    6535414  MISS:     171218
L1D RFO       ACCESS:    6799545  HIT:    6615246  MISS:     184299
L1D PREFETCH  ACCESS:    6253735  HIT:    6073242  MISS:     180493
L1D WRITEBACK ACCESS:          0  HIT:          0  MISS:          0
L1D PREFETCH  REQUESTED:    6730036  ISSUED:    6358218  USEFUL:      60116  USELESS:     120264
L1D AVERAGE MISS LATENCY: 92.4151 cycles
L1I TOTAL     ACCESS:   12029138  HIT:   10841358  MISS:    1187780
L1I LOAD      ACCESS:    9322920  HIT:    9009983  MISS:     312937
L1I RFO       ACCESS:          0  HIT:          0  MISS:          0
L1I PREFETCH  ACCESS:    2706218  HIT:    1831375  MISS:     874843
L1I WRITEBACK ACCESS:          0  HIT:          0  MISS:          0
L1I PREFETCH  REQUESTED:    2881254  ISSUED:    2881254  USEFUL:     499907  USELESS:     374921
L1I AVERAGE MISS LATENCY: 21.1632 cycles
L2C TOTAL     ACCESS:    2568478  HIT:    2148146  MISS:     420332
L2C LOAD      ACCESS:     431743  HIT:     331018  MISS:     100725
L2C RFO       ACCESS:     180709  HIT:      30428  MISS:     150281
L2C PREFETCH  ACCESS:    1702963  HIT:    1534852  MISS:     168111
L2C WRITEBACK ACCESS:     253063  HIT:     251848  MISS:       1215
L2C PREFETCH  REQUESTED:    2013760  ISSUED:    2013327  USEFUL:      15672  USELESS:     150636
L2C AVERAGE MISS LATENCY: 122.373 cycles
LLC TOTAL     ACCESS:     972213  HIT:     662638  MISS:     309575
LLC LOAD      ACCESS:     100710  HIT:      57195  MISS:      43515
LLC RFO       ACCESS:     150276  HIT:      21077  MISS:     129199
LLC PREFETCH  ACCESS:     520111  HIT:     384128  MISS:     135983
LLC WRITEBACK ACCESS:     201116  HIT:     200238  MISS:        878
LLC PREFETCH  REQUESTED:          0  ISSUED:          0  USEFUL:      29018  USELESS:     102290
LLC AVERAGE MISS LATENCY: 169.447 cycles
Major fault: 0 Minor fault: 6093
I-Shadow cache 408 bytes
Touched + WorthPF tables 3072 bytes 
MMA filter 174 bytes 
FNL filter 272 bytes 
TOTAL PREFETCHER STORAGE SIZE: 13014 bytes
CPU 0 L1I next line prefetcher final stats
CPU 0 L1D next line prefetcher final stats

DRAM Statistics
 CHANNEL 0
 RQ ROW_BUFFER_HIT:      99375  ROW_BUFFER_MISS:     209319
 DBUS_CONGESTED:     252838
 WQ ROW_BUFFER_HIT:      51227  ROW_BUFFER_MISS:     132941  FULL:          0

 AVG_CONGESTED_CYCLE: 6

CPU 0 Branch Prediction Accuracy: 97.8666% MPKI: 3.9013 Average ROB Occupancy at Mispredict: 82.9975

Branch types
NOT_BRANCH: 40856330 81.7127%
BRANCH_DIRECT_JUMP: 484667 0.969334%
BRANCH_INDIRECT: 85086 0.170172%
BRANCH_CONDITIONAL: 6230887 12.4618%
BRANCH_DIRECT_CALL: 1028917 2.05783%
BRANCH_INDIRECT_CALL: 141825 0.28365%
BRANCH_RETURN: 1171986 2.34397%
BRANCH_OTHER: 0 0%

