Initialize SIGNATURE TABLE
ST_SET: 1
ST_WAY: 256
ST_TAG_BIT: 16
ST_TAG_MASK: ffff

Initialize PATTERN TABLE
PT_SET: 512
PT_WAY: 4
SIG_DELTA_BIT: 7
C_SIG_BIT: 4
C_DELTA_BIT: 4

Initialize PREFETCH FILTER
FILTER_SET: 1024

*** ChampSim Multicore Out-of-Order Simulator ***

Warmup Instructions: 50000000
Simulation Instructions: 50000000
Number of CPUs: 1
LLC sets: 2048
LLC ways: 16
Off-chip DRAM Size: 4096 MB Channels: 1 Width: 64-bit Data Rate: 3200 MT/s

CPU 0 runs /Users/gandhardeshpande/Desktop/CSE240C/HW1/ChampSim/ipc1_public/server_013.champsimtrace.xz
CPU 0 L1I next line prefetcher
Running FNL-MMA for L1I
CPU 0 L1D next line prefetcher
Heartbeat CPU 0 instructions: 10000000 cycles: 3218275 heartbeat IPC: 3.10725 cumulative IPC: 3.10725 (Simulation time: 0 hr 0 min 14 sec) 
Heartbeat CPU 0 instructions: 20000001 cycles: 6425204 heartbeat IPC: 3.11825 cumulative IPC: 3.11274 (Simulation time: 0 hr 0 min 27 sec) 
Heartbeat CPU 0 instructions: 30000002 cycles: 9635760 heartbeat IPC: 3.11473 cumulative IPC: 3.1134 (Simulation time: 0 hr 0 min 41 sec) 
Heartbeat CPU 0 instructions: 40000002 cycles: 12841684 heartbeat IPC: 3.11923 cumulative IPC: 3.11486 (Simulation time: 0 hr 0 min 55 sec) 
Heartbeat CPU 0 instructions: 50000000 cycles: 16046950 heartbeat IPC: 3.11987 cumulative IPC: 3.11586 (Simulation time: 0 hr 1 min 9 sec) 

Warmup complete CPU 0 instructions: 50000004 cycles: 16046951 (Simulation time: 0 hr 1 min 9 sec) 

Heartbeat CPU 0 instructions: 60000002 cycles: 24594191 heartbeat IPC: 1.16997 cumulative IPC: 1.16997 (Simulation time: 0 hr 1 min 21 sec) 
Heartbeat CPU 0 instructions: 70000002 cycles: 33419125 heartbeat IPC: 1.13315 cumulative IPC: 1.15127 (Simulation time: 0 hr 1 min 33 sec) 
Heartbeat CPU 0 instructions: 80000003 cycles: 41619718 heartbeat IPC: 1.21942 cumulative IPC: 1.17312 (Simulation time: 0 hr 1 min 45 sec) 
Heartbeat CPU 0 instructions: 90000003 cycles: 50029876 heartbeat IPC: 1.18904 cumulative IPC: 1.17706 (Simulation time: 0 hr 1 min 57 sec) 
Heartbeat CPU 0 instructions: 100000003 cycles: 58431381 heartbeat IPC: 1.19026 cumulative IPC: 1.17968 (Simulation time: 0 hr 2 min 9 sec) 
Finished CPU 0 instructions: 50000003 cycles: 42384431 cumulative IPC: 1.17968 (Simulation time: 0 hr 2 min 9 sec) 

ChampSim completed all CPUs

Region of Interest Statistics

CPU 0 cumulative IPC: 1.17968 instructions: 50000003 cycles: 42384431
L1D TOTAL     ACCESS:   17608945  HIT:   16541866  MISS:    1067079
L1D LOAD      ACCESS:    6454310  HIT:    5955488  MISS:     498822
L1D RFO       ACCESS:    4939390  HIT:    4859076  MISS:      80314
L1D PREFETCH  ACCESS:    6215245  HIT:    5727302  MISS:     487943
L1D WRITEBACK ACCESS:          0  HIT:          0  MISS:          0
L1D PREFETCH  REQUESTED:    6491703  ISSUED:    6394789  USEFUL:     136022  USELESS:     351927
L1D AVERAGE MISS LATENCY: 46.3052 cycles
L1I TOTAL     ACCESS:   11893539  HIT:    9388978  MISS:    2504561
L1I LOAD      ACCESS:    8629257  HIT:    8103488  MISS:     525769
L1I RFO       ACCESS:          0  HIT:          0  MISS:          0
L1I PREFETCH  ACCESS:    3264282  HIT:    1285490  MISS:    1978792
L1I WRITEBACK ACCESS:          0  HIT:          0  MISS:          0
L1I PREFETCH  REQUESTED:    3657461  ISSUED:    3656729  USEFUL:    1022847  USELESS:     955927
L1I AVERAGE MISS LATENCY: 32.5823 cycles
L2C TOTAL     ACCESS:    4468414  HIT:    2751968  MISS:    1716446
L2C LOAD      ACCESS:     827767  HIT:     386244  MISS:     441523
L2C RFO       ACCESS:      78871  HIT:      27240  MISS:      51631
L2C PREFETCH  ACCESS:    3285960  HIT:    2065855  MISS:    1220105
L2C WRITEBACK ACCESS:     275816  HIT:     272629  MISS:       3187
L2C PREFETCH  REQUESTED:    4355341  ISSUED:    4352469  USEFUL:      48336  USELESS:    1171828
L2C AVERAGE MISS LATENCY: 51.6697 cycles
LLC TOTAL     ACCESS:    2949357  HIT:    2678075  MISS:     271282
LLC LOAD      ACCESS:     441272  HIT:     396534  MISS:      44738
LLC RFO       ACCESS:      51617  HIT:      39381  MISS:      12236
LLC PREFETCH  ACCESS:    2270883  HIT:    2057198  MISS:     213685
LLC WRITEBACK ACCESS:     185585  HIT:     184962  MISS:        623
LLC PREFETCH  REQUESTED:          0  ISSUED:          0  USEFUL:      16207  USELESS:     196367
LLC AVERAGE MISS LATENCY: 173.293 cycles
Major fault: 0 Minor fault: 6220
I-Shadow cache 408 bytes
Touched + WorthPF tables 3072 bytes 
MMA filter 174 bytes 
FNL filter 272 bytes 
TOTAL PREFETCHER STORAGE SIZE: 13014 bytes
CPU 0 L1I next line prefetcher final stats
CPU 0 L1D next line prefetcher final stats

DRAM Statistics
 CHANNEL 0
 RQ ROW_BUFFER_HIT:      50276  ROW_BUFFER_MISS:     220337
 DBUS_CONGESTED:     120361
 WQ ROW_BUFFER_HIT:      14240  ROW_BUFFER_MISS:      55229  FULL:          0

 AVG_CONGESTED_CYCLE: 5

CPU 0 Branch Prediction Accuracy: 99.4114% MPKI: 1.0933 Average ROB Occupancy at Mispredict: 101.985

Branch types
NOT_BRANCH: 40713245 81.4265%
BRANCH_DIRECT_JUMP: 463701 0.927402%
BRANCH_INDIRECT: 146544 0.293088%
BRANCH_CONDITIONAL: 6981953 13.9639%
BRANCH_DIRECT_CALL: 665005 1.33001%
BRANCH_INDIRECT_CALL: 165152 0.330304%
BRANCH_RETURN: 864312 1.72862%
BRANCH_OTHER: 0 0%

