Initialize SIGNATURE TABLE
ST_SET: 1
ST_WAY: 256
ST_TAG_BIT: 16
ST_TAG_MASK: ffff

Initialize PATTERN TABLE
PT_SET: 512
PT_WAY: 4
SIG_DELTA_BIT: 7
C_SIG_BIT: 4
C_DELTA_BIT: 4

Initialize PREFETCH FILTER
FILTER_SET: 1024

*** ChampSim Multicore Out-of-Order Simulator ***

Warmup Instructions: 50000000
Simulation Instructions: 50000000
Number of CPUs: 1
LLC sets: 2048
LLC ways: 16
Off-chip DRAM Size: 4096 MB Channels: 1 Width: 64-bit Data Rate: 3200 MT/s

CPU 0 runs /Users/gandhardeshpande/Desktop/CSE240C/HW1/ChampSim/ipc1_public/server_009.champsimtrace.xz
CPU 0 L1I next line prefetcher
Running FNL-MMA for L1I
CPU 0 L1D next line prefetcher
Heartbeat CPU 0 instructions: 10000003 cycles: 3202417 heartbeat IPC: 3.12264 cumulative IPC: 3.12264 (Simulation time: 0 hr 0 min 14 sec) 
Heartbeat CPU 0 instructions: 20000001 cycles: 6397825 heartbeat IPC: 3.12949 cumulative IPC: 3.12606 (Simulation time: 0 hr 0 min 28 sec) 
Heartbeat CPU 0 instructions: 30000002 cycles: 9608008 heartbeat IPC: 3.11509 cumulative IPC: 3.1224 (Simulation time: 0 hr 0 min 41 sec) 
Heartbeat CPU 0 instructions: 40000003 cycles: 12815047 heartbeat IPC: 3.11814 cumulative IPC: 3.12133 (Simulation time: 0 hr 0 min 55 sec) 
Heartbeat CPU 0 instructions: 50000000 cycles: 16078381 heartbeat IPC: 3.06435 cumulative IPC: 3.10977 (Simulation time: 0 hr 1 min 9 sec) 

Warmup complete CPU 0 instructions: 50000004 cycles: 16078382 (Simulation time: 0 hr 1 min 9 sec) 

Heartbeat CPU 0 instructions: 60000002 cycles: 32368739 heartbeat IPC: 0.61386 cumulative IPC: 0.61386 (Simulation time: 0 hr 1 min 26 sec) 
Heartbeat CPU 0 instructions: 70000003 cycles: 53634974 heartbeat IPC: 0.470229 cumulative IPC: 0.53253 (Simulation time: 0 hr 1 min 47 sec) 
Heartbeat CPU 0 instructions: 80000000 cycles: 61665752 heartbeat IPC: 1.24521 cumulative IPC: 0.658077 (Simulation time: 0 hr 1 min 59 sec) 
Heartbeat CPU 0 instructions: 90000001 cycles: 69833875 heartbeat IPC: 1.22427 cumulative IPC: 0.74411 (Simulation time: 0 hr 2 min 11 sec) 
Heartbeat CPU 0 instructions: 100000003 cycles: 77941143 heartbeat IPC: 1.23346 cumulative IPC: 0.808241 (Simulation time: 0 hr 2 min 23 sec) 
Finished CPU 0 instructions: 50000003 cycles: 61862762 cumulative IPC: 0.808241 (Simulation time: 0 hr 2 min 23 sec) 

ChampSim completed all CPUs

Region of Interest Statistics

CPU 0 cumulative IPC: 0.808241 instructions: 50000003 cycles: 61862762
L1D TOTAL     ACCESS:   21839631  HIT:   17259669  MISS:    4579962
L1D LOAD      ACCESS:    8732061  HIT:    6453520  MISS:    2278541
L1D RFO       ACCESS:    4587050  HIT:    4482483  MISS:     104567
L1D PREFETCH  ACCESS:    8520520  HIT:    6323666  MISS:    2196854
L1D WRITEBACK ACCESS:          0  HIT:          0  MISS:          0
L1D PREFETCH  REQUESTED:    8766486  ISSUED:    8668008  USEFUL:     108189  USELESS:    2088664
L1D AVERAGE MISS LATENCY: 21.0003 cycles
L1I TOTAL     ACCESS:   13198198  HIT:   11310887  MISS:    1887311
L1I LOAD      ACCESS:   10715057  HIT:   10319673  MISS:     395384
L1I RFO       ACCESS:          0  HIT:          0  MISS:          0
L1I PREFETCH  ACCESS:    2483141  HIT:     991214  MISS:    1491927
L1I WRITEBACK ACCESS:          0  HIT:          0  MISS:          0
L1I PREFETCH  REQUESTED:    2783434  ISSUED:    2783313  USEFUL:     775340  USELESS:     716516
L1I AVERAGE MISS LATENCY: 31.9902 cycles
L2C TOTAL     ACCESS:    8256938  HIT:    6962195  MISS:    1294743
L2C LOAD      ACCESS:    2529776  HIT:    2191342  MISS:     338434
L2C RFO       ACCESS:     103554  HIT:      60961  MISS:      42593
L2C PREFETCH  ACCESS:    5366726  HIT:    4454727  MISS:     911999
L2C WRITEBACK ACCESS:     256882  HIT:     255165  MISS:       1717
L2C PREFETCH  REQUESTED:    7825970  ISSUED:    7822927  USEFUL:      36912  USELESS:     874405
L2C AVERAGE MISS LATENCY: 51.1632 cycles
LLC TOTAL     ACCESS:    2735864  HIT:    2533185  MISS:     202679
LLC LOAD      ACCESS:     338132  HIT:     304764  MISS:      33368
LLC RFO       ACCESS:      42586  HIT:      31309  MISS:      11277
LLC PREFETCH  ACCESS:    2209871  HIT:    2052219  MISS:     157652
LLC WRITEBACK ACCESS:     145275  HIT:     144893  MISS:        382
LLC PREFETCH  REQUESTED:          0  ISSUED:          0  USEFUL:      14051  USELESS:     141727
LLC AVERAGE MISS LATENCY: 172.431 cycles
Major fault: 0 Minor fault: 6374
I-Shadow cache 408 bytes
Touched + WorthPF tables 3072 bytes 
MMA filter 174 bytes 
FNL filter 272 bytes 
TOTAL PREFETCHER STORAGE SIZE: 13014 bytes
CPU 0 L1I next line prefetcher final stats
CPU 0 L1D next line prefetcher final stats

DRAM Statistics
 CHANNEL 0
 RQ ROW_BUFFER_HIT:      41913  ROW_BUFFER_MISS:     160351
 DBUS_CONGESTED:      91600
 WQ ROW_BUFFER_HIT:      10681  ROW_BUFFER_MISS:      42259  FULL:          0

 AVG_CONGESTED_CYCLE: 5

CPU 0 Branch Prediction Accuracy: 99.4713% MPKI: 1.11484 Average ROB Occupancy at Mispredict: 103.16

Branch types
NOT_BRANCH: 39456615 78.9132%
BRANCH_DIRECT_JUMP: 445350 0.8907%
BRANCH_INDIRECT: 131149 0.262298%
BRANCH_CONDITIONAL: 8130196 16.2604%
BRANCH_DIRECT_CALL: 732485 1.46497%
BRANCH_INDIRECT_CALL: 172369 0.344738%
BRANCH_RETURN: 931558 1.86312%
BRANCH_OTHER: 0 0%

