Initialize SIGNATURE TABLE
ST_SET: 1
ST_WAY: 256
ST_TAG_BIT: 16
ST_TAG_MASK: ffff

Initialize PATTERN TABLE
PT_SET: 512
PT_WAY: 4
SIG_DELTA_BIT: 7
C_SIG_BIT: 4
C_DELTA_BIT: 4

Initialize PREFETCH FILTER
FILTER_SET: 1024

*** ChampSim Multicore Out-of-Order Simulator ***

Warmup Instructions: 50000000
Simulation Instructions: 50000000
Number of CPUs: 1
LLC sets: 2048
LLC ways: 16
Off-chip DRAM Size: 4096 MB Channels: 1 Width: 64-bit Data Rate: 3200 MT/s

CPU 0 runs /Users/gandhardeshpande/Desktop/CSE240C/HW1/ChampSim/ipc1_public/spec_gobmk_001.champsimtrace.xz
CPU 0 L1I next line prefetcher
Running FNL-MMA for L1I
CPU 0 L1D next line prefetcher
Heartbeat CPU 0 instructions: 10000003 cycles: 3510236 heartbeat IPC: 2.84881 cumulative IPC: 2.84881 (Simulation time: 0 hr 0 min 12 sec) 
Heartbeat CPU 0 instructions: 20000002 cycles: 6993016 heartbeat IPC: 2.87127 cumulative IPC: 2.86 (Simulation time: 0 hr 0 min 25 sec) 
Heartbeat CPU 0 instructions: 30000002 cycles: 10512574 heartbeat IPC: 2.84127 cumulative IPC: 2.85373 (Simulation time: 0 hr 0 min 37 sec) 
Heartbeat CPU 0 instructions: 40000001 cycles: 14031865 heartbeat IPC: 2.84148 cumulative IPC: 2.85065 (Simulation time: 0 hr 0 min 49 sec) 
Heartbeat CPU 0 instructions: 50000001 cycles: 17572253 heartbeat IPC: 2.82455 cumulative IPC: 2.8454 (Simulation time: 0 hr 1 min 2 sec) 

Warmup complete CPU 0 instructions: 50000001 cycles: 17572253 (Simulation time: 0 hr 1 min 2 sec) 

Heartbeat CPU 0 instructions: 60000000 cycles: 26553870 heartbeat IPC: 1.11339 cumulative IPC: 1.11339 (Simulation time: 0 hr 1 min 11 sec) 
Heartbeat CPU 0 instructions: 70000002 cycles: 35196294 heartbeat IPC: 1.15708 cumulative IPC: 1.13481 (Simulation time: 0 hr 1 min 19 sec) 
Heartbeat CPU 0 instructions: 80000003 cycles: 44212763 heartbeat IPC: 1.10908 cumulative IPC: 1.1261 (Simulation time: 0 hr 1 min 28 sec) 
Heartbeat CPU 0 instructions: 90000001 cycles: 52867882 heartbeat IPC: 1.15539 cumulative IPC: 1.13328 (Simulation time: 0 hr 1 min 37 sec) 
Heartbeat CPU 0 instructions: 100000003 cycles: 61868947 heartbeat IPC: 1.11098 cumulative IPC: 1.12875 (Simulation time: 0 hr 1 min 46 sec) 
Finished CPU 0 instructions: 50000002 cycles: 44296694 cumulative IPC: 1.12875 (Simulation time: 0 hr 1 min 46 sec) 

ChampSim completed all CPUs

Region of Interest Statistics

CPU 0 cumulative IPC: 1.12875 instructions: 50000002 cycles: 44296694
L1D TOTAL     ACCESS:   18059466  HIT:   17679863  MISS:     379603
L1D LOAD      ACCESS:    7247174  HIT:    7112818  MISS:     134356
L1D RFO       ACCESS:    3703697  HIT:    3599189  MISS:     104508
L1D PREFETCH  ACCESS:    7108595  HIT:    6967856  MISS:     140739
L1D WRITEBACK ACCESS:          0  HIT:          0  MISS:          0
L1D PREFETCH  REQUESTED:    7252453  ISSUED:    7169575  USEFUL:      46007  USELESS:      94738
L1D AVERAGE MISS LATENCY: 32.9253 cycles
L1I TOTAL     ACCESS:   11911084  HIT:   10729071  MISS:    1182013
L1I LOAD      ACCESS:    8971139  HIT:    8753215  MISS:     217924
L1I RFO       ACCESS:          0  HIT:          0  MISS:          0
L1I PREFETCH  ACCESS:    2939945  HIT:    1975856  MISS:     964089
L1I WRITEBACK ACCESS:          0  HIT:          0  MISS:          0
L1I PREFETCH  REQUESTED:    3086170  ISSUED:    3086167  USEFUL:     498814  USELESS:     465249
L1I AVERAGE MISS LATENCY: 14.8025 cycles
L2C TOTAL     ACCESS:    2443998  HIT:    2317182  MISS:     126816
L2C LOAD      ACCESS:     301924  HIT:     264758  MISS:      37166
L2C RFO       ACCESS:     104181  HIT:      70615  MISS:      33566
L2C PREFETCH  ACCESS:    1898577  HIT:    1842514  MISS:      56063
L2C WRITEBACK ACCESS:     139316  HIT:     139295  MISS:         21
L2C PREFETCH  REQUESTED:    1967124  ISSUED:    1967009  USEFUL:       5213  USELESS:      51327
L2C AVERAGE MISS LATENCY: 63.0126 cycles
LLC TOTAL     ACCESS:     318851  HIT:     279094  MISS:      39757
LLC LOAD      ACCESS:      37164  HIT:      28950  MISS:       8214
LLC RFO       ACCESS:      33566  HIT:      27585  MISS:       5981
LLC PREFETCH  ACCESS:     204018  HIT:     178777  MISS:      25241
LLC WRITEBACK ACCESS:      44103  HIT:      43782  MISS:        321
LLC PREFETCH  REQUESTED:          0  ISSUED:          0  USEFUL:       1578  USELESS:      21805
LLC AVERAGE MISS LATENCY: 178.465 cycles
Major fault: 0 Minor fault: 4160
I-Shadow cache 408 bytes
Touched + WorthPF tables 3072 bytes 
MMA filter 174 bytes 
FNL filter 272 bytes 
TOTAL PREFETCHER STORAGE SIZE: 13014 bytes
CPU 0 L1I next line prefetcher final stats
CPU 0 L1D next line prefetcher final stats

DRAM Statistics
 CHANNEL 0
 RQ ROW_BUFFER_HIT:       4323  ROW_BUFFER_MISS:      35113
 DBUS_CONGESTED:      25507
 WQ ROW_BUFFER_HIT:       1309  ROW_BUFFER_MISS:      15113  FULL:          0

 AVG_CONGESTED_CYCLE: 5

CPU 0 Branch Prediction Accuracy: 94.7729% MPKI: 9.72684 Average ROB Occupancy at Mispredict: 52.3265

Branch types
NOT_BRANCH: 40695383 81.3908%
BRANCH_DIRECT_JUMP: 422107 0.844214%
BRANCH_INDIRECT: 65 0.00013%
BRANCH_CONDITIONAL: 8105005 16.21%
BRANCH_DIRECT_CALL: 374913 0.749826%
BRANCH_INDIRECT_CALL: 13657 0.027314%
BRANCH_RETURN: 388556 0.777112%
BRANCH_OTHER: 0 0%

