Initialize SIGNATURE TABLE
ST_SET: 1
ST_WAY: 256
ST_TAG_BIT: 16
ST_TAG_MASK: ffff

Initialize PATTERN TABLE
PT_SET: 512
PT_WAY: 4
SIG_DELTA_BIT: 7
C_SIG_BIT: 4
C_DELTA_BIT: 4

Initialize PREFETCH FILTER
FILTER_SET: 1024

*** ChampSim Multicore Out-of-Order Simulator ***

Warmup Instructions: 50000000
Simulation Instructions: 50000000
Number of CPUs: 1
LLC sets: 2048
LLC ways: 16
Off-chip DRAM Size: 4096 MB Channels: 1 Width: 64-bit Data Rate: 3200 MT/s

CPU 0 runs /Users/gandhardeshpande/Desktop/CSE240C/HW1/ChampSim/ipc1_public/spec_gcc_001.champsimtrace.xz
CPU 0 L1I next line prefetcher
Running FNL-MMA for L1I
CPU 0 L1D next line prefetcher
Heartbeat CPU 0 instructions: 10000003 cycles: 3219446 heartbeat IPC: 3.10613 cumulative IPC: 3.10613 (Simulation time: 0 hr 0 min 13 sec) 
Heartbeat CPU 0 instructions: 20000002 cycles: 6464308 heartbeat IPC: 3.08179 cumulative IPC: 3.09391 (Simulation time: 0 hr 0 min 27 sec) 
Heartbeat CPU 0 instructions: 30000000 cycles: 9665251 heartbeat IPC: 3.12408 cumulative IPC: 3.1039 (Simulation time: 0 hr 0 min 40 sec) 
Heartbeat CPU 0 instructions: 40000001 cycles: 12907041 heartbeat IPC: 3.08472 cumulative IPC: 3.09908 (Simulation time: 0 hr 0 min 52 sec) 
Heartbeat CPU 0 instructions: 50000001 cycles: 16147875 heartbeat IPC: 3.08563 cumulative IPC: 3.09638 (Simulation time: 0 hr 1 min 6 sec) 

Warmup complete CPU 0 instructions: 50000001 cycles: 16147875 (Simulation time: 0 hr 1 min 6 sec) 

Heartbeat CPU 0 instructions: 60000000 cycles: 23936628 heartbeat IPC: 1.2839 cumulative IPC: 1.2839 (Simulation time: 0 hr 1 min 17 sec) 
Heartbeat CPU 0 instructions: 70000002 cycles: 31840580 heartbeat IPC: 1.26519 cumulative IPC: 1.27448 (Simulation time: 0 hr 1 min 29 sec) 
Heartbeat CPU 0 instructions: 80000000 cycles: 39403704 heartbeat IPC: 1.3222 cumulative IPC: 1.29 (Simulation time: 0 hr 1 min 40 sec) 
Heartbeat CPU 0 instructions: 90000001 cycles: 47298978 heartbeat IPC: 1.26658 cumulative IPC: 1.28406 (Simulation time: 0 hr 1 min 52 sec) 
Heartbeat CPU 0 instructions: 100000000 cycles: 55520569 heartbeat IPC: 1.21631 cumulative IPC: 1.26992 (Simulation time: 0 hr 2 min 4 sec) 
Finished CPU 0 instructions: 50000000 cycles: 39372698 cumulative IPC: 1.26992 (Simulation time: 0 hr 2 min 4 sec) 

ChampSim completed all CPUs

Region of Interest Statistics

CPU 0 cumulative IPC: 1.26992 instructions: 50000000 cycles: 39372698
L1D TOTAL     ACCESS:   19352840  HIT:   18247657  MISS:    1105183
L1D LOAD      ACCESS:    7247854  HIT:    6768003  MISS:     479851
L1D RFO       ACCESS:    5117867  HIT:    5038268  MISS:      79599
L1D PREFETCH  ACCESS:    6987119  HIT:    6441386  MISS:     545733
L1D WRITEBACK ACCESS:          0  HIT:          0  MISS:          0
L1D PREFETCH  REQUESTED:    7292337  ISSUED:    7194282  USEFUL:     275485  USELESS:     270260
L1D AVERAGE MISS LATENCY: 25.9438 cycles
L1I TOTAL     ACCESS:   10894928  HIT:   10382812  MISS:     512116
L1I LOAD      ACCESS:    9286023  HIT:    9154438  MISS:     131585
L1I RFO       ACCESS:          0  HIT:          0  MISS:          0
L1I PREFETCH  ACCESS:    1608905  HIT:    1228374  MISS:     380531
L1I WRITEBACK ACCESS:          0  HIT:          0  MISS:          0
L1I PREFETCH  REQUESTED:    1688222  ISSUED:    1688222  USEFUL:     219718  USELESS:     160819
L1I AVERAGE MISS LATENCY: 23.2679 cycles
L2C TOTAL     ACCESS:    2737960  HIT:    2460506  MISS:     277454
L2C LOAD      ACCESS:     566510  HIT:     477074  MISS:      89436
L2C RFO       ACCESS:      75012  HIT:      35644  MISS:      39368
L2C PREFETCH  ACCESS:    1842672  HIT:    1694658  MISS:     148014
L2C WRITEBACK ACCESS:     253766  HIT:     253130  MISS:        636
L2C PREFETCH  REQUESTED:    1981415  ISSUED:    1981261  USEFUL:      34520  USELESS:     113320
L2C AVERAGE MISS LATENCY: 65.7359 cycles
LLC TOTAL     ACCESS:     674933  HIT:     596315  MISS:      78618
LLC LOAD      ACCESS:      89229  HIT:      80198  MISS:       9031
LLC RFO       ACCESS:      39366  HIT:      18567  MISS:      20799
LLC PREFETCH  ACCESS:     450557  HIT:     402672  MISS:      47885
LLC WRITEBACK ACCESS:      95781  HIT:      94878  MISS:        903
LLC PREFETCH  REQUESTED:          0  ISSUED:          0  USEFUL:      11247  USELESS:      41161
LLC AVERAGE MISS LATENCY: 192.271 cycles
Major fault: 0 Minor fault: 6879
I-Shadow cache 408 bytes
Touched + WorthPF tables 3072 bytes 
MMA filter 174 bytes 
FNL filter 272 bytes 
TOTAL PREFETCHER STORAGE SIZE: 13014 bytes
CPU 0 L1I next line prefetcher final stats
CPU 0 L1D next line prefetcher final stats

DRAM Statistics
 CHANNEL 0
 RQ ROW_BUFFER_HIT:      21994  ROW_BUFFER_MISS:      55715
 DBUS_CONGESTED:      48149
 WQ ROW_BUFFER_HIT:       3871  ROW_BUFFER_MISS:      24383  FULL:          0

 AVG_CONGESTED_CYCLE: 6

CPU 0 Branch Prediction Accuracy: 95.8872% MPKI: 9.67286 Average ROB Occupancy at Mispredict: 66.063

Branch types
NOT_BRANCH: 38240102 76.4802%
BRANCH_DIRECT_JUMP: 653296 1.30659%
BRANCH_INDIRECT: 37098 0.074196%
BRANCH_CONDITIONAL: 8897819 17.7956%
BRANCH_DIRECT_CALL: 992620 1.98524%
BRANCH_INDIRECT_CALL: 93046 0.186092%
BRANCH_RETURN: 1085674 2.17135%
BRANCH_OTHER: 0 0%

