Initialize SIGNATURE TABLE
ST_SET: 1
ST_WAY: 256
ST_TAG_BIT: 16
ST_TAG_MASK: ffff

Initialize PATTERN TABLE
PT_SET: 512
PT_WAY: 4
SIG_DELTA_BIT: 7
C_SIG_BIT: 4
C_DELTA_BIT: 4

Initialize PREFETCH FILTER
FILTER_SET: 1024

*** ChampSim Multicore Out-of-Order Simulator ***

Warmup Instructions: 50000000
Simulation Instructions: 50000000
Number of CPUs: 1
LLC sets: 2048
LLC ways: 16
Off-chip DRAM Size: 4096 MB Channels: 1 Width: 64-bit Data Rate: 3200 MT/s

CPU 0 runs /Users/gandhardeshpande/Desktop/CSE240C/HW1/ChampSim/ipc1_public/client_005.champsimtrace.xz
CPU 0 L1I next line prefetcher
Running FNL-MMA for L1I
CPU 0 L1D next line prefetcher
Heartbeat CPU 0 instructions: 10000001 cycles: 3292179 heartbeat IPC: 3.0375 cumulative IPC: 3.0375 (Simulation time: 0 hr 0 min 14 sec) 
Heartbeat CPU 0 instructions: 20000002 cycles: 6699326 heartbeat IPC: 2.93501 cumulative IPC: 2.98538 (Simulation time: 0 hr 0 min 28 sec) 
Heartbeat CPU 0 instructions: 30000001 cycles: 10392642 heartbeat IPC: 2.70759 cumulative IPC: 2.88666 (Simulation time: 0 hr 0 min 43 sec) 
Heartbeat CPU 0 instructions: 40000000 cycles: 14070502 heartbeat IPC: 2.71897 cumulative IPC: 2.84283 (Simulation time: 0 hr 0 min 58 sec) 
Heartbeat CPU 0 instructions: 50000001 cycles: 17344060 heartbeat IPC: 3.05478 cumulative IPC: 2.88283 (Simulation time: 0 hr 1 min 12 sec) 

Warmup complete CPU 0 instructions: 50000001 cycles: 17344060 (Simulation time: 0 hr 1 min 12 sec) 

Heartbeat CPU 0 instructions: 60000002 cycles: 25187868 heartbeat IPC: 1.27489 cumulative IPC: 1.27489 (Simulation time: 0 hr 1 min 24 sec) 
Heartbeat CPU 0 instructions: 70000003 cycles: 32572309 heartbeat IPC: 1.3542 cumulative IPC: 1.31335 (Simulation time: 0 hr 1 min 37 sec) 
Heartbeat CPU 0 instructions: 80000001 cycles: 39485543 heartbeat IPC: 1.4465 cumulative IPC: 1.35492 (Simulation time: 0 hr 1 min 50 sec) 
Heartbeat CPU 0 instructions: 90000002 cycles: 49001450 heartbeat IPC: 1.05087 cumulative IPC: 1.26353 (Simulation time: 0 hr 2 min 5 sec) 
Heartbeat CPU 0 instructions: 100000002 cycles: 56643141 heartbeat IPC: 1.30861 cumulative IPC: 1.27229 (Simulation time: 0 hr 2 min 16 sec) 
Finished CPU 0 instructions: 50000001 cycles: 39299081 cumulative IPC: 1.27229 (Simulation time: 0 hr 2 min 16 sec) 

ChampSim completed all CPUs

Region of Interest Statistics

CPU 0 cumulative IPC: 1.27229 instructions: 50000001 cycles: 39299081
L1D TOTAL     ACCESS:   19720527  HIT:   19184559  MISS:     535968
L1D LOAD      ACCESS:    6686593  HIT:    6515339  MISS:     171254
L1D RFO       ACCESS:    6799284  HIT:    6614927  MISS:     184357
L1D PREFETCH  ACCESS:    6234650  HIT:    6054293  MISS:     180357
L1D WRITEBACK ACCESS:          0  HIT:          0  MISS:          0
L1D PREFETCH  REQUESTED:    6709958  ISSUED:    6338693  USEFUL:      60025  USELESS:     120219
L1D AVERAGE MISS LATENCY: 91.9699 cycles
L1I TOTAL     ACCESS:   11979303  HIT:   10875535  MISS:    1103768
L1I LOAD      ACCESS:    9317168  HIT:    9055892  MISS:     261276
L1I RFO       ACCESS:          0  HIT:          0  MISS:          0
L1I PREFETCH  ACCESS:    2662135  HIT:    1819643  MISS:     842492
L1I WRITEBACK ACCESS:          0  HIT:          0  MISS:          0
L1I PREFETCH  REQUESTED:    2807815  ISSUED:    2807815  USEFUL:     527097  USELESS:     315351
L1I AVERAGE MISS LATENCY: 20.9059 cycles
L2C TOTAL     ACCESS:    2438314  HIT:    2038035  MISS:     400279
L2C LOAD      ACCESS:     387194  HIT:     291493  MISS:      95701
L2C RFO       ACCESS:     180740  HIT:      31362  MISS:     149378
L2C PREFETCH  ACCESS:    1617314  HIT:    1463204  MISS:     154110
L2C WRITEBACK ACCESS:     253066  HIT:     251976  MISS:       1090
L2C PREFETCH  REQUESTED:    1882380  ISSUED:    1881818  USEFUL:      15012  USELESS:     137343
L2C AVERAGE MISS LATENCY: 125.17 cycles
LLC TOTAL     ACCESS:     967061  HIT:     660488  MISS:     306573
LLC LOAD      ACCESS:      95675  HIT:      52538  MISS:      43137
LLC RFO       ACCESS:     149372  HIT:      20092  MISS:     129280
LLC PREFETCH  ACCESS:     522278  HIT:     389030  MISS:     133248
LLC WRITEBACK ACCESS:     199736  HIT:     198828  MISS:        908
LLC PREFETCH  REQUESTED:          0  ISSUED:          0  USEFUL:      28802  USELESS:      99823
LLC AVERAGE MISS LATENCY: 168.633 cycles
Major fault: 0 Minor fault: 6093
I-Shadow cache 408 bytes
Touched + WorthPF tables 6144 bytes 
MMA filter 174 bytes 
FNL filter 272 bytes 
TOTAL PREFETCHER STORAGE SIZE: 25174 bytes
CPU 0 L1I next line prefetcher final stats
CPU 0 L1D next line prefetcher final stats

DRAM Statistics
 CHANNEL 0
 RQ ROW_BUFFER_HIT:      98466  ROW_BUFFER_MISS:     207194
 DBUS_CONGESTED:     250407
 WQ ROW_BUFFER_HIT:      50870  ROW_BUFFER_MISS:     132937  FULL:          0

 AVG_CONGESTED_CYCLE: 6

CPU 0 Branch Prediction Accuracy: 97.8666% MPKI: 3.9013 Average ROB Occupancy at Mispredict: 84.5391

Branch types
NOT_BRANCH: 40856330 81.7127%
BRANCH_DIRECT_JUMP: 484667 0.969334%
BRANCH_INDIRECT: 85086 0.170172%
BRANCH_CONDITIONAL: 6230887 12.4618%
BRANCH_DIRECT_CALL: 1028917 2.05783%
BRANCH_INDIRECT_CALL: 141825 0.28365%
BRANCH_RETURN: 1171986 2.34397%
BRANCH_OTHER: 0 0%

