Initialize SIGNATURE TABLE
ST_SET: 1
ST_WAY: 256
ST_TAG_BIT: 16
ST_TAG_MASK: ffff

Initialize PATTERN TABLE
PT_SET: 512
PT_WAY: 4
SIG_DELTA_BIT: 7
C_SIG_BIT: 4
C_DELTA_BIT: 4

Initialize PREFETCH FILTER
FILTER_SET: 1024

*** ChampSim Multicore Out-of-Order Simulator ***

Warmup Instructions: 50000000
Simulation Instructions: 50000000
Number of CPUs: 1
LLC sets: 2048
LLC ways: 16
Off-chip DRAM Size: 4096 MB Channels: 1 Width: 64-bit Data Rate: 3200 MT/s

CPU 0 runs /Users/gandhardeshpande/Desktop/CSE240C/HW1/ChampSim/ipc1_public/server_024.champsimtrace.xz
CPU 0 L1I next line prefetcher
Running FNL-MMA for L1I
CPU 0 L1D next line prefetcher
Heartbeat CPU 0 instructions: 10000000 cycles: 3502981 heartbeat IPC: 2.85471 cumulative IPC: 2.85471 (Simulation time: 0 hr 0 min 15 sec) 
Heartbeat CPU 0 instructions: 20000002 cycles: 6997725 heartbeat IPC: 2.86144 cumulative IPC: 2.85807 (Simulation time: 0 hr 0 min 30 sec) 
Heartbeat CPU 0 instructions: 30000000 cycles: 10504243 heartbeat IPC: 2.85183 cumulative IPC: 2.85599 (Simulation time: 0 hr 0 min 44 sec) 
Heartbeat CPU 0 instructions: 40000000 cycles: 14008029 heartbeat IPC: 2.85406 cumulative IPC: 2.85551 (Simulation time: 0 hr 1 min 0 sec) 
Heartbeat CPU 0 instructions: 50000001 cycles: 17502242 heartbeat IPC: 2.86188 cumulative IPC: 2.85678 (Simulation time: 0 hr 1 min 14 sec) 

Warmup complete CPU 0 instructions: 50000001 cycles: 17502242 (Simulation time: 0 hr 1 min 14 sec) 

Heartbeat CPU 0 instructions: 60000002 cycles: 24444615 heartbeat IPC: 1.44043 cumulative IPC: 1.44043 (Simulation time: 0 hr 1 min 29 sec) 
Heartbeat CPU 0 instructions: 70000000 cycles: 31444239 heartbeat IPC: 1.42865 cumulative IPC: 1.43451 (Simulation time: 0 hr 1 min 44 sec) 
*** Reached end of trace for Core: 0 Repeating trace: /Users/gandhardeshpande/Desktop/CSE240C/HW1/ChampSim/ipc1_public/server_024.champsimtrace.xz
Heartbeat CPU 0 instructions: 80000003 cycles: 38404669 heartbeat IPC: 1.43669 cumulative IPC: 1.43524 (Simulation time: 0 hr 1 min 59 sec) 
Heartbeat CPU 0 instructions: 90000003 cycles: 45422064 heartbeat IPC: 1.42503 cumulative IPC: 1.43267 (Simulation time: 0 hr 2 min 13 sec) 
Heartbeat CPU 0 instructions: 100000002 cycles: 52406096 heartbeat IPC: 1.43184 cumulative IPC: 1.43251 (Simulation time: 0 hr 2 min 29 sec) 
Finished CPU 0 instructions: 50000001 cycles: 34903854 cumulative IPC: 1.43251 (Simulation time: 0 hr 2 min 29 sec) 

ChampSim completed all CPUs

Region of Interest Statistics

CPU 0 cumulative IPC: 1.43251 instructions: 50000001 cycles: 34903854
L1D TOTAL     ACCESS:   19779891  HIT:   18262203  MISS:    1517688
L1D LOAD      ACCESS:    6978951  HIT:    6297698  MISS:     681253
L1D RFO       ACCESS:    6151056  HIT:    5877059  MISS:     273997
L1D PREFETCH  ACCESS:    6649884  HIT:    6087446  MISS:     562438
L1D WRITEBACK ACCESS:          0  HIT:          0  MISS:          0
L1D PREFETCH  REQUESTED:    7035104  ISSUED:    6915605  USEFUL:     135013  USELESS:     427430
L1D AVERAGE MISS LATENCY: 26.8601 cycles
L1I TOTAL     ACCESS:   14374880  HIT:   10480567  MISS:    3894313
L1I LOAD      ACCESS:    9275633  HIT:    9006743  MISS:     268890
L1I RFO       ACCESS:          0  HIT:          0  MISS:          0
L1I PREFETCH  ACCESS:    5099247  HIT:    1473824  MISS:    3625423
L1I WRITEBACK ACCESS:          0  HIT:          0  MISS:          0
L1I PREFETCH  REQUESTED:    5340849  ISSUED:    5340408  USEFUL:    2370842  USELESS:    1254573
L1I AVERAGE MISS LATENCY: 19.3961 cycles
L2C TOTAL     ACCESS:    7279722  HIT:    6262693  MISS:    1017029
L2C LOAD      ACCESS:     800828  HIT:     604041  MISS:     196787
L2C RFO       ACCESS:     272073  HIT:     173998  MISS:      98075
L2C PREFETCH  ACCESS:    5686629  HIT:    4973140  MISS:     713489
L2C WRITEBACK ACCESS:     520192  HIT:     511514  MISS:       8678
L2C PREFETCH  REQUESTED:    7206491  ISSUED:    7196547  USEFUL:      26479  USELESS:     686619
L2C AVERAGE MISS LATENCY: 41.2009 cycles
LLC TOTAL     ACCESS:    2664317  HIT:    2610132  MISS:      54185
LLC LOAD      ACCESS:     196415  HIT:     190585  MISS:       5830
LLC RFO       ACCESS:      98031  HIT:      75991  MISS:      22040
LLC PREFETCH  ACCESS:    2202094  HIT:    2175991  MISS:      26103
LLC WRITEBACK ACCESS:     167777  HIT:     167565  MISS:        212
LLC PREFETCH  REQUESTED:          0  ISSUED:          0  USEFUL:       2369  USELESS:      23249
LLC AVERAGE MISS LATENCY: 195.783 cycles
Major fault: 0 Minor fault: 2366
I-Shadow cache 408 bytes
Touched + WorthPF tables 6144 bytes 
MMA filter 174 bytes 
FNL filter 272 bytes 
TOTAL PREFETCHER STORAGE SIZE: 25174 bytes
CPU 0 L1I next line prefetcher final stats
CPU 0 L1D next line prefetcher final stats

DRAM Statistics
 CHANNEL 0
 RQ ROW_BUFFER_HIT:      18099  ROW_BUFFER_MISS:      35851
 DBUS_CONGESTED:      39508
 WQ ROW_BUFFER_HIT:       2871  ROW_BUFFER_MISS:      23167  FULL:          0

 AVG_CONGESTED_CYCLE: 6

CPU 0 Branch Prediction Accuracy: 99.7477% MPKI: 0.46156 Average ROB Occupancy at Mispredict: 163.803

Branch types
NOT_BRANCH: 40853643 81.7073%
BRANCH_DIRECT_JUMP: 566817 1.13363%
BRANCH_INDIRECT: 197171 0.394342%
BRANCH_CONDITIONAL: 6308411 12.6168%
BRANCH_DIRECT_CALL: 876400 1.7528%
BRANCH_INDIRECT_CALL: 160491 0.320982%
BRANCH_RETURN: 1036885 2.07377%
BRANCH_OTHER: 0 0%

