Initialize SIGNATURE TABLE
ST_SET: 1
ST_WAY: 256
ST_TAG_BIT: 16
ST_TAG_MASK: ffff

Initialize PATTERN TABLE
PT_SET: 512
PT_WAY: 4
SIG_DELTA_BIT: 7
C_SIG_BIT: 4
C_DELTA_BIT: 4

Initialize PREFETCH FILTER
FILTER_SET: 1024

*** ChampSim Multicore Out-of-Order Simulator ***

Warmup Instructions: 50000000
Simulation Instructions: 50000000
Number of CPUs: 1
LLC sets: 2048
LLC ways: 16
Off-chip DRAM Size: 4096 MB Channels: 1 Width: 64-bit Data Rate: 3200 MT/s

CPU 0 runs /Users/gandhardeshpande/Desktop/CSE240C/HW1/ChampSim/ipc1_public/server_025.champsimtrace.xz
CPU 0 L1I next line prefetcher
Running FNL-MMA for L1I
CPU 0 L1D next line prefetcher
Heartbeat CPU 0 instructions: 10000003 cycles: 3530994 heartbeat IPC: 2.83206 cumulative IPC: 2.83206 (Simulation time: 0 hr 0 min 15 sec) 
Heartbeat CPU 0 instructions: 20000000 cycles: 7068763 heartbeat IPC: 2.82664 cumulative IPC: 2.82935 (Simulation time: 0 hr 0 min 30 sec) 
Heartbeat CPU 0 instructions: 30000001 cycles: 10600066 heartbeat IPC: 2.83182 cumulative IPC: 2.83017 (Simulation time: 0 hr 0 min 45 sec) 
Heartbeat CPU 0 instructions: 40000003 cycles: 14137835 heartbeat IPC: 2.82664 cumulative IPC: 2.82929 (Simulation time: 0 hr 1 min 0 sec) 
Heartbeat CPU 0 instructions: 50000001 cycles: 17673719 heartbeat IPC: 2.82815 cumulative IPC: 2.82906 (Simulation time: 0 hr 1 min 16 sec) 

Warmup complete CPU 0 instructions: 50000001 cycles: 17673719 (Simulation time: 0 hr 1 min 16 sec) 

Heartbeat CPU 0 instructions: 60000002 cycles: 24706076 heartbeat IPC: 1.422 cumulative IPC: 1.422 (Simulation time: 0 hr 1 min 31 sec) 
Heartbeat CPU 0 instructions: 70000000 cycles: 31878780 heartbeat IPC: 1.39417 cumulative IPC: 1.40795 (Simulation time: 0 hr 1 min 47 sec) 
Heartbeat CPU 0 instructions: 80000002 cycles: 38943780 heartbeat IPC: 1.41543 cumulative IPC: 1.41043 (Simulation time: 0 hr 2 min 2 sec) 
Heartbeat CPU 0 instructions: 90000001 cycles: 45631676 heartbeat IPC: 1.49524 cumulative IPC: 1.43072 (Simulation time: 0 hr 2 min 17 sec) 
Heartbeat CPU 0 instructions: 100000003 cycles: 51988347 heartbeat IPC: 1.57315 cumulative IPC: 1.4571 (Simulation time: 0 hr 2 min 32 sec) 
Finished CPU 0 instructions: 50000002 cycles: 34314628 cumulative IPC: 1.4571 (Simulation time: 0 hr 2 min 32 sec) 

ChampSim completed all CPUs

Region of Interest Statistics

CPU 0 cumulative IPC: 1.4571 instructions: 50000002 cycles: 34314628
L1D TOTAL     ACCESS:   20095218  HIT:   18669801  MISS:    1425417
L1D LOAD      ACCESS:    7014709  HIT:    6395177  MISS:     619532
L1D RFO       ACCESS:    6378650  HIT:    6130487  MISS:     248163
L1D PREFETCH  ACCESS:    6701859  HIT:    6144137  MISS:     557722
L1D WRITEBACK ACCESS:          0  HIT:          0  MISS:          0
L1D PREFETCH  REQUESTED:    7056535  ISSUED:    6882817  USEFUL:     130562  USELESS:     427155
L1D AVERAGE MISS LATENCY: 24.9767 cycles
L1I TOTAL     ACCESS:   14425369  HIT:   10674334  MISS:    3751035
L1I LOAD      ACCESS:    9450445  HIT:    9207162  MISS:     243283
L1I RFO       ACCESS:          0  HIT:          0  MISS:          0
L1I PREFETCH  ACCESS:    4974924  HIT:    1467172  MISS:    3507752
L1I WRITEBACK ACCESS:          0  HIT:          0  MISS:          0
L1I PREFETCH  REQUESTED:    5205695  ISSUED:    5204167  USEFUL:    2317304  USELESS:    1190457
L1I AVERAGE MISS LATENCY: 19.7832 cycles
L2C TOTAL     ACCESS:    6893170  HIT:    5889013  MISS:    1004157
L2C LOAD      ACCESS:     752582  HIT:     570336  MISS:     182246
L2C RFO       ACCESS:     246576  HIT:     156602  MISS:      89974
L2C PREFETCH  ACCESS:    5397246  HIT:    4671486  MISS:     725760
L2C WRITEBACK ACCESS:     496766  HIT:     490589  MISS:       6177
L2C PREFETCH  REQUESTED:    6288265  ISSUED:    6274254  USEFUL:      23355  USELESS:     702131
L2C AVERAGE MISS LATENCY: 37.311 cycles
LLC TOTAL     ACCESS:    2535743  HIT:    2502252  MISS:      33491
LLC LOAD      ACCESS:     182064  HIT:     178491  MISS:       3573
LLC RFO       ACCESS:      89847  HIT:      79118  MISS:      10729
LLC PREFETCH  ACCESS:    2105860  HIT:    2086867  MISS:      18993
LLC WRITEBACK ACCESS:     157972  HIT:     157776  MISS:        196
LLC PREFETCH  REQUESTED:          0  ISSUED:          0  USEFUL:       1334  USELESS:      16194
LLC AVERAGE MISS LATENCY: 177.209 cycles
Major fault: 0 Minor fault: 2461
I-Shadow cache 408 bytes
Touched + WorthPF tables 6144 bytes 
MMA filter 174 bytes 
FNL filter 272 bytes 
TOTAL PREFETCHER STORAGE SIZE: 25174 bytes
CPU 0 L1I next line prefetcher final stats
CPU 0 L1D next line prefetcher final stats

DRAM Statistics
 CHANNEL 0
 RQ ROW_BUFFER_HIT:      10049  ROW_BUFFER_MISS:      23234
 DBUS_CONGESTED:      20121
 WQ ROW_BUFFER_HIT:       1482  ROW_BUFFER_MISS:      12377  FULL:          0

 AVG_CONGESTED_CYCLE: 6

CPU 0 Branch Prediction Accuracy: 99.8142% MPKI: 0.34676 Average ROB Occupancy at Mispredict: 189.727

Branch types
NOT_BRANCH: 40668893 81.3378%
BRANCH_DIRECT_JUMP: 531700 1.0634%
BRANCH_INDIRECT: 199025 0.39805%
BRANCH_CONDITIONAL: 6211491 12.423%
BRANCH_DIRECT_CALL: 1010911 2.02182%
BRANCH_INDIRECT_CALL: 183501 0.367002%
BRANCH_RETURN: 1194415 2.38883%
BRANCH_OTHER: 0 0%

