Initialize SIGNATURE TABLE
ST_SET: 1
ST_WAY: 256
ST_TAG_BIT: 16
ST_TAG_MASK: ffff

Initialize PATTERN TABLE
PT_SET: 512
PT_WAY: 4
SIG_DELTA_BIT: 7
C_SIG_BIT: 4
C_DELTA_BIT: 4

Initialize PREFETCH FILTER
FILTER_SET: 1024

*** ChampSim Multicore Out-of-Order Simulator ***

Warmup Instructions: 50000000
Simulation Instructions: 50000000
Number of CPUs: 1
LLC sets: 2048
LLC ways: 16
Off-chip DRAM Size: 4096 MB Channels: 1 Width: 64-bit Data Rate: 3200 MT/s

CPU 0 runs /Users/gandhardeshpande/Desktop/CSE240C/HW1/ChampSim/ipc1_public/server_033.champsimtrace.xz
CPU 0 L1I next line prefetcher
Running FNL-MMA for L1I
CPU 0 L1D next line prefetcher
Heartbeat CPU 0 instructions: 10000001 cycles: 3340659 heartbeat IPC: 2.99342 cumulative IPC: 2.99342 (Simulation time: 0 hr 0 min 14 sec) 
Heartbeat CPU 0 instructions: 20000002 cycles: 6680135 heartbeat IPC: 2.99448 cumulative IPC: 2.99395 (Simulation time: 0 hr 0 min 29 sec) 
Heartbeat CPU 0 instructions: 30000001 cycles: 10009212 heartbeat IPC: 3.00384 cumulative IPC: 2.99724 (Simulation time: 0 hr 0 min 44 sec) 
Heartbeat CPU 0 instructions: 40000000 cycles: 13347385 heartbeat IPC: 2.99565 cumulative IPC: 2.99684 (Simulation time: 0 hr 0 min 59 sec) 
Heartbeat CPU 0 instructions: 50000000 cycles: 16684472 heartbeat IPC: 2.99663 cumulative IPC: 2.9968 (Simulation time: 0 hr 1 min 14 sec) 

Warmup complete CPU 0 instructions: 50000004 cycles: 16684473 (Simulation time: 0 hr 1 min 14 sec) 

Heartbeat CPU 0 instructions: 60000000 cycles: 23259806 heartbeat IPC: 1.52084 cumulative IPC: 1.52083 (Simulation time: 0 hr 1 min 30 sec) 
Heartbeat CPU 0 instructions: 70000000 cycles: 29817265 heartbeat IPC: 1.52498 cumulative IPC: 1.52291 (Simulation time: 0 hr 1 min 45 sec) 
Heartbeat CPU 0 instructions: 80000000 cycles: 37172156 heartbeat IPC: 1.35964 cumulative IPC: 1.46429 (Simulation time: 0 hr 2 min 1 sec) 
Heartbeat CPU 0 instructions: 90000003 cycles: 43840179 heartbeat IPC: 1.4997 cumulative IPC: 1.47299 (Simulation time: 0 hr 2 min 17 sec) 
Heartbeat CPU 0 instructions: 100000003 cycles: 50457483 heartbeat IPC: 1.51119 cumulative IPC: 1.48047 (Simulation time: 0 hr 2 min 32 sec) 
Finished CPU 0 instructions: 50000003 cycles: 33773011 cumulative IPC: 1.48047 (Simulation time: 0 hr 2 min 32 sec) 

ChampSim completed all CPUs

Region of Interest Statistics

CPU 0 cumulative IPC: 1.48047 instructions: 50000003 cycles: 33773011
L1D TOTAL     ACCESS:   18230010  HIT:   16747740  MISS:    1482270
L1D LOAD      ACCESS:    6140515  HIT:    5457036  MISS:     683479
L1D RFO       ACCESS:    6164992  HIT:    6015736  MISS:     149256
L1D PREFETCH  ACCESS:    5924503  HIT:    5274968  MISS:     649535
L1D WRITEBACK ACCESS:          0  HIT:          0  MISS:          0
L1D PREFETCH  REQUESTED:    6182202  ISSUED:    6062227  USEFUL:     141298  USELESS:     508244
L1D AVERAGE MISS LATENCY: 24.0452 cycles
L1I TOTAL     ACCESS:   15831959  HIT:   11280301  MISS:    4551658
L1I LOAD      ACCESS:    9702947  HIT:    9643882  MISS:      59065
L1I RFO       ACCESS:          0  HIT:          0  MISS:          0
L1I PREFETCH  ACCESS:    6129012  HIT:    1636419  MISS:    4492593
L1I WRITEBACK ACCESS:          0  HIT:          0  MISS:          0
L1I PREFETCH  REQUESTED:    6376383  ISSUED:    6374567  USEFUL:    3383516  USELESS:    1109063
L1I AVERAGE MISS LATENCY: 15.5887 cycles
L2C TOTAL     ACCESS:    8108982  HIT:    7768904  MISS:     340078
L2C LOAD      ACCESS:     694046  HIT:     569941  MISS:     124105
L2C RFO       ACCESS:     147899  HIT:     128202  MISS:      19697
L2C PREFETCH  ACCESS:    6900595  HIT:    6706041  MISS:     194554
L2C WRITEBACK ACCESS:     366442  HIT:     364720  MISS:       1722
L2C PREFETCH  REQUESTED:    8572273  ISSUED:    8549208  USEFUL:       9684  USELESS:     184602
L2C AVERAGE MISS LATENCY: 49.3899 cycles
LLC TOTAL     ACCESS:    2573046  HIT:    2502115  MISS:      70931
LLC LOAD      ACCESS:     124040  HIT:     109030  MISS:      15010
LLC RFO       ACCESS:      19670  HIT:      17167  MISS:       2503
LLC PREFETCH  ACCESS:    2325935  HIT:    2272972  MISS:      52963
LLC WRITEBACK ACCESS:     103401  HIT:     102946  MISS:        455
LLC PREFETCH  REQUESTED:          0  ISSUED:          0  USEFUL:       8236  USELESS:      43008
LLC AVERAGE MISS LATENCY: 174.584 cycles
Major fault: 0 Minor fault: 2482
I-Shadow cache 408 bytes
Touched + WorthPF tables 6144 bytes 
MMA filter 174 bytes 
FNL filter 272 bytes 
TOTAL PREFETCHER STORAGE SIZE: 25174 bytes
CPU 0 L1I next line prefetcher final stats
CPU 0 L1D next line prefetcher final stats

DRAM Statistics
 CHANNEL 0
 RQ ROW_BUFFER_HIT:      11414  ROW_BUFFER_MISS:      59052
 DBUS_CONGESTED:      31776
 WQ ROW_BUFFER_HIT:       3974  ROW_BUFFER_MISS:      18903  FULL:          0

 AVG_CONGESTED_CYCLE: 5

CPU 0 Branch Prediction Accuracy: 99.9029% MPKI: 0.19006 Average ROB Occupancy at Mispredict: 249.954

Branch types
NOT_BRANCH: 40217117 80.4342%
BRANCH_DIRECT_JUMP: 774599 1.5492%
BRANCH_INDIRECT: 108806 0.217612%
BRANCH_CONDITIONAL: 6379333 12.7587%
BRANCH_DIRECT_CALL: 1048809 2.09762%
BRANCH_INDIRECT_CALL: 211109 0.422218%
BRANCH_RETURN: 1259925 2.51985%
BRANCH_OTHER: 0 0%

