Initialize SIGNATURE TABLE
ST_SET: 1
ST_WAY: 256
ST_TAG_BIT: 16
ST_TAG_MASK: ffff

Initialize PATTERN TABLE
PT_SET: 512
PT_WAY: 4
SIG_DELTA_BIT: 7
C_SIG_BIT: 4
C_DELTA_BIT: 4

Initialize PREFETCH FILTER
FILTER_SET: 1024

*** ChampSim Multicore Out-of-Order Simulator ***

Warmup Instructions: 50000000
Simulation Instructions: 50000000
Number of CPUs: 1
LLC sets: 2048
LLC ways: 16
Off-chip DRAM Size: 4096 MB Channels: 1 Width: 64-bit Data Rate: 3200 MT/s

CPU 0 runs /Users/gandhardeshpande/Desktop/CSE240C/HW1/ChampSim/ipc1_public/spec_gcc_002.champsimtrace.xz
CPU 0 L1I next line prefetcher
Running FNL-MMA for L1I
CPU 0 L1D next line prefetcher
Heartbeat CPU 0 instructions: 10000002 cycles: 3583465 heartbeat IPC: 2.7906 cumulative IPC: 2.7906 (Simulation time: 0 hr 0 min 11 sec) 
Heartbeat CPU 0 instructions: 20000000 cycles: 7170763 heartbeat IPC: 2.78761 cumulative IPC: 2.7891 (Simulation time: 0 hr 0 min 22 sec) 
Heartbeat CPU 0 instructions: 30000000 cycles: 10862877 heartbeat IPC: 2.70848 cumulative IPC: 2.7617 (Simulation time: 0 hr 0 min 34 sec) 
Heartbeat CPU 0 instructions: 40000000 cycles: 14435830 heartbeat IPC: 2.79881 cumulative IPC: 2.77088 (Simulation time: 0 hr 0 min 45 sec) 
Heartbeat CPU 0 instructions: 50000002 cycles: 17945668 heartbeat IPC: 2.84913 cumulative IPC: 2.78619 (Simulation time: 0 hr 0 min 55 sec) 

Warmup complete CPU 0 instructions: 50000002 cycles: 17945668 (Simulation time: 0 hr 0 min 55 sec) 

Heartbeat CPU 0 instructions: 60000001 cycles: 49866080 heartbeat IPC: 0.313279 cumulative IPC: 0.313279 (Simulation time: 0 hr 1 min 18 sec) 
Heartbeat CPU 0 instructions: 70000001 cycles: 80791835 heartbeat IPC: 0.323355 cumulative IPC: 0.318237 (Simulation time: 0 hr 1 min 41 sec) 
Heartbeat CPU 0 instructions: 80000002 cycles: 126779389 heartbeat IPC: 0.21745 cumulative IPC: 0.27565 (Simulation time: 0 hr 2 min 10 sec) 
Heartbeat CPU 0 instructions: 90000001 cycles: 168167392 heartbeat IPC: 0.241616 cumulative IPC: 0.266273 (Simulation time: 0 hr 2 min 37 sec) 
Heartbeat CPU 0 instructions: 100000000 cycles: 191486360 heartbeat IPC: 0.428835 cumulative IPC: 0.288117 (Simulation time: 0 hr 2 min 56 sec) 
Finished CPU 0 instructions: 50000002 cycles: 173540700 cumulative IPC: 0.288117 (Simulation time: 0 hr 2 min 56 sec) 

ChampSim completed all CPUs

Region of Interest Statistics

CPU 0 cumulative IPC: 0.288117 instructions: 50000002 cycles: 173540700
L1D TOTAL     ACCESS:   18389973  HIT:   13156378  MISS:    5233595
L1D LOAD      ACCESS:    6384296  HIT:    5371585  MISS:    1012711
L1D RFO       ACCESS:    7079814  HIT:    3479258  MISS:    3600556
L1D PREFETCH  ACCESS:    4925863  HIT:    4305535  MISS:     620328
L1D WRITEBACK ACCESS:          0  HIT:          0  MISS:          0
L1D PREFETCH  REQUESTED:    6404489  ISSUED:    6334613  USEFUL:     460578  USELESS:     159966
L1D AVERAGE MISS LATENCY: 315.509 cycles
L1I TOTAL     ACCESS:   13695748  HIT:   12664192  MISS:    1031556
L1I LOAD      ACCESS:   12007880  HIT:   11845595  MISS:     162285
L1I RFO       ACCESS:          0  HIT:          0  MISS:          0
L1I PREFETCH  ACCESS:    1687868  HIT:     818597  MISS:     869271
L1I WRITEBACK ACCESS:          0  HIT:          0  MISS:          0
L1I PREFETCH  REQUESTED:    1813691  ISSUED:    1812289  USEFUL:     538583  USELESS:     330672
L1I AVERAGE MISS LATENCY: 53.1707 cycles
L2C TOTAL     ACCESS:   10387370  HIT:    5024579  MISS:    5362791
L2C LOAD      ACCESS:     381088  HIT:     175026  MISS:     206062
L2C RFO       ACCESS:    3599079  HIT:      11028  MISS:    3588051
L2C PREFETCH  ACCESS:    2681704  HIT:    1113192  MISS:    1568512
L2C WRITEBACK ACCESS:    3725499  HIT:    3725333  MISS:        166
L2C PREFETCH  REQUESTED:    3655624  ISSUED:    3655376  USEFUL:      42788  USELESS:    1525798
L2C AVERAGE MISS LATENCY: 316.084 cycles
LLC TOTAL     ACCESS:   10238485  HIT:    7049016  MISS:    3189469
LLC LOAD      ACCESS:     205966  HIT:     150792  MISS:      55174
LLC RFO       ACCESS:    3588052  HIT:     953373  MISS:    2634679
LLC PREFETCH  ACCESS:    2770932  HIT:    2271316  MISS:     499616
LLC WRITEBACK ACCESS:    3673535  HIT:    3673535  MISS:          0
LLC PREFETCH  REQUESTED:          0  ISSUED:          0  USEFUL:     190457  USELESS:     309838
LLC AVERAGE MISS LATENCY: 498.201 cycles
Major fault: 0 Minor fault: 4153
I-Shadow cache 408 bytes
Touched + WorthPF tables 6144 bytes 
MMA filter 174 bytes 
FNL filter 272 bytes 
TOTAL PREFETCHER STORAGE SIZE: 25174 bytes
CPU 0 L1I next line prefetcher final stats
CPU 0 L1D next line prefetcher final stats

DRAM Statistics
 CHANNEL 0
 RQ ROW_BUFFER_HIT:     866550  ROW_BUFFER_MISS:    2321193
 DBUS_CONGESTED:    4927268
 WQ ROW_BUFFER_HIT:     808401  ROW_BUFFER_MISS:    2031176  FULL:          0

 AVG_CONGESTED_CYCLE: 6

CPU 0 Branch Prediction Accuracy: 99.5987% MPKI: 0.82446 Average ROB Occupancy at Mispredict: 123.466

Branch types
NOT_BRANCH: 39726807 79.4536%
BRANCH_DIRECT_JUMP: 391439 0.782878%
BRANCH_INDIRECT: 62076 0.124152%
BRANCH_CONDITIONAL: 8421541 16.8431%
BRANCH_DIRECT_CALL: 672962 1.34592%
BRANCH_INDIRECT_CALL: 26115 0.05223%
BRANCH_RETURN: 699082 1.39816%
BRANCH_OTHER: 0 0%

