Initialize SIGNATURE TABLE
ST_SET: 1
ST_WAY: 256
ST_TAG_BIT: 16
ST_TAG_MASK: ffff

Initialize PATTERN TABLE
PT_SET: 512
PT_WAY: 4
SIG_DELTA_BIT: 7
C_SIG_BIT: 4
C_DELTA_BIT: 4

Initialize PREFETCH FILTER
FILTER_SET: 1024

*** ChampSim Multicore Out-of-Order Simulator ***

Warmup Instructions: 50000000
Simulation Instructions: 50000000
Number of CPUs: 1
LLC sets: 2048
LLC ways: 16
Off-chip DRAM Size: 4096 MB Channels: 1 Width: 64-bit Data Rate: 3200 MT/s

CPU 0 runs /Users/gandhardeshpande/Desktop/CSE240C/HW1/ChampSim/ipc1_public/server_013.champsimtrace.xz
CPU 0 L1D next line prefetcher
Heartbeat CPU 0 instructions: 10000000 cycles: 3213485 heartbeat IPC: 3.11189 cumulative IPC: 3.11189 (Simulation time: 0 hr 0 min 15 sec) 
Heartbeat CPU 0 instructions: 20000001 cycles: 6415738 heartbeat IPC: 3.1228 cumulative IPC: 3.11733 (Simulation time: 0 hr 0 min 31 sec) 
Heartbeat CPU 0 instructions: 30000002 cycles: 9621471 heartbeat IPC: 3.11941 cumulative IPC: 3.11803 (Simulation time: 0 hr 0 min 46 sec) 
Heartbeat CPU 0 instructions: 40000002 cycles: 12823021 heartbeat IPC: 3.12349 cumulative IPC: 3.11939 (Simulation time: 0 hr 1 min 2 sec) 
Heartbeat CPU 0 instructions: 50000000 cycles: 16024539 heartbeat IPC: 3.12352 cumulative IPC: 3.12021 (Simulation time: 0 hr 1 min 17 sec) 

Warmup complete CPU 0 instructions: 50000004 cycles: 16024540 (Simulation time: 0 hr 1 min 17 sec) 

Heartbeat CPU 0 instructions: 60000002 cycles: 23601354 heartbeat IPC: 1.31982 cumulative IPC: 1.31982 (Simulation time: 0 hr 1 min 31 sec) 
Heartbeat CPU 0 instructions: 70000002 cycles: 31333341 heartbeat IPC: 1.29333 cumulative IPC: 1.30644 (Simulation time: 0 hr 1 min 45 sec) 
Heartbeat CPU 0 instructions: 80000003 cycles: 38533477 heartbeat IPC: 1.38886 cumulative IPC: 1.3328 (Simulation time: 0 hr 1 min 59 sec) 
Heartbeat CPU 0 instructions: 90000003 cycles: 45927636 heartbeat IPC: 1.35242 cumulative IPC: 1.33765 (Simulation time: 0 hr 2 min 13 sec) 
Heartbeat CPU 0 instructions: 100000003 cycles: 53321751 heartbeat IPC: 1.35243 cumulative IPC: 1.34058 (Simulation time: 0 hr 2 min 27 sec) 
Finished CPU 0 instructions: 50000003 cycles: 37297212 cumulative IPC: 1.34058 (Simulation time: 0 hr 2 min 27 sec) 

ChampSim completed all CPUs

Region of Interest Statistics

CPU 0 cumulative IPC: 1.34058 instructions: 50000003 cycles: 37297212
L1D TOTAL     ACCESS:   17394708  HIT:   16328165  MISS:    1066543
L1D LOAD      ACCESS:    6350534  HIT:    5849888  MISS:     500646
L1D RFO       ACCESS:    4933296  HIT:    4853028  MISS:      80268
L1D PREFETCH  ACCESS:    6110878  HIT:    5625249  MISS:     485629
L1D WRITEBACK ACCESS:          0  HIT:          0  MISS:          0
L1D PREFETCH  REQUESTED:    6385830  ISSUED:    6291261  USEFUL:     133937  USELESS:     351701
L1D AVERAGE MISS LATENCY: 41.2055 cycles
L1I TOTAL     ACCESS:   10261976  HIT:    8520791  MISS:    1741185
L1I LOAD      ACCESS:    8628067  HIT:    8301988  MISS:     326079
L1I RFO       ACCESS:          0  HIT:          0  MISS:          0
L1I PREFETCH  ACCESS:    1633909  HIT:     218803  MISS:    1415106
L1I WRITEBACK ACCESS:          0  HIT:          0  MISS:          0
L1I PREFETCH  REQUESTED:    2049482  ISSUED:    2049482  USEFUL:    1100840  USELESS:     314264
L1I AVERAGE MISS LATENCY: 26.8479 cycles
L2C TOTAL     ACCESS:    3618747  HIT:    2320207  MISS:    1298540
L2C LOAD      ACCESS:     548131  HIT:     265419  MISS:     282712
L2C RFO       ACCESS:      78862  HIT:      32204  MISS:      46658
L2C PREFETCH  ACCESS:    2715948  HIT:    1747833  MISS:     968115
L2C WRITEBACK ACCESS:     275806  HIT:     274751  MISS:       1055
L2C PREFETCH  REQUESTED:    2506628  ISSUED:    2504821  USEFUL:      26326  USELESS:     941797
L2C AVERAGE MISS LATENCY: 44.9682 cycles
LLC TOTAL     ACCESS:    2302505  HIT:    2158657  MISS:     143848
LLC LOAD      ACCESS:     282615  HIT:     260750  MISS:      21865
LLC RFO       ACCESS:      46654  HIT:      37384  MISS:       9270
LLC PREFETCH  ACCESS:    1804633  HIT:    1692145  MISS:     112488
LLC WRITEBACK ACCESS:     168603  HIT:     168378  MISS:        225
LLC PREFETCH  REQUESTED:          0  ISSUED:          0  USEFUL:       9988  USELESS:     101321
LLC AVERAGE MISS LATENCY: 172.016 cycles
Major fault: 0 Minor fault: 6200
CPU 0 L1D next line prefetcher final stats

DRAM Statistics
 CHANNEL 0
 RQ ROW_BUFFER_HIT:      23904  ROW_BUFFER_MISS:     119712
 DBUS_CONGESTED:      63988
 WQ ROW_BUFFER_HIT:      11498  ROW_BUFFER_MISS:      49809  FULL:          0

 AVG_CONGESTED_CYCLE: 5

CPU 0 Branch Prediction Accuracy: 99.4114% MPKI: 1.0933 Average ROB Occupancy at Mispredict: 114.245

Branch types
NOT_BRANCH: 40713270 81.4265%
BRANCH_DIRECT_JUMP: 463701 0.927402%
BRANCH_INDIRECT: 146544 0.293088%
BRANCH_CONDITIONAL: 6981955 13.9639%
BRANCH_DIRECT_CALL: 665005 1.33001%
BRANCH_INDIRECT_CALL: 165152 0.330304%
BRANCH_RETURN: 864314 1.72863%
BRANCH_OTHER: 0 0%

