
*** ChampSim Multicore Out-of-Order Simulator ***

Warmup Instructions: 10000000
Simulation Instructions: 100000000
Configuration: 2
Number of CPUs: 1
LLC sets: 2048
LLC ways: 16
Off-chip DRAM Channels: 1 Width: 64-bit Data Rate: 1600 MT/s

CPU 0 runs /datasets/cs240c-wi22-a00-public/data/Assignment2-gz/omnetpp_4B.trace.gz
CPU 0 L1D next line prefetcher
CPU 0 L2C IP-based stride prefetcher
Heartbeat CPU 0 instructions: 1000001 cycles: 566980 heartbeat IPC: 1.76373 cumulative IPC: 1.76373 (Simulation time: 0 hr 0 min 44 sec) 
Heartbeat CPU 0 instructions: 2000001 cycles: 1135436 heartbeat IPC: 1.75915 cumulative IPC: 1.76144 (Simulation time: 0 hr 1 min 27 sec) 
Heartbeat CPU 0 instructions: 3000001 cycles: 1722454 heartbeat IPC: 1.70353 cumulative IPC: 1.7417 (Simulation time: 0 hr 2 min 15 sec) 
Heartbeat CPU 0 instructions: 4000000 cycles: 2291720 heartbeat IPC: 1.75665 cumulative IPC: 1.74541 (Simulation time: 0 hr 3 min 2 sec) 
Heartbeat CPU 0 instructions: 5000000 cycles: 2865841 heartbeat IPC: 1.74179 cumulative IPC: 1.74469 (Simulation time: 0 hr 3 min 46 sec) 
Heartbeat CPU 0 instructions: 6000000 cycles: 3442018 heartbeat IPC: 1.73558 cumulative IPC: 1.74316 (Simulation time: 0 hr 4 min 32 sec) 
Heartbeat CPU 0 instructions: 7000000 cycles: 4011309 heartbeat IPC: 1.75657 cumulative IPC: 1.74507 (Simulation time: 0 hr 5 min 15 sec) 
Heartbeat CPU 0 instructions: 8000000 cycles: 4564799 heartbeat IPC: 1.80672 cumulative IPC: 1.75254 (Simulation time: 0 hr 5 min 57 sec) 
Heartbeat CPU 0 instructions: 9000001 cycles: 5146910 heartbeat IPC: 1.71789 cumulative IPC: 1.74862 (Simulation time: 0 hr 6 min 39 sec) 
Heartbeat CPU 0 instructions: 10000000 cycles: 5700845 heartbeat IPC: 1.80526 cumulative IPC: 1.75413 (Simulation time: 0 hr 7 min 25 sec) 

Warmup complete CPU 0 instructions: 10000003 cycles: 5700846 (Simulation time: 0 hr 7 min 25 sec) 

Heartbeat CPU 0 instructions: 11000000 cycles: 8887821 heartbeat IPC: 0.313777 cumulative IPC: 0.313776 (Simulation time: 0 hr 8 min 18 sec) 
Heartbeat CPU 0 instructions: 12000000 cycles: 10042364 heartbeat IPC: 0.866144 cumulative IPC: 0.460668 (Simulation time: 0 hr 8 min 59 sec) 
Heartbeat CPU 0 instructions: 13000003 cycles: 11187115 heartbeat IPC: 0.873555 cumulative IPC: 0.54682 (Simulation time: 0 hr 9 min 39 sec) 
Heartbeat CPU 0 instructions: 14000000 cycles: 12307381 heartbeat IPC: 0.892642 cumulative IPC: 0.605461 (Simulation time: 0 hr 10 min 18 sec) 
Heartbeat CPU 0 instructions: 15000000 cycles: 13446604 heartbeat IPC: 0.877791 cumulative IPC: 0.645514 (Simulation time: 0 hr 11 min 4 sec) 
Heartbeat CPU 0 instructions: 16000000 cycles: 16318630 heartbeat IPC: 0.348186 cumulative IPC: 0.565089 (Simulation time: 0 hr 11 min 52 sec) 
Heartbeat CPU 0 instructions: 17000003 cycles: 19201691 heartbeat IPC: 0.346855 cumulative IPC: 0.518486 (Simulation time: 0 hr 12 min 43 sec) 
Heartbeat CPU 0 instructions: 18000002 cycles: 22006721 heartbeat IPC: 0.356502 cumulative IPC: 0.490621 (Simulation time: 0 hr 13 min 36 sec) 
Heartbeat CPU 0 instructions: 19000002 cycles: 24833570 heartbeat IPC: 0.353751 cumulative IPC: 0.470398 (Simulation time: 0 hr 14 min 30 sec) 
Heartbeat CPU 0 instructions: 20000000 cycles: 28198757 heartbeat IPC: 0.29716 cumulative IPC: 0.444486 (Simulation time: 0 hr 15 min 27 sec) 
Heartbeat CPU 0 instructions: 21000000 cycles: 31553938 heartbeat IPC: 0.298046 cumulative IPC: 0.425481 (Simulation time: 0 hr 16 min 28 sec) 
Heartbeat CPU 0 instructions: 22000001 cycles: 34783736 heartbeat IPC: 0.309617 cumulative IPC: 0.412614 (Simulation time: 0 hr 17 min 25 sec) 
Heartbeat CPU 0 instructions: 23000000 cycles: 37654076 heartbeat IPC: 0.34839 cumulative IPC: 0.406845 (Simulation time: 0 hr 18 min 18 sec) 
Heartbeat CPU 0 instructions: 24000000 cycles: 40463788 heartbeat IPC: 0.355908 cumulative IPC: 0.402728 (Simulation time: 0 hr 19 min 10 sec) 
Heartbeat CPU 0 instructions: 25000000 cycles: 43266392 heartbeat IPC: 0.356811 cumulative IPC: 0.399302 (Simulation time: 0 hr 20 min 7 sec) 
Heartbeat CPU 0 instructions: 26000002 cycles: 46052364 heartbeat IPC: 0.358942 cumulative IPC: 0.396515 (Simulation time: 0 hr 21 min 1 sec) 
Heartbeat CPU 0 instructions: 27000001 cycles: 48887380 heartbeat IPC: 0.352731 cumulative IPC: 0.393641 (Simulation time: 0 hr 21 min 56 sec) 
Heartbeat CPU 0 instructions: 28000000 cycles: 51670803 heartbeat IPC: 0.359269 cumulative IPC: 0.39156 (Simulation time: 0 hr 22 min 50 sec) 
Heartbeat CPU 0 instructions: 29000001 cycles: 54544092 heartbeat IPC: 0.348034 cumulative IPC: 0.388999 (Simulation time: 0 hr 23 min 38 sec) 
Heartbeat CPU 0 instructions: 30000000 cycles: 57339302 heartbeat IPC: 0.357755 cumulative IPC: 0.387308 (Simulation time: 0 hr 24 min 27 sec) 
Heartbeat CPU 0 instructions: 31000002 cycles: 60122754 heartbeat IPC: 0.359267 cumulative IPC: 0.385874 (Simulation time: 0 hr 25 min 14 sec) 
Heartbeat CPU 0 instructions: 32000000 cycles: 62961175 heartbeat IPC: 0.352308 cumulative IPC: 0.38421 (Simulation time: 0 hr 26 min 5 sec) 
Heartbeat CPU 0 instructions: 33000000 cycles: 66157759 heartbeat IPC: 0.312834 cumulative IPC: 0.380436 (Simulation time: 0 hr 26 min 59 sec) 
Heartbeat CPU 0 instructions: 34000001 cycles: 69506884 heartbeat IPC: 0.298586 cumulative IPC: 0.37614 (Simulation time: 0 hr 27 min 55 sec) 
Heartbeat CPU 0 instructions: 35000001 cycles: 72569645 heartbeat IPC: 0.326503 cumulative IPC: 0.373866 (Simulation time: 0 hr 28 min 49 sec) 
Heartbeat CPU 0 instructions: 36000000 cycles: 75850283 heartbeat IPC: 0.304818 cumulative IPC: 0.370637 (Simulation time: 0 hr 29 min 51 sec) 
Heartbeat CPU 0 instructions: 37000001 cycles: 78663059 heartbeat IPC: 0.355521 cumulative IPC: 0.370055 (Simulation time: 0 hr 30 min 43 sec) 
Heartbeat CPU 0 instructions: 38000001 cycles: 81873607 heartbeat IPC: 0.311473 cumulative IPC: 0.367585 (Simulation time: 0 hr 31 min 45 sec) 
Heartbeat CPU 0 instructions: 39000001 cycles: 84408236 heartbeat IPC: 0.394535 cumulative IPC: 0.368453 (Simulation time: 0 hr 32 min 39 sec) 
Heartbeat CPU 0 instructions: 40000000 cycles: 85530272 heartbeat IPC: 0.891236 cumulative IPC: 0.375801 (Simulation time: 0 hr 33 min 25 sec) 
Heartbeat CPU 0 instructions: 41000001 cycles: 86656531 heartbeat IPC: 0.887896 cumulative IPC: 0.382926 (Simulation time: 0 hr 34 min 10 sec) 
Heartbeat CPU 0 instructions: 42000001 cycles: 87790668 heartbeat IPC: 0.881728 cumulative IPC: 0.389817 (Simulation time: 0 hr 34 min 56 sec) 
Heartbeat CPU 0 instructions: 43000002 cycles: 89014549 heartbeat IPC: 0.817074 cumulative IPC: 0.396093 (Simulation time: 0 hr 35 min 38 sec) 
Heartbeat CPU 0 instructions: 44000000 cycles: 91909467 heartbeat IPC: 0.345432 cumulative IPC: 0.394392 (Simulation time: 0 hr 36 min 23 sec) 
Heartbeat CPU 0 instructions: 45000000 cycles: 94808674 heartbeat IPC: 0.344922 cumulative IPC: 0.392783 (Simulation time: 0 hr 37 min 8 sec) 
Heartbeat CPU 0 instructions: 46000000 cycles: 98184834 heartbeat IPC: 0.296194 cumulative IPC: 0.389257 (Simulation time: 0 hr 38 min 0 sec) 
Heartbeat CPU 0 instructions: 47000000 cycles: 101554727 heartbeat IPC: 0.296745 cumulative IPC: 0.386004 (Simulation time: 0 hr 38 min 49 sec) 
Heartbeat CPU 0 instructions: 48000000 cycles: 104745638 heartbeat IPC: 0.31339 cumulative IPC: 0.383665 (Simulation time: 0 hr 39 min 32 sec) 
Heartbeat CPU 0 instructions: 49000000 cycles: 107674890 heartbeat IPC: 0.341384 cumulative IPC: 0.38245 (Simulation time: 0 hr 40 min 19 sec) 
Heartbeat CPU 0 instructions: 50000001 cycles: 110485811 heartbeat IPC: 0.355756 cumulative IPC: 0.381734 (Simulation time: 0 hr 40 min 59 sec) 
Heartbeat CPU 0 instructions: 51000003 cycles: 113308724 heartbeat IPC: 0.354245 cumulative IPC: 0.381013 (Simulation time: 0 hr 41 min 41 sec) 
Heartbeat CPU 0 instructions: 52000000 cycles: 116119786 heartbeat IPC: 0.355736 cumulative IPC: 0.38037 (Simulation time: 0 hr 42 min 23 sec) 
Heartbeat CPU 0 instructions: 53000003 cycles: 118937113 heartbeat IPC: 0.354947 cumulative IPC: 0.379737 (Simulation time: 0 hr 43 min 2 sec) 
Heartbeat CPU 0 instructions: 54000001 cycles: 121734088 heartbeat IPC: 0.357528 cumulative IPC: 0.379202 (Simulation time: 0 hr 43 min 45 sec) 
Heartbeat CPU 0 instructions: 55000001 cycles: 124686071 heartbeat IPC: 0.338755 cumulative IPC: 0.378198 (Simulation time: 0 hr 44 min 31 sec) 
Heartbeat CPU 0 instructions: 56000000 cycles: 127501731 heartbeat IPC: 0.355156 cumulative IPC: 0.377666 (Simulation time: 0 hr 45 min 16 sec) 
Heartbeat CPU 0 instructions: 57000003 cycles: 130289265 heartbeat IPC: 0.358741 cumulative IPC: 0.377242 (Simulation time: 0 hr 46 min 1 sec) 
Heartbeat CPU 0 instructions: 58000001 cycles: 133297441 heartbeat IPC: 0.332427 cumulative IPC: 0.376186 (Simulation time: 0 hr 46 min 46 sec) 
Heartbeat CPU 0 instructions: 59000001 cycles: 136615069 heartbeat IPC: 0.30142 cumulative IPC: 0.374291 (Simulation time: 0 hr 47 min 33 sec) 
Heartbeat CPU 0 instructions: 60000000 cycles: 139627821 heartbeat IPC: 0.331922 cumulative IPC: 0.373338 (Simulation time: 0 hr 48 min 19 sec) 
Heartbeat CPU 0 instructions: 61000001 cycles: 142717552 heartbeat IPC: 0.323653 cumulative IPC: 0.372217 (Simulation time: 0 hr 49 min 6 sec) 
Heartbeat CPU 0 instructions: 62000000 cycles: 146069851 heartbeat IPC: 0.298302 cumulative IPC: 0.370452 (Simulation time: 0 hr 49 min 54 sec) 
Heartbeat CPU 0 instructions: 63000001 cycles: 148919736 heartbeat IPC: 0.350892 cumulative IPC: 0.370063 (Simulation time: 0 hr 50 min 36 sec) 
Heartbeat CPU 0 instructions: 64000000 cycles: 151745667 heartbeat IPC: 0.353865 cumulative IPC: 0.369749 (Simulation time: 0 hr 51 min 17 sec) 
Heartbeat CPU 0 instructions: 65000001 cycles: 154565078 heartbeat IPC: 0.354684 cumulative IPC: 0.369464 (Simulation time: 0 hr 52 min 4 sec) 
Heartbeat CPU 0 instructions: 66000002 cycles: 158744841 heartbeat IPC: 0.239248 cumulative IPC: 0.365908 (Simulation time: 0 hr 52 min 59 sec) 
Heartbeat CPU 0 instructions: 67000001 cycles: 160411711 heartbeat IPC: 0.599926 cumulative IPC: 0.368429 (Simulation time: 0 hr 53 min 37 sec) 
Heartbeat CPU 0 instructions: 68000000 cycles: 161535381 heartbeat IPC: 0.88994 cumulative IPC: 0.37219 (Simulation time: 0 hr 54 min 14 sec) 
Heartbeat CPU 0 instructions: 69000003 cycles: 162677424 heartbeat IPC: 0.875626 cumulative IPC: 0.375852 (Simulation time: 0 hr 54 min 49 sec) 
Heartbeat CPU 0 instructions: 70000000 cycles: 163797644 heartbeat IPC: 0.892679 cumulative IPC: 0.379514 (Simulation time: 0 hr 55 min 23 sec) 
Heartbeat CPU 0 instructions: 71000001 cycles: 164973759 heartbeat IPC: 0.850258 cumulative IPC: 0.38299 (Simulation time: 0 hr 56 min 0 sec) 
Heartbeat CPU 0 instructions: 72000000 cycles: 168326067 heartbeat IPC: 0.298302 cumulative IPC: 0.381245 (Simulation time: 0 hr 56 min 48 sec) 
Heartbeat CPU 0 instructions: 73000000 cycles: 171739700 heartbeat IPC: 0.292943 cumulative IPC: 0.379429 (Simulation time: 0 hr 57 min 33 sec) 
Heartbeat CPU 0 instructions: 74000001 cycles: 175102421 heartbeat IPC: 0.297379 cumulative IPC: 0.3778 (Simulation time: 0 hr 58 min 21 sec) 
Heartbeat CPU 0 instructions: 75000001 cycles: 178035253 heartbeat IPC: 0.340967 cumulative IPC: 0.377174 (Simulation time: 0 hr 59 min 8 sec) 
Heartbeat CPU 0 instructions: 76000000 cycles: 180836613 heartbeat IPC: 0.356969 cumulative IPC: 0.37685 (Simulation time: 0 hr 59 min 52 sec) 
Heartbeat CPU 0 instructions: 77000000 cycles: 183667079 heartbeat IPC: 0.353299 cumulative IPC: 0.376476 (Simulation time: 1 hr 0 min 34 sec) 
Heartbeat CPU 0 instructions: 78000001 cycles: 186498383 heartbeat IPC: 0.353195 cumulative IPC: 0.376111 (Simulation time: 1 hr 1 min 16 sec) 
Heartbeat CPU 0 instructions: 79000001 cycles: 189319891 heartbeat IPC: 0.35442 cumulative IPC: 0.375778 (Simulation time: 1 hr 1 min 56 sec) 
Heartbeat CPU 0 instructions: 80000000 cycles: 192121111 heartbeat IPC: 0.356987 cumulative IPC: 0.375496 (Simulation time: 1 hr 2 min 37 sec) 
Heartbeat CPU 0 instructions: 81000002 cycles: 195009639 heartbeat IPC: 0.346198 cumulative IPC: 0.375049 (Simulation time: 1 hr 3 min 16 sec) 
Heartbeat CPU 0 instructions: 82000001 cycles: 197823464 heartbeat IPC: 0.355388 cumulative IPC: 0.374761 (Simulation time: 1 hr 3 min 54 sec) 
Heartbeat CPU 0 instructions: 83000002 cycles: 200675918 heartbeat IPC: 0.350576 cumulative IPC: 0.374407 (Simulation time: 1 hr 4 min 34 sec) 
Heartbeat CPU 0 instructions: 84000000 cycles: 203555777 heartbeat IPC: 0.347239 cumulative IPC: 0.374011 (Simulation time: 1 hr 5 min 14 sec) 
Heartbeat CPU 0 instructions: 85000002 cycles: 206900326 heartbeat IPC: 0.298995 cumulative IPC: 0.372764 (Simulation time: 1 hr 5 min 59 sec) 
Heartbeat CPU 0 instructions: 86000002 cycles: 210238846 heartbeat IPC: 0.299534 cumulative IPC: 0.371569 (Simulation time: 1 hr 6 min 43 sec) 
Heartbeat CPU 0 instructions: 87000000 cycles: 213301950 heartbeat IPC: 0.326466 cumulative IPC: 0.370904 (Simulation time: 1 hr 7 min 25 sec) 
Heartbeat CPU 0 instructions: 88000000 cycles: 216329071 heartbeat IPC: 0.330347 cumulative IPC: 0.370321 (Simulation time: 1 hr 8 min 6 sec) 
Heartbeat CPU 0 instructions: 89000002 cycles: 219430486 heartbeat IPC: 0.322434 cumulative IPC: 0.369626 (Simulation time: 1 hr 8 min 40 sec) 
Heartbeat CPU 0 instructions: 90000001 cycles: 222241620 heartbeat IPC: 0.355728 cumulative IPC: 0.369445 (Simulation time: 1 hr 9 min 10 sec) 
Heartbeat CPU 0 instructions: 91000001 cycles: 225076753 heartbeat IPC: 0.352717 cumulative IPC: 0.369229 (Simulation time: 1 hr 9 min 45 sec) 
Heartbeat CPU 0 instructions: 92000000 cycles: 228008646 heartbeat IPC: 0.341076 cumulative IPC: 0.368858 (Simulation time: 1 hr 10 min 21 sec) 
Heartbeat CPU 0 instructions: 93000000 cycles: 230848629 heartbeat IPC: 0.352115 cumulative IPC: 0.368647 (Simulation time: 1 hr 10 min 49 sec) 
Heartbeat CPU 0 instructions: 94000000 cycles: 235407837 heartbeat IPC: 0.219336 cumulative IPC: 0.365683 (Simulation time: 1 hr 11 min 22 sec) 
Heartbeat CPU 0 instructions: 95000000 cycles: 236591462 heartbeat IPC: 0.844862 cumulative IPC: 0.36814 (Simulation time: 1 hr 11 min 45 sec) 
Heartbeat CPU 0 instructions: 96000000 cycles: 237734442 heartbeat IPC: 0.874906 cumulative IPC: 0.370636 (Simulation time: 1 hr 12 min 4 sec) 
Heartbeat CPU 0 instructions: 97000002 cycles: 238853153 heartbeat IPC: 0.893888 cumulative IPC: 0.373147 (Simulation time: 1 hr 12 min 24 sec) 
Heartbeat CPU 0 instructions: 98000001 cycles: 239995094 heartbeat IPC: 0.875701 cumulative IPC: 0.375596 (Simulation time: 1 hr 12 min 41 sec) 
Heartbeat CPU 0 instructions: 99000002 cycles: 241878827 heartbeat IPC: 0.530861 cumulative IPC: 0.376834 (Simulation time: 1 hr 13 min 1 sec) 
Heartbeat CPU 0 instructions: 100000000 cycles: 245302299 heartbeat IPC: 0.292101 cumulative IPC: 0.375624 (Simulation time: 1 hr 13 min 31 sec) 
Heartbeat CPU 0 instructions: 101000002 cycles: 248415903 heartbeat IPC: 0.321172 cumulative IPC: 0.374925 (Simulation time: 1 hr 13 min 56 sec) 
Heartbeat CPU 0 instructions: 102000001 cycles: 251425161 heartbeat IPC: 0.332307 cumulative IPC: 0.374403 (Simulation time: 1 hr 14 min 20 sec) 
Heartbeat CPU 0 instructions: 103000000 cycles: 254251366 heartbeat IPC: 0.353831 cumulative IPC: 0.374169 (Simulation time: 1 hr 14 min 46 sec) 
Heartbeat CPU 0 instructions: 104000000 cycles: 257094319 heartbeat IPC: 0.351747 cumulative IPC: 0.373916 (Simulation time: 1 hr 15 min 9 sec) 
Heartbeat CPU 0 instructions: 105000001 cycles: 259914443 heartbeat IPC: 0.354595 cumulative IPC: 0.373701 (Simulation time: 1 hr 15 min 28 sec) 
Heartbeat CPU 0 instructions: 106000000 cycles: 262857038 heartbeat IPC: 0.339836 cumulative IPC: 0.373314 (Simulation time: 1 hr 15 min 49 sec) 
Heartbeat CPU 0 instructions: 107000002 cycles: 265700732 heartbeat IPC: 0.351656 cumulative IPC: 0.373077 (Simulation time: 1 hr 16 min 7 sec) 
Heartbeat CPU 0 instructions: 108000000 cycles: 268530282 heartbeat IPC: 0.353412 cumulative IPC: 0.372865 (Simulation time: 1 hr 16 min 24 sec) 
Heartbeat CPU 0 instructions: 109000002 cycles: 271346791 heartbeat IPC: 0.35505 cumulative IPC: 0.372676 (Simulation time: 1 hr 16 min 43 sec) 
Heartbeat CPU 0 instructions: 110000001 cycles: 274206753 heartbeat IPC: 0.349655 cumulative IPC: 0.372431 (Simulation time: 1 hr 17 min 0 sec) 
Finished CPU 0 instructions: 100000001 cycles: 268505909 cummulative IPC: 0.372431 (Simulation time: 1 hr 17 min 0 sec) 

ChampSim completed all CPUs

Region of Interest Statistics

CPU 0 cummulative IPC: 0.372431 instructions: 100000001 cycles: 268505909
LLC TOTAL     ACCESS:    4666938  HIT:    2204358  MISS:    2462580
LLC LOAD      ACCESS:    2187226  HIT:    1993956  MISS:     193270
LLC RFO       ACCESS:      24959  HIT:      10666  MISS:      14293
LLC PREFETCH  ACCESS:    2374384  HIT:     167933  MISS:    2206451
LLC WRITEBACK ACCESS:      80369  HIT:      31803  MISS:      48566
