Initialize SIGNATURE TABLE
ST_SET: 1
ST_WAY: 256
ST_TAG_BIT: 16
ST_TAG_MASK: ffff

Initialize PATTERN TABLE
PT_SET: 512
PT_WAY: 4
SIG_DELTA_BIT: 7
C_SIG_BIT: 4
C_DELTA_BIT: 4

Initialize PREFETCH FILTER
FILTER_SET: 1024

*** ChampSim Multicore Out-of-Order Simulator ***

Warmup Instructions: 50000000
Simulation Instructions: 50000000
Number of CPUs: 1
LLC sets: 2048
LLC ways: 16
Off-chip DRAM Size: 4096 MB Channels: 1 Width: 64-bit Data Rate: 3200 MT/s

CPU 0 runs /Users/gandhardeshpande/Desktop/CSE240C/HW1/ChampSim/ipc1_public/client_004.champsimtrace.xz
L1I Barca has been initializedCPU 0 L1D next line prefetcher
Heartbeat CPU 0 instructions: 10000000 cycles: 3592820 heartbeat IPC: 2.78333 cumulative IPC: 2.78333 (Simulation time: 0 hr 0 min 25 sec) 
Heartbeat CPU 0 instructions: 20000003 cycles: 7057392 heartbeat IPC: 2.88636 cumulative IPC: 2.83391 (Simulation time: 0 hr 0 min 44 sec) 
Heartbeat CPU 0 instructions: 30000000 cycles: 10648252 heartbeat IPC: 2.78485 cumulative IPC: 2.81736 (Simulation time: 0 hr 1 min 4 sec) 
Heartbeat CPU 0 instructions: 40000003 cycles: 14329705 heartbeat IPC: 2.71632 cumulative IPC: 2.7914 (Simulation time: 0 hr 1 min 26 sec) 
Heartbeat CPU 0 instructions: 50000001 cycles: 17848434 heartbeat IPC: 2.84193 cumulative IPC: 2.80137 (Simulation time: 0 hr 1 min 49 sec) 

Warmup complete CPU 0 instructions: 50000001 cycles: 17848434 (Simulation time: 0 hr 1 min 49 sec) 

Heartbeat CPU 0 instructions: 60000002 cycles: 25882399 heartbeat IPC: 1.24472 cumulative IPC: 1.24472 (Simulation time: 0 hr 2 min 7 sec) 
Heartbeat CPU 0 instructions: 70000001 cycles: 33995789 heartbeat IPC: 1.23253 cumulative IPC: 1.23859 (Simulation time: 0 hr 2 min 34 sec) 
Heartbeat CPU 0 instructions: 80000002 cycles: 42927115 heartbeat IPC: 1.11965 cumulative IPC: 1.19624 (Simulation time: 0 hr 2 min 53 sec) 
Heartbeat CPU 0 instructions: 90000000 cycles: 51303123 heartbeat IPC: 1.19389 cumulative IPC: 1.19565 (Simulation time: 0 hr 3 min 13 sec) 
Heartbeat CPU 0 instructions: 100000001 cycles: 59382824 heartbeat IPC: 1.23767 cumulative IPC: 1.20382 (Simulation time: 0 hr 3 min 34 sec) 
Finished CPU 0 instructions: 50000000 cycles: 41534390 cumulative IPC: 1.20382 (Simulation time: 0 hr 3 min 34 sec) 

ChampSim completed all CPUs

Region of Interest Statistics

CPU 0 cumulative IPC: 1.20382 instructions: 50000000 cycles: 41534390
L1D TOTAL     ACCESS:   21981301  HIT:   21092334  MISS:     888967
L1D LOAD      ACCESS:    8730845  HIT:    8335035  MISS:     395810
L1D RFO       ACCESS:    4813714  HIT:    4692323  MISS:     121391
L1D PREFETCH  ACCESS:    8436742  HIT:    8064976  MISS:     371766
L1D WRITEBACK ACCESS:          0  HIT:          0  MISS:          0
L1D PREFETCH  REQUESTED:    8770116  ISSUED:    8610259  USEFUL:     133254  USELESS:     238520
L1D AVERAGE MISS LATENCY: 29.5083 cycles
L1I TOTAL     ACCESS:   10863838  HIT:    9582269  MISS:    1281569
L1I LOAD      ACCESS:    9398446  HIT:    9233048  MISS:     165398
L1I RFO       ACCESS:          0  HIT:          0  MISS:          0
L1I PREFETCH  ACCESS:    1465392  HIT:     349221  MISS:    1116171
L1I WRITEBACK ACCESS:          0  HIT:          0  MISS:          0
L1I PREFETCH  REQUESTED:    1619486  ISSUED:    1619486  USEFUL:     539781  USELESS:     576396
L1I AVERAGE MISS LATENCY: 20.202 cycles
L2C TOTAL     ACCESS:    3100120  HIT:    2822056  MISS:     278064
L2C LOAD      ACCESS:     501897  HIT:     409533  MISS:      92364
L2C RFO       ACCESS:     117328  HIT:      46238  MISS:      71090
L2C PREFETCH  ACCESS:    2258881  HIT:    2144831  MISS:     114050
L2C WRITEBACK ACCESS:     222014  HIT:     221454  MISS:        560
L2C PREFETCH  REQUESTED:    1480689  ISSUED:    1480422  USEFUL:      19668  USELESS:      93537
L2C AVERAGE MISS LATENCY: 80.6929 cycles
LLC TOTAL     ACCESS:     677516  HIT:     554556  MISS:     122960
LLC LOAD      ACCESS:      92350  HIT:      65215  MISS:      27135
LLC RFO       ACCESS:      71090  HIT:      40844  MISS:      30246
LLC PREFETCH  ACCESS:     414235  HIT:     348857  MISS:      65378
LLC WRITEBACK ACCESS:      99841  HIT:      99640  MISS:        201
LLC PREFETCH  REQUESTED:          0  ISSUED:          0  USEFUL:      21060  USELESS:      45143
LLC AVERAGE MISS LATENCY: 172.778 cycles
Major fault: 0 Minor fault: 3976
CPU 0 L1D next line prefetcher final stats

DRAM Statistics
 CHANNEL 0
 RQ ROW_BUFFER_HIT:      30997  ROW_BUFFER_MISS:      91755
 DBUS_CONGESTED:      52432
 WQ ROW_BUFFER_HIT:       9547  ROW_BUFFER_MISS:      32228  FULL:          0

 AVG_CONGESTED_CYCLE: 5

CPU 0 Branch Prediction Accuracy: 94.1242% MPKI: 11.6089 Average ROB Occupancy at Mispredict: 54.7341

Branch types
NOT_BRANCH: 40121055 80.2421%
BRANCH_DIRECT_JUMP: 644555 1.28911%
BRANCH_INDIRECT: 201946 0.403892%
BRANCH_CONDITIONAL: 7003556 14.0071%
BRANCH_DIRECT_CALL: 564820 1.12964%
BRANCH_INDIRECT_CALL: 445012 0.890024%
BRANCH_RETURN: 1018716 2.03743%
BRANCH_OTHER: 0 0%

