Initialize SIGNATURE TABLE
ST_SET: 1
ST_WAY: 256
ST_TAG_BIT: 16
ST_TAG_MASK: ffff

Initialize PATTERN TABLE
PT_SET: 512
PT_WAY: 4
SIG_DELTA_BIT: 7
C_SIG_BIT: 4
C_DELTA_BIT: 4

Initialize PREFETCH FILTER
FILTER_SET: 1024

*** ChampSim Multicore Out-of-Order Simulator ***

Warmup Instructions: 50000000
Simulation Instructions: 50000000
Number of CPUs: 1
LLC sets: 2048
LLC ways: 16
Off-chip DRAM Size: 4096 MB Channels: 1 Width: 64-bit Data Rate: 3200 MT/s

CPU 0 runs /Users/gandhardeshpande/Desktop/CSE240C/HW1/ChampSim/ipc1_public/server_009.champsimtrace.xz
L1I Barca has been initializedCPU 0 L1D next line prefetcher
Heartbeat CPU 0 instructions: 10000003 cycles: 3199607 heartbeat IPC: 3.12538 cumulative IPC: 3.12538 (Simulation time: 0 hr 0 min 18 sec) 
Heartbeat CPU 0 instructions: 20000001 cycles: 6392265 heartbeat IPC: 3.13219 cumulative IPC: 3.12878 (Simulation time: 0 hr 0 min 36 sec) 
Heartbeat CPU 0 instructions: 30000002 cycles: 9600000 heartbeat IPC: 3.11746 cumulative IPC: 3.125 (Simulation time: 0 hr 0 min 54 sec) 
Heartbeat CPU 0 instructions: 40000003 cycles: 12803500 heartbeat IPC: 3.12159 cumulative IPC: 3.12415 (Simulation time: 0 hr 1 min 12 sec) 
Heartbeat CPU 0 instructions: 50000000 cycles: 16064019 heartbeat IPC: 3.067 cumulative IPC: 3.11255 (Simulation time: 0 hr 1 min 31 sec) 

Warmup complete CPU 0 instructions: 50000004 cycles: 16064020 (Simulation time: 0 hr 1 min 31 sec) 

Heartbeat CPU 0 instructions: 60000002 cycles: 31657208 heartbeat IPC: 0.641306 cumulative IPC: 0.641306 (Simulation time: 0 hr 1 min 52 sec) 
Heartbeat CPU 0 instructions: 70000003 cycles: 52661641 heartbeat IPC: 0.47609 cumulative IPC: 0.546484 (Simulation time: 0 hr 2 min 20 sec) 
Heartbeat CPU 0 instructions: 80000000 cycles: 59806992 heartbeat IPC: 1.39951 cumulative IPC: 0.685824 (Simulation time: 0 hr 2 min 36 sec) 
Heartbeat CPU 0 instructions: 90000001 cycles: 67059320 heartbeat IPC: 1.37887 cumulative IPC: 0.784386 (Simulation time: 0 hr 2 min 53 sec) 
Heartbeat CPU 0 instructions: 100000003 cycles: 74161834 heartbeat IPC: 1.40795 cumulative IPC: 0.860618 (Simulation time: 0 hr 3 min 10 sec) 
Finished CPU 0 instructions: 50000003 cycles: 58097815 cumulative IPC: 0.860618 (Simulation time: 0 hr 3 min 10 sec) 

ChampSim completed all CPUs

Region of Interest Statistics

CPU 0 cumulative IPC: 0.860618 instructions: 50000003 cycles: 58097815
L1D TOTAL     ACCESS:   21637572  HIT:   17058029  MISS:    4579543
L1D LOAD      ACCESS:    8634095  HIT:    6353652  MISS:    2280443
L1D RFO       ACCESS:    4582227  HIT:    4477784  MISS:     104443
L1D PREFETCH  ACCESS:    8421250  HIT:    6226593  MISS:    2194657
L1D WRITEBACK ACCESS:          0  HIT:          0  MISS:          0
L1D PREFETCH  REQUESTED:    8666784  ISSUED:    8569902  USEFUL:     106135  USELESS:    2088521
L1D AVERAGE MISS LATENCY: 20.2134 cycles
L1I TOTAL     ACCESS:   12375454  HIT:   10894906  MISS:    1480548
L1I LOAD      ACCESS:   10743810  HIT:   10589184  MISS:     154626
L1I RFO       ACCESS:          0  HIT:          0  MISS:          0
L1I PREFETCH  ACCESS:    1631644  HIT:     305722  MISS:    1325922
L1I WRITEBACK ACCESS:          0  HIT:          0  MISS:          0
L1I PREFETCH  REQUESTED:    1881470  ISSUED:    1881470  USEFUL:     955841  USELESS:     370155
L1I AVERAGE MISS LATENCY: 28.4077 cycles
L2C TOTAL     ACCESS:    7784100  HIT:    6803919  MISS:     980181
L2C LOAD      ACCESS:    2320431  HIT:    2097950  MISS:     222481
L2C RFO       ACCESS:     103512  HIT:      63405  MISS:      40107
L2C PREFETCH  ACCESS:    5103289  HIT:    4386709  MISS:     716580
L2C WRITEBACK ACCESS:     256868  HIT:     255855  MISS:       1013
L2C PREFETCH  REQUESTED:    6457787  ISSUED:    6454906  USEFUL:      21034  USELESS:     694552
L2C AVERAGE MISS LATENCY: 46.7192 cycles
LLC TOTAL     ACCESS:    2206089  HIT:    2076334  MISS:     129755
LLC LOAD      ACCESS:     222251  HIT:     203351  MISS:      18900
LLC RFO       ACCESS:      40105  HIT:      31446  MISS:       8659
LLC PREFETCH  ACCESS:    1807634  HIT:    1705688  MISS:     101946
LLC WRITEBACK ACCESS:     136099  HIT:     135849  MISS:        250
LLC PREFETCH  REQUESTED:          0  ISSUED:          0  USEFUL:       9033  USELESS:      90395
LLC AVERAGE MISS LATENCY: 171.86 cycles
Major fault: 0 Minor fault: 6351
CPU 0 L1D next line prefetcher final stats

DRAM Statistics
 CHANNEL 0
 RQ ROW_BUFFER_HIT:      24976  ROW_BUFFER_MISS:     104514
 DBUS_CONGESTED:      55940
 WQ ROW_BUFFER_HIT:       8909  ROW_BUFFER_MISS:      36968  FULL:          0

 AVG_CONGESTED_CYCLE: 5

CPU 0 Branch Prediction Accuracy: 99.4713% MPKI: 1.11484 Average ROB Occupancy at Mispredict: 115.599

Branch types
NOT_BRANCH: 39456615 78.9132%
BRANCH_DIRECT_JUMP: 445350 0.8907%
BRANCH_INDIRECT: 131149 0.262298%
BRANCH_CONDITIONAL: 8130196 16.2604%
BRANCH_DIRECT_CALL: 732485 1.46497%
BRANCH_INDIRECT_CALL: 172369 0.344738%
BRANCH_RETURN: 931558 1.86312%
BRANCH_OTHER: 0 0%

