
*** ChampSim Multicore Out-of-Order Simulator ***

Warmup Instructions: 50000000
Simulation Instructions: 100000000
Configuration: 2
Number of CPUs: 1
LLC sets: 2048
LLC ways: 16
Off-chip DRAM Channels: 1 Width: 64-bit Data Rate: 1600 MT/s

CPU 0 runs /datasets/cs240c-wi22-a00-public/data/Assignment2-gz/bzip2_183B.trace.gz
CPU 0 L1D next line prefetcher
CPU 0 L2C IP-based stride prefetcher
Heartbeat CPU 0 instructions: 1000000 cycles: 447973 heartbeat IPC: 2.23228 cumulative IPC: 2.23228 (Simulation time: 0 hr 0 min 29 sec) 
select_counter is 431
Heartbeat CPU 0 instructions: 2000001 cycles: 951246 heartbeat IPC: 1.987 cumulative IPC: 2.10251 (Simulation time: 0 hr 0 min 53 sec) 
select_counter is 427
Heartbeat CPU 0 instructions: 3000001 cycles: 1457931 heartbeat IPC: 1.97361 cumulative IPC: 2.05771 (Simulation time: 0 hr 1 min 16 sec) 
select_counter is 414
Heartbeat CPU 0 instructions: 4000000 cycles: 1928613 heartbeat IPC: 2.12457 cumulative IPC: 2.07403 (Simulation time: 0 hr 1 min 40 sec) 
select_counter is 331
Heartbeat CPU 0 instructions: 5000000 cycles: 2425920 heartbeat IPC: 2.01083 cumulative IPC: 2.06107 (Simulation time: 0 hr 2 min 4 sec) 
select_counter is 304
Heartbeat CPU 0 instructions: 6000001 cycles: 2887518 heartbeat IPC: 2.16639 cumulative IPC: 2.07791 (Simulation time: 0 hr 2 min 35 sec) 
select_counter is 270
Heartbeat CPU 0 instructions: 7000002 cycles: 3343379 heartbeat IPC: 2.19365 cumulative IPC: 2.09369 (Simulation time: 0 hr 3 min 0 sec) 
select_counter is 154
Heartbeat CPU 0 instructions: 8000000 cycles: 3812971 heartbeat IPC: 2.1295 cumulative IPC: 2.0981 (Simulation time: 0 hr 3 min 25 sec) 
select_counter is 134
Heartbeat CPU 0 instructions: 9000003 cycles: 4278215 heartbeat IPC: 2.14942 cumulative IPC: 2.10368 (Simulation time: 0 hr 3 min 48 sec) 
select_counter is 84
Heartbeat CPU 0 instructions: 10000000 cycles: 4746650 heartbeat IPC: 2.13476 cumulative IPC: 2.10675 (Simulation time: 0 hr 4 min 14 sec) 
select_counter is 40
Heartbeat CPU 0 instructions: 11000000 cycles: 5209416 heartbeat IPC: 2.16092 cumulative IPC: 2.11156 (Simulation time: 0 hr 4 min 41 sec) 
select_counter is 5
Heartbeat CPU 0 instructions: 12000000 cycles: 5685027 heartbeat IPC: 2.10256 cumulative IPC: 2.11081 (Simulation time: 0 hr 5 min 7 sec) 
select_counter is 992
Heartbeat CPU 0 instructions: 13000003 cycles: 6152184 heartbeat IPC: 2.14061 cumulative IPC: 2.11307 (Simulation time: 0 hr 5 min 32 sec) 
select_counter is 975
Heartbeat CPU 0 instructions: 14000003 cycles: 6651533 heartbeat IPC: 2.00261 cumulative IPC: 2.10478 (Simulation time: 0 hr 6 min 0 sec) 
select_counter is 931
Heartbeat CPU 0 instructions: 15000002 cycles: 7120655 heartbeat IPC: 2.13164 cumulative IPC: 2.10655 (Simulation time: 0 hr 6 min 27 sec) 
select_counter is 880
Heartbeat CPU 0 instructions: 16000000 cycles: 7634729 heartbeat IPC: 1.94524 cumulative IPC: 2.09569 (Simulation time: 0 hr 6 min 56 sec) 
select_counter is 870
Heartbeat CPU 0 instructions: 17000000 cycles: 8128723 heartbeat IPC: 2.02432 cumulative IPC: 2.09135 (Simulation time: 0 hr 7 min 24 sec) 
select_counter is 862
Heartbeat CPU 0 instructions: 18000001 cycles: 8692931 heartbeat IPC: 1.7724 cumulative IPC: 2.07065 (Simulation time: 0 hr 7 min 53 sec) 
select_counter is 862
Heartbeat CPU 0 instructions: 19000000 cycles: 9204508 heartbeat IPC: 1.95474 cumulative IPC: 2.06421 (Simulation time: 0 hr 8 min 22 sec) 
select_counter is 835
Heartbeat CPU 0 instructions: 20000000 cycles: 9694532 heartbeat IPC: 2.04072 cumulative IPC: 2.06302 (Simulation time: 0 hr 8 min 50 sec) 
select_counter is 826
Heartbeat CPU 0 instructions: 21000003 cycles: 10143203 heartbeat IPC: 2.22881 cumulative IPC: 2.07035 (Simulation time: 0 hr 9 min 18 sec) 
select_counter is 812
Heartbeat CPU 0 instructions: 22000003 cycles: 10608184 heartbeat IPC: 2.15063 cumulative IPC: 2.07387 (Simulation time: 0 hr 9 min 42 sec) 
select_counter is 788
Heartbeat CPU 0 instructions: 23000002 cycles: 11089363 heartbeat IPC: 2.07823 cumulative IPC: 2.07406 (Simulation time: 0 hr 10 min 9 sec) 
select_counter is 737
Heartbeat CPU 0 instructions: 24000000 cycles: 11585747 heartbeat IPC: 2.01457 cumulative IPC: 2.07151 (Simulation time: 0 hr 10 min 34 sec) 
select_counter is 726
Heartbeat CPU 0 instructions: 25000001 cycles: 12038393 heartbeat IPC: 2.20923 cumulative IPC: 2.07669 (Simulation time: 0 hr 11 min 5 sec) 
select_counter is 728
Heartbeat CPU 0 instructions: 26000003 cycles: 12530855 heartbeat IPC: 2.03062 cumulative IPC: 2.07488 (Simulation time: 0 hr 11 min 30 sec) 
select_counter is 725
Heartbeat CPU 0 instructions: 27000000 cycles: 13047926 heartbeat IPC: 1.93396 cumulative IPC: 2.06929 (Simulation time: 0 hr 11 min 58 sec) 
select_counter is 720
Heartbeat CPU 0 instructions: 28000000 cycles: 13507484 heartbeat IPC: 2.176 cumulative IPC: 2.07292 (Simulation time: 0 hr 12 min 22 sec) 
select_counter is 708
Heartbeat CPU 0 instructions: 29000000 cycles: 13996311 heartbeat IPC: 2.04571 cumulative IPC: 2.07197 (Simulation time: 0 hr 12 min 52 sec) 
select_counter is 704
Heartbeat CPU 0 instructions: 30000000 cycles: 14449582 heartbeat IPC: 2.20619 cumulative IPC: 2.07618 (Simulation time: 0 hr 13 min 19 sec) 
select_counter is 692
Heartbeat CPU 0 instructions: 31000002 cycles: 14908602 heartbeat IPC: 2.17856 cumulative IPC: 2.07934 (Simulation time: 0 hr 13 min 42 sec) 
select_counter is 655
Heartbeat CPU 0 instructions: 32000000 cycles: 15367336 heartbeat IPC: 2.17991 cumulative IPC: 2.08234 (Simulation time: 0 hr 14 min 9 sec) 
select_counter is 640
Heartbeat CPU 0 instructions: 33000001 cycles: 15838166 heartbeat IPC: 2.12391 cumulative IPC: 2.08357 (Simulation time: 0 hr 14 min 35 sec) 
select_counter is 601
Heartbeat CPU 0 instructions: 34000001 cycles: 16348076 heartbeat IPC: 1.96113 cumulative IPC: 2.07976 (Simulation time: 0 hr 15 min 0 sec) 
select_counter is 599
Heartbeat CPU 0 instructions: 35000002 cycles: 16856924 heartbeat IPC: 1.96523 cumulative IPC: 2.0763 (Simulation time: 0 hr 15 min 24 sec) 
select_counter is 595
Heartbeat CPU 0 instructions: 36000000 cycles: 17329546 heartbeat IPC: 2.11585 cumulative IPC: 2.07738 (Simulation time: 0 hr 15 min 47 sec) 
select_counter is 581
Heartbeat CPU 0 instructions: 37000002 cycles: 17805871 heartbeat IPC: 2.09941 cumulative IPC: 2.07797 (Simulation time: 0 hr 16 min 14 sec) 
select_counter is 551
Heartbeat CPU 0 instructions: 38000001 cycles: 18248939 heartbeat IPC: 2.25699 cumulative IPC: 2.08231 (Simulation time: 0 hr 16 min 38 sec) 
select_counter is 531
Heartbeat CPU 0 instructions: 39000001 cycles: 18713721 heartbeat IPC: 2.15155 cumulative IPC: 2.08403 (Simulation time: 0 hr 17 min 1 sec) 
select_counter is 512
Heartbeat CPU 0 instructions: 40000000 cycles: 19223650 heartbeat IPC: 1.96106 cumulative IPC: 2.08077 (Simulation time: 0 hr 17 min 28 sec) 
select_counter is 506
Heartbeat CPU 0 instructions: 41000000 cycles: 19682882 heartbeat IPC: 2.17755 cumulative IPC: 2.08303 (Simulation time: 0 hr 17 min 50 sec) 
select_counter is 485
Heartbeat CPU 0 instructions: 42000000 cycles: 20162964 heartbeat IPC: 2.08298 cumulative IPC: 2.08303 (Simulation time: 0 hr 18 min 15 sec) 
select_counter is 477
Heartbeat CPU 0 instructions: 43000001 cycles: 20622444 heartbeat IPC: 2.17638 cumulative IPC: 2.08511 (Simulation time: 0 hr 18 min 40 sec) 
select_counter is 469
Heartbeat CPU 0 instructions: 44000000 cycles: 21113497 heartbeat IPC: 2.03644 cumulative IPC: 2.08398 (Simulation time: 0 hr 19 min 3 sec) 
select_counter is 464
Heartbeat CPU 0 instructions: 45000000 cycles: 21572340 heartbeat IPC: 2.17939 cumulative IPC: 2.086 (Simulation time: 0 hr 19 min 27 sec) 
select_counter is 440
Heartbeat CPU 0 instructions: 46000000 cycles: 22064184 heartbeat IPC: 2.03316 cumulative IPC: 2.08483 (Simulation time: 0 hr 19 min 49 sec) 
select_counter is 422
Heartbeat CPU 0 instructions: 47000002 cycles: 22566151 heartbeat IPC: 1.99217 cumulative IPC: 2.08277 (Simulation time: 0 hr 20 min 14 sec) 
select_counter is 418
Heartbeat CPU 0 instructions: 48000000 cycles: 22998748 heartbeat IPC: 2.31162 cumulative IPC: 2.08707 (Simulation time: 0 hr 20 min 39 sec) 
select_counter is 406
Heartbeat CPU 0 instructions: 49000003 cycles: 23457068 heartbeat IPC: 2.18189 cumulative IPC: 2.08892 (Simulation time: 0 hr 21 min 6 sec) 
select_counter is 386
Heartbeat CPU 0 instructions: 50000001 cycles: 23888787 heartbeat IPC: 2.31632 cumulative IPC: 2.09303 (Simulation time: 0 hr 21 min 29 sec) 
select_counter is 374

Warmup complete CPU 0 instructions: 50000001 cycles: 23888787 (Simulation time: 0 hr 21 min 29 sec) 

Heartbeat CPU 0 instructions: 51000000 cycles: 24918705 heartbeat IPC: 0.97095 cumulative IPC: 0.97095 (Simulation time: 0 hr 21 min 49 sec) 
select_counter is 371
Heartbeat CPU 0 instructions: 52000000 cycles: 25939729 heartbeat IPC: 0.979409 cumulative IPC: 0.975161 (Simulation time: 0 hr 22 min 12 sec) 
select_counter is 365
Heartbeat CPU 0 instructions: 53000001 cycles: 26918235 heartbeat IPC: 1.02197 cumulative IPC: 0.990279 (Simulation time: 0 hr 22 min 35 sec) 
select_counter is 333
Heartbeat CPU 0 instructions: 54000001 cycles: 27926748 heartbeat IPC: 0.991559 cumulative IPC: 0.990599 (Simulation time: 0 hr 22 min 56 sec) 
select_counter is 322
Heartbeat CPU 0 instructions: 55000001 cycles: 29159845 heartbeat IPC: 0.810966 cumulative IPC: 0.948576 (Simulation time: 0 hr 23 min 18 sec) 
select_counter is 320
Heartbeat CPU 0 instructions: 56000000 cycles: 30349787 heartbeat IPC: 0.840376 cumulative IPC: 0.928649 (Simulation time: 0 hr 23 min 41 sec) 
select_counter is 291
Heartbeat CPU 0 instructions: 57000003 cycles: 31729612 heartbeat IPC: 0.724732 cumulative IPC: 0.892763 (Simulation time: 0 hr 24 min 5 sec) 
select_counter is 253
Heartbeat CPU 0 instructions: 58000001 cycles: 33304473 heartbeat IPC: 0.634975 cumulative IPC: 0.849646 (Simulation time: 0 hr 24 min 29 sec) 
select_counter is 230
Heartbeat CPU 0 instructions: 59000003 cycles: 34611138 heartbeat IPC: 0.765309 cumulative IPC: 0.839368 (Simulation time: 0 hr 24 min 50 sec) 
select_counter is 222
Heartbeat CPU 0 instructions: 60000000 cycles: 36188029 heartbeat IPC: 0.634157 cumulative IPC: 0.813058 (Simulation time: 0 hr 25 min 15 sec) 
select_counter is 223
Heartbeat CPU 0 instructions: 61000003 cycles: 37908503 heartbeat IPC: 0.581237 cumulative IPC: 0.784609 (Simulation time: 0 hr 25 min 35 sec) 
select_counter is 205
Heartbeat CPU 0 instructions: 62000002 cycles: 39453193 heartbeat IPC: 0.647378 cumulative IPC: 0.77099 (Simulation time: 0 hr 25 min 56 sec) 
select_counter is 199
Heartbeat CPU 0 instructions: 63000003 cycles: 40845128 heartbeat IPC: 0.718425 cumulative IPC: 0.766675 (Simulation time: 0 hr 26 min 20 sec) 
select_counter is 193
Heartbeat CPU 0 instructions: 64000000 cycles: 42411144 heartbeat IPC: 0.638561 cumulative IPC: 0.755843 (Simulation time: 0 hr 26 min 40 sec) 
select_counter is 191
Heartbeat CPU 0 instructions: 65000003 cycles: 43668350 heartbeat IPC: 0.795417 cumulative IPC: 0.758359 (Simulation time: 0 hr 27 min 1 sec) 
select_counter is 179
Heartbeat CPU 0 instructions: 66000000 cycles: 44998570 heartbeat IPC: 0.751753 cumulative IPC: 0.757942 (Simulation time: 0 hr 27 min 24 sec) 
select_counter is 170
Heartbeat CPU 0 instructions: 67000000 cycles: 45938573 heartbeat IPC: 1.06383 cumulative IPC: 0.770983 (Simulation time: 0 hr 27 min 46 sec) 
select_counter is 164
Heartbeat CPU 0 instructions: 68000000 cycles: 47336923 heartbeat IPC: 0.715129 cumulative IPC: 0.767652 (Simulation time: 0 hr 28 min 7 sec) 
select_counter is 158
Heartbeat CPU 0 instructions: 69000000 cycles: 48910030 heartbeat IPC: 0.635685 cumulative IPC: 0.759355 (Simulation time: 0 hr 28 min 27 sec) 
select_counter is 157
Heartbeat CPU 0 instructions: 70000002 cycles: 50377211 heartbeat IPC: 0.681581 cumulative IPC: 0.755047 (Simulation time: 0 hr 28 min 52 sec) 
select_counter is 118
Heartbeat CPU 0 instructions: 71000000 cycles: 51938958 heartbeat IPC: 0.640307 cumulative IPC: 0.748658 (Simulation time: 0 hr 29 min 15 sec) 
select_counter is 106
Heartbeat CPU 0 instructions: 72000000 cycles: 53307602 heartbeat IPC: 0.73065 cumulative IPC: 0.747821 (Simulation time: 0 hr 29 min 36 sec) 
select_counter is 94
Heartbeat CPU 0 instructions: 73000001 cycles: 54592689 heartbeat IPC: 0.778158 cumulative IPC: 0.74909 (Simulation time: 0 hr 30 min 0 sec) 
select_counter is 85
Heartbeat CPU 0 instructions: 74000000 cycles: 55744900 heartbeat IPC: 0.867896 cumulative IPC: 0.753388 (Simulation time: 0 hr 30 min 23 sec) 
select_counter is 68
Heartbeat CPU 0 instructions: 75000001 cycles: 57159137 heartbeat IPC: 0.707096 cumulative IPC: 0.75142 (Simulation time: 0 hr 30 min 45 sec) 
select_counter is 37
Heartbeat CPU 0 instructions: 76000000 cycles: 58299478 heartbeat IPC: 0.87693 cumulative IPC: 0.755579 (Simulation time: 0 hr 31 min 14 sec) 
select_counter is 29
Heartbeat CPU 0 instructions: 77000003 cycles: 59477116 heartbeat IPC: 0.84916 cumulative IPC: 0.758676 (Simulation time: 0 hr 31 min 36 sec) 
select_counter is 23
Heartbeat CPU 0 instructions: 78000000 cycles: 60810494 heartbeat IPC: 0.749973 cumulative IPC: 0.758361 (Simulation time: 0 hr 32 min 0 sec) 
select_counter is 9
Heartbeat CPU 0 instructions: 79000000 cycles: 62155931 heartbeat IPC: 0.743253 cumulative IPC: 0.75783 (Simulation time: 0 hr 32 min 28 sec) 
select_counter is 1013
Heartbeat CPU 0 instructions: 80000000 cycles: 63543755 heartbeat IPC: 0.720552 cumulative IPC: 0.756526 (Simulation time: 0 hr 32 min 50 sec) 
select_counter is 991
Heartbeat CPU 0 instructions: 81000000 cycles: 65239140 heartbeat IPC: 0.589837 cumulative IPC: 0.749691 (Simulation time: 0 hr 33 min 14 sec) 
select_counter is 978
Heartbeat CPU 0 instructions: 82000002 cycles: 66792017 heartbeat IPC: 0.643967 cumulative IPC: 0.745865 (Simulation time: 0 hr 33 min 38 sec) 
select_counter is 973
Heartbeat CPU 0 instructions: 83000000 cycles: 67961132 heartbeat IPC: 0.855346 cumulative IPC: 0.748769 (Simulation time: 0 hr 34 min 5 sec) 
select_counter is 947
Heartbeat CPU 0 instructions: 84000000 cycles: 68916056 heartbeat IPC: 1.0472 cumulative IPC: 0.755098 (Simulation time: 0 hr 34 min 24 sec) 
select_counter is 949
Heartbeat CPU 0 instructions: 85000002 cycles: 69961388 heartbeat IPC: 0.956636 cumulative IPC: 0.759671 (Simulation time: 0 hr 34 min 46 sec) 
select_counter is 951
Heartbeat CPU 0 instructions: 86000002 cycles: 70940091 heartbeat IPC: 1.02176 cumulative IPC: 0.765122 (Simulation time: 0 hr 35 min 7 sec) 
select_counter is 944
Heartbeat CPU 0 instructions: 87000001 cycles: 71961582 heartbeat IPC: 0.97896 cumulative IPC: 0.769666 (Simulation time: 0 hr 35 min 31 sec) 
select_counter is 925
Heartbeat CPU 0 instructions: 88000000 cycles: 73259932 heartbeat IPC: 0.770208 cumulative IPC: 0.76968 (Simulation time: 0 hr 35 min 50 sec) 
select_counter is 918
Heartbeat CPU 0 instructions: 89000000 cycles: 74790261 heartbeat IPC: 0.653454 cumulative IPC: 0.766186 (Simulation time: 0 hr 36 min 14 sec) 
select_counter is 888
Heartbeat CPU 0 instructions: 90000002 cycles: 76294778 heartbeat IPC: 0.664666 cumulative IPC: 0.763272 (Simulation time: 0 hr 36 min 35 sec) 
select_counter is 872
Heartbeat CPU 0 instructions: 91000000 cycles: 78006512 heartbeat IPC: 0.584202 cumulative IPC: 0.757608 (Simulation time: 0 hr 37 min 6 sec) 
select_counter is 857
Heartbeat CPU 0 instructions: 92000000 cycles: 79505650 heartbeat IPC: 0.66705 cumulative IPC: 0.755167 (Simulation time: 0 hr 37 min 31 sec) 
select_counter is 858
Heartbeat CPU 0 instructions: 93000001 cycles: 80779583 heartbeat IPC: 0.784971 cumulative IPC: 0.755834 (Simulation time: 0 hr 37 min 59 sec) 
select_counter is 813
Heartbeat CPU 0 instructions: 94000000 cycles: 82532364 heartbeat IPC: 0.570521 cumulative IPC: 0.750295 (Simulation time: 0 hr 38 min 23 sec) 
select_counter is 790
Heartbeat CPU 0 instructions: 95000002 cycles: 84145782 heartbeat IPC: 0.619803 cumulative IPC: 0.746801 (Simulation time: 0 hr 38 min 45 sec) 
select_counter is 773
Heartbeat CPU 0 instructions: 96000000 cycles: 85752453 heartbeat IPC: 0.622404 cumulative IPC: 0.743571 (Simulation time: 0 hr 39 min 7 sec) 
select_counter is 757
Heartbeat CPU 0 instructions: 97000000 cycles: 87161495 heartbeat IPC: 0.709702 cumulative IPC: 0.742816 (Simulation time: 0 hr 39 min 33 sec) 
select_counter is 738
Heartbeat CPU 0 instructions: 98000000 cycles: 88439863 heartbeat IPC: 0.782247 cumulative IPC: 0.743597 (Simulation time: 0 hr 39 min 54 sec) 
select_counter is 731
Heartbeat CPU 0 instructions: 99000003 cycles: 89570887 heartbeat IPC: 0.884157 cumulative IPC: 0.746018 (Simulation time: 0 hr 40 min 16 sec) 
select_counter is 726
Heartbeat CPU 0 instructions: 100000000 cycles: 91067497 heartbeat IPC: 0.668175 cumulative IPC: 0.744283 (Simulation time: 0 hr 40 min 37 sec) 
select_counter is 691
Heartbeat CPU 0 instructions: 101000000 cycles: 92577139 heartbeat IPC: 0.662409 cumulative IPC: 0.742484 (Simulation time: 0 hr 40 min 59 sec) 
select_counter is 687
Heartbeat CPU 0 instructions: 102000001 cycles: 94275418 heartbeat IPC: 0.588832 cumulative IPC: 0.738777 (Simulation time: 0 hr 41 min 22 sec) 
select_counter is 681
Heartbeat CPU 0 instructions: 103000002 cycles: 95598422 heartbeat IPC: 0.755856 cumulative IPC: 0.739092 (Simulation time: 0 hr 41 min 51 sec) 
select_counter is 673
Heartbeat CPU 0 instructions: 104000000 cycles: 97317206 heartbeat IPC: 0.581806 cumulative IPC: 0.73541 (Simulation time: 0 hr 42 min 14 sec) 
select_counter is 653
Heartbeat CPU 0 instructions: 105000002 cycles: 98290517 heartbeat IPC: 1.02742 cumulative IPC: 0.73923 (Simulation time: 0 hr 42 min 35 sec) 
select_counter is 643
Heartbeat CPU 0 instructions: 106000000 cycles: 99825693 heartbeat IPC: 0.65139 cumulative IPC: 0.737454 (Simulation time: 0 hr 42 min 54 sec) 
select_counter is 646
Heartbeat CPU 0 instructions: 107000002 cycles: 101392111 heartbeat IPC: 0.6384 cumulative IPC: 0.735452 (Simulation time: 0 hr 43 min 15 sec) 
select_counter is 632
Heartbeat CPU 0 instructions: 108000000 cycles: 102715533 heartbeat IPC: 0.755615 cumulative IPC: 0.735791 (Simulation time: 0 hr 43 min 51 sec) 
select_counter is 617
Heartbeat CPU 0 instructions: 109000002 cycles: 104420863 heartbeat IPC: 0.586398 cumulative IPC: 0.732627 (Simulation time: 0 hr 44 min 14 sec) 
select_counter is 606
Heartbeat CPU 0 instructions: 110000000 cycles: 105655162 heartbeat IPC: 0.810175 cumulative IPC: 0.733798 (Simulation time: 0 hr 44 min 34 sec) 
select_counter is 590
Heartbeat CPU 0 instructions: 111000001 cycles: 107127086 heartbeat IPC: 0.679384 cumulative IPC: 0.732836 (Simulation time: 0 hr 44 min 54 sec) 
select_counter is 560
Heartbeat CPU 0 instructions: 112000000 cycles: 108238805 heartbeat IPC: 0.899507 cumulative IPC: 0.735032 (Simulation time: 0 hr 45 min 15 sec) 
select_counter is 552
Heartbeat CPU 0 instructions: 113000001 cycles: 109249692 heartbeat IPC: 0.989231 cumulative IPC: 0.738043 (Simulation time: 0 hr 45 min 37 sec) 
select_counter is 548
Heartbeat CPU 0 instructions: 114000001 cycles: 110157792 heartbeat IPC: 1.1012 cumulative IPC: 0.741866 (Simulation time: 0 hr 45 min 59 sec) 
select_counter is 542
Heartbeat CPU 0 instructions: 115000002 cycles: 111087408 heartbeat IPC: 1.07571 cumulative IPC: 0.745425 (Simulation time: 0 hr 46 min 25 sec) 
select_counter is 538
Heartbeat CPU 0 instructions: 116000000 cycles: 112222809 heartbeat IPC: 0.880744 cumulative IPC: 0.747164 (Simulation time: 0 hr 46 min 50 sec) 
select_counter is 502
Heartbeat CPU 0 instructions: 117000003 cycles: 113828868 heartbeat IPC: 0.622644 cumulative IPC: 0.74494 (Simulation time: 0 hr 47 min 17 sec) 
select_counter is 485
Heartbeat CPU 0 instructions: 118000003 cycles: 115170126 heartbeat IPC: 0.745569 cumulative IPC: 0.74495 (Simulation time: 0 hr 47 min 41 sec) 
select_counter is 464
Heartbeat CPU 0 instructions: 119000000 cycles: 116160586 heartbeat IPC: 1.00963 cumulative IPC: 0.747791 (Simulation time: 0 hr 48 min 4 sec) 
select_counter is 454
Heartbeat CPU 0 instructions: 120000000 cycles: 117224456 heartbeat IPC: 0.939964 cumulative IPC: 0.749981 (Simulation time: 0 hr 48 min 24 sec) 
select_counter is 449
Heartbeat CPU 0 instructions: 121000001 cycles: 118774011 heartbeat IPC: 0.645347 cumulative IPC: 0.748272 (Simulation time: 0 hr 48 min 46 sec) 
select_counter is 438
Heartbeat CPU 0 instructions: 122000002 cycles: 120019301 heartbeat IPC: 0.803027 cumulative IPC: 0.748982 (Simulation time: 0 hr 49 min 10 sec) 
select_counter is 421
Heartbeat CPU 0 instructions: 123000000 cycles: 121655733 heartbeat IPC: 0.611084 cumulative IPC: 0.746674 (Simulation time: 0 hr 49 min 31 sec) 
select_counter is 409
Heartbeat CPU 0 instructions: 124000000 cycles: 123072802 heartbeat IPC: 0.705682 cumulative IPC: 0.746088 (Simulation time: 0 hr 49 min 53 sec) 
select_counter is 400
Heartbeat CPU 0 instructions: 125000003 cycles: 124419737 heartbeat IPC: 0.742429 cumulative IPC: 0.746039 (Simulation time: 0 hr 50 min 16 sec) 
select_counter is 398
Heartbeat CPU 0 instructions: 126000000 cycles: 125424575 heartbeat IPC: 0.995182 cumulative IPC: 0.748505 (Simulation time: 0 hr 50 min 41 sec) 
select_counter is 407
Heartbeat CPU 0 instructions: 127000001 cycles: 127037076 heartbeat IPC: 0.620155 cumulative IPC: 0.746498 (Simulation time: 0 hr 51 min 2 sec) 
select_counter is 383
Heartbeat CPU 0 instructions: 128000000 cycles: 128664636 heartbeat IPC: 0.614416 cumulative IPC: 0.744446 (Simulation time: 0 hr 51 min 23 sec) 
select_counter is 369
Heartbeat CPU 0 instructions: 129000000 cycles: 130341938 heartbeat IPC: 0.596196 cumulative IPC: 0.74211 (Simulation time: 0 hr 51 min 45 sec) 
select_counter is 366
Heartbeat CPU 0 instructions: 130000002 cycles: 131575806 heartbeat IPC: 0.810461 cumulative IPC: 0.742894 (Simulation time: 0 hr 52 min 16 sec) 
select_counter is 322
Heartbeat CPU 0 instructions: 131000000 cycles: 132561911 heartbeat IPC: 1.01409 cumulative IPC: 0.745354 (Simulation time: 0 hr 52 min 46 sec) 
select_counter is 246
Heartbeat CPU 0 instructions: 132000000 cycles: 133816022 heartbeat IPC: 0.797378 cumulative IPC: 0.745948 (Simulation time: 0 hr 53 min 17 sec) 
select_counter is 219
Heartbeat CPU 0 instructions: 133000001 cycles: 134769546 heartbeat IPC: 1.04874 cumulative IPC: 0.748552 (Simulation time: 0 hr 53 min 38 sec) 
select_counter is 209
Heartbeat CPU 0 instructions: 134000000 cycles: 135683244 heartbeat IPC: 1.09445 cumulative IPC: 0.751379 (Simulation time: 0 hr 53 min 57 sec) 
select_counter is 207
Heartbeat CPU 0 instructions: 135000002 cycles: 136586930 heartbeat IPC: 1.10658 cumulative IPC: 0.754227 (Simulation time: 0 hr 54 min 15 sec) 
select_counter is 202
Heartbeat CPU 0 instructions: 136000000 cycles: 137492497 heartbeat IPC: 1.10428 cumulative IPC: 0.757017 (Simulation time: 0 hr 54 min 35 sec) 
select_counter is 202
Heartbeat CPU 0 instructions: 137000000 cycles: 138374681 heartbeat IPC: 1.13355 cumulative IPC: 0.759919 (Simulation time: 0 hr 54 min 53 sec) 
select_counter is 171
Heartbeat CPU 0 instructions: 138000000 cycles: 139131209 heartbeat IPC: 1.32183 cumulative IPC: 0.763608 (Simulation time: 0 hr 55 min 9 sec) 
select_counter is 154
Heartbeat CPU 0 instructions: 139000002 cycles: 139899845 heartbeat IPC: 1.30101 cumulative IPC: 0.767168 (Simulation time: 0 hr 55 min 25 sec) 
select_counter is 133
Heartbeat CPU 0 instructions: 140000000 cycles: 140655145 heartbeat IPC: 1.32397 cumulative IPC: 0.77077 (Simulation time: 0 hr 55 min 39 sec) 
select_counter is 122
Heartbeat CPU 0 instructions: 141000003 cycles: 141450278 heartbeat IPC: 1.25766 cumulative IPC: 0.774063 (Simulation time: 0 hr 55 min 56 sec) 
select_counter is 117
Heartbeat CPU 0 instructions: 142000003 cycles: 142243474 heartbeat IPC: 1.26072 cumulative IPC: 0.777325 (Simulation time: 0 hr 56 min 11 sec) 
select_counter is 109
Heartbeat CPU 0 instructions: 143000002 cycles: 143033034 heartbeat IPC: 1.26653 cumulative IPC: 0.780566 (Simulation time: 0 hr 56 min 25 sec) 
select_counter is 108
Heartbeat CPU 0 instructions: 144000000 cycles: 143801267 heartbeat IPC: 1.30169 cumulative IPC: 0.783905 (Simulation time: 0 hr 56 min 40 sec) 
select_counter is 108
Heartbeat CPU 0 instructions: 145000002 cycles: 144524966 heartbeat IPC: 1.38179 cumulative IPC: 0.787492 (Simulation time: 0 hr 56 min 55 sec) 
select_counter is 106
Heartbeat CPU 0 instructions: 146000002 cycles: 145251921 heartbeat IPC: 1.3756 cumulative IPC: 0.791014 (Simulation time: 0 hr 57 min 9 sec) 
select_counter is 100
Heartbeat CPU 0 instructions: 147000003 cycles: 145978199 heartbeat IPC: 1.37688 cumulative IPC: 0.7945 (Simulation time: 0 hr 57 min 22 sec) 
select_counter is 95
Heartbeat CPU 0 instructions: 148000000 cycles: 146713962 heartbeat IPC: 1.35913 cumulative IPC: 0.797882 (Simulation time: 0 hr 57 min 34 sec) 
select_counter is 90
Heartbeat CPU 0 instructions: 149000003 cycles: 147469228 heartbeat IPC: 1.32404 cumulative IPC: 0.801098 (Simulation time: 0 hr 57 min 49 sec) 
select_counter is 86
Heartbeat CPU 0 instructions: 150000000 cycles: 148298787 heartbeat IPC: 1.20546 cumulative IPC: 0.803794 (Simulation time: 0 hr 58 min 3 sec) 
select_counter is 80
Finished CPU 0 instructions: 100000003 cycles: 124410002 cummulative IPC: 0.803794 (Simulation time: 0 hr 58 min 3 sec) 

ChampSim completed all CPUs

Region of Interest Statistics

CPU 0 cummulative IPC: 0.803794 instructions: 100000003 cycles: 124410002
LLC TOTAL     ACCESS:    1934383  HIT:    1720817  MISS:     213566
LLC LOAD      ACCESS:     554499  HIT:     531258  MISS:      23241
LLC RFO       ACCESS:     322476  HIT:     269742  MISS:      52734
LLC PREFETCH  ACCESS:     709107  HIT:     587901  MISS:     121206
LLC WRITEBACK ACCESS:     348301  HIT:     331916  MISS:      16385
Ship samples: 
8, 47, 67, 123, 134, 164, 222, 227, 266, 297, 329, 358, 403, 434, 455, 480, 536, 553, 607, 619, 669, 694, 716, 748, 775, 823, 860, 883, 900, 935, 974, 1009, 1032, 1085, 1118, 1132, 1176, 1206, 1245, 1274, 1304, 1333, 1359, 1380, 1421, 1470, 1491, 1505, 1545, 1570, 1608, 1634, 1682, 1701, 1755, 1779, 1809, 1831, 1873, 1907, 1943, 1978, 1984, 2022, 
Lime duel samples: 
23, 63, 95, 127, 148, 185, 209, 252, 272, 301, 321, 359, 386, 422, 472, 489, 518, 544, 599, 612, 645, 687, 731, 762, 790, 821, 849, 893, 911, 933, 971, 1000, 1030, 1082, 1095, 1129, 1179, 1187, 1220, 1250, 1284, 1329, 1364, 1384, 1427, 1451, 1499, 1519, 1563, 1599, 1607, 1647, 1664, 1720, 1743, 1791, 1811, 1833, 1856, 1899, 1951, 1969, 1994, 2044, 
Lime samples: 
23, 127, 209, 301, 386, 489, 599, 687, 790, 893, 971, 1082, 1179, 1250, 1364, 1451, 1563, 1647, 1743, 1833, 1951, 
Insertion Distribution: 
	LOAD 17533 0 0 0 0 0 6634 851 
	RFO 28442 0 0 0 0 0 15018 6565 
	PREF 0 12224 0 0 0 0 25399 69725 
	WRITEBACK 0 0 0 0 0 0 0 6582 
Total Prefetch Downgrades: 20152
