
*** ChampSim Multicore Out-of-Order Simulator ***

Warmup Instructions: 50000000
Simulation Instructions: 100000000
Configuration: 2
Number of CPUs: 1
LLC sets: 2048
LLC ways: 16
Off-chip DRAM Channels: 1 Width: 64-bit Data Rate: 1600 MT/s

CPU 0 runs /datasets/cs240c-wi22-a00-public/data/Assignment2-gz/wrf_1228B.trace.gz
CPU 0 L1D next line prefetcher
CPU 0 L2C IP-based stride prefetcher
Heartbeat CPU 0 instructions: 1000003 cycles: 591063 heartbeat IPC: 1.69187 cumulative IPC: 1.69187 (Simulation time: 0 hr 0 min 31 sec) 
select_counter is 680
Heartbeat CPU 0 instructions: 2000002 cycles: 1111169 heartbeat IPC: 1.92268 cumulative IPC: 1.79991 (Simulation time: 0 hr 0 min 58 sec) 
select_counter is 1023
Heartbeat CPU 0 instructions: 3000000 cycles: 1729128 heartbeat IPC: 1.61823 cumulative IPC: 1.73498 (Simulation time: 0 hr 1 min 27 sec) 
select_counter is 906
Heartbeat CPU 0 instructions: 4000000 cycles: 2349777 heartbeat IPC: 1.61122 cumulative IPC: 1.70229 (Simulation time: 0 hr 1 min 59 sec) 
select_counter is 1023
Heartbeat CPU 0 instructions: 5000000 cycles: 3052145 heartbeat IPC: 1.42376 cumulative IPC: 1.63819 (Simulation time: 0 hr 2 min 30 sec) 
select_counter is 1022
Heartbeat CPU 0 instructions: 6000000 cycles: 3612233 heartbeat IPC: 1.78543 cumulative IPC: 1.66102 (Simulation time: 0 hr 2 min 57 sec) 
select_counter is 967
Heartbeat CPU 0 instructions: 7000001 cycles: 4164997 heartbeat IPC: 1.80909 cumulative IPC: 1.68067 (Simulation time: 0 hr 3 min 26 sec) 
select_counter is 940
Heartbeat CPU 0 instructions: 8000000 cycles: 4716361 heartbeat IPC: 1.81368 cumulative IPC: 1.69622 (Simulation time: 0 hr 3 min 51 sec) 
select_counter is 998
Heartbeat CPU 0 instructions: 9000002 cycles: 5266551 heartbeat IPC: 1.81756 cumulative IPC: 1.7089 (Simulation time: 0 hr 4 min 16 sec) 
select_counter is 1023
Heartbeat CPU 0 instructions: 10000001 cycles: 5819447 heartbeat IPC: 1.80866 cumulative IPC: 1.71838 (Simulation time: 0 hr 4 min 44 sec) 
select_counter is 1021
Heartbeat CPU 0 instructions: 11000002 cycles: 6373182 heartbeat IPC: 1.80592 cumulative IPC: 1.72598 (Simulation time: 0 hr 5 min 12 sec) 
select_counter is 1023
Heartbeat CPU 0 instructions: 12000000 cycles: 6924006 heartbeat IPC: 1.81546 cumulative IPC: 1.7331 (Simulation time: 0 hr 5 min 37 sec) 
select_counter is 1021
Heartbeat CPU 0 instructions: 13000003 cycles: 7475041 heartbeat IPC: 1.81477 cumulative IPC: 1.73912 (Simulation time: 0 hr 6 min 2 sec) 
select_counter is 1022
Heartbeat CPU 0 instructions: 14000000 cycles: 7938677 heartbeat IPC: 2.15686 cumulative IPC: 1.76352 (Simulation time: 0 hr 6 min 26 sec) 
select_counter is 987
Heartbeat CPU 0 instructions: 15000002 cycles: 8329165 heartbeat IPC: 2.5609 cumulative IPC: 1.8009 (Simulation time: 0 hr 6 min 52 sec) 
select_counter is 885
Heartbeat CPU 0 instructions: 16000000 cycles: 8719633 heartbeat IPC: 2.56102 cumulative IPC: 1.83494 (Simulation time: 0 hr 7 min 16 sec) 
select_counter is 834
Heartbeat CPU 0 instructions: 17000001 cycles: 9108808 heartbeat IPC: 2.56954 cumulative IPC: 1.86633 (Simulation time: 0 hr 7 min 40 sec) 
select_counter is 944
Heartbeat CPU 0 instructions: 18000003 cycles: 9499554 heartbeat IPC: 2.55921 cumulative IPC: 1.89483 (Simulation time: 0 hr 8 min 6 sec) 
select_counter is 1021
Heartbeat CPU 0 instructions: 19000001 cycles: 9889918 heartbeat IPC: 2.56171 cumulative IPC: 1.92115 (Simulation time: 0 hr 8 min 34 sec) 
select_counter is 1022
Heartbeat CPU 0 instructions: 20000000 cycles: 10279441 heartbeat IPC: 2.56724 cumulative IPC: 1.94563 (Simulation time: 0 hr 9 min 0 sec) 
select_counter is 1023
Heartbeat CPU 0 instructions: 21000003 cycles: 10669389 heartbeat IPC: 2.56445 cumulative IPC: 1.96825 (Simulation time: 0 hr 9 min 27 sec) 
select_counter is 1023
Heartbeat CPU 0 instructions: 22000000 cycles: 11071736 heartbeat IPC: 2.48541 cumulative IPC: 1.98704 (Simulation time: 0 hr 9 min 51 sec) 
select_counter is 1018
Heartbeat CPU 0 instructions: 23000003 cycles: 11599078 heartbeat IPC: 1.89631 cumulative IPC: 1.98292 (Simulation time: 0 hr 10 min 21 sec) 
select_counter is 893
Heartbeat CPU 0 instructions: 24000000 cycles: 12126766 heartbeat IPC: 1.89505 cumulative IPC: 1.97909 (Simulation time: 0 hr 10 min 48 sec) 
select_counter is 828
Heartbeat CPU 0 instructions: 25000000 cycles: 12654058 heartbeat IPC: 1.89648 cumulative IPC: 1.97565 (Simulation time: 0 hr 11 min 15 sec) 
select_counter is 960
Heartbeat CPU 0 instructions: 26000003 cycles: 13181032 heartbeat IPC: 1.89763 cumulative IPC: 1.97253 (Simulation time: 0 hr 11 min 45 sec) 
select_counter is 1020
Heartbeat CPU 0 instructions: 27000001 cycles: 13707920 heartbeat IPC: 1.89793 cumulative IPC: 1.96966 (Simulation time: 0 hr 12 min 15 sec) 
select_counter is 1023
Heartbeat CPU 0 instructions: 28000000 cycles: 14234988 heartbeat IPC: 1.89729 cumulative IPC: 1.96698 (Simulation time: 0 hr 12 min 43 sec) 
select_counter is 1021
Heartbeat CPU 0 instructions: 29000003 cycles: 14865510 heartbeat IPC: 1.58599 cumulative IPC: 1.95082 (Simulation time: 0 hr 13 min 12 sec) 
select_counter is 1022
Heartbeat CPU 0 instructions: 30000003 cycles: 15479002 heartbeat IPC: 1.63001 cumulative IPC: 1.93811 (Simulation time: 0 hr 13 min 45 sec) 
select_counter is 976
Heartbeat CPU 0 instructions: 31000001 cycles: 16036198 heartbeat IPC: 1.7947 cumulative IPC: 1.93313 (Simulation time: 0 hr 14 min 16 sec) 
select_counter is 982
Heartbeat CPU 0 instructions: 32000000 cycles: 16591668 heartbeat IPC: 1.80028 cumulative IPC: 1.92868 (Simulation time: 0 hr 14 min 49 sec) 
select_counter is 1021
Heartbeat CPU 0 instructions: 33000001 cycles: 17212487 heartbeat IPC: 1.61078 cumulative IPC: 1.91721 (Simulation time: 0 hr 15 min 17 sec) 
select_counter is 1019
Heartbeat CPU 0 instructions: 34000003 cycles: 17833057 heartbeat IPC: 1.61142 cumulative IPC: 1.90657 (Simulation time: 0 hr 15 min 46 sec) 
select_counter is 1023
Heartbeat CPU 0 instructions: 35000002 cycles: 18516496 heartbeat IPC: 1.46319 cumulative IPC: 1.89021 (Simulation time: 0 hr 16 min 17 sec) 
select_counter is 561
Heartbeat CPU 0 instructions: 36000000 cycles: 19069306 heartbeat IPC: 1.80894 cumulative IPC: 1.88785 (Simulation time: 0 hr 16 min 44 sec) 
select_counter is 518
Heartbeat CPU 0 instructions: 37000001 cycles: 19622791 heartbeat IPC: 1.80674 cumulative IPC: 1.88556 (Simulation time: 0 hr 17 min 13 sec) 
select_counter is 482
Heartbeat CPU 0 instructions: 38000001 cycles: 20172993 heartbeat IPC: 1.81751 cumulative IPC: 1.88371 (Simulation time: 0 hr 17 min 40 sec) 
select_counter is 414
Heartbeat CPU 0 instructions: 39000002 cycles: 20724458 heartbeat IPC: 1.81335 cumulative IPC: 1.88183 (Simulation time: 0 hr 18 min 6 sec) 
select_counter is 279
Heartbeat CPU 0 instructions: 40000000 cycles: 21276923 heartbeat IPC: 1.81007 cumulative IPC: 1.87997 (Simulation time: 0 hr 18 min 33 sec) 
select_counter is 153
Heartbeat CPU 0 instructions: 41000000 cycles: 21829427 heartbeat IPC: 1.80994 cumulative IPC: 1.8782 (Simulation time: 0 hr 18 min 59 sec) 
select_counter is 87
Heartbeat CPU 0 instructions: 42000000 cycles: 22381895 heartbeat IPC: 1.81006 cumulative IPC: 1.87652 (Simulation time: 0 hr 19 min 28 sec) 
select_counter is 14
Heartbeat CPU 0 instructions: 43000000 cycles: 22932393 heartbeat IPC: 1.81654 cumulative IPC: 1.87508 (Simulation time: 0 hr 19 min 55 sec) 
select_counter is 949
Heartbeat CPU 0 instructions: 44000000 cycles: 23336247 heartbeat IPC: 2.47614 cumulative IPC: 1.88548 (Simulation time: 0 hr 20 min 18 sec) 
select_counter is 891
Heartbeat CPU 0 instructions: 45000000 cycles: 23725766 heartbeat IPC: 2.56727 cumulative IPC: 1.89667 (Simulation time: 0 hr 20 min 40 sec) 
select_counter is 861
Heartbeat CPU 0 instructions: 46000000 cycles: 24115899 heartbeat IPC: 2.56323 cumulative IPC: 1.90746 (Simulation time: 0 hr 21 min 2 sec) 
select_counter is 807
Heartbeat CPU 0 instructions: 47000002 cycles: 24506417 heartbeat IPC: 2.56071 cumulative IPC: 1.91787 (Simulation time: 0 hr 21 min 25 sec) 
select_counter is 735
Heartbeat CPU 0 instructions: 48000000 cycles: 24896533 heartbeat IPC: 2.56333 cumulative IPC: 1.92798 (Simulation time: 0 hr 21 min 48 sec) 
select_counter is 631
Heartbeat CPU 0 instructions: 49000001 cycles: 25285783 heartbeat IPC: 2.56905 cumulative IPC: 1.93785 (Simulation time: 0 hr 22 min 11 sec) 
select_counter is 545
Heartbeat CPU 0 instructions: 50000003 cycles: 25676450 heartbeat IPC: 2.55973 cumulative IPC: 1.94731 (Simulation time: 0 hr 22 min 31 sec) 
select_counter is 487

Warmup complete CPU 0 instructions: 50000003 cycles: 25676450 (Simulation time: 0 hr 22 min 31 sec) 

Heartbeat CPU 0 instructions: 51000001 cycles: 26593448 heartbeat IPC: 1.09051 cumulative IPC: 1.09051 (Simulation time: 0 hr 22 min 55 sec) 
select_counter is 423
Heartbeat CPU 0 instructions: 52000000 cycles: 27572149 heartbeat IPC: 1.02176 cumulative IPC: 1.05502 (Simulation time: 0 hr 23 min 21 sec) 
select_counter is 366
Heartbeat CPU 0 instructions: 53000002 cycles: 28609870 heartbeat IPC: 0.963652 cumulative IPC: 1.0227 (Simulation time: 0 hr 23 min 48 sec) 
select_counter is 300
Heartbeat CPU 0 instructions: 54000001 cycles: 29646916 heartbeat IPC: 0.964276 cumulative IPC: 1.00744 (Simulation time: 0 hr 24 min 18 sec) 
select_counter is 208
Heartbeat CPU 0 instructions: 55000003 cycles: 30686618 heartbeat IPC: 0.961816 cumulative IPC: 0.997971 (Simulation time: 0 hr 24 min 47 sec) 
select_counter is 53
Heartbeat CPU 0 instructions: 56000000 cycles: 31698437 heartbeat IPC: 0.988316 cumulative IPC: 0.996348 (Simulation time: 0 hr 25 min 14 sec) 
select_counter is 917
Heartbeat CPU 0 instructions: 57000001 cycles: 32699730 heartbeat IPC: 0.99871 cumulative IPC: 0.996685 (Simulation time: 0 hr 25 min 44 sec) 
select_counter is 827
Heartbeat CPU 0 instructions: 58000000 cycles: 33719573 heartbeat IPC: 0.980542 cumulative IPC: 0.994638 (Simulation time: 0 hr 26 min 13 sec) 
select_counter is 777
Heartbeat CPU 0 instructions: 59000002 cycles: 35384148 heartbeat IPC: 0.600755 cumulative IPC: 0.927099 (Simulation time: 0 hr 26 min 48 sec) 
select_counter is 1000
Heartbeat CPU 0 instructions: 60000000 cycles: 37055556 heartbeat IPC: 0.598297 cumulative IPC: 0.878803 (Simulation time: 0 hr 27 min 19 sec) 
select_counter is 853
Heartbeat CPU 0 instructions: 61000000 cycles: 39323186 heartbeat IPC: 0.440989 cumulative IPC: 0.806053 (Simulation time: 0 hr 27 min 51 sec) 
select_counter is 492
Heartbeat CPU 0 instructions: 62000000 cycles: 41017279 heartbeat IPC: 0.590286 cumulative IPC: 0.782226 (Simulation time: 0 hr 28 min 22 sec) 
select_counter is 481
Heartbeat CPU 0 instructions: 63000001 cycles: 42520565 heartbeat IPC: 0.66521 cumulative IPC: 0.771783 (Simulation time: 0 hr 28 min 54 sec) 
select_counter is 259
Heartbeat CPU 0 instructions: 64000000 cycles: 44051426 heartbeat IPC: 0.653226 cumulative IPC: 0.761906 (Simulation time: 0 hr 29 min 27 sec) 
select_counter is 239
Heartbeat CPU 0 instructions: 65000003 cycles: 45546251 heartbeat IPC: 0.668977 cumulative IPC: 0.754914 (Simulation time: 0 hr 29 min 59 sec) 
select_counter is 242
Heartbeat CPU 0 instructions: 66000000 cycles: 47041901 heartbeat IPC: 0.668604 cumulative IPC: 0.748872 (Simulation time: 0 hr 30 min 32 sec) 
select_counter is 243
Heartbeat CPU 0 instructions: 67000000 cycles: 48536424 heartbeat IPC: 0.66911 cumulative IPC: 0.743658 (Simulation time: 0 hr 31 min 6 sec) 
select_counter is 245
Heartbeat CPU 0 instructions: 68000000 cycles: 50030880 heartbeat IPC: 0.66914 cumulative IPC: 0.739085 (Simulation time: 0 hr 31 min 36 sec) 
select_counter is 258
Heartbeat CPU 0 instructions: 69000000 cycles: 51538126 heartbeat IPC: 0.663462 cumulative IPC: 0.734678 (Simulation time: 0 hr 32 min 9 sec) 
select_counter is 263
Heartbeat CPU 0 instructions: 70000001 cycles: 53034706 heartbeat IPC: 0.668191 cumulative IPC: 0.731041 (Simulation time: 0 hr 32 min 48 sec) 
select_counter is 275
Heartbeat CPU 0 instructions: 71000001 cycles: 54528773 heartbeat IPC: 0.669314 cumulative IPC: 0.727844 (Simulation time: 0 hr 33 min 20 sec) 
select_counter is 284
Heartbeat CPU 0 instructions: 72000000 cycles: 56011725 heartbeat IPC: 0.67433 cumulative IPC: 0.725228 (Simulation time: 0 hr 33 min 57 sec) 
select_counter is 294
Heartbeat CPU 0 instructions: 73000003 cycles: 57499433 heartbeat IPC: 0.672177 cumulative IPC: 0.722748 (Simulation time: 0 hr 34 min 27 sec) 
select_counter is 305
Heartbeat CPU 0 instructions: 74000000 cycles: 58996962 heartbeat IPC: 0.667765 cumulative IPC: 0.720277 (Simulation time: 0 hr 34 min 58 sec) 
select_counter is 320
Heartbeat CPU 0 instructions: 75000001 cycles: 60490933 heartbeat IPC: 0.669358 cumulative IPC: 0.718092 (Simulation time: 0 hr 35 min 29 sec) 
select_counter is 336
Heartbeat CPU 0 instructions: 76000000 cycles: 61987369 heartbeat IPC: 0.668254 cumulative IPC: 0.716038 (Simulation time: 0 hr 35 min 58 sec) 
select_counter is 349
Heartbeat CPU 0 instructions: 77000003 cycles: 63481163 heartbeat IPC: 0.669438 cumulative IPC: 0.714197 (Simulation time: 0 hr 36 min 30 sec) 
select_counter is 361
Heartbeat CPU 0 instructions: 78000001 cycles: 64975854 heartbeat IPC: 0.669033 cumulative IPC: 0.712479 (Simulation time: 0 hr 36 min 59 sec) 
select_counter is 370
Heartbeat CPU 0 instructions: 79000000 cycles: 66472286 heartbeat IPC: 0.668256 cumulative IPC: 0.710857 (Simulation time: 0 hr 37 min 29 sec) 
select_counter is 373
Heartbeat CPU 0 instructions: 80000000 cycles: 67962672 heartbeat IPC: 0.670967 cumulative IPC: 0.709451 (Simulation time: 0 hr 38 min 1 sec) 
select_counter is 393
Heartbeat CPU 0 instructions: 81000001 cycles: 69446605 heartbeat IPC: 0.673886 cumulative IPC: 0.708245 (Simulation time: 0 hr 38 min 30 sec) 
select_counter is 399
Heartbeat CPU 0 instructions: 82000000 cycles: 70929683 heartbeat IPC: 0.674273 cumulative IPC: 0.707132 (Simulation time: 0 hr 39 min 1 sec) 
select_counter is 408
Heartbeat CPU 0 instructions: 83000000 cycles: 72413034 heartbeat IPC: 0.674149 cumulative IPC: 0.706085 (Simulation time: 0 hr 39 min 31 sec) 
select_counter is 426
Heartbeat CPU 0 instructions: 84000000 cycles: 73907819 heartbeat IPC: 0.668993 cumulative IPC: 0.704935 (Simulation time: 0 hr 40 min 2 sec) 
select_counter is 441
Heartbeat CPU 0 instructions: 85000000 cycles: 75402702 heartbeat IPC: 0.668949 cumulative IPC: 0.703853 (Simulation time: 0 hr 40 min 34 sec) 
select_counter is 451
Heartbeat CPU 0 instructions: 86000000 cycles: 76896575 heartbeat IPC: 0.669401 cumulative IPC: 0.702849 (Simulation time: 0 hr 41 min 4 sec) 
select_counter is 465
Heartbeat CPU 0 instructions: 87000000 cycles: 78391428 heartbeat IPC: 0.668962 cumulative IPC: 0.701888 (Simulation time: 0 hr 41 min 36 sec) 
select_counter is 469
Heartbeat CPU 0 instructions: 88000000 cycles: 79886641 heartbeat IPC: 0.668801 cumulative IPC: 0.700975 (Simulation time: 0 hr 42 min 10 sec) 
select_counter is 488
Heartbeat CPU 0 instructions: 89000002 cycles: 81382270 heartbeat IPC: 0.668616 cumulative IPC: 0.700106 (Simulation time: 0 hr 42 min 43 sec) 
select_counter is 499
Heartbeat CPU 0 instructions: 90000000 cycles: 82866608 heartbeat IPC: 0.6737 cumulative IPC: 0.699421 (Simulation time: 0 hr 43 min 14 sec) 
select_counter is 507
Heartbeat CPU 0 instructions: 91000000 cycles: 84350227 heartbeat IPC: 0.674028 cumulative IPC: 0.698779 (Simulation time: 0 hr 43 min 44 sec) 
select_counter is 525
Heartbeat CPU 0 instructions: 92000000 cycles: 85834069 heartbeat IPC: 0.673926 cumulative IPC: 0.698166 (Simulation time: 0 hr 44 min 18 sec) 
select_counter is 530
Heartbeat CPU 0 instructions: 93000000 cycles: 87323809 heartbeat IPC: 0.671258 cumulative IPC: 0.697516 (Simulation time: 0 hr 44 min 49 sec) 
select_counter is 542
Heartbeat CPU 0 instructions: 94000003 cycles: 88817668 heartbeat IPC: 0.669409 cumulative IPC: 0.696851 (Simulation time: 0 hr 45 min 26 sec) 
select_counter is 552
Heartbeat CPU 0 instructions: 95000000 cycles: 90313465 heartbeat IPC: 0.668538 cumulative IPC: 0.696195 (Simulation time: 0 hr 45 min 56 sec) 
select_counter is 560
Heartbeat CPU 0 instructions: 96000000 cycles: 91807534 heartbeat IPC: 0.669313 cumulative IPC: 0.695588 (Simulation time: 0 hr 46 min 30 sec) 
select_counter is 571
Heartbeat CPU 0 instructions: 97000001 cycles: 93303084 heartbeat IPC: 0.668651 cumulative IPC: 0.694992 (Simulation time: 0 hr 46 min 58 sec) 
select_counter is 584
Heartbeat CPU 0 instructions: 98000003 cycles: 94798441 heartbeat IPC: 0.668738 cumulative IPC: 0.694424 (Simulation time: 0 hr 47 min 32 sec) 
select_counter is 593
Heartbeat CPU 0 instructions: 99000000 cycles: 96287541 heartbeat IPC: 0.671545 cumulative IPC: 0.693942 (Simulation time: 0 hr 48 min 5 sec) 
select_counter is 601
Heartbeat CPU 0 instructions: 100000000 cycles: 97770932 heartbeat IPC: 0.674131 cumulative IPC: 0.693534 (Simulation time: 0 hr 48 min 34 sec) 
select_counter is 611
Heartbeat CPU 0 instructions: 101000000 cycles: 99254143 heartbeat IPC: 0.674213 cumulative IPC: 0.693145 (Simulation time: 0 hr 49 min 2 sec) 
select_counter is 625
Heartbeat CPU 0 instructions: 102000003 cycles: 100737730 heartbeat IPC: 0.674044 cumulative IPC: 0.692767 (Simulation time: 0 hr 49 min 29 sec) 
select_counter is 638
Heartbeat CPU 0 instructions: 103000003 cycles: 102233994 heartbeat IPC: 0.668331 cumulative IPC: 0.69229 (Simulation time: 0 hr 50 min 1 sec) 
select_counter is 648
Heartbeat CPU 0 instructions: 104000000 cycles: 103728530 heartbeat IPC: 0.669102 cumulative IPC: 0.691846 (Simulation time: 0 hr 50 min 30 sec) 
select_counter is 658
Heartbeat CPU 0 instructions: 105000000 cycles: 105223344 heartbeat IPC: 0.66898 cumulative IPC: 0.691416 (Simulation time: 0 hr 51 min 1 sec) 
select_counter is 677
Heartbeat CPU 0 instructions: 106000000 cycles: 106718408 heartbeat IPC: 0.668868 cumulative IPC: 0.691 (Simulation time: 0 hr 51 min 30 sec) 
select_counter is 684
Heartbeat CPU 0 instructions: 107000000 cycles: 108214263 heartbeat IPC: 0.668514 cumulative IPC: 0.690593 (Simulation time: 0 hr 51 min 58 sec) 
select_counter is 704
Heartbeat CPU 0 instructions: 108000000 cycles: 109709842 heartbeat IPC: 0.668637 cumulative IPC: 0.690202 (Simulation time: 0 hr 52 min 26 sec) 
select_counter is 715
Heartbeat CPU 0 instructions: 109000003 cycles: 111192699 heartbeat IPC: 0.674376 cumulative IPC: 0.689927 (Simulation time: 0 hr 52 min 56 sec) 
select_counter is 722
Heartbeat CPU 0 instructions: 110000001 cycles: 112675986 heartbeat IPC: 0.674177 cumulative IPC: 0.689659 (Simulation time: 0 hr 53 min 24 sec) 
select_counter is 740
Heartbeat CPU 0 instructions: 111000000 cycles: 114159566 heartbeat IPC: 0.674045 cumulative IPC: 0.689397 (Simulation time: 0 hr 53 min 53 sec) 
select_counter is 742
Heartbeat CPU 0 instructions: 112000000 cycles: 115650941 heartbeat IPC: 0.670522 cumulative IPC: 0.689084 (Simulation time: 0 hr 54 min 21 sec) 
select_counter is 766
Heartbeat CPU 0 instructions: 113000000 cycles: 117144939 heartbeat IPC: 0.669345 cumulative IPC: 0.688762 (Simulation time: 0 hr 54 min 45 sec) 
select_counter is 773
Heartbeat CPU 0 instructions: 114000000 cycles: 118640705 heartbeat IPC: 0.668554 cumulative IPC: 0.688437 (Simulation time: 0 hr 55 min 12 sec) 
select_counter is 787
Heartbeat CPU 0 instructions: 115000003 cycles: 120134813 heartbeat IPC: 0.669298 cumulative IPC: 0.688134 (Simulation time: 0 hr 55 min 36 sec) 
select_counter is 795
Heartbeat CPU 0 instructions: 116000000 cycles: 121630920 heartbeat IPC: 0.668399 cumulative IPC: 0.687826 (Simulation time: 0 hr 56 min 0 sec) 
select_counter is 804
Heartbeat CPU 0 instructions: 117000000 cycles: 123126514 heartbeat IPC: 0.668631 cumulative IPC: 0.687532 (Simulation time: 0 hr 56 min 25 sec) 
select_counter is 816
Heartbeat CPU 0 instructions: 118000000 cycles: 124614303 heartbeat IPC: 0.672138 cumulative IPC: 0.6873 (Simulation time: 0 hr 56 min 49 sec) 
select_counter is 834
Heartbeat CPU 0 instructions: 119000001 cycles: 126098218 heartbeat IPC: 0.673894 cumulative IPC: 0.687102 (Simulation time: 0 hr 57 min 15 sec) 
select_counter is 840
Heartbeat CPU 0 instructions: 120000000 cycles: 127581481 heartbeat IPC: 0.674189 cumulative IPC: 0.686914 (Simulation time: 0 hr 57 min 35 sec) 
select_counter is 845
Heartbeat CPU 0 instructions: 121000000 cycles: 129066190 heartbeat IPC: 0.673533 cumulative IPC: 0.686722 (Simulation time: 0 hr 57 min 55 sec) 
select_counter is 862
Heartbeat CPU 0 instructions: 122000002 cycles: 130564476 heartbeat IPC: 0.667431 cumulative IPC: 0.686446 (Simulation time: 0 hr 58 min 15 sec) 
select_counter is 879
Heartbeat CPU 0 instructions: 123000002 cycles: 132066052 heartbeat IPC: 0.665967 cumulative IPC: 0.686157 (Simulation time: 0 hr 58 min 32 sec) 
select_counter is 892
Heartbeat CPU 0 instructions: 124000000 cycles: 133563457 heartbeat IPC: 0.667821 cumulative IPC: 0.685903 (Simulation time: 0 hr 58 min 50 sec) 
select_counter is 902
Heartbeat CPU 0 instructions: 125000000 cycles: 135059271 heartbeat IPC: 0.668532 cumulative IPC: 0.685665 (Simulation time: 0 hr 59 min 5 sec) 
select_counter is 919
Heartbeat CPU 0 instructions: 126000000 cycles: 136572381 heartbeat IPC: 0.66089 cumulative IPC: 0.685327 (Simulation time: 0 hr 59 min 22 sec) 
select_counter is 934
Heartbeat CPU 0 instructions: 127000000 cycles: 138069299 heartbeat IPC: 0.668039 cumulative IPC: 0.685097 (Simulation time: 0 hr 59 min 37 sec) 
select_counter is 939
Heartbeat CPU 0 instructions: 128000000 cycles: 139560269 heartbeat IPC: 0.670704 cumulative IPC: 0.684909 (Simulation time: 0 hr 59 min 54 sec) 
select_counter is 951
Heartbeat CPU 0 instructions: 129000000 cycles: 141043922 heartbeat IPC: 0.674012 cumulative IPC: 0.684768 (Simulation time: 1 hr 0 min 9 sec) 
select_counter is 964
Heartbeat CPU 0 instructions: 130000001 cycles: 142534347 heartbeat IPC: 0.67095 cumulative IPC: 0.684592 (Simulation time: 1 hr 0 min 24 sec) 
select_counter is 978
Heartbeat CPU 0 instructions: 131000001 cycles: 144029498 heartbeat IPC: 0.668829 cumulative IPC: 0.684393 (Simulation time: 1 hr 0 min 38 sec) 
select_counter is 987
Heartbeat CPU 0 instructions: 132000000 cycles: 145524993 heartbeat IPC: 0.668674 cumulative IPC: 0.684197 (Simulation time: 1 hr 0 min 53 sec) 
select_counter is 994
Heartbeat CPU 0 instructions: 133000000 cycles: 147023403 heartbeat IPC: 0.667374 cumulative IPC: 0.683989 (Simulation time: 1 hr 1 min 6 sec) 
select_counter is 1007
Heartbeat CPU 0 instructions: 134000000 cycles: 148517973 heartbeat IPC: 0.669089 cumulative IPC: 0.683808 (Simulation time: 1 hr 1 min 20 sec) 
select_counter is 1023
Heartbeat CPU 0 instructions: 135000001 cycles: 150013209 heartbeat IPC: 0.668791 cumulative IPC: 0.683627 (Simulation time: 1 hr 1 min 33 sec) 
select_counter is 1023
Heartbeat CPU 0 instructions: 136000000 cycles: 151510875 heartbeat IPC: 0.667705 cumulative IPC: 0.683438 (Simulation time: 1 hr 1 min 45 sec) 
select_counter is 1021
Heartbeat CPU 0 instructions: 137000002 cycles: 152997551 heartbeat IPC: 0.672643 cumulative IPC: 0.683312 (Simulation time: 1 hr 1 min 58 sec) 
select_counter is 1022
Heartbeat CPU 0 instructions: 138000001 cycles: 154482353 heartbeat IPC: 0.67349 cumulative IPC: 0.683199 (Simulation time: 1 hr 2 min 9 sec) 
select_counter is 1021
Heartbeat CPU 0 instructions: 139000001 cycles: 155966077 heartbeat IPC: 0.67398 cumulative IPC: 0.683093 (Simulation time: 1 hr 2 min 20 sec) 
select_counter is 1020
Heartbeat CPU 0 instructions: 140000000 cycles: 157452078 heartbeat IPC: 0.672946 cumulative IPC: 0.682979 (Simulation time: 1 hr 2 min 31 sec) 
select_counter is 1021
Heartbeat CPU 0 instructions: 141000002 cycles: 158948201 heartbeat IPC: 0.668396 cumulative IPC: 0.682815 (Simulation time: 1 hr 2 min 42 sec) 
select_counter is 1020
Heartbeat CPU 0 instructions: 142000000 cycles: 160443286 heartbeat IPC: 0.668857 cumulative IPC: 0.682661 (Simulation time: 1 hr 2 min 53 sec) 
select_counter is 1020
Heartbeat CPU 0 instructions: 143000000 cycles: 161937813 heartbeat IPC: 0.669108 cumulative IPC: 0.682512 (Simulation time: 1 hr 3 min 3 sec) 
select_counter is 1021
Heartbeat CPU 0 instructions: 144000000 cycles: 163432615 heartbeat IPC: 0.668985 cumulative IPC: 0.682365 (Simulation time: 1 hr 3 min 14 sec) 
select_counter is 1021
Heartbeat CPU 0 instructions: 145000000 cycles: 164928841 heartbeat IPC: 0.668348 cumulative IPC: 0.682214 (Simulation time: 1 hr 3 min 23 sec) 
select_counter is 1021
Heartbeat CPU 0 instructions: 146000000 cycles: 166420567 heartbeat IPC: 0.670364 cumulative IPC: 0.682089 (Simulation time: 1 hr 3 min 32 sec) 
select_counter is 1022
Heartbeat CPU 0 instructions: 147000003 cycles: 167903410 heartbeat IPC: 0.674382 cumulative IPC: 0.682009 (Simulation time: 1 hr 3 min 42 sec) 
select_counter is 1023
Heartbeat CPU 0 instructions: 148000000 cycles: 169387763 heartbeat IPC: 0.673692 cumulative IPC: 0.681923 (Simulation time: 1 hr 3 min 51 sec) 
select_counter is 1020
Heartbeat CPU 0 instructions: 149000002 cycles: 170871340 heartbeat IPC: 0.674048 cumulative IPC: 0.681842 (Simulation time: 1 hr 4 min 0 sec) 
select_counter is 1022
Heartbeat CPU 0 instructions: 150000001 cycles: 172364869 heartbeat IPC: 0.669554 cumulative IPC: 0.681717 (Simulation time: 1 hr 4 min 9 sec) 
select_counter is 1023
Finished CPU 0 instructions: 100000001 cycles: 146688423 cummulative IPC: 0.681717 (Simulation time: 1 hr 4 min 9 sec) 

ChampSim completed all CPUs

Region of Interest Statistics

CPU 0 cummulative IPC: 0.681717 instructions: 100000001 cycles: 146688423
LLC TOTAL     ACCESS:     644571  HIT:     133373  MISS:     511198
LLC LOAD      ACCESS:      35569  HIT:       7575  MISS:      27994
LLC RFO       ACCESS:     120254  HIT:      15023  MISS:     105231
LLC PREFETCH  ACCESS:     306125  HIT:      34108  MISS:     272017
LLC WRITEBACK ACCESS:     182623  HIT:      76667  MISS:     105956
Ship samples: 
28, 49, 76, 107, 131, 175, 192, 240, 282, 304, 328, 368, 384, 430, 474, 496, 514, 572, 586, 627, 643, 701, 713, 754, 773, 815, 847, 880, 920, 952, 980, 1000, 1035, 1077, 1111, 1134, 1152, 1187, 1220, 1266, 1302, 1334, 1360, 1389, 1438, 1443, 1480, 1522, 1566, 1592, 1610, 1647, 1688, 1719, 1753, 1763, 1802, 1828, 1886, 1898, 1937, 1955, 1991, 2022, 
Lime duel samples: 
7, 45, 69, 104, 132, 188, 207, 231, 271, 312, 331, 364, 387, 440, 457, 501, 534, 546, 590, 615, 653, 674, 707, 749, 772, 803, 845, 895, 911, 959, 978, 1001, 1046, 1060, 1099, 1123, 1177, 1201, 1229, 1255, 1287, 1312, 1365, 1381, 1423, 1471, 1479, 1529, 1548, 1575, 1621, 1638, 1674, 1714, 1756, 1770, 1807, 1849, 1882, 1906, 1948, 1965, 2009, 2037, 
Lime samples: 
7, 104, 207, 312, 387, 501, 590, 674, 772, 895, 978, 1060, 1177, 1255, 1365, 1471, 1548, 1638, 1756, 1849, 1948, 
Insertion Distribution: 
	LOAD 257 0 0 0 0 0 1859 10199 
	RFO 1039 0 0 0 0 0 9348 36875 
	PREF 0 11207 0 0 0 0 18995 186059 
	WRITEBACK 0 0 0 0 0 0 0 65229 
Total Prefetch Downgrades: 1402
