
*** ChampSim Multicore Out-of-Order Simulator ***

Warmup Instructions: 50000000
Simulation Instructions: 100000000
Configuration: 2
Number of CPUs: 1
LLC sets: 2048
LLC ways: 16
Off-chip DRAM Channels: 1 Width: 64-bit Data Rate: 1600 MT/s

CPU 0 runs /datasets/cs240c-wi22-a00-public/data/Assignment2-gz/cactusADM_1495B.trace.gz
CPU 0 L1D next line prefetcher
CPU 0 L2C IP-based stride prefetcher
Heartbeat CPU 0 instructions: 1000003 cycles: 593383 heartbeat IPC: 1.68526 cumulative IPC: 1.68526 (Simulation time: 0 hr 0 min 31 sec) 
select_counter is 510
Heartbeat CPU 0 instructions: 2000000 cycles: 1186345 heartbeat IPC: 1.68644 cumulative IPC: 1.68585 (Simulation time: 0 hr 1 min 0 sec) 
select_counter is 509
Heartbeat CPU 0 instructions: 3000003 cycles: 1779703 heartbeat IPC: 1.68533 cumulative IPC: 1.68568 (Simulation time: 0 hr 1 min 30 sec) 
select_counter is 507
Heartbeat CPU 0 instructions: 4000000 cycles: 2372522 heartbeat IPC: 1.68685 cumulative IPC: 1.68597 (Simulation time: 0 hr 1 min 58 sec) 
select_counter is 514
Heartbeat CPU 0 instructions: 5000000 cycles: 2965579 heartbeat IPC: 1.68618 cumulative IPC: 1.68601 (Simulation time: 0 hr 2 min 31 sec) 
select_counter is 515
Heartbeat CPU 0 instructions: 6000001 cycles: 3558796 heartbeat IPC: 1.68573 cumulative IPC: 1.68596 (Simulation time: 0 hr 3 min 2 sec) 
select_counter is 513
Heartbeat CPU 0 instructions: 7000000 cycles: 4151738 heartbeat IPC: 1.6865 cumulative IPC: 1.68604 (Simulation time: 0 hr 3 min 30 sec) 
select_counter is 529
Heartbeat CPU 0 instructions: 8000000 cycles: 4906669 heartbeat IPC: 1.32462 cumulative IPC: 1.63043 (Simulation time: 0 hr 4 min 4 sec) 
select_counter is 746
Heartbeat CPU 0 instructions: 9000002 cycles: 5499867 heartbeat IPC: 1.68578 cumulative IPC: 1.6364 (Simulation time: 0 hr 4 min 33 sec) 
select_counter is 803
Heartbeat CPU 0 instructions: 10000002 cycles: 6092791 heartbeat IPC: 1.68656 cumulative IPC: 1.64128 (Simulation time: 0 hr 5 min 3 sec) 
select_counter is 841
Heartbeat CPU 0 instructions: 11000001 cycles: 6685919 heartbeat IPC: 1.68598 cumulative IPC: 1.64525 (Simulation time: 0 hr 5 min 32 sec) 
select_counter is 882
Heartbeat CPU 0 instructions: 12000000 cycles: 7279076 heartbeat IPC: 1.68589 cumulative IPC: 1.64856 (Simulation time: 0 hr 6 min 4 sec) 
select_counter is 891
Heartbeat CPU 0 instructions: 13000001 cycles: 7871987 heartbeat IPC: 1.6866 cumulative IPC: 1.65143 (Simulation time: 0 hr 6 min 35 sec) 
select_counter is 913
Heartbeat CPU 0 instructions: 14000003 cycles: 8465253 heartbeat IPC: 1.68559 cumulative IPC: 1.65382 (Simulation time: 0 hr 7 min 8 sec) 
select_counter is 938
Heartbeat CPU 0 instructions: 15000001 cycles: 9058340 heartbeat IPC: 1.68609 cumulative IPC: 1.65593 (Simulation time: 0 hr 7 min 38 sec) 
select_counter is 968
Heartbeat CPU 0 instructions: 16000000 cycles: 9651603 heartbeat IPC: 1.68559 cumulative IPC: 1.65776 (Simulation time: 0 hr 8 min 12 sec) 
select_counter is 1005
Heartbeat CPU 0 instructions: 17000002 cycles: 10244590 heartbeat IPC: 1.68638 cumulative IPC: 1.65941 (Simulation time: 0 hr 8 min 48 sec) 
select_counter is 1022
Heartbeat CPU 0 instructions: 18000000 cycles: 10837572 heartbeat IPC: 1.68639 cumulative IPC: 1.66089 (Simulation time: 0 hr 9 min 19 sec) 
select_counter is 1023
Heartbeat CPU 0 instructions: 19000002 cycles: 11430591 heartbeat IPC: 1.68629 cumulative IPC: 1.66221 (Simulation time: 0 hr 9 min 48 sec) 
select_counter is 1017
Heartbeat CPU 0 instructions: 20000000 cycles: 12023959 heartbeat IPC: 1.68529 cumulative IPC: 1.66335 (Simulation time: 0 hr 10 min 18 sec) 
select_counter is 1017
Heartbeat CPU 0 instructions: 21000002 cycles: 12766217 heartbeat IPC: 1.34724 cumulative IPC: 1.64497 (Simulation time: 0 hr 10 min 58 sec) 
select_counter is 1017
Heartbeat CPU 0 instructions: 22000003 cycles: 13371262 heartbeat IPC: 1.65277 cumulative IPC: 1.64532 (Simulation time: 0 hr 11 min 27 sec) 
select_counter is 1013
Heartbeat CPU 0 instructions: 23000000 cycles: 13963956 heartbeat IPC: 1.68721 cumulative IPC: 1.6471 (Simulation time: 0 hr 11 min 56 sec) 
select_counter is 1015
Heartbeat CPU 0 instructions: 24000000 cycles: 14557641 heartbeat IPC: 1.68439 cumulative IPC: 1.64862 (Simulation time: 0 hr 12 min 25 sec) 
select_counter is 1015
Heartbeat CPU 0 instructions: 25000002 cycles: 15150791 heartbeat IPC: 1.68592 cumulative IPC: 1.65008 (Simulation time: 0 hr 12 min 58 sec) 
select_counter is 1012
Heartbeat CPU 0 instructions: 26000003 cycles: 15743360 heartbeat IPC: 1.68757 cumulative IPC: 1.65149 (Simulation time: 0 hr 13 min 28 sec) 
select_counter is 1003
Heartbeat CPU 0 instructions: 27000001 cycles: 16336450 heartbeat IPC: 1.68608 cumulative IPC: 1.65275 (Simulation time: 0 hr 13 min 59 sec) 
select_counter is 986
Heartbeat CPU 0 instructions: 28000000 cycles: 16929540 heartbeat IPC: 1.68608 cumulative IPC: 1.65391 (Simulation time: 0 hr 14 min 31 sec) 
select_counter is 991
Heartbeat CPU 0 instructions: 29000002 cycles: 17522685 heartbeat IPC: 1.68593 cumulative IPC: 1.655 (Simulation time: 0 hr 15 min 1 sec) 
select_counter is 999
Heartbeat CPU 0 instructions: 30000002 cycles: 18115785 heartbeat IPC: 1.68606 cumulative IPC: 1.65601 (Simulation time: 0 hr 15 min 40 sec) 
select_counter is 1023
Heartbeat CPU 0 instructions: 31000002 cycles: 18709049 heartbeat IPC: 1.68559 cumulative IPC: 1.65695 (Simulation time: 0 hr 16 min 10 sec) 
select_counter is 1019
Heartbeat CPU 0 instructions: 32000000 cycles: 19302419 heartbeat IPC: 1.68529 cumulative IPC: 1.65782 (Simulation time: 0 hr 16 min 41 sec) 
select_counter is 1017
Heartbeat CPU 0 instructions: 33000001 cycles: 19895140 heartbeat IPC: 1.68714 cumulative IPC: 1.6587 (Simulation time: 0 hr 17 min 14 sec) 
select_counter is 1016
Heartbeat CPU 0 instructions: 34000002 cycles: 20607672 heartbeat IPC: 1.40345 cumulative IPC: 1.64987 (Simulation time: 0 hr 17 min 48 sec) 
select_counter is 1017
Heartbeat CPU 0 instructions: 35000001 cycles: 21243917 heartbeat IPC: 1.57172 cumulative IPC: 1.64753 (Simulation time: 0 hr 18 min 17 sec) 
select_counter is 1005
Heartbeat CPU 0 instructions: 36000000 cycles: 21836981 heartbeat IPC: 1.68616 cumulative IPC: 1.64858 (Simulation time: 0 hr 18 min 45 sec) 
select_counter is 983
Heartbeat CPU 0 instructions: 37000000 cycles: 22429795 heartbeat IPC: 1.68687 cumulative IPC: 1.64959 (Simulation time: 0 hr 19 min 13 sec) 
select_counter is 979
Heartbeat CPU 0 instructions: 38000003 cycles: 23022750 heartbeat IPC: 1.68647 cumulative IPC: 1.65054 (Simulation time: 0 hr 19 min 44 sec) 
select_counter is 973
Heartbeat CPU 0 instructions: 39000002 cycles: 23616053 heartbeat IPC: 1.68548 cumulative IPC: 1.65142 (Simulation time: 0 hr 20 min 14 sec) 
select_counter is 960
Heartbeat CPU 0 instructions: 40000000 cycles: 24208949 heartbeat IPC: 1.68663 cumulative IPC: 1.65228 (Simulation time: 0 hr 20 min 41 sec) 
select_counter is 933
Heartbeat CPU 0 instructions: 41000002 cycles: 24801850 heartbeat IPC: 1.68663 cumulative IPC: 1.6531 (Simulation time: 0 hr 21 min 9 sec) 
select_counter is 913
Heartbeat CPU 0 instructions: 42000000 cycles: 25394778 heartbeat IPC: 1.68654 cumulative IPC: 1.65388 (Simulation time: 0 hr 21 min 37 sec) 
select_counter is 900
Heartbeat CPU 0 instructions: 43000000 cycles: 25987785 heartbeat IPC: 1.68632 cumulative IPC: 1.65462 (Simulation time: 0 hr 22 min 5 sec) 
select_counter is 897
Heartbeat CPU 0 instructions: 44000000 cycles: 26580636 heartbeat IPC: 1.68676 cumulative IPC: 1.65534 (Simulation time: 0 hr 22 min 34 sec) 
select_counter is 889
Heartbeat CPU 0 instructions: 45000003 cycles: 27173621 heartbeat IPC: 1.68639 cumulative IPC: 1.65602 (Simulation time: 0 hr 23 min 1 sec) 
select_counter is 879
Heartbeat CPU 0 instructions: 46000001 cycles: 27766755 heartbeat IPC: 1.68596 cumulative IPC: 1.65666 (Simulation time: 0 hr 23 min 27 sec) 
select_counter is 895
Heartbeat CPU 0 instructions: 47000001 cycles: 28447185 heartbeat IPC: 1.46966 cumulative IPC: 1.65218 (Simulation time: 0 hr 23 min 59 sec) 
select_counter is 731
Heartbeat CPU 0 instructions: 48000000 cycles: 29114367 heartbeat IPC: 1.49884 cumulative IPC: 1.64867 (Simulation time: 0 hr 24 min 33 sec) 
select_counter is 605
Heartbeat CPU 0 instructions: 49000001 cycles: 29707302 heartbeat IPC: 1.68653 cumulative IPC: 1.64943 (Simulation time: 0 hr 24 min 59 sec) 
select_counter is 606
Heartbeat CPU 0 instructions: 50000003 cycles: 30300218 heartbeat IPC: 1.68658 cumulative IPC: 1.65015 (Simulation time: 0 hr 25 min 29 sec) 
select_counter is 617

Warmup complete CPU 0 instructions: 50000003 cycles: 30300218 (Simulation time: 0 hr 25 min 29 sec) 

Heartbeat CPU 0 instructions: 51000000 cycles: 31988285 heartbeat IPC: 0.592392 cumulative IPC: 0.592392 (Simulation time: 0 hr 26 min 2 sec) 
select_counter is 612
Heartbeat CPU 0 instructions: 52000000 cycles: 33667944 heartbeat IPC: 0.595359 cumulative IPC: 0.593872 (Simulation time: 0 hr 26 min 33 sec) 
select_counter is 594
Heartbeat CPU 0 instructions: 53000003 cycles: 35405290 heartbeat IPC: 0.575592 cumulative IPC: 0.587651 (Simulation time: 0 hr 27 min 5 sec) 
select_counter is 575
Heartbeat CPU 0 instructions: 54000001 cycles: 37143905 heartbeat IPC: 0.575169 cumulative IPC: 0.58448 (Simulation time: 0 hr 27 min 37 sec) 
select_counter is 581
Heartbeat CPU 0 instructions: 55000000 cycles: 38879613 heartbeat IPC: 0.576133 cumulative IPC: 0.582791 (Simulation time: 0 hr 28 min 10 sec) 
select_counter is 574
Heartbeat CPU 0 instructions: 56000000 cycles: 40537494 heartbeat IPC: 0.60318 cumulative IPC: 0.586093 (Simulation time: 0 hr 28 min 41 sec) 
select_counter is 591
Heartbeat CPU 0 instructions: 57000000 cycles: 42248943 heartbeat IPC: 0.5843 cumulative IPC: 0.585836 (Simulation time: 0 hr 29 min 12 sec) 
select_counter is 592
Heartbeat CPU 0 instructions: 58000002 cycles: 43989130 heartbeat IPC: 0.574652 cumulative IPC: 0.584415 (Simulation time: 0 hr 29 min 42 sec) 
select_counter is 601
Heartbeat CPU 0 instructions: 59000001 cycles: 45730364 heartbeat IPC: 0.574305 cumulative IPC: 0.583274 (Simulation time: 0 hr 30 min 16 sec) 
select_counter is 623
Heartbeat CPU 0 instructions: 60000000 cycles: 49126240 heartbeat IPC: 0.294475 cumulative IPC: 0.531179 (Simulation time: 0 hr 30 min 52 sec) 
select_counter is 547
Heartbeat CPU 0 instructions: 61000001 cycles: 54151917 heartbeat IPC: 0.198978 cumulative IPC: 0.461183 (Simulation time: 0 hr 31 min 30 sec) 
select_counter is 426
Heartbeat CPU 0 instructions: 62000000 cycles: 55889128 heartbeat IPC: 0.575635 cumulative IPC: 0.468953 (Simulation time: 0 hr 32 min 0 sec) 
select_counter is 411
Heartbeat CPU 0 instructions: 63000000 cycles: 57629570 heartbeat IPC: 0.574567 cumulative IPC: 0.475679 (Simulation time: 0 hr 32 min 31 sec) 
select_counter is 407
Heartbeat CPU 0 instructions: 64000000 cycles: 59363353 heartbeat IPC: 0.576773 cumulative IPC: 0.48171 (Simulation time: 0 hr 33 min 5 sec) 
select_counter is 396
Heartbeat CPU 0 instructions: 65000002 cycles: 61023946 heartbeat IPC: 0.602196 cumulative IPC: 0.488222 (Simulation time: 0 hr 33 min 37 sec) 
select_counter is 400
Heartbeat CPU 0 instructions: 66000003 cycles: 62729538 heartbeat IPC: 0.586307 cumulative IPC: 0.493381 (Simulation time: 0 hr 34 min 12 sec) 
select_counter is 380
Heartbeat CPU 0 instructions: 67000001 cycles: 64467211 heartbeat IPC: 0.575481 cumulative IPC: 0.497556 (Simulation time: 0 hr 34 min 46 sec) 
select_counter is 400
Heartbeat CPU 0 instructions: 68000000 cycles: 66205910 heartbeat IPC: 0.575142 cumulative IPC: 0.501313 (Simulation time: 0 hr 35 min 17 sec) 
select_counter is 416
Heartbeat CPU 0 instructions: 69000003 cycles: 67921468 heartbeat IPC: 0.582902 cumulative IPC: 0.505034 (Simulation time: 0 hr 35 min 50 sec) 
select_counter is 432
Heartbeat CPU 0 instructions: 70000000 cycles: 69573823 heartbeat IPC: 0.605195 cumulative IPC: 0.509248 (Simulation time: 0 hr 36 min 25 sec) 
select_counter is 450
Heartbeat CPU 0 instructions: 71000002 cycles: 71301809 heartbeat IPC: 0.57871 cumulative IPC: 0.512175 (Simulation time: 0 hr 36 min 55 sec) 
select_counter is 458
Heartbeat CPU 0 instructions: 72000000 cycles: 73039999 heartbeat IPC: 0.57531 cumulative IPC: 0.514743 (Simulation time: 0 hr 37 min 25 sec) 
select_counter is 486
Heartbeat CPU 0 instructions: 73000001 cycles: 75509079 heartbeat IPC: 0.40501 cumulative IPC: 0.50875 (Simulation time: 0 hr 37 min 54 sec) 
select_counter is 458
Heartbeat CPU 0 instructions: 74000002 cycles: 81439734 heartbeat IPC: 0.168616 cumulative IPC: 0.469304 (Simulation time: 0 hr 38 min 32 sec) 
select_counter is 126
Heartbeat CPU 0 instructions: 75000002 cycles: 83137830 heartbeat IPC: 0.588895 cumulative IPC: 0.473148 (Simulation time: 0 hr 39 min 2 sec) 
select_counter is 126
Heartbeat CPU 0 instructions: 76000000 cycles: 84876789 heartbeat IPC: 0.575056 cumulative IPC: 0.476395 (Simulation time: 0 hr 39 min 33 sec) 
select_counter is 117
Heartbeat CPU 0 instructions: 77000001 cycles: 86614800 heartbeat IPC: 0.575371 cumulative IPC: 0.47945 (Simulation time: 0 hr 40 min 4 sec) 
select_counter is 104
Heartbeat CPU 0 instructions: 78000000 cycles: 88336438 heartbeat IPC: 0.580842 cumulative IPC: 0.482457 (Simulation time: 0 hr 40 min 35 sec) 
select_counter is 98
Heartbeat CPU 0 instructions: 79000003 cycles: 89983027 heartbeat IPC: 0.607318 cumulative IPC: 0.485902 (Simulation time: 0 hr 41 min 7 sec) 
select_counter is 93
Heartbeat CPU 0 instructions: 80000000 cycles: 91713499 heartbeat IPC: 0.577875 cumulative IPC: 0.488494 (Simulation time: 0 hr 41 min 36 sec) 
select_counter is 90
Heartbeat CPU 0 instructions: 81000002 cycles: 93451764 heartbeat IPC: 0.575287 cumulative IPC: 0.490883 (Simulation time: 0 hr 42 min 8 sec) 
select_counter is 83
Heartbeat CPU 0 instructions: 82000000 cycles: 95190008 heartbeat IPC: 0.575292 cumulative IPC: 0.493144 (Simulation time: 0 hr 42 min 39 sec) 
select_counter is 100
Heartbeat CPU 0 instructions: 83000000 cycles: 96875874 heartbeat IPC: 0.593167 cumulative IPC: 0.495677 (Simulation time: 0 hr 43 min 8 sec) 
select_counter is 108
Heartbeat CPU 0 instructions: 84000000 cycles: 98550828 heartbeat IPC: 0.597031 cumulative IPC: 0.498164 (Simulation time: 0 hr 43 min 39 sec) 
select_counter is 96
Heartbeat CPU 0 instructions: 85000003 cycles: 100311298 heartbeat IPC: 0.568032 cumulative IPC: 0.499921 (Simulation time: 0 hr 44 min 14 sec) 
select_counter is 114
Heartbeat CPU 0 instructions: 86000000 cycles: 102049985 heartbeat IPC: 0.575145 cumulative IPC: 0.501744 (Simulation time: 0 hr 44 min 55 sec) 
select_counter is 135
Heartbeat CPU 0 instructions: 87000001 cycles: 108803316 heartbeat IPC: 0.148075 cumulative IPC: 0.471319 (Simulation time: 0 hr 45 min 38 sec) 
select_counter is 989
Heartbeat CPU 0 instructions: 88000000 cycles: 110447925 heartbeat IPC: 0.608047 cumulative IPC: 0.474125 (Simulation time: 0 hr 46 min 7 sec) 
select_counter is 1007
Heartbeat CPU 0 instructions: 89000002 cycles: 112175198 heartbeat IPC: 0.578948 cumulative IPC: 0.476336 (Simulation time: 0 hr 46 min 38 sec) 
select_counter is 998
Heartbeat CPU 0 instructions: 90000001 cycles: 113940708 heartbeat IPC: 0.566408 cumulative IPC: 0.478237 (Simulation time: 0 hr 47 min 9 sec) 
select_counter is 989
Heartbeat CPU 0 instructions: 91000002 cycles: 115679190 heartbeat IPC: 0.575215 cumulative IPC: 0.480212 (Simulation time: 0 hr 47 min 38 sec) 
select_counter is 996
Heartbeat CPU 0 instructions: 92000000 cycles: 117374021 heartbeat IPC: 0.590028 cumulative IPC: 0.482349 (Simulation time: 0 hr 48 min 8 sec) 
select_counter is 996
Heartbeat CPU 0 instructions: 93000002 cycles: 119043880 heartbeat IPC: 0.598854 cumulative IPC: 0.484542 (Simulation time: 0 hr 48 min 40 sec) 
select_counter is 988
Heartbeat CPU 0 instructions: 94000002 cycles: 120778939 heartbeat IPC: 0.576349 cumulative IPC: 0.486302 (Simulation time: 0 hr 49 min 10 sec) 
select_counter is 992
Heartbeat CPU 0 instructions: 95000003 cycles: 122519169 heartbeat IPC: 0.574637 cumulative IPC: 0.487969 (Simulation time: 0 hr 49 min 42 sec) 
select_counter is 1004
Heartbeat CPU 0 instructions: 96000000 cycles: 124254095 heartbeat IPC: 0.576392 cumulative IPC: 0.489602 (Simulation time: 0 hr 50 min 11 sec) 
select_counter is 1013
Heartbeat CPU 0 instructions: 97000003 cycles: 125917332 heartbeat IPC: 0.601239 cumulative IPC: 0.491544 (Simulation time: 0 hr 50 min 42 sec) 
select_counter is 1019
Heartbeat CPU 0 instructions: 98000003 cycles: 127619758 heartbeat IPC: 0.587397 cumulative IPC: 0.493221 (Simulation time: 0 hr 51 min 11 sec) 
select_counter is 1017
Heartbeat CPU 0 instructions: 99000000 cycles: 129358271 heartbeat IPC: 0.575202 cumulative IPC: 0.494659 (Simulation time: 0 hr 51 min 41 sec) 
select_counter is 1018
Heartbeat CPU 0 instructions: 100000000 cycles: 136125943 heartbeat IPC: 0.147761 cumulative IPC: 0.472475 (Simulation time: 0 hr 52 min 15 sec) 
select_counter is 914
Heartbeat CPU 0 instructions: 101000000 cycles: 137822637 heartbeat IPC: 0.589381 cumulative IPC: 0.47432 (Simulation time: 0 hr 52 min 43 sec) 
select_counter is 912
Heartbeat CPU 0 instructions: 102000003 cycles: 139490421 heartbeat IPC: 0.5996 cumulative IPC: 0.476233 (Simulation time: 0 hr 53 min 14 sec) 
select_counter is 912
Heartbeat CPU 0 instructions: 103000000 cycles: 141223619 heartbeat IPC: 0.576966 cumulative IPC: 0.477807 (Simulation time: 0 hr 53 min 40 sec) 
select_counter is 907
Heartbeat CPU 0 instructions: 104000000 cycles: 142962741 heartbeat IPC: 0.575003 cumulative IPC: 0.479308 (Simulation time: 0 hr 54 min 6 sec) 
select_counter is 902
Heartbeat CPU 0 instructions: 105000001 cycles: 144697851 heartbeat IPC: 0.576333 cumulative IPC: 0.480779 (Simulation time: 0 hr 54 min 30 sec) 
select_counter is 909
Heartbeat CPU 0 instructions: 106000000 cycles: 146365212 heartbeat IPC: 0.59975 cumulative IPC: 0.482488 (Simulation time: 0 hr 54 min 57 sec) 
select_counter is 918
Heartbeat CPU 0 instructions: 107000001 cycles: 148061573 heartbeat IPC: 0.589498 cumulative IPC: 0.48403 (Simulation time: 0 hr 55 min 22 sec) 
select_counter is 912
Heartbeat CPU 0 instructions: 108000000 cycles: 149800479 heartbeat IPC: 0.575074 cumulative IPC: 0.485355 (Simulation time: 0 hr 55 min 46 sec) 
select_counter is 931
Heartbeat CPU 0 instructions: 109000002 cycles: 151539149 heartbeat IPC: 0.575153 cumulative IPC: 0.486642 (Simulation time: 0 hr 56 min 11 sec) 
select_counter is 939
Heartbeat CPU 0 instructions: 110000001 cycles: 153263865 heartbeat IPC: 0.579805 cumulative IPC: 0.487949 (Simulation time: 0 hr 56 min 39 sec) 
select_counter is 943
Heartbeat CPU 0 instructions: 111000003 cycles: 154910467 heartbeat IPC: 0.607313 cumulative IPC: 0.489526 (Simulation time: 0 hr 57 min 2 sec) 
select_counter is 951
Heartbeat CPU 0 instructions: 112000000 cycles: 156637565 heartbeat IPC: 0.579004 cumulative IPC: 0.49075 (Simulation time: 0 hr 57 min 24 sec) 
select_counter is 952
Heartbeat CPU 0 instructions: 113000001 cycles: 163373657 heartbeat IPC: 0.148454 cumulative IPC: 0.473423 (Simulation time: 0 hr 57 min 48 sec) 
select_counter is 661
Heartbeat CPU 0 instructions: 114000003 cycles: 165109022 heartbeat IPC: 0.576249 cumulative IPC: 0.474746 (Simulation time: 0 hr 58 min 8 sec) 
select_counter is 669
Heartbeat CPU 0 instructions: 115000003 cycles: 166782664 heartbeat IPC: 0.597499 cumulative IPC: 0.476252 (Simulation time: 0 hr 58 min 27 sec) 
select_counter is 673
Heartbeat CPU 0 instructions: 116000000 cycles: 168474938 heartbeat IPC: 0.590919 cumulative IPC: 0.477656 (Simulation time: 0 hr 58 min 45 sec) 
select_counter is 666
Heartbeat CPU 0 instructions: 117000002 cycles: 170213712 heartbeat IPC: 0.575119 cumulative IPC: 0.478867 (Simulation time: 0 hr 59 min 1 sec) 
select_counter is 664
Heartbeat CPU 0 instructions: 118000001 cycles: 171954159 heartbeat IPC: 0.574564 cumulative IPC: 0.480043 (Simulation time: 0 hr 59 min 17 sec) 
select_counter is 659
Heartbeat CPU 0 instructions: 119000000 cycles: 173681033 heartbeat IPC: 0.57908 cumulative IPC: 0.481236 (Simulation time: 0 hr 59 min 33 sec) 
select_counter is 653
Heartbeat CPU 0 instructions: 120000000 cycles: 175328331 heartbeat IPC: 0.607055 cumulative IPC: 0.482665 (Simulation time: 0 hr 59 min 50 sec) 
select_counter is 660
Heartbeat CPU 0 instructions: 121000003 cycles: 177054645 heartbeat IPC: 0.579271 cumulative IPC: 0.483801 (Simulation time: 1 hr 0 min 5 sec) 
select_counter is 674
Heartbeat CPU 0 instructions: 122000003 cycles: 178796478 heartbeat IPC: 0.574108 cumulative IPC: 0.484861 (Simulation time: 1 hr 0 min 19 sec) 
select_counter is 666
Heartbeat CPU 0 instructions: 123000001 cycles: 180535585 heartbeat IPC: 0.575007 cumulative IPC: 0.485904 (Simulation time: 1 hr 0 min 33 sec) 
select_counter is 671
Heartbeat CPU 0 instructions: 124000000 cycles: 182234129 heartbeat IPC: 0.588739 cumulative IPC: 0.487054 (Simulation time: 1 hr 0 min 47 sec) 
select_counter is 667
Heartbeat CPU 0 instructions: 125000000 cycles: 183904425 heartbeat IPC: 0.598696 cumulative IPC: 0.488268 (Simulation time: 1 hr 1 min 1 sec) 
select_counter is 658
Heartbeat CPU 0 instructions: 126000002 cycles: 190388271 heartbeat IPC: 0.15423 cumulative IPC: 0.474739 (Simulation time: 1 hr 1 min 18 sec) 
select_counter is 620
Heartbeat CPU 0 instructions: 127000002 cycles: 192378466 heartbeat IPC: 0.502463 cumulative IPC: 0.475079 (Simulation time: 1 hr 1 min 31 sec) 
select_counter is 629
Heartbeat CPU 0 instructions: 128000000 cycles: 194106418 heartbeat IPC: 0.578719 cumulative IPC: 0.476172 (Simulation time: 1 hr 1 min 43 sec) 
select_counter is 644
Heartbeat CPU 0 instructions: 129000001 cycles: 195756155 heartbeat IPC: 0.606158 cumulative IPC: 0.477468 (Simulation time: 1 hr 1 min 55 sec) 
select_counter is 648
Heartbeat CPU 0 instructions: 130000001 cycles: 197477264 heartbeat IPC: 0.581021 cumulative IPC: 0.478535 (Simulation time: 1 hr 2 min 7 sec) 
select_counter is 647
Heartbeat CPU 0 instructions: 131000002 cycles: 199214907 heartbeat IPC: 0.575493 cumulative IPC: 0.479532 (Simulation time: 1 hr 2 min 18 sec) 
select_counter is 642
Heartbeat CPU 0 instructions: 132000000 cycles: 200952633 heartbeat IPC: 0.575464 cumulative IPC: 0.480509 (Simulation time: 1 hr 2 min 28 sec) 
select_counter is 643
Heartbeat CPU 0 instructions: 133000002 cycles: 202652925 heartbeat IPC: 0.588135 cumulative IPC: 0.481571 (Simulation time: 1 hr 2 min 38 sec) 
select_counter is 641
Heartbeat CPU 0 instructions: 134000000 cycles: 204315724 heartbeat IPC: 0.601394 cumulative IPC: 0.482716 (Simulation time: 1 hr 2 min 49 sec) 
select_counter is 647
Heartbeat CPU 0 instructions: 135000003 cycles: 206049649 heartbeat IPC: 0.576728 cumulative IPC: 0.483643 (Simulation time: 1 hr 2 min 59 sec) 
select_counter is 658
Heartbeat CPU 0 instructions: 136000000 cycles: 207786477 heartbeat IPC: 0.575761 cumulative IPC: 0.484545 (Simulation time: 1 hr 3 min 9 sec) 
select_counter is 663
Heartbeat CPU 0 instructions: 137000003 cycles: 209523171 heartbeat IPC: 0.575808 cumulative IPC: 0.485429 (Simulation time: 1 hr 3 min 18 sec) 
select_counter is 655
Heartbeat CPU 0 instructions: 138000003 cycles: 211193958 heartbeat IPC: 0.59852 cumulative IPC: 0.486473 (Simulation time: 1 hr 3 min 28 sec) 
select_counter is 660
Heartbeat CPU 0 instructions: 139000000 cycles: 216602803 heartbeat IPC: 0.184882 cumulative IPC: 0.477717 (Simulation time: 1 hr 3 min 39 sec) 
select_counter is 633
Heartbeat CPU 0 instructions: 140000000 cycles: 219572134 heartbeat IPC: 0.336776 cumulative IPC: 0.475506 (Simulation time: 1 hr 3 min 49 sec) 
select_counter is 622
Heartbeat CPU 0 instructions: 141000001 cycles: 221308759 heartbeat IPC: 0.57583 cumulative IPC: 0.476418 (Simulation time: 1 hr 3 min 58 sec) 
select_counter is 637
Heartbeat CPU 0 instructions: 142000000 cycles: 223015173 heartbeat IPC: 0.586024 cumulative IPC: 0.477389 (Simulation time: 1 hr 4 min 8 sec) 
select_counter is 640
Heartbeat CPU 0 instructions: 143000003 cycles: 224675582 heartbeat IPC: 0.602263 cumulative IPC: 0.478456 (Simulation time: 1 hr 4 min 17 sec) 
select_counter is 649
Heartbeat CPU 0 instructions: 144000000 cycles: 226406301 heartbeat IPC: 0.577793 cumulative IPC: 0.479332 (Simulation time: 1 hr 4 min 26 sec) 
select_counter is 655
Heartbeat CPU 0 instructions: 145000002 cycles: 228160457 heartbeat IPC: 0.570076 cumulative IPC: 0.480137 (Simulation time: 1 hr 4 min 34 sec) 
select_counter is 645
Heartbeat CPU 0 instructions: 146000001 cycles: 229894969 heartbeat IPC: 0.57653 cumulative IPC: 0.480975 (Simulation time: 1 hr 4 min 43 sec) 
select_counter is 648
Heartbeat CPU 0 instructions: 147000000 cycles: 231568275 heartbeat IPC: 0.597619 cumulative IPC: 0.481944 (Simulation time: 1 hr 4 min 51 sec) 
select_counter is 655
Heartbeat CPU 0 instructions: 148000000 cycles: 233255935 heartbeat IPC: 0.592536 cumulative IPC: 0.482864 (Simulation time: 1 hr 5 min 0 sec) 
select_counter is 660
Heartbeat CPU 0 instructions: 149000000 cycles: 235007913 heartbeat IPC: 0.570783 cumulative IPC: 0.483616 (Simulation time: 1 hr 5 min 8 sec) 
select_counter is 662
Heartbeat CPU 0 instructions: 150000002 cycles: 236764829 heartbeat IPC: 0.56918 cumulative IPC: 0.484345 (Simulation time: 1 hr 5 min 15 sec) 
select_counter is 667
Finished CPU 0 instructions: 100000003 cycles: 206464612 cummulative IPC: 0.484345 (Simulation time: 1 hr 5 min 15 sec) 

ChampSim completed all CPUs

Region of Interest Statistics

CPU 0 cummulative IPC: 0.484345 instructions: 100000003 cycles: 206464612
LLC TOTAL     ACCESS:    1108815  HIT:     348685  MISS:     760130
LLC LOAD      ACCESS:      24310  HIT:       3653  MISS:      20657
LLC RFO       ACCESS:     245174  HIT:      53936  MISS:     191238
LLC PREFETCH  ACCESS:     593769  HIT:     201230  MISS:     392539
LLC WRITEBACK ACCESS:     245562  HIT:      89866  MISS:     155696
Ship samples: 
16, 39, 78, 101, 148, 179, 196, 255, 286, 302, 348, 374, 393, 447, 448, 501, 534, 553, 576, 626, 648, 680, 731, 747, 786, 826, 832, 877, 903, 931, 988, 994, 1043, 1072, 1088, 1143, 1182, 1206, 1220, 1270, 1290, 1318, 1346, 1396, 1439, 1457, 1487, 1518, 1567, 1589, 1601, 1640, 1676, 1721, 1729, 1768, 1792, 1846, 1857, 1900, 1921, 1980, 1994, 2031, 
Lime duel samples: 
9, 59, 70, 103, 140, 164, 202, 229, 284, 290, 349, 375, 414, 438, 473, 495, 539, 571, 606, 629, 644, 700, 717, 740, 797, 808, 847, 881, 905, 940, 967, 1016, 1042, 1067, 1107, 1122, 1161, 1184, 1241, 1250, 1303, 1329, 1354, 1395, 1417, 1463, 1499, 1523, 1538, 1598, 1631, 1644, 1695, 1727, 1745, 1775, 1803, 1838, 1858, 1898, 1920, 1981, 2000, 2034, 
Lime samples: 
9, 103, 202, 290, 414, 495, 606, 700, 797, 881, 967, 1067, 1161, 1250, 1354, 1463, 1538, 1644, 1745, 1838, 1920, 
Insertion Distribution: 
	LOAD 29 0 0 0 0 0 771 7416 
	RFO 11008 0 0 0 0 0 3565 50791 
	PREF 0 12706 0 0 0 0 23295 110048 
	WRITEBACK 0 0 0 0 0 0 0 45605 
Total Prefetch Downgrades: 13670
