
*** ChampSim Multicore Out-of-Order Simulator ***

Warmup Instructions: 50000000
Simulation Instructions: 100000000
Configuration: 2
Number of CPUs: 1
LLC sets: 2048
LLC ways: 16
Off-chip DRAM Channels: 1 Width: 64-bit Data Rate: 1600 MT/s

CPU 0 runs /datasets/cs240c-wi22-a00-public/data/Assignment2-gz/lbm_564B.trace.gz
CPU 0 L1D next line prefetcher
CPU 0 L2C IP-based stride prefetcher
Heartbeat CPU 0 instructions: 1000000 cycles: 390168 heartbeat IPC: 2.563 cumulative IPC: 2.563 (Simulation time: 0 hr 0 min 27 sec) 
select_counter is 568
Heartbeat CPU 0 instructions: 2000003 cycles: 785204 heartbeat IPC: 2.53142 cumulative IPC: 2.54711 (Simulation time: 0 hr 0 min 53 sec) 
select_counter is 979
Heartbeat CPU 0 instructions: 3000002 cycles: 1175399 heartbeat IPC: 2.56282 cumulative IPC: 2.55233 (Simulation time: 0 hr 1 min 18 sec) 
select_counter is 1023
Heartbeat CPU 0 instructions: 4000000 cycles: 1565585 heartbeat IPC: 2.56288 cumulative IPC: 2.55496 (Simulation time: 0 hr 1 min 42 sec) 
select_counter is 1007
Heartbeat CPU 0 instructions: 5000000 cycles: 1960703 heartbeat IPC: 2.53089 cumulative IPC: 2.55011 (Simulation time: 0 hr 2 min 5 sec) 
select_counter is 948
Heartbeat CPU 0 instructions: 6000002 cycles: 2350860 heartbeat IPC: 2.56308 cumulative IPC: 2.55226 (Simulation time: 0 hr 2 min 31 sec) 
select_counter is 1017
Heartbeat CPU 0 instructions: 7000001 cycles: 2741121 heartbeat IPC: 2.56239 cumulative IPC: 2.5537 (Simulation time: 0 hr 2 min 53 sec) 
select_counter is 1020
Heartbeat CPU 0 instructions: 8000000 cycles: 3136126 heartbeat IPC: 2.53161 cumulative IPC: 2.55092 (Simulation time: 0 hr 3 min 16 sec) 
select_counter is 831
Heartbeat CPU 0 instructions: 9000000 cycles: 3526385 heartbeat IPC: 2.5624 cumulative IPC: 2.55219 (Simulation time: 0 hr 3 min 39 sec) 
select_counter is 850
Heartbeat CPU 0 instructions: 10000002 cycles: 3916534 heartbeat IPC: 2.56313 cumulative IPC: 2.55328 (Simulation time: 0 hr 4 min 2 sec) 
select_counter is 916
Heartbeat CPU 0 instructions: 11000000 cycles: 4306773 heartbeat IPC: 2.56253 cumulative IPC: 2.55412 (Simulation time: 0 hr 4 min 24 sec) 
select_counter is 876
Heartbeat CPU 0 instructions: 12000000 cycles: 4701743 heartbeat IPC: 2.53184 cumulative IPC: 2.55224 (Simulation time: 0 hr 4 min 48 sec) 
select_counter is 1021
Heartbeat CPU 0 instructions: 13000001 cycles: 5091982 heartbeat IPC: 2.56253 cumulative IPC: 2.55303 (Simulation time: 0 hr 5 min 13 sec) 
select_counter is 1022
Heartbeat CPU 0 instructions: 14000003 cycles: 5482161 heartbeat IPC: 2.56293 cumulative IPC: 2.55374 (Simulation time: 0 hr 5 min 34 sec) 
select_counter is 1021
Heartbeat CPU 0 instructions: 15000000 cycles: 5877212 heartbeat IPC: 2.53131 cumulative IPC: 2.55223 (Simulation time: 0 hr 5 min 57 sec) 
select_counter is 1020
Heartbeat CPU 0 instructions: 16000000 cycles: 6267415 heartbeat IPC: 2.56277 cumulative IPC: 2.55289 (Simulation time: 0 hr 6 min 21 sec) 
select_counter is 1022
Heartbeat CPU 0 instructions: 17000000 cycles: 6657605 heartbeat IPC: 2.56285 cumulative IPC: 2.55347 (Simulation time: 0 hr 6 min 48 sec) 
select_counter is 1018
Heartbeat CPU 0 instructions: 18000000 cycles: 7052682 heartbeat IPC: 2.53115 cumulative IPC: 2.55222 (Simulation time: 0 hr 7 min 13 sec) 
select_counter is 965
Heartbeat CPU 0 instructions: 19000001 cycles: 7442846 heartbeat IPC: 2.56303 cumulative IPC: 2.55279 (Simulation time: 0 hr 7 min 37 sec) 
select_counter is 1021
Heartbeat CPU 0 instructions: 20000000 cycles: 7833035 heartbeat IPC: 2.56286 cumulative IPC: 2.55329 (Simulation time: 0 hr 8 min 2 sec) 
select_counter is 1015
Heartbeat CPU 0 instructions: 21000003 cycles: 8223227 heartbeat IPC: 2.56285 cumulative IPC: 2.55374 (Simulation time: 0 hr 8 min 28 sec) 
select_counter is 959
Heartbeat CPU 0 instructions: 22000002 cycles: 8687236 heartbeat IPC: 2.15513 cumulative IPC: 2.53245 (Simulation time: 0 hr 8 min 58 sec) 
select_counter is 1018
Heartbeat CPU 0 instructions: 23000003 cycles: 9180480 heartbeat IPC: 2.0274 cumulative IPC: 2.50532 (Simulation time: 0 hr 9 min 30 sec) 
select_counter is 901
Heartbeat CPU 0 instructions: 24000000 cycles: 10024506 heartbeat IPC: 1.18479 cumulative IPC: 2.39413 (Simulation time: 0 hr 10 min 18 sec) 
select_counter is 1021
Heartbeat CPU 0 instructions: 25000003 cycles: 10553168 heartbeat IPC: 1.89157 cumulative IPC: 2.36896 (Simulation time: 0 hr 10 min 52 sec) 
select_counter is 922
Heartbeat CPU 0 instructions: 26000002 cycles: 11043512 heartbeat IPC: 2.03938 cumulative IPC: 2.35432 (Simulation time: 0 hr 11 min 22 sec) 
select_counter is 870
Heartbeat CPU 0 instructions: 27000001 cycles: 11433794 heartbeat IPC: 2.56225 cumulative IPC: 2.36142 (Simulation time: 0 hr 11 min 47 sec) 
select_counter is 578
Heartbeat CPU 0 instructions: 28000000 cycles: 11824143 heartbeat IPC: 2.56181 cumulative IPC: 2.36804 (Simulation time: 0 hr 12 min 12 sec) 
select_counter is 282
Heartbeat CPU 0 instructions: 29000002 cycles: 12214448 heartbeat IPC: 2.5621 cumulative IPC: 2.37424 (Simulation time: 0 hr 12 min 36 sec) 
select_counter is 232
Heartbeat CPU 0 instructions: 30000000 cycles: 12609568 heartbeat IPC: 2.53087 cumulative IPC: 2.37915 (Simulation time: 0 hr 13 min 1 sec) 
select_counter is 378
Heartbeat CPU 0 instructions: 31000000 cycles: 12999876 heartbeat IPC: 2.56208 cumulative IPC: 2.38464 (Simulation time: 0 hr 13 min 27 sec) 
select_counter is 334
Heartbeat CPU 0 instructions: 32000000 cycles: 13390224 heartbeat IPC: 2.56182 cumulative IPC: 2.3898 (Simulation time: 0 hr 13 min 52 sec) 
select_counter is 333
Heartbeat CPU 0 instructions: 33000001 cycles: 13785374 heartbeat IPC: 2.53069 cumulative IPC: 2.39384 (Simulation time: 0 hr 14 min 17 sec) 
select_counter is 393
Heartbeat CPU 0 instructions: 34000001 cycles: 14175600 heartbeat IPC: 2.56262 cumulative IPC: 2.39849 (Simulation time: 0 hr 14 min 39 sec) 
select_counter is 678
Heartbeat CPU 0 instructions: 35000002 cycles: 14565972 heartbeat IPC: 2.56166 cumulative IPC: 2.40286 (Simulation time: 0 hr 15 min 1 sec) 
select_counter is 819
Heartbeat CPU 0 instructions: 36000000 cycles: 14956246 heartbeat IPC: 2.5623 cumulative IPC: 2.40702 (Simulation time: 0 hr 15 min 26 sec) 
select_counter is 1020
Heartbeat CPU 0 instructions: 37000003 cycles: 15351349 heartbeat IPC: 2.53099 cumulative IPC: 2.41021 (Simulation time: 0 hr 15 min 53 sec) 
select_counter is 1019
Heartbeat CPU 0 instructions: 38000003 cycles: 15741640 heartbeat IPC: 2.56219 cumulative IPC: 2.41398 (Simulation time: 0 hr 16 min 15 sec) 
select_counter is 1019
Heartbeat CPU 0 instructions: 39000002 cycles: 16131995 heartbeat IPC: 2.56177 cumulative IPC: 2.41756 (Simulation time: 0 hr 16 min 39 sec) 
select_counter is 1022
Heartbeat CPU 0 instructions: 40000000 cycles: 16527029 heartbeat IPC: 2.53142 cumulative IPC: 2.42028 (Simulation time: 0 hr 17 min 2 sec) 
select_counter is 972
Heartbeat CPU 0 instructions: 41000000 cycles: 16917329 heartbeat IPC: 2.56213 cumulative IPC: 2.42355 (Simulation time: 0 hr 17 min 26 sec) 
select_counter is 1008
Heartbeat CPU 0 instructions: 42000002 cycles: 17307681 heartbeat IPC: 2.5618 cumulative IPC: 2.42667 (Simulation time: 0 hr 17 min 48 sec) 
select_counter is 1020
Heartbeat CPU 0 instructions: 43000001 cycles: 17702796 heartbeat IPC: 2.53091 cumulative IPC: 2.42899 (Simulation time: 0 hr 18 min 12 sec) 
select_counter is 1003
Heartbeat CPU 0 instructions: 44000000 cycles: 18093081 heartbeat IPC: 2.56223 cumulative IPC: 2.43187 (Simulation time: 0 hr 18 min 36 sec) 
select_counter is 1017
Heartbeat CPU 0 instructions: 45000001 cycles: 18483418 heartbeat IPC: 2.56189 cumulative IPC: 2.43461 (Simulation time: 0 hr 19 min 0 sec) 
select_counter is 1008
Heartbeat CPU 0 instructions: 46000002 cycles: 18873719 heartbeat IPC: 2.56213 cumulative IPC: 2.43725 (Simulation time: 0 hr 19 min 23 sec) 
select_counter is 1020
Heartbeat CPU 0 instructions: 47000002 cycles: 19268759 heartbeat IPC: 2.53139 cumulative IPC: 2.43918 (Simulation time: 0 hr 19 min 45 sec) 
select_counter is 1017
Heartbeat CPU 0 instructions: 48000000 cycles: 19659078 heartbeat IPC: 2.562 cumulative IPC: 2.44162 (Simulation time: 0 hr 20 min 9 sec) 
select_counter is 1013
Heartbeat CPU 0 instructions: 49000003 cycles: 20049410 heartbeat IPC: 2.56193 cumulative IPC: 2.44396 (Simulation time: 0 hr 20 min 31 sec) 
select_counter is 1018
Heartbeat CPU 0 instructions: 50000002 cycles: 20444529 heartbeat IPC: 2.53088 cumulative IPC: 2.44564 (Simulation time: 0 hr 20 min 51 sec) 
select_counter is 1016

Warmup complete CPU 0 instructions: 50000002 cycles: 20444529 (Simulation time: 0 hr 20 min 51 sec) 

Heartbeat CPU 0 instructions: 51000002 cycles: 21859704 heartbeat IPC: 0.706626 cumulative IPC: 0.706626 (Simulation time: 0 hr 21 min 16 sec) 
select_counter is 1005
Heartbeat CPU 0 instructions: 52000000 cycles: 23255097 heartbeat IPC: 0.716643 cumulative IPC: 0.711599 (Simulation time: 0 hr 21 min 43 sec) 
select_counter is 1021
Heartbeat CPU 0 instructions: 53000001 cycles: 24627036 heartbeat IPC: 0.728896 cumulative IPC: 0.717273 (Simulation time: 0 hr 22 min 10 sec) 
select_counter is 1021
Heartbeat CPU 0 instructions: 54000001 cycles: 26102034 heartbeat IPC: 0.677967 cumulative IPC: 0.707025 (Simulation time: 0 hr 22 min 43 sec) 
select_counter is 1005
Heartbeat CPU 0 instructions: 55000003 cycles: 27520754 heartbeat IPC: 0.704862 cumulative IPC: 0.706592 (Simulation time: 0 hr 23 min 15 sec) 
select_counter is 1007
Heartbeat CPU 0 instructions: 56000000 cycles: 28943230 heartbeat IPC: 0.702997 cumulative IPC: 0.70599 (Simulation time: 0 hr 23 min 44 sec) 
select_counter is 1019
Heartbeat CPU 0 instructions: 57000001 cycles: 30364535 heartbeat IPC: 0.703579 cumulative IPC: 0.705645 (Simulation time: 0 hr 24 min 11 sec) 
select_counter is 1020
Heartbeat CPU 0 instructions: 58000002 cycles: 31829712 heartbeat IPC: 0.682512 cumulative IPC: 0.702668 (Simulation time: 0 hr 24 min 37 sec) 
select_counter is 1021
Heartbeat CPU 0 instructions: 59000001 cycles: 33181539 heartbeat IPC: 0.739739 cumulative IPC: 0.706602 (Simulation time: 0 hr 25 min 3 sec) 
select_counter is 1023
Heartbeat CPU 0 instructions: 60000000 cycles: 34565572 heartbeat IPC: 0.722525 cumulative IPC: 0.708163 (Simulation time: 0 hr 25 min 30 sec) 
select_counter is 1016
Heartbeat CPU 0 instructions: 61000003 cycles: 36047722 heartbeat IPC: 0.674698 cumulative IPC: 0.704984 (Simulation time: 0 hr 25 min 59 sec) 
select_counter is 1020
Heartbeat CPU 0 instructions: 62000003 cycles: 37425410 heartbeat IPC: 0.725854 cumulative IPC: 0.706677 (Simulation time: 0 hr 26 min 28 sec) 
select_counter is 1023
Heartbeat CPU 0 instructions: 63000000 cycles: 38858441 heartbeat IPC: 0.69782 cumulative IPC: 0.705988 (Simulation time: 0 hr 26 min 57 sec) 
select_counter is 1004
Heartbeat CPU 0 instructions: 64000000 cycles: 40291644 heartbeat IPC: 0.697738 cumulative IPC: 0.705392 (Simulation time: 0 hr 27 min 23 sec) 
select_counter is 1018
Heartbeat CPU 0 instructions: 65000003 cycles: 41715006 heartbeat IPC: 0.702564 cumulative IPC: 0.705203 (Simulation time: 0 hr 27 min 50 sec) 
select_counter is 1018
Heartbeat CPU 0 instructions: 66000001 cycles: 43096530 heartbeat IPC: 0.723837 cumulative IPC: 0.706339 (Simulation time: 0 hr 28 min 17 sec) 
select_counter is 1021
Heartbeat CPU 0 instructions: 67000001 cycles: 44517052 heartbeat IPC: 0.703967 cumulative IPC: 0.706199 (Simulation time: 0 hr 28 min 46 sec) 
select_counter is 1018
Heartbeat CPU 0 instructions: 68000000 cycles: 45991165 heartbeat IPC: 0.678373 cumulative IPC: 0.704594 (Simulation time: 0 hr 29 min 12 sec) 
select_counter is 1019
Heartbeat CPU 0 instructions: 69000003 cycles: 47352815 heartbeat IPC: 0.734405 cumulative IPC: 0.706102 (Simulation time: 0 hr 29 min 39 sec) 
select_counter is 1020
Heartbeat CPU 0 instructions: 70000003 cycles: 48792855 heartbeat IPC: 0.694425 cumulative IPC: 0.705509 (Simulation time: 0 hr 30 min 5 sec) 
select_counter is 1020
Heartbeat CPU 0 instructions: 71000000 cycles: 50305124 heartbeat IPC: 0.661256 cumulative IPC: 0.703268 (Simulation time: 0 hr 30 min 35 sec) 
select_counter is 1015
Heartbeat CPU 0 instructions: 72000000 cycles: 51675771 heartbeat IPC: 0.729582 cumulative IPC: 0.704423 (Simulation time: 0 hr 31 min 7 sec) 
select_counter is 1023
Heartbeat CPU 0 instructions: 73000003 cycles: 53086032 heartbeat IPC: 0.709091 cumulative IPC: 0.704624 (Simulation time: 0 hr 31 min 33 sec) 
select_counter is 1016
Heartbeat CPU 0 instructions: 74000002 cycles: 54657815 heartbeat IPC: 0.63622 cumulative IPC: 0.701482 (Simulation time: 0 hr 32 min 9 sec) 
select_counter is 912
Heartbeat CPU 0 instructions: 75000002 cycles: 56036617 heartbeat IPC: 0.725267 cumulative IPC: 0.702403 (Simulation time: 0 hr 32 min 36 sec) 
select_counter is 1023
Heartbeat CPU 0 instructions: 76000000 cycles: 57462957 heartbeat IPC: 0.701094 cumulative IPC: 0.702353 (Simulation time: 0 hr 33 min 3 sec) 
select_counter is 1020
Heartbeat CPU 0 instructions: 77000001 cycles: 59029258 heartbeat IPC: 0.638448 cumulative IPC: 0.699759 (Simulation time: 0 hr 33 min 31 sec) 
select_counter is 987
Heartbeat CPU 0 instructions: 78000002 cycles: 60416990 heartbeat IPC: 0.720601 cumulative IPC: 0.700482 (Simulation time: 0 hr 34 min 0 sec) 
select_counter is 1017
Heartbeat CPU 0 instructions: 79000000 cycles: 61851826 heartbeat IPC: 0.696942 cumulative IPC: 0.70036 (Simulation time: 0 hr 34 min 29 sec) 
select_counter is 1019
Heartbeat CPU 0 instructions: 80000000 cycles: 63439808 heartbeat IPC: 0.62973 cumulative IPC: 0.697751 (Simulation time: 0 hr 34 min 58 sec) 
select_counter is 1019
Heartbeat CPU 0 instructions: 81000003 cycles: 64821254 heartbeat IPC: 0.723881 cumulative IPC: 0.698564 (Simulation time: 0 hr 35 min 26 sec) 
select_counter is 1022
Heartbeat CPU 0 instructions: 82000001 cycles: 66271984 heartbeat IPC: 0.689307 cumulative IPC: 0.698271 (Simulation time: 0 hr 35 min 54 sec) 
select_counter is 1022
Heartbeat CPU 0 instructions: 83000001 cycles: 67820649 heartbeat IPC: 0.645717 cumulative IPC: 0.696553 (Simulation time: 0 hr 36 min 23 sec) 
select_counter is 1021
Heartbeat CPU 0 instructions: 84000000 cycles: 69292145 heartbeat IPC: 0.67958 cumulative IPC: 0.696042 (Simulation time: 0 hr 36 min 52 sec) 
select_counter is 1021
Heartbeat CPU 0 instructions: 85000002 cycles: 70667188 heartbeat IPC: 0.727251 cumulative IPC: 0.696897 (Simulation time: 0 hr 37 min 20 sec) 
select_counter is 1016
Heartbeat CPU 0 instructions: 86000001 cycles: 72248281 heartbeat IPC: 0.632473 cumulative IPC: 0.69493 (Simulation time: 0 hr 37 min 49 sec) 
select_counter is 1016
Heartbeat CPU 0 instructions: 87000003 cycles: 73717729 heartbeat IPC: 0.680529 cumulative IPC: 0.694533 (Simulation time: 0 hr 38 min 21 sec) 
select_counter is 1022
Heartbeat CPU 0 instructions: 88000000 cycles: 75052927 heartbeat IPC: 0.74895 cumulative IPC: 0.695864 (Simulation time: 0 hr 38 min 53 sec) 
select_counter is 1012
Heartbeat CPU 0 instructions: 89000003 cycles: 76646847 heartbeat IPC: 0.627386 cumulative IPC: 0.693922 (Simulation time: 0 hr 39 min 21 sec) 
select_counter is 1018
Heartbeat CPU 0 instructions: 90000001 cycles: 78148904 heartbeat IPC: 0.665752 cumulative IPC: 0.693188 (Simulation time: 0 hr 39 min 48 sec) 
select_counter is 1023
Heartbeat CPU 0 instructions: 91000000 cycles: 79481406 heartbeat IPC: 0.750467 cumulative IPC: 0.694481 (Simulation time: 0 hr 40 min 15 sec) 
select_counter is 1022
Heartbeat CPU 0 instructions: 92000000 cycles: 81096091 heartbeat IPC: 0.619316 cumulative IPC: 0.69248 (Simulation time: 0 hr 40 min 45 sec) 
select_counter is 1019
Heartbeat CPU 0 instructions: 93000003 cycles: 82644234 heartbeat IPC: 0.645937 cumulative IPC: 0.691322 (Simulation time: 0 hr 41 min 12 sec) 
select_counter is 1022
Heartbeat CPU 0 instructions: 94000002 cycles: 83973648 heartbeat IPC: 0.75221 cumulative IPC: 0.692596 (Simulation time: 0 hr 41 min 39 sec) 
select_counter is 1018
Heartbeat CPU 0 instructions: 95000001 cycles: 85520517 heartbeat IPC: 0.646466 cumulative IPC: 0.691499 (Simulation time: 0 hr 42 min 12 sec) 
select_counter is 1016
Heartbeat CPU 0 instructions: 96000000 cycles: 87055341 heartbeat IPC: 0.65154 cumulative IPC: 0.690579 (Simulation time: 0 hr 42 min 43 sec) 
select_counter is 1021
Heartbeat CPU 0 instructions: 97000002 cycles: 88434358 heartbeat IPC: 0.725156 cumulative IPC: 0.69128 (Simulation time: 0 hr 43 min 9 sec) 
select_counter is 1020
Heartbeat CPU 0 instructions: 98000000 cycles: 90018615 heartbeat IPC: 0.631209 cumulative IPC: 0.689912 (Simulation time: 0 hr 43 min 39 sec) 
select_counter is 1016
Heartbeat CPU 0 instructions: 99000001 cycles: 91543065 heartbeat IPC: 0.655975 cumulative IPC: 0.689184 (Simulation time: 0 hr 44 min 8 sec) 
select_counter is 1021
Heartbeat CPU 0 instructions: 100000000 cycles: 92873279 heartbeat IPC: 0.751758 cumulative IPC: 0.690334 (Simulation time: 0 hr 44 min 33 sec) 
select_counter is 1023
Heartbeat CPU 0 instructions: 101000002 cycles: 94513248 heartbeat IPC: 0.609769 cumulative IPC: 0.68855 (Simulation time: 0 hr 45 min 2 sec) 
select_counter is 1021
Heartbeat CPU 0 instructions: 102000002 cycles: 96069427 heartbeat IPC: 0.6426 cumulative IPC: 0.687604 (Simulation time: 0 hr 45 min 30 sec) 
select_counter is 1018
Heartbeat CPU 0 instructions: 103000001 cycles: 97418038 heartbeat IPC: 0.741503 cumulative IPC: 0.688549 (Simulation time: 0 hr 45 min 56 sec) 
select_counter is 1016
Heartbeat CPU 0 instructions: 104000000 cycles: 99029489 heartbeat IPC: 0.620558 cumulative IPC: 0.687154 (Simulation time: 0 hr 46 min 23 sec) 
select_counter is 1020
Heartbeat CPU 0 instructions: 105000001 cycles: 100573839 heartbeat IPC: 0.647522 cumulative IPC: 0.686391 (Simulation time: 0 hr 46 min 53 sec) 
select_counter is 1023
Heartbeat CPU 0 instructions: 106000003 cycles: 101955221 heartbeat IPC: 0.723914 cumulative IPC: 0.687026 (Simulation time: 0 hr 47 min 30 sec) 
select_counter is 1019
Heartbeat CPU 0 instructions: 107000001 cycles: 103601427 heartbeat IPC: 0.607456 cumulative IPC: 0.685451 (Simulation time: 0 hr 48 min 0 sec) 
select_counter is 971
Heartbeat CPU 0 instructions: 108000000 cycles: 105105380 heartbeat IPC: 0.664914 cumulative IPC: 0.685086 (Simulation time: 0 hr 48 min 29 sec) 
select_counter is 1023
Heartbeat CPU 0 instructions: 109000003 cycles: 106462334 heartbeat IPC: 0.736947 cumulative IPC: 0.685905 (Simulation time: 0 hr 48 min 55 sec) 
select_counter is 1016
Heartbeat CPU 0 instructions: 110000001 cycles: 108153591 heartbeat IPC: 0.591275 cumulative IPC: 0.68408 (Simulation time: 0 hr 49 min 24 sec) 
select_counter is 1009
Heartbeat CPU 0 instructions: 111000002 cycles: 109622518 heartbeat IPC: 0.68077 cumulative IPC: 0.684025 (Simulation time: 0 hr 49 min 51 sec) 
select_counter is 1021
Heartbeat CPU 0 instructions: 112000000 cycles: 111054032 heartbeat IPC: 0.69856 cumulative IPC: 0.684255 (Simulation time: 0 hr 50 min 18 sec) 
select_counter is 1017
Heartbeat CPU 0 instructions: 113000001 cycles: 112698540 heartbeat IPC: 0.608085 cumulative IPC: 0.682897 (Simulation time: 0 hr 50 min 46 sec) 
select_counter is 1016
Heartbeat CPU 0 instructions: 114000002 cycles: 114143548 heartbeat IPC: 0.692038 cumulative IPC: 0.683038 (Simulation time: 0 hr 51 min 15 sec) 
select_counter is 1017
Heartbeat CPU 0 instructions: 115000002 cycles: 115558420 heartbeat IPC: 0.706778 cumulative IPC: 0.683391 (Simulation time: 0 hr 51 min 44 sec) 
select_counter is 1009
Heartbeat CPU 0 instructions: 116000000 cycles: 117254984 heartbeat IPC: 0.589425 cumulative IPC: 0.681745 (Simulation time: 0 hr 52 min 13 sec) 
select_counter is 1019
Heartbeat CPU 0 instructions: 117000001 cycles: 118645884 heartbeat IPC: 0.71896 cumulative IPC: 0.682272 (Simulation time: 0 hr 52 min 40 sec) 
select_counter is 1020
Heartbeat CPU 0 instructions: 118000003 cycles: 120065219 heartbeat IPC: 0.704557 cumulative IPC: 0.682589 (Simulation time: 0 hr 53 min 4 sec) 
select_counter is 1008
Heartbeat CPU 0 instructions: 119000002 cycles: 121780951 heartbeat IPC: 0.582841 cumulative IPC: 0.6809 (Simulation time: 0 hr 53 min 34 sec) 
select_counter is 1014
Heartbeat CPU 0 instructions: 120000000 cycles: 123188588 heartbeat IPC: 0.710409 cumulative IPC: 0.681305 (Simulation time: 0 hr 53 min 58 sec) 
select_counter is 1023
Heartbeat CPU 0 instructions: 121000000 cycles: 124609111 heartbeat IPC: 0.703966 cumulative IPC: 0.681614 (Simulation time: 0 hr 54 min 22 sec) 
select_counter is 1020
Heartbeat CPU 0 instructions: 122000001 cycles: 126282544 heartbeat IPC: 0.597575 cumulative IPC: 0.680285 (Simulation time: 0 hr 54 min 48 sec) 
select_counter is 1015
Heartbeat CPU 0 instructions: 123000002 cycles: 127665884 heartbeat IPC: 0.722889 cumulative IPC: 0.680835 (Simulation time: 0 hr 55 min 10 sec) 
select_counter is 1018
Heartbeat CPU 0 instructions: 124000000 cycles: 129066694 heartbeat IPC: 0.713871 cumulative IPC: 0.681261 (Simulation time: 0 hr 55 min 33 sec) 
select_counter is 1014
Heartbeat CPU 0 instructions: 125000003 cycles: 130820295 heartbeat IPC: 0.570257 cumulative IPC: 0.679497 (Simulation time: 0 hr 55 min 56 sec) 
select_counter is 1011
Heartbeat CPU 0 instructions: 126000001 cycles: 132185676 heartbeat IPC: 0.732395 cumulative IPC: 0.680143 (Simulation time: 0 hr 56 min 17 sec) 
select_counter is 1021
Heartbeat CPU 0 instructions: 127000001 cycles: 133621108 heartbeat IPC: 0.696654 cumulative IPC: 0.680353 (Simulation time: 0 hr 56 min 38 sec) 
select_counter is 1017
Heartbeat CPU 0 instructions: 128000000 cycles: 135342921 heartbeat IPC: 0.580783 cumulative IPC: 0.678861 (Simulation time: 0 hr 57 min 1 sec) 
select_counter is 1023
Heartbeat CPU 0 instructions: 129000003 cycles: 136690000 heartbeat IPC: 0.742349 cumulative IPC: 0.679596 (Simulation time: 0 hr 57 min 19 sec) 
select_counter is 1023
Heartbeat CPU 0 instructions: 130000003 cycles: 138130544 heartbeat IPC: 0.694182 cumulative IPC: 0.679775 (Simulation time: 0 hr 57 min 37 sec) 
select_counter is 1001
Heartbeat CPU 0 instructions: 131000000 cycles: 139855854 heartbeat IPC: 0.579604 cumulative IPC: 0.678328 (Simulation time: 0 hr 57 min 57 sec) 
select_counter is 987
Heartbeat CPU 0 instructions: 132000000 cycles: 141198712 heartbeat IPC: 0.74468 cumulative IPC: 0.679065 (Simulation time: 0 hr 58 min 14 sec) 
select_counter is 1021
Heartbeat CPU 0 instructions: 133000001 cycles: 142620269 heartbeat IPC: 0.703455 cumulative IPC: 0.679349 (Simulation time: 0 hr 58 min 30 sec) 
select_counter is 1019
Heartbeat CPU 0 instructions: 134000000 cycles: 144332260 heartbeat IPC: 0.584115 cumulative IPC: 0.678033 (Simulation time: 0 hr 58 min 47 sec) 
select_counter is 1009
Heartbeat CPU 0 instructions: 135000003 cycles: 145666570 heartbeat IPC: 0.749453 cumulative IPC: 0.678794 (Simulation time: 0 hr 59 min 2 sec) 
select_counter is 1022
Heartbeat CPU 0 instructions: 136000000 cycles: 147108079 heartbeat IPC: 0.693715 cumulative IPC: 0.678964 (Simulation time: 0 hr 59 min 17 sec) 
select_counter is 1021
Heartbeat CPU 0 instructions: 137000001 cycles: 148832519 heartbeat IPC: 0.579899 cumulative IPC: 0.677633 (Simulation time: 0 hr 59 min 32 sec) 
select_counter is 1004
Heartbeat CPU 0 instructions: 138000000 cycles: 150190991 heartbeat IPC: 0.73612 cumulative IPC: 0.678246 (Simulation time: 0 hr 59 min 46 sec) 
select_counter is 1017
Heartbeat CPU 0 instructions: 139000003 cycles: 151619527 heartbeat IPC: 0.700019 cumulative IPC: 0.678483 (Simulation time: 1 hr 0 min 0 sec) 
select_counter is 1019
Heartbeat CPU 0 instructions: 140000000 cycles: 153300037 heartbeat IPC: 0.595056 cumulative IPC: 0.677428 (Simulation time: 1 hr 0 min 14 sec) 
select_counter is 1022
Heartbeat CPU 0 instructions: 141000003 cycles: 154670688 heartbeat IPC: 0.729582 cumulative IPC: 0.67796 (Simulation time: 1 hr 0 min 27 sec) 
select_counter is 1021
Heartbeat CPU 0 instructions: 142000001 cycles: 156118599 heartbeat IPC: 0.690649 cumulative IPC: 0.678096 (Simulation time: 1 hr 0 min 40 sec) 
select_counter is 1021
Heartbeat CPU 0 instructions: 143000000 cycles: 157758752 heartbeat IPC: 0.609699 cumulative IPC: 0.677279 (Simulation time: 1 hr 0 min 54 sec) 
select_counter is 1008
Heartbeat CPU 0 instructions: 144000000 cycles: 159125194 heartbeat IPC: 0.731828 cumulative IPC: 0.677816 (Simulation time: 1 hr 1 min 5 sec) 
select_counter is 1017
Heartbeat CPU 0 instructions: 145000002 cycles: 160604101 heartbeat IPC: 0.676176 cumulative IPC: 0.677799 (Simulation time: 1 hr 1 min 17 sec) 
select_counter is 975
Heartbeat CPU 0 instructions: 146000001 cycles: 162250281 heartbeat IPC: 0.607466 cumulative IPC: 0.676982 (Simulation time: 1 hr 1 min 29 sec) 
select_counter is 1021
Heartbeat CPU 0 instructions: 147000000 cycles: 163583744 heartbeat IPC: 0.749926 cumulative IPC: 0.677662 (Simulation time: 1 hr 1 min 39 sec) 
select_counter is 1017
Heartbeat CPU 0 instructions: 148000000 cycles: 165022893 heartbeat IPC: 0.694855 cumulative IPC: 0.677833 (Simulation time: 1 hr 1 min 50 sec) 
select_counter is 1002
Heartbeat CPU 0 instructions: 149000003 cycles: 166658164 heartbeat IPC: 0.611521 cumulative IPC: 0.677091 (Simulation time: 1 hr 2 min 1 sec) 
select_counter is 1012
Heartbeat CPU 0 instructions: 150000003 cycles: 168021193 heartbeat IPC: 0.73366 cumulative IPC: 0.677614 (Simulation time: 1 hr 2 min 11 sec) 
select_counter is 1015
Finished CPU 0 instructions: 100000001 cycles: 147576664 cummulative IPC: 0.677614 (Simulation time: 1 hr 2 min 11 sec) 

ChampSim completed all CPUs

Region of Interest Statistics

CPU 0 cummulative IPC: 0.677614 instructions: 100000001 cycles: 147576664
LLC TOTAL     ACCESS:    5886661  HIT:    1647199  MISS:    4239462
LLC LOAD      ACCESS:     433158  HIT:        655  MISS:     432503
LLC RFO       ACCESS:    2513641  HIT:     535685  MISS:    1977956
LLC PREFETCH  ACCESS:     425908  HIT:        738  MISS:     425170
LLC WRITEBACK ACCESS:    2513954  HIT:    1110121  MISS:    1403833
Ship samples: 
11, 40, 87, 122, 128, 162, 219, 231, 286, 317, 325, 352, 395, 418, 471, 503, 522, 548, 604, 628, 661, 690, 729, 762, 778, 817, 859, 875, 896, 951, 964, 1012, 1054, 1056, 1097, 1138, 1167, 1209, 1245, 1267, 1282, 1328, 1358, 1395, 1411, 1446, 1476, 1515, 1552, 1568, 1609, 1657, 1686, 1698, 1731, 1768, 1815, 1829, 1867, 1905, 1927, 1978, 1988, 2033, 
Lime duel samples: 
16, 45, 66, 125, 147, 183, 213, 227, 265, 304, 345, 355, 412, 431, 455, 509, 514, 575, 577, 638, 669, 694, 721, 761, 792, 823, 847, 881, 902, 941, 970, 1018, 1028, 1077, 1117, 1149, 1183, 1187, 1225, 1265, 1301, 1314, 1363, 1398, 1435, 1450, 1479, 1530, 1539, 1580, 1625, 1650, 1689, 1714, 1747, 1781, 1797, 1848, 1870, 1889, 1941, 1977, 1985, 2045, 
Lime samples: 
16, 125, 213, 304, 412, 509, 577, 694, 792, 881, 970, 1077, 1183, 1265, 1363, 1450, 1539, 1650, 1747, 1848, 1941, 
Insertion Distribution: 
	LOAD 0 0 0 0 0 0 925 36691 
	RFO 11931 0 0 0 0 0 38260 168780 
	PREF 0 178 0 0 0 0 3119 44048 
	WRITEBACK 0 0 0 0 0 0 0 159301 
Total Prefetch Downgrades: 1157
