
*** ChampSim Multicore Out-of-Order Simulator ***

Warmup Instructions: 50000000
Simulation Instructions: 100000000
Configuration: 2
Number of CPUs: 1
LLC sets: 2048
LLC ways: 16
Off-chip DRAM Channels: 1 Width: 64-bit Data Rate: 1600 MT/s

CPU 0 runs /datasets/cs240c-wi22-a00-public/data/Assignment2-gz/milc_409B.trace.gz
CPU 0 L1D next line prefetcher
CPU 0 L2C IP-based stride prefetcher
Heartbeat CPU 0 instructions: 1000002 cycles: 407040 heartbeat IPC: 2.45677 cumulative IPC: 2.45677 (Simulation time: 0 hr 0 min 22 sec) 
select_counter is 429
Heartbeat CPU 0 instructions: 2000002 cycles: 889868 heartbeat IPC: 2.07113 cumulative IPC: 2.24753 (Simulation time: 0 hr 0 min 47 sec) 
select_counter is 562
Heartbeat CPU 0 instructions: 3000003 cycles: 1672035 heartbeat IPC: 1.2785 cumulative IPC: 1.79422 (Simulation time: 0 hr 1 min 32 sec) 
select_counter is 1023
Heartbeat CPU 0 instructions: 4000000 cycles: 2454292 heartbeat IPC: 1.27835 cumulative IPC: 1.6298 (Simulation time: 0 hr 2 min 4 sec) 
select_counter is 1022
Heartbeat CPU 0 instructions: 5000000 cycles: 3135412 heartbeat IPC: 1.46817 cumulative IPC: 1.59469 (Simulation time: 0 hr 2 min 30 sec) 
select_counter is 832
Heartbeat CPU 0 instructions: 6000003 cycles: 3679804 heartbeat IPC: 1.83692 cumulative IPC: 1.63052 (Simulation time: 0 hr 2 min 53 sec) 
select_counter is 503
Heartbeat CPU 0 instructions: 7000002 cycles: 4224110 heartbeat IPC: 1.8372 cumulative IPC: 1.65715 (Simulation time: 0 hr 3 min 16 sec) 
select_counter is 40
Heartbeat CPU 0 instructions: 8000000 cycles: 4768518 heartbeat IPC: 1.83685 cumulative IPC: 1.67767 (Simulation time: 0 hr 3 min 43 sec) 
select_counter is 589
Heartbeat CPU 0 instructions: 9000003 cycles: 5312844 heartbeat IPC: 1.83714 cumulative IPC: 1.69401 (Simulation time: 0 hr 4 min 10 sec) 
select_counter is 991
Heartbeat CPU 0 instructions: 10000000 cycles: 5857232 heartbeat IPC: 1.83692 cumulative IPC: 1.70729 (Simulation time: 0 hr 4 min 37 sec) 
select_counter is 454
Heartbeat CPU 0 instructions: 11000002 cycles: 6401582 heartbeat IPC: 1.83706 cumulative IPC: 1.71833 (Simulation time: 0 hr 5 min 1 sec) 
select_counter is 909
Heartbeat CPU 0 instructions: 12000000 cycles: 6945917 heartbeat IPC: 1.8371 cumulative IPC: 1.72763 (Simulation time: 0 hr 5 min 26 sec) 
select_counter is 339
Heartbeat CPU 0 instructions: 13000000 cycles: 7490305 heartbeat IPC: 1.83693 cumulative IPC: 1.73558 (Simulation time: 0 hr 5 min 48 sec) 
select_counter is 800
Heartbeat CPU 0 instructions: 14000002 cycles: 8034670 heartbeat IPC: 1.83701 cumulative IPC: 1.74245 (Simulation time: 0 hr 6 min 21 sec) 
select_counter is 324
Heartbeat CPU 0 instructions: 15000001 cycles: 8578997 heartbeat IPC: 1.83713 cumulative IPC: 1.74846 (Simulation time: 0 hr 6 min 49 sec) 
select_counter is 807
Heartbeat CPU 0 instructions: 16000000 cycles: 9123371 heartbeat IPC: 1.83697 cumulative IPC: 1.75374 (Simulation time: 0 hr 7 min 14 sec) 
select_counter is 284
Heartbeat CPU 0 instructions: 17000002 cycles: 9667737 heartbeat IPC: 1.837 cumulative IPC: 1.75843 (Simulation time: 0 hr 7 min 40 sec) 
select_counter is 836
Heartbeat CPU 0 instructions: 18000000 cycles: 10212107 heartbeat IPC: 1.83698 cumulative IPC: 1.76261 (Simulation time: 0 hr 8 min 9 sec) 
select_counter is 242
Heartbeat CPU 0 instructions: 19000003 cycles: 10756427 heartbeat IPC: 1.83716 cumulative IPC: 1.76639 (Simulation time: 0 hr 8 min 34 sec) 
select_counter is 710
Heartbeat CPU 0 instructions: 20000000 cycles: 11300831 heartbeat IPC: 1.83687 cumulative IPC: 1.76978 (Simulation time: 0 hr 8 min 59 sec) 
select_counter is 217
Heartbeat CPU 0 instructions: 21000001 cycles: 11845161 heartbeat IPC: 1.83712 cumulative IPC: 1.77288 (Simulation time: 0 hr 9 min 24 sec) 
select_counter is 700
Heartbeat CPU 0 instructions: 22000003 cycles: 12389528 heartbeat IPC: 1.837 cumulative IPC: 1.77569 (Simulation time: 0 hr 9 min 48 sec) 
select_counter is 215
Heartbeat CPU 0 instructions: 23000002 cycles: 12933913 heartbeat IPC: 1.83693 cumulative IPC: 1.77827 (Simulation time: 0 hr 10 min 13 sec) 
select_counter is 664
Heartbeat CPU 0 instructions: 24000000 cycles: 13478220 heartbeat IPC: 1.83719 cumulative IPC: 1.78065 (Simulation time: 0 hr 10 min 40 sec) 
select_counter is 137
Heartbeat CPU 0 instructions: 25000000 cycles: 14022616 heartbeat IPC: 1.8369 cumulative IPC: 1.78283 (Simulation time: 0 hr 11 min 4 sec) 
select_counter is 618
Heartbeat CPU 0 instructions: 26000000 cycles: 14566990 heartbeat IPC: 1.83697 cumulative IPC: 1.78486 (Simulation time: 0 hr 11 min 28 sec) 
select_counter is 140
Heartbeat CPU 0 instructions: 27000002 cycles: 15111312 heartbeat IPC: 1.83715 cumulative IPC: 1.78674 (Simulation time: 0 hr 11 min 55 sec) 
select_counter is 688
Heartbeat CPU 0 instructions: 28000000 cycles: 15655447 heartbeat IPC: 1.83778 cumulative IPC: 1.78851 (Simulation time: 0 hr 12 min 22 sec) 
select_counter is 197
Heartbeat CPU 0 instructions: 29000000 cycles: 16196637 heartbeat IPC: 1.84778 cumulative IPC: 1.7905 (Simulation time: 0 hr 12 min 50 sec) 
select_counter is 768
Heartbeat CPU 0 instructions: 30000000 cycles: 16737802 heartbeat IPC: 1.84787 cumulative IPC: 1.79235 (Simulation time: 0 hr 13 min 19 sec) 
select_counter is 291
Heartbeat CPU 0 instructions: 31000003 cycles: 17278973 heartbeat IPC: 1.84785 cumulative IPC: 1.79409 (Simulation time: 0 hr 13 min 46 sec) 
select_counter is 806
Heartbeat CPU 0 instructions: 32000000 cycles: 17820133 heartbeat IPC: 1.84788 cumulative IPC: 1.79572 (Simulation time: 0 hr 14 min 13 sec) 
select_counter is 223
Heartbeat CPU 0 instructions: 33000000 cycles: 18361311 heartbeat IPC: 1.84782 cumulative IPC: 1.79726 (Simulation time: 0 hr 14 min 36 sec) 
select_counter is 731
Heartbeat CPU 0 instructions: 34000000 cycles: 18902453 heartbeat IPC: 1.84794 cumulative IPC: 1.79871 (Simulation time: 0 hr 14 min 59 sec) 
select_counter is 189
Heartbeat CPU 0 instructions: 35000000 cycles: 19443596 heartbeat IPC: 1.84794 cumulative IPC: 1.80008 (Simulation time: 0 hr 15 min 21 sec) 
select_counter is 758
Heartbeat CPU 0 instructions: 36000000 cycles: 19984730 heartbeat IPC: 1.84797 cumulative IPC: 1.80138 (Simulation time: 0 hr 15 min 43 sec) 
select_counter is 219
Heartbeat CPU 0 instructions: 37000000 cycles: 20525942 heartbeat IPC: 1.8477 cumulative IPC: 1.8026 (Simulation time: 0 hr 16 min 5 sec) 
select_counter is 780
Heartbeat CPU 0 instructions: 38000001 cycles: 21067089 heartbeat IPC: 1.84793 cumulative IPC: 1.80376 (Simulation time: 0 hr 16 min 27 sec) 
select_counter is 218
Heartbeat CPU 0 instructions: 39000001 cycles: 21608245 heartbeat IPC: 1.8479 cumulative IPC: 1.80487 (Simulation time: 0 hr 16 min 50 sec) 
select_counter is 704
Heartbeat CPU 0 instructions: 40000000 cycles: 22149433 heartbeat IPC: 1.84778 cumulative IPC: 1.80592 (Simulation time: 0 hr 17 min 11 sec) 
select_counter is 219
Heartbeat CPU 0 instructions: 41000002 cycles: 22690598 heartbeat IPC: 1.84787 cumulative IPC: 1.80692 (Simulation time: 0 hr 17 min 32 sec) 
select_counter is 737
Heartbeat CPU 0 instructions: 42000001 cycles: 23231759 heartbeat IPC: 1.84788 cumulative IPC: 1.80787 (Simulation time: 0 hr 17 min 53 sec) 
select_counter is 285
Heartbeat CPU 0 instructions: 43000000 cycles: 23772902 heartbeat IPC: 1.84794 cumulative IPC: 1.80878 (Simulation time: 0 hr 18 min 15 sec) 
select_counter is 730
Heartbeat CPU 0 instructions: 44000000 cycles: 24314028 heartbeat IPC: 1.848 cumulative IPC: 1.80965 (Simulation time: 0 hr 18 min 37 sec) 
select_counter is 219
Heartbeat CPU 0 instructions: 45000001 cycles: 24855217 heartbeat IPC: 1.84779 cumulative IPC: 1.81049 (Simulation time: 0 hr 18 min 58 sec) 
select_counter is 836
Heartbeat CPU 0 instructions: 46000000 cycles: 25396380 heartbeat IPC: 1.84787 cumulative IPC: 1.81128 (Simulation time: 0 hr 19 min 20 sec) 
select_counter is 341
Heartbeat CPU 0 instructions: 47000002 cycles: 25937547 heartbeat IPC: 1.84786 cumulative IPC: 1.81204 (Simulation time: 0 hr 19 min 42 sec) 
select_counter is 845
Heartbeat CPU 0 instructions: 48000000 cycles: 26478711 heartbeat IPC: 1.84786 cumulative IPC: 1.81278 (Simulation time: 0 hr 20 min 3 sec) 
select_counter is 348
Heartbeat CPU 0 instructions: 49000002 cycles: 27019890 heartbeat IPC: 1.84782 cumulative IPC: 1.81348 (Simulation time: 0 hr 20 min 26 sec) 
select_counter is 859
Heartbeat CPU 0 instructions: 50000001 cycles: 27561033 heartbeat IPC: 1.84794 cumulative IPC: 1.81416 (Simulation time: 0 hr 20 min 50 sec) 
select_counter is 300

Warmup complete CPU 0 instructions: 50000001 cycles: 27561033 (Simulation time: 0 hr 20 min 50 sec) 

Heartbeat CPU 0 instructions: 51000002 cycles: 29220134 heartbeat IPC: 0.602737 cumulative IPC: 0.602737 (Simulation time: 0 hr 21 min 15 sec) 
select_counter is 918
Heartbeat CPU 0 instructions: 52000000 cycles: 31118446 heartbeat IPC: 0.526783 cumulative IPC: 0.562206 (Simulation time: 0 hr 21 min 43 sec) 
select_counter is 529
Heartbeat CPU 0 instructions: 53000001 cycles: 33398495 heartbeat IPC: 0.438588 cumulative IPC: 0.513922 (Simulation time: 0 hr 22 min 12 sec) 
select_counter is 440
Heartbeat CPU 0 instructions: 54000001 cycles: 35606211 heartbeat IPC: 0.452957 cumulative IPC: 0.497192 (Simulation time: 0 hr 22 min 42 sec) 
select_counter is 423
Heartbeat CPU 0 instructions: 55000002 cycles: 37843666 heartbeat IPC: 0.446937 cumulative IPC: 0.486257 (Simulation time: 0 hr 23 min 16 sec) 
select_counter is 407
Heartbeat CPU 0 instructions: 56000000 cycles: 40089053 heartbeat IPC: 0.445357 cumulative IPC: 0.478926 (Simulation time: 0 hr 23 min 47 sec) 
select_counter is 394
Heartbeat CPU 0 instructions: 57000000 cycles: 42298943 heartbeat IPC: 0.452511 cumulative IPC: 0.474966 (Simulation time: 0 hr 24 min 20 sec) 
select_counter is 558
Heartbeat CPU 0 instructions: 58000002 cycles: 44331723 heartbeat IPC: 0.491938 cumulative IPC: 0.477023 (Simulation time: 0 hr 24 min 51 sec) 
select_counter is 931
Heartbeat CPU 0 instructions: 59000001 cycles: 46075771 heartbeat IPC: 0.573378 cumulative IPC: 0.486099 (Simulation time: 0 hr 25 min 17 sec) 
select_counter is 512
Heartbeat CPU 0 instructions: 60000000 cycles: 47758748 heartbeat IPC: 0.594185 cumulative IPC: 0.495105 (Simulation time: 0 hr 25 min 43 sec) 
select_counter is 939
Heartbeat CPU 0 instructions: 61000000 cycles: 49428340 heartbeat IPC: 0.598949 cumulative IPC: 0.503034 (Simulation time: 0 hr 26 min 8 sec) 
select_counter is 385
Heartbeat CPU 0 instructions: 62000000 cycles: 51096663 heartbeat IPC: 0.599404 cumulative IPC: 0.509865 (Simulation time: 0 hr 26 min 33 sec) 
select_counter is 845
Heartbeat CPU 0 instructions: 63000003 cycles: 52763890 heartbeat IPC: 0.5998 cumulative IPC: 0.515815 (Simulation time: 0 hr 26 min 58 sec) 
select_counter is 212
Heartbeat CPU 0 instructions: 64000000 cycles: 54430637 heartbeat IPC: 0.599969 cumulative IPC: 0.521035 (Simulation time: 0 hr 27 min 24 sec) 
select_counter is 701
Heartbeat CPU 0 instructions: 65000002 cycles: 56099492 heartbeat IPC: 0.599214 cumulative IPC: 0.525607 (Simulation time: 0 hr 27 min 48 sec) 
select_counter is 152
Heartbeat CPU 0 instructions: 66000002 cycles: 57763846 heartbeat IPC: 0.600834 cumulative IPC: 0.529752 (Simulation time: 0 hr 28 min 14 sec) 
select_counter is 610
Heartbeat CPU 0 instructions: 67000001 cycles: 59431119 heartbeat IPC: 0.599781 cumulative IPC: 0.533416 (Simulation time: 0 hr 28 min 38 sec) 
select_counter is 66
Heartbeat CPU 0 instructions: 68000000 cycles: 61099039 heartbeat IPC: 0.599549 cumulative IPC: 0.536704 (Simulation time: 0 hr 29 min 3 sec) 
select_counter is 597
Heartbeat CPU 0 instructions: 69000000 cycles: 62769504 heartbeat IPC: 0.598636 cumulative IPC: 0.539643 (Simulation time: 0 hr 29 min 28 sec) 
select_counter is 70
Heartbeat CPU 0 instructions: 70000000 cycles: 64439382 heartbeat IPC: 0.598846 cumulative IPC: 0.542324 (Simulation time: 0 hr 29 min 54 sec) 
select_counter is 598
Heartbeat CPU 0 instructions: 71000002 cycles: 66106487 heartbeat IPC: 0.599843 cumulative IPC: 0.544811 (Simulation time: 0 hr 30 min 19 sec) 
select_counter is 69
Heartbeat CPU 0 instructions: 72000000 cycles: 67777381 heartbeat IPC: 0.598481 cumulative IPC: 0.547041 (Simulation time: 0 hr 30 min 46 sec) 
select_counter is 472
Heartbeat CPU 0 instructions: 73000003 cycles: 69445795 heartbeat IPC: 0.599373 cumulative IPC: 0.549126 (Simulation time: 0 hr 31 min 14 sec) 
select_counter is 993
Heartbeat CPU 0 instructions: 74000002 cycles: 71113440 heartbeat IPC: 0.599647 cumulative IPC: 0.55106 (Simulation time: 0 hr 31 min 39 sec) 
select_counter is 475
Heartbeat CPU 0 instructions: 75000003 cycles: 72777533 heartbeat IPC: 0.600929 cumulative IPC: 0.552896 (Simulation time: 0 hr 32 min 4 sec) 
select_counter is 27
Heartbeat CPU 0 instructions: 76000000 cycles: 74447369 heartbeat IPC: 0.598859 cumulative IPC: 0.554533 (Simulation time: 0 hr 32 min 30 sec) 
select_counter is 458
Heartbeat CPU 0 instructions: 77000003 cycles: 76115333 heartbeat IPC: 0.599535 cumulative IPC: 0.556078 (Simulation time: 0 hr 32 min 56 sec) 
select_counter is 951
Heartbeat CPU 0 instructions: 78000000 cycles: 77785466 heartbeat IPC: 0.598753 cumulative IPC: 0.557498 (Simulation time: 0 hr 33 min 20 sec) 
select_counter is 374
Heartbeat CPU 0 instructions: 79000000 cycles: 79454247 heartbeat IPC: 0.59924 cumulative IPC: 0.55884 (Simulation time: 0 hr 33 min 46 sec) 
select_counter is 845
Heartbeat CPU 0 instructions: 80000000 cycles: 81118453 heartbeat IPC: 0.600887 cumulative IPC: 0.560146 (Simulation time: 0 hr 34 min 12 sec) 
select_counter is 426
Heartbeat CPU 0 instructions: 81000000 cycles: 82784606 heartbeat IPC: 0.600185 cumulative IPC: 0.561354 (Simulation time: 0 hr 34 min 38 sec) 
select_counter is 894
Heartbeat CPU 0 instructions: 82000002 cycles: 84450161 heartbeat IPC: 0.600402 cumulative IPC: 0.562498 (Simulation time: 0 hr 35 min 3 sec) 
select_counter is 493
Heartbeat CPU 0 instructions: 83000003 cycles: 86112848 heartbeat IPC: 0.601437 cumulative IPC: 0.563603 (Simulation time: 0 hr 35 min 28 sec) 
select_counter is 0
Heartbeat CPU 0 instructions: 84000000 cycles: 87770035 heartbeat IPC: 0.60343 cumulative IPC: 0.5647 (Simulation time: 0 hr 35 min 53 sec) 
select_counter is 558
Heartbeat CPU 0 instructions: 85000001 cycles: 89431718 heartbeat IPC: 0.6018 cumulative IPC: 0.565696 (Simulation time: 0 hr 36 min 18 sec) 
select_counter is 1004
Heartbeat CPU 0 instructions: 86000002 cycles: 91096208 heartbeat IPC: 0.600785 cumulative IPC: 0.566615 (Simulation time: 0 hr 36 min 43 sec) 
select_counter is 438
Heartbeat CPU 0 instructions: 87000003 cycles: 92761284 heartbeat IPC: 0.600574 cumulative IPC: 0.567483 (Simulation time: 0 hr 37 min 7 sec) 
select_counter is 980
Heartbeat CPU 0 instructions: 88000000 cycles: 94425886 heartbeat IPC: 0.600742 cumulative IPC: 0.56831 (Simulation time: 0 hr 37 min 34 sec) 
select_counter is 493
Heartbeat CPU 0 instructions: 89000001 cycles: 96089741 heartbeat IPC: 0.601014 cumulative IPC: 0.569105 (Simulation time: 0 hr 37 min 59 sec) 
select_counter is 986
Heartbeat CPU 0 instructions: 90000002 cycles: 97755014 heartbeat IPC: 0.600503 cumulative IPC: 0.569849 (Simulation time: 0 hr 38 min 24 sec) 
select_counter is 498
Heartbeat CPU 0 instructions: 91000000 cycles: 99418780 heartbeat IPC: 0.601045 cumulative IPC: 0.570572 (Simulation time: 0 hr 38 min 50 sec) 
select_counter is 950
Heartbeat CPU 0 instructions: 92000000 cycles: 101083372 heartbeat IPC: 0.600748 cumulative IPC: 0.571255 (Simulation time: 0 hr 39 min 15 sec) 
select_counter is 456
Heartbeat CPU 0 instructions: 93000003 cycles: 102745691 heartbeat IPC: 0.601571 cumulative IPC: 0.571925 (Simulation time: 0 hr 39 min 45 sec) 
select_counter is 915
Heartbeat CPU 0 instructions: 94000002 cycles: 104406517 heartbeat IPC: 0.602109 cumulative IPC: 0.572578 (Simulation time: 0 hr 40 min 13 sec) 
select_counter is 464
Heartbeat CPU 0 instructions: 95000003 cycles: 106067788 heartbeat IPC: 0.601949 cumulative IPC: 0.573199 (Simulation time: 0 hr 40 min 38 sec) 
select_counter is 8
Heartbeat CPU 0 instructions: 96000000 cycles: 107730700 heartbeat IPC: 0.601353 cumulative IPC: 0.573783 (Simulation time: 0 hr 41 min 6 sec) 
select_counter is 490
Heartbeat CPU 0 instructions: 97000001 cycles: 109399473 heartbeat IPC: 0.599243 cumulative IPC: 0.574302 (Simulation time: 0 hr 41 min 43 sec) 
select_counter is 999
Heartbeat CPU 0 instructions: 98000002 cycles: 111057660 heartbeat IPC: 0.603069 cumulative IPC: 0.574874 (Simulation time: 0 hr 42 min 10 sec) 
select_counter is 560
Heartbeat CPU 0 instructions: 99000003 cycles: 112724185 heartbeat IPC: 0.600052 cumulative IPC: 0.575366 (Simulation time: 0 hr 42 min 36 sec) 
select_counter is 3
Heartbeat CPU 0 instructions: 100000000 cycles: 114384940 heartbeat IPC: 0.602134 cumulative IPC: 0.575878 (Simulation time: 0 hr 43 min 3 sec) 
select_counter is 614
Heartbeat CPU 0 instructions: 101000001 cycles: 116047097 heartbeat IPC: 0.601628 cumulative IPC: 0.576362 (Simulation time: 0 hr 43 min 30 sec) 
select_counter is 31
Heartbeat CPU 0 instructions: 102000002 cycles: 117708172 heartbeat IPC: 0.60202 cumulative IPC: 0.576835 (Simulation time: 0 hr 43 min 57 sec) 
select_counter is 620
Heartbeat CPU 0 instructions: 103000000 cycles: 119371531 heartbeat IPC: 0.601192 cumulative IPC: 0.577276 (Simulation time: 0 hr 44 min 26 sec) 
select_counter is 45
Heartbeat CPU 0 instructions: 104000000 cycles: 121028963 heartbeat IPC: 0.603343 cumulative IPC: 0.577738 (Simulation time: 0 hr 44 min 51 sec) 
select_counter is 562
Heartbeat CPU 0 instructions: 105000003 cycles: 122978763 heartbeat IPC: 0.512875 cumulative IPC: 0.576413 (Simulation time: 0 hr 45 min 24 sec) 
select_counter is 58
Heartbeat CPU 0 instructions: 106000003 cycles: 127294586 heartbeat IPC: 0.231706 cumulative IPC: 0.561496 (Simulation time: 0 hr 46 min 16 sec) 
select_counter is 963
Heartbeat CPU 0 instructions: 107000000 cycles: 129079534 heartbeat IPC: 0.560239 cumulative IPC: 0.561474 (Simulation time: 0 hr 46 min 50 sec) 
select_counter is 679
Heartbeat CPU 0 instructions: 108000000 cycles: 130863207 heartbeat IPC: 0.560641 cumulative IPC: 0.56146 (Simulation time: 0 hr 47 min 19 sec) 
select_counter is 237
Heartbeat CPU 0 instructions: 109000001 cycles: 132639738 heartbeat IPC: 0.562895 cumulative IPC: 0.561484 (Simulation time: 0 hr 47 min 41 sec) 
select_counter is 828
Heartbeat CPU 0 instructions: 110000001 cycles: 134417670 heartbeat IPC: 0.562451 cumulative IPC: 0.5615 (Simulation time: 0 hr 48 min 2 sec) 
select_counter is 542
Heartbeat CPU 0 instructions: 111000000 cycles: 136195698 heartbeat IPC: 0.56242 cumulative IPC: 0.561515 (Simulation time: 0 hr 48 min 24 sec) 
select_counter is 269
Heartbeat CPU 0 instructions: 112000000 cycles: 137970529 heartbeat IPC: 0.563434 cumulative IPC: 0.561546 (Simulation time: 0 hr 48 min 46 sec) 
select_counter is 54
Heartbeat CPU 0 instructions: 113000003 cycles: 139739357 heartbeat IPC: 0.565348 cumulative IPC: 0.561606 (Simulation time: 0 hr 49 min 8 sec) 
select_counter is 818
Heartbeat CPU 0 instructions: 114000003 cycles: 141511026 heartbeat IPC: 0.56444 cumulative IPC: 0.56165 (Simulation time: 0 hr 49 min 30 sec) 
select_counter is 572
Heartbeat CPU 0 instructions: 115000001 cycles: 143283689 heartbeat IPC: 0.564122 cumulative IPC: 0.561688 (Simulation time: 0 hr 49 min 52 sec) 
select_counter is 307
Heartbeat CPU 0 instructions: 116000000 cycles: 145060280 heartbeat IPC: 0.562875 cumulative IPC: 0.561706 (Simulation time: 0 hr 50 min 14 sec) 
select_counter is 31
Heartbeat CPU 0 instructions: 117000001 cycles: 146832920 heartbeat IPC: 0.564131 cumulative IPC: 0.561742 (Simulation time: 0 hr 50 min 37 sec) 
select_counter is 811
Heartbeat CPU 0 instructions: 118000003 cycles: 148606995 heartbeat IPC: 0.563675 cumulative IPC: 0.56177 (Simulation time: 0 hr 50 min 58 sec) 
select_counter is 587
Heartbeat CPU 0 instructions: 119000001 cycles: 150379663 heartbeat IPC: 0.56412 cumulative IPC: 0.561804 (Simulation time: 0 hr 51 min 19 sec) 
select_counter is 335
Heartbeat CPU 0 instructions: 120000000 cycles: 152148314 heartbeat IPC: 0.565402 cumulative IPC: 0.561855 (Simulation time: 0 hr 51 min 40 sec) 
select_counter is 80
Heartbeat CPU 0 instructions: 121000003 cycles: 153913856 heartbeat IPC: 0.5664 cumulative IPC: 0.561919 (Simulation time: 0 hr 52 min 0 sec) 
select_counter is 884
Heartbeat CPU 0 instructions: 122000001 cycles: 155684926 heartbeat IPC: 0.564629 cumulative IPC: 0.561956 (Simulation time: 0 hr 52 min 21 sec) 
select_counter is 540
Heartbeat CPU 0 instructions: 123000003 cycles: 157465141 heartbeat IPC: 0.561731 cumulative IPC: 0.561953 (Simulation time: 0 hr 52 min 42 sec) 
select_counter is 232
Heartbeat CPU 0 instructions: 124000000 cycles: 159234836 heartbeat IPC: 0.565067 cumulative IPC: 0.561995 (Simulation time: 0 hr 53 min 3 sec) 
select_counter is 8
Heartbeat CPU 0 instructions: 125000003 cycles: 161000627 heartbeat IPC: 0.56632 cumulative IPC: 0.562052 (Simulation time: 0 hr 53 min 23 sec) 
select_counter is 779
Heartbeat CPU 0 instructions: 126000000 cycles: 162772059 heartbeat IPC: 0.564513 cumulative IPC: 0.562084 (Simulation time: 0 hr 53 min 42 sec) 
select_counter is 495
Heartbeat CPU 0 instructions: 127000001 cycles: 164549686 heartbeat IPC: 0.562548 cumulative IPC: 0.56209 (Simulation time: 0 hr 54 min 2 sec) 
select_counter is 265
Heartbeat CPU 0 instructions: 128000000 cycles: 166318395 heartbeat IPC: 0.565384 cumulative IPC: 0.562132 (Simulation time: 0 hr 54 min 20 sec) 
select_counter is 57
Heartbeat CPU 0 instructions: 129000001 cycles: 168078263 heartbeat IPC: 0.568225 cumulative IPC: 0.562209 (Simulation time: 0 hr 54 min 39 sec) 
select_counter is 860
Heartbeat CPU 0 instructions: 130000000 cycles: 169838363 heartbeat IPC: 0.568149 cumulative IPC: 0.562282 (Simulation time: 0 hr 54 min 58 sec) 
select_counter is 704
Heartbeat CPU 0 instructions: 131000001 cycles: 171587913 heartbeat IPC: 0.571576 cumulative IPC: 0.562395 (Simulation time: 0 hr 55 min 17 sec) 
select_counter is 621
Heartbeat CPU 0 instructions: 132000000 cycles: 173332138 heartbeat IPC: 0.57332 cumulative IPC: 0.562526 (Simulation time: 0 hr 55 min 35 sec) 
select_counter is 533
Heartbeat CPU 0 instructions: 133000003 cycles: 175078318 heartbeat IPC: 0.57268 cumulative IPC: 0.562646 (Simulation time: 0 hr 55 min 52 sec) 
select_counter is 443
Heartbeat CPU 0 instructions: 134000001 cycles: 176810364 heartbeat IPC: 0.577351 cumulative IPC: 0.562817 (Simulation time: 0 hr 56 min 10 sec) 
select_counter is 439
Heartbeat CPU 0 instructions: 135000003 cycles: 178540733 heartbeat IPC: 0.577913 cumulative IPC: 0.56299 (Simulation time: 0 hr 56 min 27 sec) 
select_counter is 389
Heartbeat CPU 0 instructions: 136000000 cycles: 180265666 heartbeat IPC: 0.579731 cumulative IPC: 0.563179 (Simulation time: 0 hr 56 min 44 sec) 
select_counter is 388
Heartbeat CPU 0 instructions: 137000001 cycles: 181534638 heartbeat IPC: 0.78804 cumulative IPC: 0.565032 (Simulation time: 0 hr 57 min 2 sec) 
select_counter is 143
Heartbeat CPU 0 instructions: 138000000 cycles: 183263858 heartbeat IPC: 0.578295 cumulative IPC: 0.565179 (Simulation time: 0 hr 57 min 22 sec) 
select_counter is 777
Heartbeat CPU 0 instructions: 139000002 cycles: 186566411 heartbeat IPC: 0.302797 cumulative IPC: 0.55973 (Simulation time: 0 hr 57 min 53 sec) 
select_counter is 648
Heartbeat CPU 0 instructions: 140000000 cycles: 189695376 heartbeat IPC: 0.319594 cumulative IPC: 0.555095 (Simulation time: 0 hr 58 min 19 sec) 
select_counter is 138
Heartbeat CPU 0 instructions: 141000003 cycles: 193601230 heartbeat IPC: 0.256027 cumulative IPC: 0.54806 (Simulation time: 0 hr 58 min 46 sec) 
select_counter is 1023
Heartbeat CPU 0 instructions: 142000003 cycles: 196442796 heartbeat IPC: 0.351919 cumulative IPC: 0.54476 (Simulation time: 0 hr 59 min 5 sec) 
select_counter is 1023
Heartbeat CPU 0 instructions: 143000001 cycles: 198267704 heartbeat IPC: 0.547972 cumulative IPC: 0.544794 (Simulation time: 0 hr 59 min 17 sec) 
select_counter is 1021
Heartbeat CPU 0 instructions: 144000000 cycles: 200083908 heartbeat IPC: 0.550598 cumulative IPC: 0.544855 (Simulation time: 0 hr 59 min 30 sec) 
select_counter is 1023
Heartbeat CPU 0 instructions: 145000001 cycles: 201902630 heartbeat IPC: 0.549837 cumulative IPC: 0.544907 (Simulation time: 0 hr 59 min 42 sec) 
select_counter is 1023
Heartbeat CPU 0 instructions: 146000003 cycles: 203721341 heartbeat IPC: 0.549841 cumulative IPC: 0.544958 (Simulation time: 0 hr 59 min 54 sec) 
select_counter is 1023
Heartbeat CPU 0 instructions: 147000003 cycles: 205535898 heartbeat IPC: 0.551099 cumulative IPC: 0.545021 (Simulation time: 1 hr 0 min 5 sec) 
select_counter is 1018
Heartbeat CPU 0 instructions: 148000000 cycles: 207355942 heartbeat IPC: 0.549436 cumulative IPC: 0.545065 (Simulation time: 1 hr 0 min 16 sec) 
select_counter is 1019
Heartbeat CPU 0 instructions: 149000003 cycles: 209172996 heartbeat IPC: 0.550343 cumulative IPC: 0.545118 (Simulation time: 1 hr 0 min 28 sec) 
select_counter is 1022
Heartbeat CPU 0 instructions: 150000003 cycles: 210992800 heartbeat IPC: 0.54951 cumulative IPC: 0.545162 (Simulation time: 1 hr 0 min 39 sec) 
select_counter is 1021
Finished CPU 0 instructions: 100000002 cycles: 183431767 cummulative IPC: 0.545162 (Simulation time: 1 hr 0 min 39 sec) 

ChampSim completed all CPUs

Region of Interest Statistics

CPU 0 cummulative IPC: 0.545162 instructions: 100000002 cycles: 183431767
LLC TOTAL     ACCESS:    3965787  HIT:     417451  MISS:    3548336
LLC LOAD      ACCESS:    1062332  HIT:       5160  MISS:    1057172
LLC RFO       ACCESS:     534380  HIT:      25518  MISS:     508862
LLC PREFETCH  ACCESS:    1386334  HIT:      31118  MISS:    1355216
LLC WRITEBACK ACCESS:     982741  HIT:     355655  MISS:     627086
Ship samples: 
6, 53, 66, 120, 130, 173, 220, 237, 276, 302, 326, 381, 406, 430, 454, 509, 529, 551, 607, 621, 642, 700, 709, 746, 796, 808, 862, 895, 902, 959, 975, 1017, 1039, 1077, 1088, 1136, 1180, 1185, 1237, 1274, 1283, 1333, 1352, 1397, 1409, 1467, 1492, 1504, 1543, 1588, 1631, 1637, 1688, 1696, 1729, 1766, 1799, 1836, 1884, 1917, 1941, 1955, 1984, 2046, 
Lime duel samples: 
18, 47, 91, 109, 153, 163, 218, 234, 267, 307, 335, 358, 412, 417, 459, 482, 524, 562, 596, 639, 641, 698, 734, 745, 793, 824, 835, 869, 916, 941, 972, 1020, 1025, 1056, 1102, 1122, 1154, 1196, 1217, 1259, 1298, 1314, 1345, 1396, 1422, 1461, 1489, 1522, 1556, 1583, 1609, 1655, 1675, 1703, 1731, 1778, 1796, 1831, 1883, 1914, 1937, 1966, 1993, 2019, 
Lime samples: 
18, 109, 218, 307, 412, 482, 596, 698, 793, 869, 972, 1056, 1154, 1259, 1345, 1461, 1556, 1655, 1731, 1831, 1937, 
Insertion Distribution: 
	LOAD 0 0 0 0 0 0 168732 447824 
	RFO 16245 0 0 0 0 0 28883 134894 
	PREF 0 39 0 0 0 0 94234 954321 
	WRITEBACK 0 0 0 0 0 0 0 363057 
Total Prefetch Downgrades: 6900
