
*** ChampSim Multicore Out-of-Order Simulator ***

Warmup Instructions: 50000000
Simulation Instructions: 100000000
Configuration: 2
Number of CPUs: 1
LLC sets: 2048
LLC ways: 16
Off-chip DRAM Channels: 1 Width: 64-bit Data Rate: 1600 MT/s

CPU 0 runs /datasets/cs240c-wi22-a00-public/data/Assignment2-gz/bzip2_281B.trace.gz
CPU 0 L1D next line prefetcher
CPU 0 L2C IP-based stride prefetcher
Heartbeat CPU 0 instructions: 1000000 cycles: 445878 heartbeat IPC: 2.24277 cumulative IPC: 2.24277 (Simulation time: 0 hr 0 min 26 sec) 
select_counter is 470
Heartbeat CPU 0 instructions: 2000003 cycles: 900175 heartbeat IPC: 2.20121 cumulative IPC: 2.22179 (Simulation time: 0 hr 0 min 55 sec) 
select_counter is 383
Heartbeat CPU 0 instructions: 3000002 cycles: 1315001 heartbeat IPC: 2.41065 cumulative IPC: 2.28137 (Simulation time: 0 hr 1 min 19 sec) 
select_counter is 126
Heartbeat CPU 0 instructions: 4000000 cycles: 1753479 heartbeat IPC: 2.28061 cumulative IPC: 2.28118 (Simulation time: 0 hr 1 min 41 sec) 
select_counter is 119
Heartbeat CPU 0 instructions: 5000002 cycles: 2175479 heartbeat IPC: 2.36967 cumulative IPC: 2.29835 (Simulation time: 0 hr 2 min 3 sec) 
select_counter is 767
Heartbeat CPU 0 instructions: 6000000 cycles: 2666173 heartbeat IPC: 2.03793 cumulative IPC: 2.25042 (Simulation time: 0 hr 2 min 29 sec) 
select_counter is 578
Heartbeat CPU 0 instructions: 7000001 cycles: 3193499 heartbeat IPC: 1.89636 cumulative IPC: 2.19195 (Simulation time: 0 hr 2 min 53 sec) 
select_counter is 509
Heartbeat CPU 0 instructions: 8000000 cycles: 3726186 heartbeat IPC: 1.87727 cumulative IPC: 2.14697 (Simulation time: 0 hr 3 min 18 sec) 
select_counter is 458
Heartbeat CPU 0 instructions: 9000000 cycles: 4232533 heartbeat IPC: 1.97493 cumulative IPC: 2.12639 (Simulation time: 0 hr 3 min 41 sec) 
select_counter is 344
Heartbeat CPU 0 instructions: 10000002 cycles: 4685480 heartbeat IPC: 2.20777 cumulative IPC: 2.13425 (Simulation time: 0 hr 4 min 3 sec) 
select_counter is 324
Heartbeat CPU 0 instructions: 11000000 cycles: 5132922 heartbeat IPC: 2.23492 cumulative IPC: 2.14303 (Simulation time: 0 hr 4 min 25 sec) 
select_counter is 282
Heartbeat CPU 0 instructions: 12000000 cycles: 5613961 heartbeat IPC: 2.07883 cumulative IPC: 2.13753 (Simulation time: 0 hr 4 min 52 sec) 
select_counter is 177
Heartbeat CPU 0 instructions: 13000001 cycles: 6025576 heartbeat IPC: 2.42946 cumulative IPC: 2.15747 (Simulation time: 0 hr 5 min 15 sec) 
select_counter is 149
Heartbeat CPU 0 instructions: 14000003 cycles: 6483945 heartbeat IPC: 2.18165 cumulative IPC: 2.15918 (Simulation time: 0 hr 5 min 36 sec) 
select_counter is 98
Heartbeat CPU 0 instructions: 15000003 cycles: 6944333 heartbeat IPC: 2.17208 cumulative IPC: 2.16004 (Simulation time: 0 hr 5 min 59 sec) 
select_counter is 987
Heartbeat CPU 0 instructions: 16000000 cycles: 7340277 heartbeat IPC: 2.5256 cumulative IPC: 2.17975 (Simulation time: 0 hr 6 min 27 sec) 
select_counter is 903
Heartbeat CPU 0 instructions: 17000000 cycles: 7729452 heartbeat IPC: 2.56954 cumulative IPC: 2.19938 (Simulation time: 0 hr 6 min 51 sec) 
select_counter is 960
Heartbeat CPU 0 instructions: 18000002 cycles: 8185143 heartbeat IPC: 2.19447 cumulative IPC: 2.19911 (Simulation time: 0 hr 7 min 15 sec) 
select_counter is 906
Heartbeat CPU 0 instructions: 19000000 cycles: 8631082 heartbeat IPC: 2.24245 cumulative IPC: 2.20135 (Simulation time: 0 hr 7 min 39 sec) 
select_counter is 864
Heartbeat CPU 0 instructions: 20000000 cycles: 9076215 heartbeat IPC: 2.24652 cumulative IPC: 2.20356 (Simulation time: 0 hr 8 min 5 sec) 
select_counter is 812
Heartbeat CPU 0 instructions: 21000000 cycles: 9463316 heartbeat IPC: 2.58331 cumulative IPC: 2.2191 (Simulation time: 0 hr 8 min 29 sec) 
select_counter is 749
Heartbeat CPU 0 instructions: 22000003 cycles: 9839071 heartbeat IPC: 2.66132 cumulative IPC: 2.23598 (Simulation time: 0 hr 8 min 53 sec) 
select_counter is 778
Heartbeat CPU 0 instructions: 23000001 cycles: 10292054 heartbeat IPC: 2.20758 cumulative IPC: 2.23473 (Simulation time: 0 hr 9 min 15 sec) 
select_counter is 760
Heartbeat CPU 0 instructions: 24000000 cycles: 10746536 heartbeat IPC: 2.2003 cumulative IPC: 2.23328 (Simulation time: 0 hr 9 min 37 sec) 
select_counter is 578
Heartbeat CPU 0 instructions: 25000001 cycles: 11089971 heartbeat IPC: 2.91176 cumulative IPC: 2.25429 (Simulation time: 0 hr 10 min 1 sec) 
select_counter is 528
Heartbeat CPU 0 instructions: 26000003 cycles: 11527514 heartbeat IPC: 2.28549 cumulative IPC: 2.25547 (Simulation time: 0 hr 10 min 26 sec) 
select_counter is 342
Heartbeat CPU 0 instructions: 27000003 cycles: 12000158 heartbeat IPC: 2.11576 cumulative IPC: 2.24997 (Simulation time: 0 hr 10 min 49 sec) 
select_counter is 260
Heartbeat CPU 0 instructions: 28000000 cycles: 12326583 heartbeat IPC: 3.06348 cumulative IPC: 2.27151 (Simulation time: 0 hr 11 min 7 sec) 
select_counter is 260
Heartbeat CPU 0 instructions: 29000001 cycles: 12623460 heartbeat IPC: 3.3684 cumulative IPC: 2.29731 (Simulation time: 0 hr 11 min 25 sec) 
select_counter is 262
Heartbeat CPU 0 instructions: 30000000 cycles: 12920334 heartbeat IPC: 3.36843 cumulative IPC: 2.32192 (Simulation time: 0 hr 11 min 41 sec) 
select_counter is 262
Heartbeat CPU 0 instructions: 31000000 cycles: 13262741 heartbeat IPC: 2.9205 cumulative IPC: 2.33738 (Simulation time: 0 hr 11 min 59 sec) 
select_counter is 196
Heartbeat CPU 0 instructions: 32000000 cycles: 13609269 heartbeat IPC: 2.88577 cumulative IPC: 2.35134 (Simulation time: 0 hr 12 min 20 sec) 
select_counter is 184
Heartbeat CPU 0 instructions: 33000001 cycles: 13967775 heartbeat IPC: 2.78936 cumulative IPC: 2.36258 (Simulation time: 0 hr 12 min 39 sec) 
select_counter is 185
Heartbeat CPU 0 instructions: 34000001 cycles: 14311361 heartbeat IPC: 2.91048 cumulative IPC: 2.37574 (Simulation time: 0 hr 12 min 58 sec) 
select_counter is 179
Heartbeat CPU 0 instructions: 35000003 cycles: 14652443 heartbeat IPC: 2.93185 cumulative IPC: 2.38868 (Simulation time: 0 hr 13 min 20 sec) 
select_counter is 170
Heartbeat CPU 0 instructions: 36000000 cycles: 14990811 heartbeat IPC: 2.95535 cumulative IPC: 2.40147 (Simulation time: 0 hr 13 min 38 sec) 
select_counter is 161
Heartbeat CPU 0 instructions: 37000000 cycles: 15329926 heartbeat IPC: 2.94885 cumulative IPC: 2.41358 (Simulation time: 0 hr 13 min 54 sec) 
select_counter is 152
Heartbeat CPU 0 instructions: 38000002 cycles: 15671981 heartbeat IPC: 2.92351 cumulative IPC: 2.42471 (Simulation time: 0 hr 14 min 13 sec) 
select_counter is 143
Heartbeat CPU 0 instructions: 39000001 cycles: 16011675 heartbeat IPC: 2.94382 cumulative IPC: 2.43572 (Simulation time: 0 hr 14 min 30 sec) 
select_counter is 134
Heartbeat CPU 0 instructions: 40000000 cycles: 16368025 heartbeat IPC: 2.80623 cumulative IPC: 2.44379 (Simulation time: 0 hr 14 min 46 sec) 
select_counter is 123
Heartbeat CPU 0 instructions: 41000000 cycles: 16711493 heartbeat IPC: 2.91148 cumulative IPC: 2.4534 (Simulation time: 0 hr 15 min 3 sec) 
select_counter is 110
Heartbeat CPU 0 instructions: 42000002 cycles: 17053091 heartbeat IPC: 2.92742 cumulative IPC: 2.4629 (Simulation time: 0 hr 15 min 21 sec) 
select_counter is 92
Heartbeat CPU 0 instructions: 43000000 cycles: 17389131 heartbeat IPC: 2.97583 cumulative IPC: 2.47281 (Simulation time: 0 hr 15 min 39 sec) 
select_counter is 75
Heartbeat CPU 0 instructions: 44000000 cycles: 17729894 heartbeat IPC: 2.93459 cumulative IPC: 2.48168 (Simulation time: 0 hr 16 min 0 sec) 
select_counter is 60
Heartbeat CPU 0 instructions: 45000001 cycles: 18066507 heartbeat IPC: 2.97077 cumulative IPC: 2.4908 (Simulation time: 0 hr 16 min 16 sec) 
select_counter is 39
Heartbeat CPU 0 instructions: 46000000 cycles: 18419949 heartbeat IPC: 2.82932 cumulative IPC: 2.49729 (Simulation time: 0 hr 16 min 32 sec) 
select_counter is 32
Heartbeat CPU 0 instructions: 47000003 cycles: 18769619 heartbeat IPC: 2.85985 cumulative IPC: 2.50405 (Simulation time: 0 hr 16 min 50 sec) 
select_counter is 23
Heartbeat CPU 0 instructions: 48000000 cycles: 19119544 heartbeat IPC: 2.85775 cumulative IPC: 2.51052 (Simulation time: 0 hr 17 min 7 sec) 
select_counter is 16
Heartbeat CPU 0 instructions: 49000003 cycles: 19474953 heartbeat IPC: 2.81367 cumulative IPC: 2.51605 (Simulation time: 0 hr 17 min 23 sec) 
select_counter is 18
Heartbeat CPU 0 instructions: 50000003 cycles: 19823225 heartbeat IPC: 2.87132 cumulative IPC: 2.52229 (Simulation time: 0 hr 17 min 40 sec) 
select_counter is 16

Warmup complete CPU 0 instructions: 50000003 cycles: 19823225 (Simulation time: 0 hr 17 min 40 sec) 

Heartbeat CPU 0 instructions: 51000002 cycles: 20780399 heartbeat IPC: 1.04474 cumulative IPC: 1.04474 (Simulation time: 0 hr 18 min 0 sec) 
select_counter is 1018
Heartbeat CPU 0 instructions: 52000000 cycles: 21746171 heartbeat IPC: 1.03544 cumulative IPC: 1.04007 (Simulation time: 0 hr 18 min 21 sec) 
select_counter is 1006
Heartbeat CPU 0 instructions: 53000001 cycles: 22725022 heartbeat IPC: 1.02161 cumulative IPC: 1.03384 (Simulation time: 0 hr 18 min 41 sec) 
select_counter is 994
Heartbeat CPU 0 instructions: 54000003 cycles: 23714605 heartbeat IPC: 1.01053 cumulative IPC: 1.02791 (Simulation time: 0 hr 19 min 2 sec) 
select_counter is 986
Heartbeat CPU 0 instructions: 55000000 cycles: 24684492 heartbeat IPC: 1.03104 cumulative IPC: 1.02854 (Simulation time: 0 hr 19 min 23 sec) 
select_counter is 978
Heartbeat CPU 0 instructions: 56000000 cycles: 25669464 heartbeat IPC: 1.01526 cumulative IPC: 1.0263 (Simulation time: 0 hr 19 min 45 sec) 
select_counter is 969
Heartbeat CPU 0 instructions: 57000002 cycles: 26646942 heartbeat IPC: 1.02304 cumulative IPC: 1.02583 (Simulation time: 0 hr 20 min 6 sec) 
select_counter is 960
Heartbeat CPU 0 instructions: 58000003 cycles: 27627151 heartbeat IPC: 1.02019 cumulative IPC: 1.02513 (Simulation time: 0 hr 20 min 28 sec) 
select_counter is 947
Heartbeat CPU 0 instructions: 59000003 cycles: 28660511 heartbeat IPC: 0.967717 cumulative IPC: 1.01841 (Simulation time: 0 hr 20 min 50 sec) 
select_counter is 942
Heartbeat CPU 0 instructions: 60000000 cycles: 29868148 heartbeat IPC: 0.828061 cumulative IPC: 0.995528 (Simulation time: 0 hr 21 min 16 sec) 
select_counter is 980
Heartbeat CPU 0 instructions: 61000000 cycles: 31075321 heartbeat IPC: 0.828382 cumulative IPC: 0.977595 (Simulation time: 0 hr 21 min 39 sec) 
select_counter is 988
Heartbeat CPU 0 instructions: 62000003 cycles: 32299279 heartbeat IPC: 0.817024 cumulative IPC: 0.961843 (Simulation time: 0 hr 22 min 3 sec) 
select_counter is 977
Heartbeat CPU 0 instructions: 63000001 cycles: 33530010 heartbeat IPC: 0.812524 cumulative IPC: 0.948435 (Simulation time: 0 hr 22 min 26 sec) 
select_counter is 1014
Heartbeat CPU 0 instructions: 64000000 cycles: 34851665 heartbeat IPC: 0.756626 cumulative IPC: 0.931567 (Simulation time: 0 hr 22 min 49 sec) 
select_counter is 1011
Heartbeat CPU 0 instructions: 65000001 cycles: 36056025 heartbeat IPC: 0.830317 cumulative IPC: 0.924055 (Simulation time: 0 hr 23 min 14 sec) 
select_counter is 1009
Heartbeat CPU 0 instructions: 66000003 cycles: 37257995 heartbeat IPC: 0.831969 cumulative IPC: 0.917706 (Simulation time: 0 hr 23 min 38 sec) 
select_counter is 994
Heartbeat CPU 0 instructions: 67000000 cycles: 38469274 heartbeat IPC: 0.825571 cumulative IPC: 0.911721 (Simulation time: 0 hr 24 min 1 sec) 
select_counter is 992
Heartbeat CPU 0 instructions: 68000000 cycles: 39783245 heartbeat IPC: 0.761052 cumulative IPC: 0.901803 (Simulation time: 0 hr 24 min 24 sec) 
select_counter is 1016
Heartbeat CPU 0 instructions: 69000000 cycles: 40979937 heartbeat IPC: 0.835637 cumulative IPC: 0.89806 (Simulation time: 0 hr 24 min 47 sec) 
select_counter is 1015
Heartbeat CPU 0 instructions: 70000002 cycles: 42182218 heartbeat IPC: 0.831754 cumulative IPC: 0.894495 (Simulation time: 0 hr 25 min 11 sec) 
select_counter is 1007
Heartbeat CPU 0 instructions: 71000003 cycles: 43389094 heartbeat IPC: 0.828586 cumulative IPC: 0.891119 (Simulation time: 0 hr 25 min 34 sec) 
select_counter is 992
Heartbeat CPU 0 instructions: 72000000 cycles: 44597309 heartbeat IPC: 0.827665 cumulative IPC: 0.888025 (Simulation time: 0 hr 25 min 57 sec) 
select_counter is 1003
Heartbeat CPU 0 instructions: 73000002 cycles: 45900958 heartbeat IPC: 0.767079 cumulative IPC: 0.881978 (Simulation time: 0 hr 26 min 18 sec) 
select_counter is 1015
Heartbeat CPU 0 instructions: 74000000 cycles: 47100657 heartbeat IPC: 0.833541 cumulative IPC: 0.879848 (Simulation time: 0 hr 26 min 45 sec) 
select_counter is 1013
Heartbeat CPU 0 instructions: 75000001 cycles: 48302046 heartbeat IPC: 0.832371 cumulative IPC: 0.877845 (Simulation time: 0 hr 27 min 10 sec) 
select_counter is 996
Heartbeat CPU 0 instructions: 76000000 cycles: 49511343 heartbeat IPC: 0.826926 cumulative IPC: 0.875771 (Simulation time: 0 hr 27 min 34 sec) 
select_counter is 986
Heartbeat CPU 0 instructions: 77000001 cycles: 50768507 heartbeat IPC: 0.795442 cumulative IPC: 0.872508 (Simulation time: 0 hr 27 min 59 sec) 
select_counter is 1013
Heartbeat CPU 0 instructions: 78000003 cycles: 51935261 heartbeat IPC: 0.85708 cumulative IPC: 0.871947 (Simulation time: 0 hr 28 min 16 sec) 
select_counter is 1008
Heartbeat CPU 0 instructions: 79000000 cycles: 52854317 heartbeat IPC: 1.08807 cumulative IPC: 0.877961 (Simulation time: 0 hr 28 min 33 sec) 
select_counter is 1013
Heartbeat CPU 0 instructions: 80000000 cycles: 53757769 heartbeat IPC: 1.10687 cumulative IPC: 0.884055 (Simulation time: 0 hr 28 min 51 sec) 
select_counter is 1006
Heartbeat CPU 0 instructions: 81000000 cycles: 54603583 heartbeat IPC: 1.18229 cumulative IPC: 0.891308 (Simulation time: 0 hr 29 min 8 sec) 
select_counter is 1003
Heartbeat CPU 0 instructions: 82000001 cycles: 55495553 heartbeat IPC: 1.12112 cumulative IPC: 0.897054 (Simulation time: 0 hr 29 min 25 sec) 
select_counter is 998
Heartbeat CPU 0 instructions: 83000000 cycles: 56419441 heartbeat IPC: 1.08238 cumulative IPC: 0.901733 (Simulation time: 0 hr 29 min 41 sec) 
select_counter is 992
Heartbeat CPU 0 instructions: 84000000 cycles: 57336817 heartbeat IPC: 1.09007 cumulative IPC: 0.906338 (Simulation time: 0 hr 29 min 58 sec) 
select_counter is 1015
Heartbeat CPU 0 instructions: 85000002 cycles: 58271827 heartbeat IPC: 1.06951 cumulative IPC: 0.910306 (Simulation time: 0 hr 30 min 19 sec) 
select_counter is 1022
Heartbeat CPU 0 instructions: 86000002 cycles: 59201032 heartbeat IPC: 1.07619 cumulative IPC: 0.914221 (Simulation time: 0 hr 30 min 44 sec) 
select_counter is 1023
Heartbeat CPU 0 instructions: 87000002 cycles: 60130591 heartbeat IPC: 1.07578 cumulative IPC: 0.917946 (Simulation time: 0 hr 31 min 11 sec) 
select_counter is 1021
Heartbeat CPU 0 instructions: 88000000 cycles: 61178397 heartbeat IPC: 0.954373 cumulative IPC: 0.918869 (Simulation time: 0 hr 31 min 37 sec) 
select_counter is 1022
Heartbeat CPU 0 instructions: 89000002 cycles: 62268721 heartbeat IPC: 0.91716 cumulative IPC: 0.918825 (Simulation time: 0 hr 32 min 0 sec) 
select_counter is 1022
Heartbeat CPU 0 instructions: 90000001 cycles: 63356339 heartbeat IPC: 0.91944 cumulative IPC: 0.918841 (Simulation time: 0 hr 32 min 24 sec) 
select_counter is 1021
Heartbeat CPU 0 instructions: 91000001 cycles: 64451052 heartbeat IPC: 0.913481 cumulative IPC: 0.918709 (Simulation time: 0 hr 32 min 48 sec) 
select_counter is 1022
Heartbeat CPU 0 instructions: 92000000 cycles: 65535314 heartbeat IPC: 0.922285 cumulative IPC: 0.918794 (Simulation time: 0 hr 33 min 11 sec) 
select_counter is 1022
Heartbeat CPU 0 instructions: 93000001 cycles: 66617570 heartbeat IPC: 0.923997 cumulative IPC: 0.918914 (Simulation time: 0 hr 33 min 35 sec) 
select_counter is 1022
Heartbeat CPU 0 instructions: 94000001 cycles: 67698337 heartbeat IPC: 0.925269 cumulative IPC: 0.919058 (Simulation time: 0 hr 33 min 58 sec) 
select_counter is 1022
Heartbeat CPU 0 instructions: 95000000 cycles: 68782361 heartbeat IPC: 0.922488 cumulative IPC: 0.919134 (Simulation time: 0 hr 34 min 23 sec) 
select_counter is 1022
Heartbeat CPU 0 instructions: 96000000 cycles: 69862236 heartbeat IPC: 0.926033 cumulative IPC: 0.919283 (Simulation time: 0 hr 34 min 47 sec) 
select_counter is 1023
Heartbeat CPU 0 instructions: 97000002 cycles: 70944640 heartbeat IPC: 0.923871 cumulative IPC: 0.91938 (Simulation time: 0 hr 35 min 9 sec) 
select_counter is 1022
Heartbeat CPU 0 instructions: 98000002 cycles: 72026867 heartbeat IPC: 0.924021 cumulative IPC: 0.919476 (Simulation time: 0 hr 35 min 34 sec) 
select_counter is 1021
Heartbeat CPU 0 instructions: 99000000 cycles: 73108128 heartbeat IPC: 0.924844 cumulative IPC: 0.919585 (Simulation time: 0 hr 35 min 57 sec) 
select_counter is 1021
Heartbeat CPU 0 instructions: 100000000 cycles: 74193274 heartbeat IPC: 0.921535 cumulative IPC: 0.919624 (Simulation time: 0 hr 36 min 21 sec) 
select_counter is 1021
Heartbeat CPU 0 instructions: 101000000 cycles: 75280254 heartbeat IPC: 0.91998 cumulative IPC: 0.919631 (Simulation time: 0 hr 36 min 45 sec) 
select_counter is 1020
Heartbeat CPU 0 instructions: 102000000 cycles: 76370028 heartbeat IPC: 0.917621 cumulative IPC: 0.919592 (Simulation time: 0 hr 37 min 8 sec) 
select_counter is 1020
Heartbeat CPU 0 instructions: 103000002 cycles: 77458525 heartbeat IPC: 0.9187 cumulative IPC: 0.919575 (Simulation time: 0 hr 37 min 32 sec) 
select_counter is 1020
Heartbeat CPU 0 instructions: 104000000 cycles: 78547045 heartbeat IPC: 0.918677 cumulative IPC: 0.919559 (Simulation time: 0 hr 37 min 54 sec) 
select_counter is 1022
Heartbeat CPU 0 instructions: 105000003 cycles: 79640969 heartbeat IPC: 0.914143 cumulative IPC: 0.91946 (Simulation time: 0 hr 38 min 17 sec) 
select_counter is 1022
Heartbeat CPU 0 instructions: 106000002 cycles: 80737156 heartbeat IPC: 0.912252 cumulative IPC: 0.91933 (Simulation time: 0 hr 38 min 41 sec) 
select_counter is 1023
Heartbeat CPU 0 instructions: 107000001 cycles: 81820772 heartbeat IPC: 0.922835 cumulative IPC: 0.919391 (Simulation time: 0 hr 39 min 4 sec) 
select_counter is 1021
Heartbeat CPU 0 instructions: 108000000 cycles: 82914809 heartbeat IPC: 0.914045 cumulative IPC: 0.919298 (Simulation time: 0 hr 39 min 27 sec) 
select_counter is 1021
Heartbeat CPU 0 instructions: 109000001 cycles: 84009658 heartbeat IPC: 0.913369 cumulative IPC: 0.919197 (Simulation time: 0 hr 39 min 52 sec) 
select_counter is 1020
Heartbeat CPU 0 instructions: 110000002 cycles: 85108634 heartbeat IPC: 0.909939 cumulative IPC: 0.919041 (Simulation time: 0 hr 40 min 15 sec) 
select_counter is 1019
Heartbeat CPU 0 instructions: 111000000 cycles: 86196229 heartbeat IPC: 0.919458 cumulative IPC: 0.919048 (Simulation time: 0 hr 40 min 40 sec) 
select_counter is 1019
Heartbeat CPU 0 instructions: 112000000 cycles: 87285426 heartbeat IPC: 0.918108 cumulative IPC: 0.919033 (Simulation time: 0 hr 41 min 3 sec) 
select_counter is 1019
Heartbeat CPU 0 instructions: 113000002 cycles: 88375673 heartbeat IPC: 0.917225 cumulative IPC: 0.919004 (Simulation time: 0 hr 41 min 26 sec) 
select_counter is 1019
Heartbeat CPU 0 instructions: 114000001 cycles: 89468677 heartbeat IPC: 0.914909 cumulative IPC: 0.91894 (Simulation time: 0 hr 41 min 49 sec) 
select_counter is 1018
Heartbeat CPU 0 instructions: 115000001 cycles: 90555500 heartbeat IPC: 0.920113 cumulative IPC: 0.918958 (Simulation time: 0 hr 42 min 12 sec) 
select_counter is 1018
Heartbeat CPU 0 instructions: 116000000 cycles: 91642528 heartbeat IPC: 0.919939 cumulative IPC: 0.918973 (Simulation time: 0 hr 42 min 37 sec) 
select_counter is 1017
Heartbeat CPU 0 instructions: 117000001 cycles: 92728786 heartbeat IPC: 0.920593 cumulative IPC: 0.918997 (Simulation time: 0 hr 43 min 1 sec) 
select_counter is 1017
Heartbeat CPU 0 instructions: 118000000 cycles: 93815183 heartbeat IPC: 0.920473 cumulative IPC: 0.919019 (Simulation time: 0 hr 43 min 25 sec) 
select_counter is 1018
Heartbeat CPU 0 instructions: 119000000 cycles: 94903133 heartbeat IPC: 0.91916 cumulative IPC: 0.919021 (Simulation time: 0 hr 43 min 50 sec) 
select_counter is 1018
Heartbeat CPU 0 instructions: 120000000 cycles: 95992594 heartbeat IPC: 0.917885 cumulative IPC: 0.919005 (Simulation time: 0 hr 44 min 14 sec) 
select_counter is 1018
Heartbeat CPU 0 instructions: 121000000 cycles: 97081171 heartbeat IPC: 0.91863 cumulative IPC: 0.918999 (Simulation time: 0 hr 44 min 48 sec) 
select_counter is 1018
Heartbeat CPU 0 instructions: 122000000 cycles: 98172968 heartbeat IPC: 0.915921 cumulative IPC: 0.918956 (Simulation time: 0 hr 45 min 11 sec) 
select_counter is 1018
Heartbeat CPU 0 instructions: 123000001 cycles: 99266859 heartbeat IPC: 0.914169 cumulative IPC: 0.91889 (Simulation time: 0 hr 45 min 34 sec) 
select_counter is 1018
Heartbeat CPU 0 instructions: 124000000 cycles: 100361961 heartbeat IPC: 0.913156 cumulative IPC: 0.918813 (Simulation time: 0 hr 45 min 58 sec) 
select_counter is 1016
Heartbeat CPU 0 instructions: 125000002 cycles: 101454050 heartbeat IPC: 0.915678 cumulative IPC: 0.918771 (Simulation time: 0 hr 46 min 21 sec) 
select_counter is 1018
Heartbeat CPU 0 instructions: 126000002 cycles: 102543507 heartbeat IPC: 0.917888 cumulative IPC: 0.918759 (Simulation time: 0 hr 46 min 43 sec) 
select_counter is 1017
Heartbeat CPU 0 instructions: 127000003 cycles: 103631924 heartbeat IPC: 0.918766 cumulative IPC: 0.918759 (Simulation time: 0 hr 47 min 6 sec) 
select_counter is 1017
Heartbeat CPU 0 instructions: 128000000 cycles: 104720355 heartbeat IPC: 0.918751 cumulative IPC: 0.918759 (Simulation time: 0 hr 47 min 29 sec) 
select_counter is 1017
Heartbeat CPU 0 instructions: 129000001 cycles: 105807962 heartbeat IPC: 0.919451 cumulative IPC: 0.918768 (Simulation time: 0 hr 47 min 52 sec) 
select_counter is 1017
Heartbeat CPU 0 instructions: 130000001 cycles: 106894784 heartbeat IPC: 0.920114 cumulative IPC: 0.918784 (Simulation time: 0 hr 48 min 15 sec) 
select_counter is 1016
Heartbeat CPU 0 instructions: 131000001 cycles: 107983602 heartbeat IPC: 0.918427 cumulative IPC: 0.91878 (Simulation time: 0 hr 48 min 37 sec) 
select_counter is 1017
Heartbeat CPU 0 instructions: 132000000 cycles: 109074983 heartbeat IPC: 0.916269 cumulative IPC: 0.918749 (Simulation time: 0 hr 49 min 0 sec) 
select_counter is 1017
Heartbeat CPU 0 instructions: 133000002 cycles: 110179437 heartbeat IPC: 0.905427 cumulative IPC: 0.918587 (Simulation time: 0 hr 49 min 23 sec) 
select_counter is 1017
Heartbeat CPU 0 instructions: 134000000 cycles: 111273993 heartbeat IPC: 0.913611 cumulative IPC: 0.918527 (Simulation time: 0 hr 49 min 44 sec) 
select_counter is 1017
Heartbeat CPU 0 instructions: 135000003 cycles: 112372956 heartbeat IPC: 0.909951 cumulative IPC: 0.918425 (Simulation time: 0 hr 50 min 6 sec) 
select_counter is 1017
Heartbeat CPU 0 instructions: 136000000 cycles: 113472094 heartbeat IPC: 0.909801 cumulative IPC: 0.918324 (Simulation time: 0 hr 50 min 28 sec) 
select_counter is 1017
Heartbeat CPU 0 instructions: 137000001 cycles: 114568015 heartbeat IPC: 0.912475 cumulative IPC: 0.918256 (Simulation time: 0 hr 50 min 50 sec) 
select_counter is 1016
Heartbeat CPU 0 instructions: 138000000 cycles: 115707390 heartbeat IPC: 0.877673 cumulative IPC: 0.917774 (Simulation time: 0 hr 51 min 12 sec) 
select_counter is 1023
Heartbeat CPU 0 instructions: 139000002 cycles: 116342504 heartbeat IPC: 1.57452 cumulative IPC: 0.922096 (Simulation time: 0 hr 51 min 32 sec) 
select_counter is 1023
Heartbeat CPU 0 instructions: 140000000 cycles: 116976984 heartbeat IPC: 1.57609 cumulative IPC: 0.926367 (Simulation time: 0 hr 51 min 53 sec) 
select_counter is 1022
Heartbeat CPU 0 instructions: 141000000 cycles: 117610852 heartbeat IPC: 1.57762 cumulative IPC: 0.930588 (Simulation time: 0 hr 52 min 13 sec) 
select_counter is 1022
Heartbeat CPU 0 instructions: 142000002 cycles: 118243896 heartbeat IPC: 1.57967 cumulative IPC: 0.934763 (Simulation time: 0 hr 52 min 33 sec) 
select_counter is 1022
Heartbeat CPU 0 instructions: 143000002 cycles: 118880907 heartbeat IPC: 1.56983 cumulative IPC: 0.938847 (Simulation time: 0 hr 52 min 54 sec) 
select_counter is 1023
Heartbeat CPU 0 instructions: 144000000 cycles: 119516428 heartbeat IPC: 1.57351 cumulative IPC: 0.942893 (Simulation time: 0 hr 53 min 14 sec) 
select_counter is 1021
Heartbeat CPU 0 instructions: 145000001 cycles: 120150857 heartbeat IPC: 1.57622 cumulative IPC: 0.946898 (Simulation time: 0 hr 53 min 33 sec) 
select_counter is 1023
Heartbeat CPU 0 instructions: 146000002 cycles: 120783044 heartbeat IPC: 1.58181 cumulative IPC: 0.950873 (Simulation time: 0 hr 53 min 53 sec) 
select_counter is 1018
Heartbeat CPU 0 instructions: 147000002 cycles: 122127771 heartbeat IPC: 0.743645 cumulative IPC: 0.948149 (Simulation time: 0 hr 54 min 16 sec) 
select_counter is 994
Heartbeat CPU 0 instructions: 148000000 cycles: 122648666 heartbeat IPC: 1.91977 cumulative IPC: 0.953071 (Simulation time: 0 hr 54 min 34 sec) 
select_counter is 1017
Heartbeat CPU 0 instructions: 149000000 cycles: 123157138 heartbeat IPC: 1.96668 cumulative IPC: 0.958059 (Simulation time: 0 hr 54 min 52 sec) 
select_counter is 1023
Heartbeat CPU 0 instructions: 150000003 cycles: 123665487 heartbeat IPC: 1.96716 cumulative IPC: 0.962999 (Simulation time: 0 hr 55 min 9 sec) 
select_counter is 1022
Finished CPU 0 instructions: 100000000 cycles: 103842262 cummulative IPC: 0.962999 (Simulation time: 0 hr 55 min 9 sec) 

ChampSim completed all CPUs

Region of Interest Statistics

CPU 0 cummulative IPC: 0.962999 instructions: 100000000 cycles: 103842262
LLC TOTAL     ACCESS:     678830  HIT:     547173  MISS:     131657
LLC LOAD      ACCESS:     201697  HIT:     200046  MISS:       1651
LLC RFO       ACCESS:      77434  HIT:      27179  MISS:      50255
LLC PREFETCH  ACCESS:     319030  HIT:     247395  MISS:      71635
LLC WRITEBACK ACCESS:      80669  HIT:      72553  MISS:       8116
Ship samples: 
20, 59, 84, 101, 143, 188, 208, 251, 279, 313, 345, 372, 384, 417, 469, 499, 519, 544, 578, 632, 643, 675, 711, 752, 778, 826, 835, 872, 916, 936, 979, 1013, 1048, 1059, 1116, 1133, 1159, 1208, 1217, 1263, 1303, 1331, 1372, 1379, 1411, 1465, 1478, 1521, 1540, 1592, 1615, 1632, 1688, 1720, 1747, 1783, 1815, 1848, 1876, 1910, 1921, 1957, 2015, 2036, 
Lime duel samples: 
13, 55, 74, 97, 134, 176, 212, 245, 270, 314, 351, 382, 409, 422, 479, 492, 524, 573, 584, 614, 659, 684, 728, 753, 769, 815, 840, 883, 905, 935, 969, 1019, 1050, 1078, 1114, 1147, 1183, 1200, 1230, 1256, 1291, 1321, 1370, 1404, 1424, 1451, 1495, 1518, 1566, 1588, 1601, 1638, 1686, 1700, 1728, 1763, 1820, 1841, 1875, 1896, 1951, 1965, 2000, 2019, 
Lime samples: 
13, 97, 212, 314, 409, 492, 584, 684, 769, 883, 969, 1078, 1183, 1256, 1370, 1451, 1566, 1638, 1728, 1841, 1951, 
Insertion Distribution: 
	LOAD 9312 0 0 0 0 0 8244 545 
	RFO 6238 0 0 0 0 0 18289 8781 
	PREF 0 8871 0 0 0 0 20616 62960 
	WRITEBACK 0 0 0 0 0 0 0 7384 
Total Prefetch Downgrades: 16589
