
*** ChampSim Multicore Out-of-Order Simulator ***

Warmup Instructions: 50000000
Simulation Instructions: 100000000
Configuration: 2
Number of CPUs: 1
LLC sets: 2048
LLC ways: 16
Off-chip DRAM Channels: 1 Width: 64-bit Data Rate: 1600 MT/s

CPU 0 runs /datasets/cs240c-wi22-a00-public/data/Assignment2-gz/bzip2_259B.trace.gz
CPU 0 L1D next line prefetcher
CPU 0 L2C IP-based stride prefetcher
Heartbeat CPU 0 instructions: 1000002 cycles: 428875 heartbeat IPC: 2.33169 cumulative IPC: 2.33169 (Simulation time: 0 hr 0 min 25 sec) 
select_counter is 510
Heartbeat CPU 0 instructions: 2000003 cycles: 861057 heartbeat IPC: 2.31384 cumulative IPC: 2.32273 (Simulation time: 0 hr 0 min 51 sec) 
select_counter is 510
Heartbeat CPU 0 instructions: 3000001 cycles: 1286790 heartbeat IPC: 2.34889 cumulative IPC: 2.33138 (Simulation time: 0 hr 1 min 14 sec) 
select_counter is 510
Heartbeat CPU 0 instructions: 4000000 cycles: 1685062 heartbeat IPC: 2.51084 cumulative IPC: 2.3738 (Simulation time: 0 hr 1 min 36 sec) 
select_counter is 511
Heartbeat CPU 0 instructions: 5000001 cycles: 2103495 heartbeat IPC: 2.38987 cumulative IPC: 2.377 (Simulation time: 0 hr 2 min 0 sec) 
select_counter is 511
Heartbeat CPU 0 instructions: 6000001 cycles: 2532858 heartbeat IPC: 2.32903 cumulative IPC: 2.36887 (Simulation time: 0 hr 2 min 24 sec) 
select_counter is 511
Heartbeat CPU 0 instructions: 7000003 cycles: 2961906 heartbeat IPC: 2.33075 cumulative IPC: 2.36334 (Simulation time: 0 hr 2 min 48 sec) 
select_counter is 511
Heartbeat CPU 0 instructions: 8000000 cycles: 3391719 heartbeat IPC: 2.32659 cumulative IPC: 2.35869 (Simulation time: 0 hr 3 min 11 sec) 
select_counter is 511
Heartbeat CPU 0 instructions: 9000000 cycles: 3819845 heartbeat IPC: 2.33576 cumulative IPC: 2.35612 (Simulation time: 0 hr 3 min 37 sec) 
select_counter is 511
Heartbeat CPU 0 instructions: 10000002 cycles: 4193917 heartbeat IPC: 2.67329 cumulative IPC: 2.38441 (Simulation time: 0 hr 4 min 0 sec) 
select_counter is 510
Heartbeat CPU 0 instructions: 11000003 cycles: 4560316 heartbeat IPC: 2.72927 cumulative IPC: 2.41211 (Simulation time: 0 hr 4 min 19 sec) 
select_counter is 559
Heartbeat CPU 0 instructions: 12000000 cycles: 5001191 heartbeat IPC: 2.26821 cumulative IPC: 2.39943 (Simulation time: 0 hr 4 min 46 sec) 
select_counter is 398
Heartbeat CPU 0 instructions: 13000003 cycles: 5458025 heartbeat IPC: 2.18899 cumulative IPC: 2.38181 (Simulation time: 0 hr 5 min 12 sec) 
select_counter is 230
Heartbeat CPU 0 instructions: 14000002 cycles: 5909699 heartbeat IPC: 2.21398 cumulative IPC: 2.36899 (Simulation time: 0 hr 5 min 36 sec) 
select_counter is 990
Heartbeat CPU 0 instructions: 15000003 cycles: 6349535 heartbeat IPC: 2.27358 cumulative IPC: 2.36238 (Simulation time: 0 hr 6 min 1 sec) 
select_counter is 891
Heartbeat CPU 0 instructions: 16000000 cycles: 6790852 heartbeat IPC: 2.26594 cumulative IPC: 2.35611 (Simulation time: 0 hr 6 min 25 sec) 
select_counter is 807
Heartbeat CPU 0 instructions: 17000003 cycles: 7220663 heartbeat IPC: 2.32661 cumulative IPC: 2.35435 (Simulation time: 0 hr 6 min 49 sec) 
select_counter is 1023
Heartbeat CPU 0 instructions: 18000000 cycles: 7665602 heartbeat IPC: 2.24749 cumulative IPC: 2.34815 (Simulation time: 0 hr 7 min 13 sec) 
select_counter is 963
Heartbeat CPU 0 instructions: 19000002 cycles: 8148987 heartbeat IPC: 2.06875 cumulative IPC: 2.33158 (Simulation time: 0 hr 7 min 32 sec) 
select_counter is 888
Heartbeat CPU 0 instructions: 20000000 cycles: 8644074 heartbeat IPC: 2.01984 cumulative IPC: 2.31372 (Simulation time: 0 hr 7 min 51 sec) 
select_counter is 863
Heartbeat CPU 0 instructions: 21000001 cycles: 9136420 heartbeat IPC: 2.03109 cumulative IPC: 2.29849 (Simulation time: 0 hr 8 min 9 sec) 
select_counter is 821
Heartbeat CPU 0 instructions: 22000002 cycles: 9620171 heartbeat IPC: 2.06718 cumulative IPC: 2.28686 (Simulation time: 0 hr 8 min 29 sec) 
select_counter is 812
Heartbeat CPU 0 instructions: 23000003 cycles: 10105758 heartbeat IPC: 2.05937 cumulative IPC: 2.27593 (Simulation time: 0 hr 8 min 48 sec) 
select_counter is 777
Heartbeat CPU 0 instructions: 24000000 cycles: 10589724 heartbeat IPC: 2.06625 cumulative IPC: 2.26635 (Simulation time: 0 hr 9 min 5 sec) 
select_counter is 734
Heartbeat CPU 0 instructions: 25000000 cycles: 11075424 heartbeat IPC: 2.05888 cumulative IPC: 2.25725 (Simulation time: 0 hr 9 min 22 sec) 
select_counter is 705
Heartbeat CPU 0 instructions: 26000003 cycles: 11578128 heartbeat IPC: 1.98925 cumulative IPC: 2.24561 (Simulation time: 0 hr 9 min 40 sec) 
select_counter is 655
Heartbeat CPU 0 instructions: 27000000 cycles: 12071885 heartbeat IPC: 2.02528 cumulative IPC: 2.2366 (Simulation time: 0 hr 9 min 58 sec) 
select_counter is 598
Heartbeat CPU 0 instructions: 28000000 cycles: 12560561 heartbeat IPC: 2.04635 cumulative IPC: 2.2292 (Simulation time: 0 hr 10 min 16 sec) 
select_counter is 547
Heartbeat CPU 0 instructions: 29000000 cycles: 13050198 heartbeat IPC: 2.04233 cumulative IPC: 2.22219 (Simulation time: 0 hr 10 min 34 sec) 
select_counter is 484
Heartbeat CPU 0 instructions: 30000000 cycles: 13552154 heartbeat IPC: 1.99221 cumulative IPC: 2.21367 (Simulation time: 0 hr 10 min 53 sec) 
select_counter is 457
Heartbeat CPU 0 instructions: 31000000 cycles: 14115669 heartbeat IPC: 1.77458 cumulative IPC: 2.19614 (Simulation time: 0 hr 11 min 14 sec) 
select_counter is 417
Heartbeat CPU 0 instructions: 32000000 cycles: 14708482 heartbeat IPC: 1.68687 cumulative IPC: 2.17562 (Simulation time: 0 hr 11 min 33 sec) 
select_counter is 413
Heartbeat CPU 0 instructions: 33000003 cycles: 15230575 heartbeat IPC: 1.91537 cumulative IPC: 2.16669 (Simulation time: 0 hr 11 min 50 sec) 
select_counter is 346
Heartbeat CPU 0 instructions: 34000002 cycles: 15631142 heartbeat IPC: 2.49646 cumulative IPC: 2.17515 (Simulation time: 0 hr 12 min 9 sec) 
select_counter is 195
Heartbeat CPU 0 instructions: 35000003 cycles: 16029820 heartbeat IPC: 2.50829 cumulative IPC: 2.18343 (Simulation time: 0 hr 12 min 29 sec) 
select_counter is 137
Heartbeat CPU 0 instructions: 36000000 cycles: 16470684 heartbeat IPC: 2.26827 cumulative IPC: 2.1857 (Simulation time: 0 hr 12 min 50 sec) 
select_counter is 142
Heartbeat CPU 0 instructions: 37000000 cycles: 16862083 heartbeat IPC: 2.55494 cumulative IPC: 2.19427 (Simulation time: 0 hr 13 min 15 sec) 
select_counter is 143
Heartbeat CPU 0 instructions: 38000000 cycles: 17284501 heartbeat IPC: 2.36732 cumulative IPC: 2.1985 (Simulation time: 0 hr 13 min 42 sec) 
select_counter is 144
Heartbeat CPU 0 instructions: 39000000 cycles: 17715860 heartbeat IPC: 2.31825 cumulative IPC: 2.20142 (Simulation time: 0 hr 14 min 9 sec) 
select_counter is 141
Heartbeat CPU 0 instructions: 40000000 cycles: 18137577 heartbeat IPC: 2.37126 cumulative IPC: 2.20537 (Simulation time: 0 hr 14 min 32 sec) 
select_counter is 148
Heartbeat CPU 0 instructions: 41000001 cycles: 18562114 heartbeat IPC: 2.35551 cumulative IPC: 2.2088 (Simulation time: 0 hr 14 min 56 sec) 
select_counter is 157
Heartbeat CPU 0 instructions: 42000000 cycles: 18999812 heartbeat IPC: 2.28468 cumulative IPC: 2.21055 (Simulation time: 0 hr 15 min 21 sec) 
select_counter is 158
Heartbeat CPU 0 instructions: 43000003 cycles: 19432764 heartbeat IPC: 2.30973 cumulative IPC: 2.21276 (Simulation time: 0 hr 15 min 46 sec) 
select_counter is 159
Heartbeat CPU 0 instructions: 44000000 cycles: 19864740 heartbeat IPC: 2.31494 cumulative IPC: 2.21498 (Simulation time: 0 hr 16 min 9 sec) 
select_counter is 158
Heartbeat CPU 0 instructions: 45000002 cycles: 20295733 heartbeat IPC: 2.32023 cumulative IPC: 2.21721 (Simulation time: 0 hr 16 min 32 sec) 
select_counter is 164
Heartbeat CPU 0 instructions: 46000001 cycles: 20727146 heartbeat IPC: 2.31796 cumulative IPC: 2.21931 (Simulation time: 0 hr 16 min 55 sec) 
select_counter is 166
Heartbeat CPU 0 instructions: 47000003 cycles: 21158507 heartbeat IPC: 2.31825 cumulative IPC: 2.22133 (Simulation time: 0 hr 17 min 19 sec) 
select_counter is 173
Heartbeat CPU 0 instructions: 48000000 cycles: 21592004 heartbeat IPC: 2.30681 cumulative IPC: 2.22305 (Simulation time: 0 hr 17 min 43 sec) 
select_counter is 176
Heartbeat CPU 0 instructions: 49000003 cycles: 22030106 heartbeat IPC: 2.28258 cumulative IPC: 2.22423 (Simulation time: 0 hr 18 min 8 sec) 
select_counter is 175
Heartbeat CPU 0 instructions: 50000003 cycles: 22447908 heartbeat IPC: 2.39348 cumulative IPC: 2.22738 (Simulation time: 0 hr 18 min 30 sec) 
select_counter is 187

Warmup complete CPU 0 instructions: 50000003 cycles: 22447908 (Simulation time: 0 hr 18 min 30 sec) 

Heartbeat CPU 0 instructions: 51000002 cycles: 23612432 heartbeat IPC: 0.858719 cumulative IPC: 0.858719 (Simulation time: 0 hr 18 min 54 sec) 
select_counter is 188
Heartbeat CPU 0 instructions: 52000000 cycles: 24730589 heartbeat IPC: 0.894327 cumulative IPC: 0.876161 (Simulation time: 0 hr 19 min 14 sec) 
select_counter is 189
Heartbeat CPU 0 instructions: 53000001 cycles: 25927235 heartbeat IPC: 0.83567 cumulative IPC: 0.862235 (Simulation time: 0 hr 19 min 33 sec) 
select_counter is 197
Heartbeat CPU 0 instructions: 54000000 cycles: 27152884 heartbeat IPC: 0.815893 cumulative IPC: 0.850163 (Simulation time: 0 hr 19 min 55 sec) 
select_counter is 194
Heartbeat CPU 0 instructions: 55000000 cycles: 28304487 heartbeat IPC: 0.868355 cumulative IPC: 0.85374 (Simulation time: 0 hr 20 min 16 sec) 
select_counter is 211
Heartbeat CPU 0 instructions: 56000000 cycles: 29528499 heartbeat IPC: 0.816985 cumulative IPC: 0.847386 (Simulation time: 0 hr 20 min 37 sec) 
select_counter is 211
Heartbeat CPU 0 instructions: 57000000 cycles: 30749549 heartbeat IPC: 0.818967 cumulative IPC: 0.843206 (Simulation time: 0 hr 20 min 56 sec) 
select_counter is 214
Heartbeat CPU 0 instructions: 58000002 cycles: 31782813 heartbeat IPC: 0.967809 cumulative IPC: 0.856998 (Simulation time: 0 hr 21 min 16 sec) 
select_counter is 231
Heartbeat CPU 0 instructions: 59000000 cycles: 32884032 heartbeat IPC: 0.908083 cumulative IPC: 0.862389 (Simulation time: 0 hr 21 min 36 sec) 
select_counter is 230
Heartbeat CPU 0 instructions: 60000000 cycles: 34063552 heartbeat IPC: 0.847803 cumulative IPC: 0.860908 (Simulation time: 0 hr 21 min 57 sec) 
select_counter is 235
Heartbeat CPU 0 instructions: 61000000 cycles: 35207693 heartbeat IPC: 0.874018 cumulative IPC: 0.862083 (Simulation time: 0 hr 22 min 19 sec) 
select_counter is 230
Heartbeat CPU 0 instructions: 62000002 cycles: 36052339 heartbeat IPC: 1.18393 cumulative IPC: 0.882065 (Simulation time: 0 hr 22 min 39 sec) 
select_counter is 160
Heartbeat CPU 0 instructions: 63000003 cycles: 36944934 heartbeat IPC: 1.12033 cumulative IPC: 0.896736 (Simulation time: 0 hr 23 min 2 sec) 
select_counter is 968
Heartbeat CPU 0 instructions: 64000000 cycles: 37984891 heartbeat IPC: 0.961575 cumulative IPC: 0.901076 (Simulation time: 0 hr 23 min 31 sec) 
select_counter is 883
Heartbeat CPU 0 instructions: 65000003 cycles: 38953206 heartbeat IPC: 1.03272 cumulative IPC: 0.908799 (Simulation time: 0 hr 23 min 56 sec) 
select_counter is 879
Heartbeat CPU 0 instructions: 66000003 cycles: 39906320 heartbeat IPC: 1.04919 cumulative IPC: 0.916464 (Simulation time: 0 hr 24 min 21 sec) 
select_counter is 926
Heartbeat CPU 0 instructions: 67000003 cycles: 40957721 heartbeat IPC: 0.951112 cumulative IPC: 0.918432 (Simulation time: 0 hr 24 min 45 sec) 
select_counter is 977
Heartbeat CPU 0 instructions: 68000000 cycles: 42026729 heartbeat IPC: 0.935444 cumulative IPC: 0.919361 (Simulation time: 0 hr 25 min 12 sec) 
select_counter is 1006
Heartbeat CPU 0 instructions: 69000003 cycles: 43128702 heartbeat IPC: 0.907466 cumulative IPC: 0.918727 (Simulation time: 0 hr 25 min 38 sec) 
select_counter is 924
Heartbeat CPU 0 instructions: 70000003 cycles: 44384155 heartbeat IPC: 0.796525 cumulative IPC: 0.911733 (Simulation time: 0 hr 26 min 3 sec) 
select_counter is 885
Heartbeat CPU 0 instructions: 71000000 cycles: 45761860 heartbeat IPC: 0.725843 cumulative IPC: 0.900748 (Simulation time: 0 hr 26 min 33 sec) 
select_counter is 786
Heartbeat CPU 0 instructions: 72000000 cycles: 46959534 heartbeat IPC: 0.834952 cumulative IPC: 0.897533 (Simulation time: 0 hr 26 min 58 sec) 
select_counter is 738
Heartbeat CPU 0 instructions: 73000003 cycles: 48285680 heartbeat IPC: 0.754067 cumulative IPC: 0.89017 (Simulation time: 0 hr 27 min 25 sec) 
select_counter is 667
Heartbeat CPU 0 instructions: 74000001 cycles: 49576781 heartbeat IPC: 0.774531 cumulative IPC: 0.884666 (Simulation time: 0 hr 27 min 55 sec) 
select_counter is 623
Heartbeat CPU 0 instructions: 75000000 cycles: 50761939 heartbeat IPC: 0.843769 cumulative IPC: 0.882954 (Simulation time: 0 hr 28 min 24 sec) 
select_counter is 551
Heartbeat CPU 0 instructions: 76000000 cycles: 51873621 heartbeat IPC: 0.899538 cumulative IPC: 0.883581 (Simulation time: 0 hr 28 min 52 sec) 
select_counter is 501
Heartbeat CPU 0 instructions: 77000003 cycles: 52844101 heartbeat IPC: 1.03042 cumulative IPC: 0.888269 (Simulation time: 0 hr 29 min 14 sec) 
select_counter is 488
Heartbeat CPU 0 instructions: 78000000 cycles: 53809944 heartbeat IPC: 1.03536 cumulative IPC: 0.892799 (Simulation time: 0 hr 29 min 40 sec) 
select_counter is 465
Heartbeat CPU 0 instructions: 79000003 cycles: 54888302 heartbeat IPC: 0.927339 cumulative IPC: 0.893947 (Simulation time: 0 hr 30 min 1 sec) 
select_counter is 410
Heartbeat CPU 0 instructions: 80000000 cycles: 56090851 heartbeat IPC: 0.831564 cumulative IPC: 0.891717 (Simulation time: 0 hr 30 min 24 sec) 
select_counter is 298
Heartbeat CPU 0 instructions: 81000001 cycles: 57227217 heartbeat IPC: 0.879999 cumulative IPC: 0.891334 (Simulation time: 0 hr 30 min 52 sec) 
select_counter is 235
Heartbeat CPU 0 instructions: 82000000 cycles: 58322887 heartbeat IPC: 0.912683 cumulative IPC: 0.891986 (Simulation time: 0 hr 31 min 21 sec) 
select_counter is 173
Heartbeat CPU 0 instructions: 83000002 cycles: 59363297 heartbeat IPC: 0.961161 cumulative IPC: 0.893936 (Simulation time: 0 hr 31 min 46 sec) 
select_counter is 115
Heartbeat CPU 0 instructions: 84000000 cycles: 60304634 heartbeat IPC: 1.06232 cumulative IPC: 0.898123 (Simulation time: 0 hr 32 min 12 sec) 
select_counter is 90
Heartbeat CPU 0 instructions: 85000003 cycles: 61242113 heartbeat IPC: 1.06669 cumulative IPC: 0.902197 (Simulation time: 0 hr 32 min 37 sec) 
select_counter is 59
Heartbeat CPU 0 instructions: 86000003 cycles: 62295872 heartbeat IPC: 0.948984 cumulative IPC: 0.903434 (Simulation time: 0 hr 33 min 0 sec) 
select_counter is 52
Heartbeat CPU 0 instructions: 87000002 cycles: 63406035 heartbeat IPC: 0.900768 cumulative IPC: 0.903362 (Simulation time: 0 hr 33 min 25 sec) 
select_counter is 46
Heartbeat CPU 0 instructions: 88000000 cycles: 64523575 heartbeat IPC: 0.894821 cumulative IPC: 0.903135 (Simulation time: 0 hr 33 min 45 sec) 
select_counter is 53
Heartbeat CPU 0 instructions: 89000002 cycles: 65530689 heartbeat IPC: 0.992938 cumulative IPC: 0.905234 (Simulation time: 0 hr 34 min 5 sec) 
select_counter is 41
Heartbeat CPU 0 instructions: 90000001 cycles: 66653920 heartbeat IPC: 0.890288 cumulative IPC: 0.904854 (Simulation time: 0 hr 34 min 24 sec) 
select_counter is 38
Heartbeat CPU 0 instructions: 91000002 cycles: 67767899 heartbeat IPC: 0.897684 cumulative IPC: 0.904678 (Simulation time: 0 hr 34 min 45 sec) 
select_counter is 33
Heartbeat CPU 0 instructions: 92000000 cycles: 68807462 heartbeat IPC: 0.961941 cumulative IPC: 0.905962 (Simulation time: 0 hr 35 min 8 sec) 
select_counter is 14
Heartbeat CPU 0 instructions: 93000000 cycles: 69996910 heartbeat IPC: 0.840726 cumulative IPC: 0.90433 (Simulation time: 0 hr 35 min 29 sec) 
select_counter is 10
Heartbeat CPU 0 instructions: 94000003 cycles: 71173112 heartbeat IPC: 0.850197 cumulative IPC: 0.903023 (Simulation time: 0 hr 35 min 49 sec) 
select_counter is 5
Heartbeat CPU 0 instructions: 95000002 cycles: 72358233 heartbeat IPC: 0.843795 cumulative IPC: 0.901617 (Simulation time: 0 hr 36 min 9 sec) 
select_counter is 8
Heartbeat CPU 0 instructions: 96000000 cycles: 73527672 heartbeat IPC: 0.855109 cumulative IPC: 0.900552 (Simulation time: 0 hr 36 min 31 sec) 
select_counter is 4
Heartbeat CPU 0 instructions: 97000002 cycles: 74744783 heartbeat IPC: 0.821619 cumulative IPC: 0.898715 (Simulation time: 0 hr 36 min 53 sec) 
select_counter is 3
Heartbeat CPU 0 instructions: 98000000 cycles: 75977971 heartbeat IPC: 0.810905 cumulative IPC: 0.896692 (Simulation time: 0 hr 37 min 13 sec) 
select_counter is 1022
Heartbeat CPU 0 instructions: 99000000 cycles: 77217319 heartbeat IPC: 0.806876 cumulative IPC: 0.89466 (Simulation time: 0 hr 37 min 35 sec) 
select_counter is 1015
Heartbeat CPU 0 instructions: 100000000 cycles: 78459379 heartbeat IPC: 0.805114 cumulative IPC: 0.892674 (Simulation time: 0 hr 37 min 59 sec) 
select_counter is 1007
Heartbeat CPU 0 instructions: 101000003 cycles: 79606607 heartbeat IPC: 0.871669 cumulative IPC: 0.892253 (Simulation time: 0 hr 38 min 20 sec) 
select_counter is 996
Heartbeat CPU 0 instructions: 102000000 cycles: 80725609 heartbeat IPC: 0.893651 cumulative IPC: 0.89228 (Simulation time: 0 hr 38 min 44 sec) 
select_counter is 990
Heartbeat CPU 0 instructions: 103000000 cycles: 81826965 heartbeat IPC: 0.907972 cumulative IPC: 0.892571 (Simulation time: 0 hr 39 min 5 sec) 
select_counter is 993
Heartbeat CPU 0 instructions: 104000000 cycles: 82979975 heartbeat IPC: 0.867295 cumulative IPC: 0.892089 (Simulation time: 0 hr 39 min 25 sec) 
select_counter is 988
Heartbeat CPU 0 instructions: 105000002 cycles: 84191981 heartbeat IPC: 0.82508 cumulative IPC: 0.890774 (Simulation time: 0 hr 39 min 45 sec) 
select_counter is 981
Heartbeat CPU 0 instructions: 106000001 cycles: 85325542 heartbeat IPC: 0.882175 cumulative IPC: 0.890619 (Simulation time: 0 hr 40 min 7 sec) 
select_counter is 969
Heartbeat CPU 0 instructions: 107000000 cycles: 86528626 heartbeat IPC: 0.831196 cumulative IPC: 0.889503 (Simulation time: 0 hr 40 min 29 sec) 
select_counter is 967
Heartbeat CPU 0 instructions: 108000000 cycles: 87727184 heartbeat IPC: 0.834336 cumulative IPC: 0.88849 (Simulation time: 0 hr 40 min 50 sec) 
select_counter is 965
Heartbeat CPU 0 instructions: 109000000 cycles: 88739531 heartbeat IPC: 0.987804 cumulative IPC: 0.890007 (Simulation time: 0 hr 41 min 13 sec) 
select_counter is 964
Heartbeat CPU 0 instructions: 110000000 cycles: 89900050 heartbeat IPC: 0.861683 cumulative IPC: 0.88952 (Simulation time: 0 hr 41 min 36 sec) 
select_counter is 979
Heartbeat CPU 0 instructions: 111000002 cycles: 91025108 heartbeat IPC: 0.888845 cumulative IPC: 0.889508 (Simulation time: 0 hr 42 min 0 sec) 
select_counter is 998
Heartbeat CPU 0 instructions: 112000000 cycles: 92171582 heartbeat IPC: 0.872238 cumulative IPC: 0.889224 (Simulation time: 0 hr 42 min 22 sec) 
select_counter is 1011
Heartbeat CPU 0 instructions: 113000003 cycles: 93102286 heartbeat IPC: 1.07446 cumulative IPC: 0.891665 (Simulation time: 0 hr 42 min 46 sec) 
select_counter is 1020
Heartbeat CPU 0 instructions: 114000001 cycles: 93842801 heartbeat IPC: 1.35041 cumulative IPC: 0.896423 (Simulation time: 0 hr 43 min 11 sec) 
select_counter is 1022
Heartbeat CPU 0 instructions: 115000000 cycles: 94918057 heartbeat IPC: 0.93001 cumulative IPC: 0.896921 (Simulation time: 0 hr 43 min 42 sec) 
select_counter is 941
Heartbeat CPU 0 instructions: 116000000 cycles: 95850720 heartbeat IPC: 1.0722 cumulative IPC: 0.899148 (Simulation time: 0 hr 44 min 10 sec) 
select_counter is 815
Heartbeat CPU 0 instructions: 117000003 cycles: 96777811 heartbeat IPC: 1.07865 cumulative IPC: 0.901387 (Simulation time: 0 hr 44 min 37 sec) 
select_counter is 766
Heartbeat CPU 0 instructions: 118000001 cycles: 97718908 heartbeat IPC: 1.06259 cumulative IPC: 0.903402 (Simulation time: 0 hr 45 min 1 sec) 
select_counter is 619
Heartbeat CPU 0 instructions: 119000001 cycles: 98757092 heartbeat IPC: 0.96322 cumulative IPC: 0.904216 (Simulation time: 0 hr 45 min 27 sec) 
select_counter is 622
Heartbeat CPU 0 instructions: 120000000 cycles: 99857858 heartbeat IPC: 0.908457 cumulative IPC: 0.904276 (Simulation time: 0 hr 46 min 0 sec) 
select_counter is 817
Heartbeat CPU 0 instructions: 121000002 cycles: 100988449 heartbeat IPC: 0.884495 cumulative IPC: 0.903992 (Simulation time: 0 hr 46 min 26 sec) 
select_counter is 975
Heartbeat CPU 0 instructions: 122000000 cycles: 102475219 heartbeat IPC: 0.672598 cumulative IPC: 0.899693 (Simulation time: 0 hr 46 min 53 sec) 
select_counter is 967
Heartbeat CPU 0 instructions: 123000000 cycles: 103855255 heartbeat IPC: 0.724619 cumulative IPC: 0.896725 (Simulation time: 0 hr 47 min 19 sec) 
select_counter is 935
Heartbeat CPU 0 instructions: 124000000 cycles: 105148490 heartbeat IPC: 0.773255 cumulative IPC: 0.894794 (Simulation time: 0 hr 47 min 48 sec) 
select_counter is 927
Heartbeat CPU 0 instructions: 125000001 cycles: 106339242 heartbeat IPC: 0.839806 cumulative IPC: 0.894014 (Simulation time: 0 hr 48 min 17 sec) 
select_counter is 920
Heartbeat CPU 0 instructions: 126000002 cycles: 107342185 heartbeat IPC: 0.997067 cumulative IPC: 0.895231 (Simulation time: 0 hr 48 min 41 sec) 
select_counter is 892
Heartbeat CPU 0 instructions: 127000001 cycles: 108348643 heartbeat IPC: 0.993582 cumulative IPC: 0.896383 (Simulation time: 0 hr 49 min 6 sec) 
select_counter is 873
Heartbeat CPU 0 instructions: 128000000 cycles: 109471066 heartbeat IPC: 0.890929 cumulative IPC: 0.896313 (Simulation time: 0 hr 49 min 30 sec) 
select_counter is 837
Heartbeat CPU 0 instructions: 129000001 cycles: 110619888 heartbeat IPC: 0.870458 cumulative IPC: 0.895976 (Simulation time: 0 hr 49 min 54 sec) 
select_counter is 809
Heartbeat CPU 0 instructions: 130000001 cycles: 111918457 heartbeat IPC: 0.770078 cumulative IPC: 0.894149 (Simulation time: 0 hr 50 min 20 sec) 
select_counter is 806
Heartbeat CPU 0 instructions: 131000003 cycles: 113185990 heartbeat IPC: 0.788936 cumulative IPC: 0.892679 (Simulation time: 0 hr 50 min 47 sec) 
select_counter is 818
Heartbeat CPU 0 instructions: 132000000 cycles: 114219160 heartbeat IPC: 0.967892 cumulative IPC: 0.893526 (Simulation time: 0 hr 51 min 10 sec) 
select_counter is 790
Heartbeat CPU 0 instructions: 133000001 cycles: 115186671 heartbeat IPC: 1.03358 cumulative IPC: 0.894987 (Simulation time: 0 hr 51 min 34 sec) 
select_counter is 789
Heartbeat CPU 0 instructions: 134000002 cycles: 116127923 heartbeat IPC: 1.06242 cumulative IPC: 0.896669 (Simulation time: 0 hr 51 min 58 sec) 
select_counter is 779
Heartbeat CPU 0 instructions: 135000000 cycles: 117093749 heartbeat IPC: 1.03538 cumulative IPC: 0.898085 (Simulation time: 0 hr 52 min 20 sec) 
select_counter is 756
Heartbeat CPU 0 instructions: 136000000 cycles: 117998711 heartbeat IPC: 1.10502 cumulative IPC: 0.900045 (Simulation time: 0 hr 52 min 43 sec) 
select_counter is 748
Heartbeat CPU 0 instructions: 137000000 cycles: 118902963 heartbeat IPC: 1.10589 cumulative IPC: 0.901974 (Simulation time: 0 hr 53 min 7 sec) 
select_counter is 739
Heartbeat CPU 0 instructions: 138000003 cycles: 119804472 heartbeat IPC: 1.10925 cumulative IPC: 0.903894 (Simulation time: 0 hr 53 min 29 sec) 
select_counter is 713
Heartbeat CPU 0 instructions: 139000001 cycles: 120856069 heartbeat IPC: 0.950933 cumulative IPC: 0.904397 (Simulation time: 0 hr 53 min 52 sec) 
select_counter is 699
Heartbeat CPU 0 instructions: 140000000 cycles: 121879097 heartbeat IPC: 0.977489 cumulative IPC: 0.905149 (Simulation time: 0 hr 54 min 12 sec) 
select_counter is 692
Heartbeat CPU 0 instructions: 141000000 cycles: 122952457 heartbeat IPC: 0.931654 cumulative IPC: 0.905432 (Simulation time: 0 hr 54 min 29 sec) 
select_counter is 684
Heartbeat CPU 0 instructions: 142000000 cycles: 123870466 heartbeat IPC: 1.08931 cumulative IPC: 0.907096 (Simulation time: 0 hr 54 min 48 sec) 
select_counter is 683
Heartbeat CPU 0 instructions: 143000001 cycles: 124664981 heartbeat IPC: 1.25863 cumulative IPC: 0.909828 (Simulation time: 0 hr 55 min 11 sec) 
select_counter is 683
Heartbeat CPU 0 instructions: 144000000 cycles: 125488426 heartbeat IPC: 1.21441 cumulative IPC: 0.912262 (Simulation time: 0 hr 55 min 27 sec) 
select_counter is 655
Heartbeat CPU 0 instructions: 145000001 cycles: 126485223 heartbeat IPC: 1.00321 cumulative IPC: 0.913134 (Simulation time: 0 hr 55 min 46 sec) 
select_counter is 650
Heartbeat CPU 0 instructions: 146000000 cycles: 127438495 heartbeat IPC: 1.04902 cumulative IPC: 0.914368 (Simulation time: 0 hr 56 min 5 sec) 
select_counter is 640
Heartbeat CPU 0 instructions: 147000001 cycles: 128443517 heartbeat IPC: 0.995004 cumulative IPC: 0.915132 (Simulation time: 0 hr 56 min 24 sec) 
select_counter is 633
Heartbeat CPU 0 instructions: 148000000 cycles: 129421275 heartbeat IPC: 1.02275 cumulative IPC: 0.916116 (Simulation time: 0 hr 56 min 42 sec) 
select_counter is 627
Heartbeat CPU 0 instructions: 149000003 cycles: 130414400 heartbeat IPC: 1.00693 cumulative IPC: 0.916951 (Simulation time: 0 hr 56 min 59 sec) 
select_counter is 624
Heartbeat CPU 0 instructions: 150000003 cycles: 131426831 heartbeat IPC: 0.987722 cumulative IPC: 0.917609 (Simulation time: 0 hr 57 min 15 sec) 
select_counter is 627
Finished CPU 0 instructions: 100000000 cycles: 108978923 cummulative IPC: 0.917609 (Simulation time: 0 hr 57 min 15 sec) 

ChampSim completed all CPUs

Region of Interest Statistics

CPU 0 cummulative IPC: 0.917609 instructions: 100000000 cycles: 108978923
LLC TOTAL     ACCESS:    1666354  HIT:    1299134  MISS:     367220
LLC LOAD      ACCESS:     531442  HIT:     461378  MISS:      70064
LLC RFO       ACCESS:     108419  HIT:      51378  MISS:      57041
LLC PREFETCH  ACCESS:     824394  HIT:     642912  MISS:     181482
LLC WRITEBACK ACCESS:     202099  HIT:     143466  MISS:      58633
Ship samples: 
18, 41, 64, 122, 145, 166, 216, 228, 275, 318, 331, 355, 408, 430, 473, 498, 541, 565, 593, 620, 645, 672, 725, 743, 792, 816, 855, 890, 899, 943, 962, 1018, 1030, 1067, 1090, 1130, 1172, 1192, 1221, 1253, 1309, 1319, 1347, 1395, 1414, 1448, 1473, 1505, 1559, 1581, 1600, 1644, 1686, 1697, 1730, 1771, 1807, 1839, 1865, 1918, 1939, 1975, 1992, 2044, 
Lime duel samples: 
6, 59, 69, 126, 138, 183, 196, 238, 281, 303, 324, 363, 407, 431, 448, 500, 533, 567, 603, 639, 648, 689, 723, 761, 772, 811, 835, 883, 911, 936, 988, 1009, 1049, 1077, 1093, 1139, 1171, 1214, 1229, 1261, 1296, 1320, 1360, 1398, 1419, 1456, 1480, 1506, 1544, 1580, 1625, 1656, 1684, 1717, 1755, 1767, 1823, 1843, 1874, 1891, 1935, 1958, 2004, 2041, 
Lime samples: 
6, 126, 196, 303, 407, 500, 603, 689, 772, 883, 988, 1077, 1171, 1261, 1360, 1456, 1544, 1656, 1755, 1843, 1935, 
Insertion Distribution: 
	LOAD 19113 0 0 0 0 0 7759 736 
	RFO 6188 0 0 0 0 0 21204 26379 
	PREF 0 8144 0 0 0 0 28977 44190 
	WRITEBACK 0 0 0 0 0 0 0 17930 
Total Prefetch Downgrades: 19303
