
*** ChampSim Multicore Out-of-Order Simulator ***

Warmup Instructions: 50000000
Simulation Instructions: 100000000
Configuration: 2
Number of CPUs: 1
LLC sets: 2048
LLC ways: 16
Off-chip DRAM Channels: 1 Width: 64-bit Data Rate: 1600 MT/s

CPU 0 runs /datasets/cs240c-wi22-a00-public/data/Assignment2-gz/astar_163B.trace.gz
CPU 0 L1D next line prefetcher
CPU 0 L2C IP-based stride prefetcher
Heartbeat CPU 0 instructions: 1000002 cycles: 531210 heartbeat IPC: 1.8825 cumulative IPC: 1.8825 (Simulation time: 0 hr 0 min 26 sec) 
select_counter is 509
Heartbeat CPU 0 instructions: 2000003 cycles: 1060835 heartbeat IPC: 1.88813 cumulative IPC: 1.88531 (Simulation time: 0 hr 0 min 51 sec) 
select_counter is 475
Heartbeat CPU 0 instructions: 3000003 cycles: 1590861 heartbeat IPC: 1.8867 cumulative IPC: 1.88577 (Simulation time: 0 hr 1 min 14 sec) 
select_counter is 426
Heartbeat CPU 0 instructions: 4000000 cycles: 2120966 heartbeat IPC: 1.88641 cumulative IPC: 1.88593 (Simulation time: 0 hr 1 min 38 sec) 
select_counter is 410
Heartbeat CPU 0 instructions: 5000000 cycles: 2652874 heartbeat IPC: 1.88002 cumulative IPC: 1.88475 (Simulation time: 0 hr 2 min 2 sec) 
select_counter is 378
Heartbeat CPU 0 instructions: 6000002 cycles: 3181382 heartbeat IPC: 1.89212 cumulative IPC: 1.88597 (Simulation time: 0 hr 2 min 31 sec) 
select_counter is 337
Heartbeat CPU 0 instructions: 7000003 cycles: 3710914 heartbeat IPC: 1.88846 cumulative IPC: 1.88633 (Simulation time: 0 hr 2 min 58 sec) 
select_counter is 326
Heartbeat CPU 0 instructions: 8000000 cycles: 4240195 heartbeat IPC: 1.88935 cumulative IPC: 1.88671 (Simulation time: 0 hr 3 min 22 sec) 
select_counter is 305
Heartbeat CPU 0 instructions: 9000000 cycles: 4771200 heartbeat IPC: 1.88322 cumulative IPC: 1.88632 (Simulation time: 0 hr 3 min 50 sec) 
select_counter is 285
Heartbeat CPU 0 instructions: 10000001 cycles: 5301275 heartbeat IPC: 1.88653 cumulative IPC: 1.88634 (Simulation time: 0 hr 4 min 24 sec) 
select_counter is 256
Heartbeat CPU 0 instructions: 11000003 cycles: 5830299 heartbeat IPC: 1.89028 cumulative IPC: 1.8867 (Simulation time: 0 hr 4 min 51 sec) 
select_counter is 233
Heartbeat CPU 0 instructions: 12000000 cycles: 6359050 heartbeat IPC: 1.89124 cumulative IPC: 1.88707 (Simulation time: 0 hr 5 min 15 sec) 
select_counter is 251
Heartbeat CPU 0 instructions: 13000002 cycles: 6888865 heartbeat IPC: 1.88746 cumulative IPC: 1.8871 (Simulation time: 0 hr 5 min 40 sec) 
select_counter is 280
Heartbeat CPU 0 instructions: 14000000 cycles: 7418992 heartbeat IPC: 1.88634 cumulative IPC: 1.88705 (Simulation time: 0 hr 6 min 7 sec) 
select_counter is 271
Heartbeat CPU 0 instructions: 15000000 cycles: 7949395 heartbeat IPC: 1.88536 cumulative IPC: 1.88694 (Simulation time: 0 hr 6 min 33 sec) 
select_counter is 256
Heartbeat CPU 0 instructions: 16000000 cycles: 8480240 heartbeat IPC: 1.88379 cumulative IPC: 1.88674 (Simulation time: 0 hr 7 min 0 sec) 
select_counter is 252
Heartbeat CPU 0 instructions: 17000002 cycles: 9009857 heartbeat IPC: 1.88816 cumulative IPC: 1.88682 (Simulation time: 0 hr 7 min 28 sec) 
select_counter is 252
Heartbeat CPU 0 instructions: 18000003 cycles: 9539256 heartbeat IPC: 1.88894 cumulative IPC: 1.88694 (Simulation time: 0 hr 7 min 53 sec) 
select_counter is 312
Heartbeat CPU 0 instructions: 19000003 cycles: 10069782 heartbeat IPC: 1.88492 cumulative IPC: 1.88683 (Simulation time: 0 hr 8 min 21 sec) 
select_counter is 290
Heartbeat CPU 0 instructions: 20000000 cycles: 10600044 heartbeat IPC: 1.88585 cumulative IPC: 1.88678 (Simulation time: 0 hr 8 min 50 sec) 
select_counter is 327
Heartbeat CPU 0 instructions: 21000003 cycles: 11130195 heartbeat IPC: 1.88626 cumulative IPC: 1.88676 (Simulation time: 0 hr 9 min 16 sec) 
select_counter is 314
Heartbeat CPU 0 instructions: 22000001 cycles: 11661787 heartbeat IPC: 1.88114 cumulative IPC: 1.8865 (Simulation time: 0 hr 9 min 46 sec) 
select_counter is 318
Heartbeat CPU 0 instructions: 23000001 cycles: 12191923 heartbeat IPC: 1.88631 cumulative IPC: 1.88649 (Simulation time: 0 hr 10 min 13 sec) 
select_counter is 345
Heartbeat CPU 0 instructions: 24000000 cycles: 12722760 heartbeat IPC: 1.88382 cumulative IPC: 1.88638 (Simulation time: 0 hr 10 min 39 sec) 
select_counter is 339
Heartbeat CPU 0 instructions: 25000003 cycles: 13223543 heartbeat IPC: 1.99688 cumulative IPC: 1.89057 (Simulation time: 0 hr 11 min 4 sec) 
select_counter is 349
Heartbeat CPU 0 instructions: 26000002 cycles: 13727873 heartbeat IPC: 1.98283 cumulative IPC: 1.89396 (Simulation time: 0 hr 11 min 28 sec) 
select_counter is 332
Heartbeat CPU 0 instructions: 27000000 cycles: 14239879 heartbeat IPC: 1.9531 cumulative IPC: 1.89608 (Simulation time: 0 hr 11 min 51 sec) 
select_counter is 321
Heartbeat CPU 0 instructions: 28000000 cycles: 14763366 heartbeat IPC: 1.91027 cumulative IPC: 1.89659 (Simulation time: 0 hr 12 min 18 sec) 
select_counter is 306
Heartbeat CPU 0 instructions: 29000003 cycles: 15291267 heartbeat IPC: 1.8943 cumulative IPC: 1.89651 (Simulation time: 0 hr 12 min 43 sec) 
select_counter is 322
Heartbeat CPU 0 instructions: 30000000 cycles: 15814675 heartbeat IPC: 1.91055 cumulative IPC: 1.89697 (Simulation time: 0 hr 13 min 7 sec) 
select_counter is 335
Heartbeat CPU 0 instructions: 31000001 cycles: 16335304 heartbeat IPC: 1.92076 cumulative IPC: 1.89773 (Simulation time: 0 hr 13 min 31 sec) 
select_counter is 366
Heartbeat CPU 0 instructions: 32000000 cycles: 16862587 heartbeat IPC: 1.89651 cumulative IPC: 1.89769 (Simulation time: 0 hr 14 min 1 sec) 
select_counter is 398
Heartbeat CPU 0 instructions: 33000001 cycles: 17383048 heartbeat IPC: 1.92138 cumulative IPC: 1.8984 (Simulation time: 0 hr 14 min 26 sec) 
select_counter is 412
Heartbeat CPU 0 instructions: 34000001 cycles: 17905934 heartbeat IPC: 1.91246 cumulative IPC: 1.89881 (Simulation time: 0 hr 14 min 50 sec) 
select_counter is 462
Heartbeat CPU 0 instructions: 35000000 cycles: 18431451 heartbeat IPC: 1.90289 cumulative IPC: 1.89893 (Simulation time: 0 hr 15 min 13 sec) 
select_counter is 514
Heartbeat CPU 0 instructions: 36000000 cycles: 18958367 heartbeat IPC: 1.89784 cumulative IPC: 1.8989 (Simulation time: 0 hr 15 min 34 sec) 
select_counter is 554
Heartbeat CPU 0 instructions: 37000002 cycles: 19475806 heartbeat IPC: 1.9326 cumulative IPC: 1.89979 (Simulation time: 0 hr 15 min 57 sec) 
select_counter is 601
Heartbeat CPU 0 instructions: 38000002 cycles: 19995768 heartbeat IPC: 1.92322 cumulative IPC: 1.9004 (Simulation time: 0 hr 16 min 19 sec) 
select_counter is 647
Heartbeat CPU 0 instructions: 39000001 cycles: 20516146 heartbeat IPC: 1.92168 cumulative IPC: 1.90094 (Simulation time: 0 hr 16 min 41 sec) 
select_counter is 679
Heartbeat CPU 0 instructions: 40000000 cycles: 21035035 heartbeat IPC: 1.92719 cumulative IPC: 1.90159 (Simulation time: 0 hr 17 min 2 sec) 
select_counter is 747
Heartbeat CPU 0 instructions: 41000001 cycles: 21556382 heartbeat IPC: 1.91811 cumulative IPC: 1.90199 (Simulation time: 0 hr 17 min 22 sec) 
select_counter is 784
Heartbeat CPU 0 instructions: 42000002 cycles: 22070289 heartbeat IPC: 1.94588 cumulative IPC: 1.90301 (Simulation time: 0 hr 17 min 42 sec) 
select_counter is 831
Heartbeat CPU 0 instructions: 43000001 cycles: 22583908 heartbeat IPC: 1.94697 cumulative IPC: 1.90401 (Simulation time: 0 hr 18 min 4 sec) 
select_counter is 880
Heartbeat CPU 0 instructions: 44000000 cycles: 23103885 heartbeat IPC: 1.92316 cumulative IPC: 1.90444 (Simulation time: 0 hr 18 min 25 sec) 
select_counter is 932
Heartbeat CPU 0 instructions: 45000001 cycles: 23620205 heartbeat IPC: 1.93679 cumulative IPC: 1.90515 (Simulation time: 0 hr 18 min 46 sec) 
select_counter is 965
Heartbeat CPU 0 instructions: 46000003 cycles: 24144554 heartbeat IPC: 1.90713 cumulative IPC: 1.90519 (Simulation time: 0 hr 19 min 8 sec) 
select_counter is 989
Heartbeat CPU 0 instructions: 47000000 cycles: 24668167 heartbeat IPC: 1.9098 cumulative IPC: 1.90529 (Simulation time: 0 hr 19 min 30 sec) 
select_counter is 1023
Heartbeat CPU 0 instructions: 48000000 cycles: 25188502 heartbeat IPC: 1.92184 cumulative IPC: 1.90563 (Simulation time: 0 hr 19 min 54 sec) 
select_counter is 1023
Heartbeat CPU 0 instructions: 49000003 cycles: 25714423 heartbeat IPC: 1.90143 cumulative IPC: 1.90555 (Simulation time: 0 hr 20 min 17 sec) 
select_counter is 1020
Heartbeat CPU 0 instructions: 50000001 cycles: 26241026 heartbeat IPC: 1.89896 cumulative IPC: 1.90541 (Simulation time: 0 hr 20 min 39 sec) 
select_counter is 1023

Warmup complete CPU 0 instructions: 50000001 cycles: 26241026 (Simulation time: 0 hr 20 min 39 sec) 

Heartbeat CPU 0 instructions: 51000003 cycles: 28166886 heartbeat IPC: 0.51925 cumulative IPC: 0.51925 (Simulation time: 0 hr 21 min 5 sec) 
select_counter is 1023
Heartbeat CPU 0 instructions: 52000000 cycles: 30171963 heartbeat IPC: 0.498732 cumulative IPC: 0.508784 (Simulation time: 0 hr 21 min 30 sec) 
select_counter is 1023
Heartbeat CPU 0 instructions: 53000001 cycles: 32128224 heartbeat IPC: 0.51118 cumulative IPC: 0.50958 (Simulation time: 0 hr 21 min 56 sec) 
select_counter is 1021
Heartbeat CPU 0 instructions: 54000003 cycles: 34017974 heartbeat IPC: 0.529172 cumulative IPC: 0.514341 (Simulation time: 0 hr 22 min 23 sec) 
select_counter is 1023
Heartbeat CPU 0 instructions: 55000000 cycles: 35884372 heartbeat IPC: 0.53579 cumulative IPC: 0.518492 (Simulation time: 0 hr 22 min 50 sec) 
select_counter is 1023
Heartbeat CPU 0 instructions: 56000000 cycles: 37765326 heartbeat IPC: 0.531645 cumulative IPC: 0.520639 (Simulation time: 0 hr 23 min 17 sec) 
select_counter is 1023
Heartbeat CPU 0 instructions: 57000000 cycles: 39623008 heartbeat IPC: 0.538305 cumulative IPC: 0.523091 (Simulation time: 0 hr 23 min 45 sec) 
select_counter is 1023
Heartbeat CPU 0 instructions: 58000001 cycles: 41536289 heartbeat IPC: 0.522663 cumulative IPC: 0.523038 (Simulation time: 0 hr 24 min 16 sec) 
select_counter is 1020
Heartbeat CPU 0 instructions: 59000003 cycles: 43421637 heartbeat IPC: 0.530407 cumulative IPC: 0.523846 (Simulation time: 0 hr 24 min 45 sec) 
select_counter is 1023
Heartbeat CPU 0 instructions: 60000000 cycles: 45300326 heartbeat IPC: 0.532284 cumulative IPC: 0.524678 (Simulation time: 0 hr 25 min 13 sec) 
select_counter is 1023
Heartbeat CPU 0 instructions: 61000002 cycles: 47185679 heartbeat IPC: 0.530406 cumulative IPC: 0.525194 (Simulation time: 0 hr 25 min 42 sec) 
select_counter is 1023
Heartbeat CPU 0 instructions: 62000001 cycles: 49076899 heartbeat IPC: 0.528759 cumulative IPC: 0.525489 (Simulation time: 0 hr 26 min 10 sec) 
select_counter is 1023
Heartbeat CPU 0 instructions: 63000001 cycles: 51107600 heartbeat IPC: 0.492441 cumulative IPC: 0.52279 (Simulation time: 0 hr 26 min 35 sec) 
select_counter is 1023
Heartbeat CPU 0 instructions: 64000000 cycles: 53055528 heartbeat IPC: 0.513366 cumulative IPC: 0.522106 (Simulation time: 0 hr 27 min 1 sec) 
select_counter is 1023
Heartbeat CPU 0 instructions: 65000000 cycles: 54990122 heartbeat IPC: 0.516904 cumulative IPC: 0.521756 (Simulation time: 0 hr 27 min 27 sec) 
select_counter is 1022
Heartbeat CPU 0 instructions: 66000000 cycles: 56926542 heartbeat IPC: 0.516417 cumulative IPC: 0.521419 (Simulation time: 0 hr 27 min 52 sec) 
select_counter is 1022
Heartbeat CPU 0 instructions: 67000003 cycles: 58852597 heartbeat IPC: 0.519198 cumulative IPC: 0.521287 (Simulation time: 0 hr 28 min 17 sec) 
select_counter is 1023
Heartbeat CPU 0 instructions: 68000000 cycles: 60774069 heartbeat IPC: 0.520433 cumulative IPC: 0.52124 (Simulation time: 0 hr 28 min 43 sec) 
select_counter is 1023
Heartbeat CPU 0 instructions: 69000000 cycles: 62700190 heartbeat IPC: 0.519178 cumulative IPC: 0.521131 (Simulation time: 0 hr 29 min 8 sec) 
select_counter is 1022
Heartbeat CPU 0 instructions: 70000003 cycles: 64641035 heartbeat IPC: 0.515241 cumulative IPC: 0.520833 (Simulation time: 0 hr 29 min 32 sec) 
select_counter is 1023
Heartbeat CPU 0 instructions: 71000001 cycles: 66587616 heartbeat IPC: 0.51372 cumulative IPC: 0.52049 (Simulation time: 0 hr 29 min 57 sec) 
select_counter is 1021
Heartbeat CPU 0 instructions: 72000000 cycles: 68531657 heartbeat IPC: 0.514392 cumulative IPC: 0.52021 (Simulation time: 0 hr 30 min 21 sec) 
select_counter is 1023
Heartbeat CPU 0 instructions: 73000000 cycles: 70473123 heartbeat IPC: 0.515075 cumulative IPC: 0.519984 (Simulation time: 0 hr 30 min 50 sec) 
select_counter is 1023
Heartbeat CPU 0 instructions: 74000000 cycles: 72405460 heartbeat IPC: 0.517508 cumulative IPC: 0.519881 (Simulation time: 0 hr 31 min 18 sec) 
select_counter is 1023
Heartbeat CPU 0 instructions: 75000001 cycles: 74309492 heartbeat IPC: 0.525202 cumulative IPC: 0.520091 (Simulation time: 0 hr 31 min 45 sec) 
select_counter is 1022
Heartbeat CPU 0 instructions: 76000000 cycles: 76235155 heartbeat IPC: 0.519301 cumulative IPC: 0.520061 (Simulation time: 0 hr 32 min 12 sec) 
select_counter is 1023
Heartbeat CPU 0 instructions: 77000001 cycles: 78260484 heartbeat IPC: 0.493747 cumulative IPC: 0.519037 (Simulation time: 0 hr 32 min 36 sec) 
select_counter is 1022
Heartbeat CPU 0 instructions: 78000000 cycles: 80216779 heartbeat IPC: 0.51117 cumulative IPC: 0.518751 (Simulation time: 0 hr 33 min 2 sec) 
select_counter is 1022
Heartbeat CPU 0 instructions: 79000003 cycles: 82239158 heartbeat IPC: 0.494469 cumulative IPC: 0.517874 (Simulation time: 0 hr 33 min 30 sec) 
select_counter is 1019
Heartbeat CPU 0 instructions: 80000000 cycles: 84325980 heartbeat IPC: 0.479196 cumulative IPC: 0.516485 (Simulation time: 0 hr 33 min 54 sec) 
select_counter is 1023
Heartbeat CPU 0 instructions: 81000003 cycles: 86396981 heartbeat IPC: 0.48286 cumulative IPC: 0.515327 (Simulation time: 0 hr 34 min 29 sec) 
select_counter is 1019
Heartbeat CPU 0 instructions: 82000000 cycles: 88431881 heartbeat IPC: 0.491423 cumulative IPC: 0.514545 (Simulation time: 0 hr 34 min 57 sec) 
select_counter is 1022
Heartbeat CPU 0 instructions: 83000000 cycles: 90416726 heartbeat IPC: 0.503818 cumulative IPC: 0.514213 (Simulation time: 0 hr 35 min 22 sec) 
select_counter is 1023
Heartbeat CPU 0 instructions: 84000000 cycles: 92391562 heartbeat IPC: 0.506371 cumulative IPC: 0.513979 (Simulation time: 0 hr 35 min 45 sec) 
select_counter is 1019
Heartbeat CPU 0 instructions: 85000001 cycles: 94358280 heartbeat IPC: 0.508462 cumulative IPC: 0.51382 (Simulation time: 0 hr 36 min 11 sec) 
select_counter is 1023
Heartbeat CPU 0 instructions: 86000002 cycles: 96315892 heartbeat IPC: 0.510827 cumulative IPC: 0.513736 (Simulation time: 0 hr 36 min 37 sec) 
select_counter is 1022
Heartbeat CPU 0 instructions: 87000000 cycles: 98301682 heartbeat IPC: 0.503577 cumulative IPC: 0.513456 (Simulation time: 0 hr 37 min 1 sec) 
select_counter is 1023
Heartbeat CPU 0 instructions: 88000000 cycles: 100338103 heartbeat IPC: 0.491058 cumulative IPC: 0.512841 (Simulation time: 0 hr 37 min 28 sec) 
select_counter is 1022
Heartbeat CPU 0 instructions: 89000003 cycles: 102321400 heartbeat IPC: 0.504212 cumulative IPC: 0.512616 (Simulation time: 0 hr 37 min 53 sec) 
select_counter is 1023
Heartbeat CPU 0 instructions: 90000000 cycles: 104293219 heartbeat IPC: 0.507144 cumulative IPC: 0.512478 (Simulation time: 0 hr 38 min 19 sec) 
select_counter is 1023
Heartbeat CPU 0 instructions: 91000000 cycles: 106271519 heartbeat IPC: 0.505485 cumulative IPC: 0.512305 (Simulation time: 0 hr 38 min 49 sec) 
select_counter is 1021
Heartbeat CPU 0 instructions: 92000000 cycles: 108254332 heartbeat IPC: 0.504334 cumulative IPC: 0.512112 (Simulation time: 0 hr 39 min 16 sec) 
select_counter is 1022
Heartbeat CPU 0 instructions: 93000003 cycles: 110205241 heartbeat IPC: 0.512583 cumulative IPC: 0.512123 (Simulation time: 0 hr 39 min 43 sec) 
select_counter is 1023
Heartbeat CPU 0 instructions: 94000000 cycles: 112139197 heartbeat IPC: 0.517073 cumulative IPC: 0.512234 (Simulation time: 0 hr 40 min 9 sec) 
select_counter is 1023
Heartbeat CPU 0 instructions: 95000000 cycles: 114102773 heartbeat IPC: 0.509275 cumulative IPC: 0.512168 (Simulation time: 0 hr 40 min 35 sec) 
select_counter is 1021
Heartbeat CPU 0 instructions: 96000000 cycles: 116098117 heartbeat IPC: 0.501167 cumulative IPC: 0.511924 (Simulation time: 0 hr 41 min 3 sec) 
select_counter is 1021
Heartbeat CPU 0 instructions: 97000000 cycles: 118100126 heartbeat IPC: 0.499498 cumulative IPC: 0.511653 (Simulation time: 0 hr 41 min 29 sec) 
select_counter is 1022
Heartbeat CPU 0 instructions: 98000000 cycles: 120078975 heartbeat IPC: 0.505344 cumulative IPC: 0.51152 (Simulation time: 0 hr 41 min 55 sec) 
select_counter is 1023
Heartbeat CPU 0 instructions: 99000000 cycles: 122141268 heartbeat IPC: 0.484897 cumulative IPC: 0.510948 (Simulation time: 0 hr 42 min 21 sec) 
select_counter is 1022
Heartbeat CPU 0 instructions: 100000000 cycles: 124141720 heartbeat IPC: 0.499887 cumulative IPC: 0.510722 (Simulation time: 0 hr 42 min 46 sec) 
select_counter is 1018
Heartbeat CPU 0 instructions: 101000000 cycles: 126169545 heartbeat IPC: 0.493139 cumulative IPC: 0.510365 (Simulation time: 0 hr 43 min 12 sec) 
select_counter is 1022
Heartbeat CPU 0 instructions: 102000003 cycles: 128163131 heartbeat IPC: 0.50161 cumulative IPC: 0.510194 (Simulation time: 0 hr 43 min 41 sec) 
select_counter is 1022
Heartbeat CPU 0 instructions: 103000000 cycles: 130110480 heartbeat IPC: 0.513517 cumulative IPC: 0.510256 (Simulation time: 0 hr 44 min 9 sec) 
select_counter is 1021
Heartbeat CPU 0 instructions: 104000000 cycles: 132051298 heartbeat IPC: 0.515247 cumulative IPC: 0.510347 (Simulation time: 0 hr 44 min 35 sec) 
select_counter is 1022
Heartbeat CPU 0 instructions: 105000002 cycles: 133986518 heartbeat IPC: 0.516738 cumulative IPC: 0.510462 (Simulation time: 0 hr 45 min 1 sec) 
select_counter is 1021
Heartbeat CPU 0 instructions: 106000003 cycles: 135912329 heartbeat IPC: 0.519262 cumulative IPC: 0.510617 (Simulation time: 0 hr 45 min 27 sec) 
select_counter is 1023
Heartbeat CPU 0 instructions: 107000000 cycles: 137851288 heartbeat IPC: 0.515739 cumulative IPC: 0.510706 (Simulation time: 0 hr 45 min 54 sec) 
select_counter is 1023
Heartbeat CPU 0 instructions: 108000000 cycles: 139911272 heartbeat IPC: 0.485441 cumulative IPC: 0.510248 (Simulation time: 0 hr 46 min 16 sec) 
select_counter is 1023
Heartbeat CPU 0 instructions: 109000003 cycles: 141936700 heartbeat IPC: 0.493724 cumulative IPC: 0.509959 (Simulation time: 0 hr 46 min 40 sec) 
select_counter is 1023
Heartbeat CPU 0 instructions: 110000002 cycles: 143927084 heartbeat IPC: 0.502415 cumulative IPC: 0.509831 (Simulation time: 0 hr 47 min 4 sec) 
select_counter is 1022
Heartbeat CPU 0 instructions: 111000002 cycles: 145915814 heartbeat IPC: 0.502833 cumulative IPC: 0.509715 (Simulation time: 0 hr 47 min 30 sec) 
select_counter is 989
Heartbeat CPU 0 instructions: 112000000 cycles: 147913152 heartbeat IPC: 0.500665 cumulative IPC: 0.509566 (Simulation time: 0 hr 47 min 56 sec) 
select_counter is 946
Heartbeat CPU 0 instructions: 113000000 cycles: 149887072 heartbeat IPC: 0.506606 cumulative IPC: 0.509519 (Simulation time: 0 hr 48 min 23 sec) 
select_counter is 964
Heartbeat CPU 0 instructions: 114000001 cycles: 151879140 heartbeat IPC: 0.501991 cumulative IPC: 0.5094 (Simulation time: 0 hr 48 min 50 sec) 
select_counter is 998
Heartbeat CPU 0 instructions: 115000000 cycles: 153876386 heartbeat IPC: 0.500689 cumulative IPC: 0.509263 (Simulation time: 0 hr 49 min 17 sec) 
select_counter is 976
Heartbeat CPU 0 instructions: 116000000 cycles: 155901571 heartbeat IPC: 0.493782 cumulative IPC: 0.509021 (Simulation time: 0 hr 49 min 42 sec) 
select_counter is 989
Heartbeat CPU 0 instructions: 117000000 cycles: 157957166 heartbeat IPC: 0.486477 cumulative IPC: 0.50867 (Simulation time: 0 hr 50 min 8 sec) 
select_counter is 1023
Heartbeat CPU 0 instructions: 118000002 cycles: 160048670 heartbeat IPC: 0.478126 cumulative IPC: 0.508192 (Simulation time: 0 hr 50 min 33 sec) 
select_counter is 1022
Heartbeat CPU 0 instructions: 119000001 cycles: 162104636 heartbeat IPC: 0.486389 cumulative IPC: 0.507862 (Simulation time: 0 hr 50 min 58 sec) 
select_counter is 1022
Heartbeat CPU 0 instructions: 120000000 cycles: 164118286 heartbeat IPC: 0.49661 cumulative IPC: 0.507698 (Simulation time: 0 hr 51 min 23 sec) 
select_counter is 1023
Heartbeat CPU 0 instructions: 121000000 cycles: 166167649 heartbeat IPC: 0.487956 cumulative IPC: 0.507409 (Simulation time: 0 hr 51 min 47 sec) 
select_counter is 1021
Heartbeat CPU 0 instructions: 122000001 cycles: 168285253 heartbeat IPC: 0.472232 cumulative IPC: 0.506884 (Simulation time: 0 hr 52 min 9 sec) 
select_counter is 1018
Heartbeat CPU 0 instructions: 123000000 cycles: 170333364 heartbeat IPC: 0.488254 cumulative IPC: 0.50662 (Simulation time: 0 hr 52 min 37 sec) 
select_counter is 1012
Heartbeat CPU 0 instructions: 124000000 cycles: 172324157 heartbeat IPC: 0.502312 cumulative IPC: 0.506561 (Simulation time: 0 hr 53 min 3 sec) 
select_counter is 1019
Heartbeat CPU 0 instructions: 125000001 cycles: 174301240 heartbeat IPC: 0.505796 cumulative IPC: 0.506551 (Simulation time: 0 hr 53 min 26 sec) 
select_counter is 1016
Heartbeat CPU 0 instructions: 126000000 cycles: 176288757 heartbeat IPC: 0.50314 cumulative IPC: 0.506505 (Simulation time: 0 hr 53 min 58 sec) 
select_counter is 1011
Heartbeat CPU 0 instructions: 127000001 cycles: 178287143 heartbeat IPC: 0.500404 cumulative IPC: 0.506425 (Simulation time: 0 hr 54 min 22 sec) 
select_counter is 1013
Heartbeat CPU 0 instructions: 128000000 cycles: 180308046 heartbeat IPC: 0.494828 cumulative IPC: 0.506273 (Simulation time: 0 hr 54 min 43 sec) 
select_counter is 994
Heartbeat CPU 0 instructions: 129000000 cycles: 182349086 heartbeat IPC: 0.489946 cumulative IPC: 0.50606 (Simulation time: 0 hr 55 min 6 sec) 
select_counter is 1020
Heartbeat CPU 0 instructions: 130000002 cycles: 184362546 heartbeat IPC: 0.496658 cumulative IPC: 0.50594 (Simulation time: 0 hr 55 min 26 sec) 
select_counter is 1022
Heartbeat CPU 0 instructions: 131000001 cycles: 186341355 heartbeat IPC: 0.505354 cumulative IPC: 0.505933 (Simulation time: 0 hr 55 min 48 sec) 
select_counter is 1013
Heartbeat CPU 0 instructions: 132000000 cycles: 188339274 heartbeat IPC: 0.50052 cumulative IPC: 0.505866 (Simulation time: 0 hr 56 min 16 sec) 
select_counter is 1022
Heartbeat CPU 0 instructions: 133000001 cycles: 190344491 heartbeat IPC: 0.4987 cumulative IPC: 0.505778 (Simulation time: 0 hr 56 min 41 sec) 
select_counter is 1019
Heartbeat CPU 0 instructions: 134000002 cycles: 192329307 heartbeat IPC: 0.503826 cumulative IPC: 0.505755 (Simulation time: 0 hr 57 min 2 sec) 
select_counter is 1019
Heartbeat CPU 0 instructions: 135000003 cycles: 194330552 heartbeat IPC: 0.499689 cumulative IPC: 0.505683 (Simulation time: 0 hr 57 min 23 sec) 
select_counter is 1012
Heartbeat CPU 0 instructions: 136000000 cycles: 196315934 heartbeat IPC: 0.50368 cumulative IPC: 0.50566 (Simulation time: 0 hr 57 min 42 sec) 
select_counter is 1011
Heartbeat CPU 0 instructions: 137000000 cycles: 198285076 heartbeat IPC: 0.507835 cumulative IPC: 0.505684 (Simulation time: 0 hr 57 min 59 sec) 
select_counter is 1020
Heartbeat CPU 0 instructions: 138000003 cycles: 200273317 heartbeat IPC: 0.502959 cumulative IPC: 0.505653 (Simulation time: 0 hr 58 min 16 sec) 
select_counter is 1023
Heartbeat CPU 0 instructions: 139000000 cycles: 202287175 heartbeat IPC: 0.496558 cumulative IPC: 0.505549 (Simulation time: 0 hr 58 min 32 sec) 
select_counter is 1023
Heartbeat CPU 0 instructions: 140000000 cycles: 204312562 heartbeat IPC: 0.493733 cumulative IPC: 0.505415 (Simulation time: 0 hr 58 min 48 sec) 
select_counter is 1023
Heartbeat CPU 0 instructions: 141000002 cycles: 206303609 heartbeat IPC: 0.502249 cumulative IPC: 0.50538 (Simulation time: 0 hr 59 min 2 sec) 
select_counter is 1019
Heartbeat CPU 0 instructions: 142000002 cycles: 208281131 heartbeat IPC: 0.505683 cumulative IPC: 0.505383 (Simulation time: 0 hr 59 min 17 sec) 
select_counter is 1023
Heartbeat CPU 0 instructions: 143000002 cycles: 210275674 heartbeat IPC: 0.501368 cumulative IPC: 0.50534 (Simulation time: 0 hr 59 min 31 sec) 
select_counter is 1021
Heartbeat CPU 0 instructions: 144000000 cycles: 212282092 heartbeat IPC: 0.4984 cumulative IPC: 0.505265 (Simulation time: 0 hr 59 min 44 sec) 
select_counter is 1020
Heartbeat CPU 0 instructions: 145000001 cycles: 214365626 heartbeat IPC: 0.479954 cumulative IPC: 0.504984 (Simulation time: 0 hr 59 min 58 sec) 
select_counter is 1001
Heartbeat CPU 0 instructions: 146000000 cycles: 216534663 heartbeat IPC: 0.461034 cumulative IPC: 0.504484 (Simulation time: 1 hr 0 min 10 sec) 
select_counter is 990
Heartbeat CPU 0 instructions: 147000000 cycles: 218645986 heartbeat IPC: 0.473637 cumulative IPC: 0.504145 (Simulation time: 1 hr 0 min 22 sec) 
select_counter is 966
Heartbeat CPU 0 instructions: 148000000 cycles: 220776100 heartbeat IPC: 0.469458 cumulative IPC: 0.503765 (Simulation time: 1 hr 0 min 34 sec) 
select_counter is 970
Heartbeat CPU 0 instructions: 149000000 cycles: 222879424 heartbeat IPC: 0.475438 cumulative IPC: 0.503462 (Simulation time: 1 hr 0 min 46 sec) 
select_counter is 964
Heartbeat CPU 0 instructions: 150000000 cycles: 225017507 heartbeat IPC: 0.467709 cumulative IPC: 0.503078 (Simulation time: 1 hr 0 min 58 sec) 
select_counter is 958
Finished CPU 0 instructions: 100000003 cycles: 198776482 cummulative IPC: 0.503078 (Simulation time: 1 hr 0 min 58 sec) 

ChampSim completed all CPUs

Region of Interest Statistics

CPU 0 cummulative IPC: 0.503078 instructions: 100000003 cycles: 198776482
LLC TOTAL     ACCESS:     477001  HIT:     303948  MISS:     173053
LLC LOAD      ACCESS:     104810  HIT:      73900  MISS:      30910
LLC RFO       ACCESS:      70517  HIT:      41022  MISS:      29495
LLC PREFETCH  ACCESS:     138016  HIT:      53403  MISS:      84613
LLC WRITEBACK ACCESS:     163658  HIT:     135623  MISS:      28035
Ship samples: 
3, 48, 69, 115, 157, 181, 211, 248, 276, 289, 325, 356, 410, 416, 453, 506, 518, 556, 585, 608, 648, 687, 715, 750, 795, 825, 833, 888, 920, 937, 969, 1013, 1052, 1064, 1096, 1122, 1180, 1195, 1227, 1275, 1302, 1316, 1355, 1402, 1419, 1458, 1491, 1524, 1543, 1588, 1604, 1663, 1672, 1704, 1732, 1786, 1815, 1841, 1883, 1894, 1935, 1980, 2015, 2034, 
Lime duel samples: 
22, 33, 91, 100, 155, 183, 192, 242, 266, 296, 334, 354, 414, 418, 471, 502, 519, 565, 587, 616, 669, 691, 730, 762, 787, 828, 861, 887, 899, 943, 974, 1008, 1055, 1056, 1092, 1128, 1168, 1201, 1223, 1273, 1287, 1332, 1367, 1404, 1411, 1443, 1493, 1511, 1552, 1596, 1615, 1654, 1664, 1706, 1747, 1763, 1818, 1855, 1858, 1899, 1927, 1976, 1986, 2032, 
Lime samples: 
22, 100, 192, 296, 414, 502, 587, 691, 787, 887, 974, 1056, 1168, 1273, 1367, 1443, 1552, 1654, 1747, 1855, 1927, 
Insertion Distribution: 
	LOAD 13387 0 0 0 0 0 18732 9531 
	RFO 855 0 0 0 0 0 3081 12553 
	PREF 0 6427 0 0 0 0 11266 47547 
	WRITEBACK 0 0 0 0 0 0 0 27195 
Total Prefetch Downgrades: 3963
