
*** ChampSim Multicore Out-of-Order Simulator ***

Warmup Instructions: 50000000
Simulation Instructions: 100000000
Configuration: 2
Number of CPUs: 1
LLC sets: 2048
LLC ways: 16
Off-chip DRAM Channels: 1 Width: 64-bit Data Rate: 1600 MT/s

CPU 0 runs /datasets/cs240c-wi22-a00-public/data/Assignment2-gz/sphinx3_883B.trace.gz
CPU 0 L1D next line prefetcher
CPU 0 L2C IP-based stride prefetcher
Heartbeat CPU 0 instructions: 1000003 cycles: 414356 heartbeat IPC: 2.41339 cumulative IPC: 2.41339 (Simulation time: 0 hr 0 min 29 sec) 
select_counter is 502
Heartbeat CPU 0 instructions: 2000000 cycles: 823899 heartbeat IPC: 2.44174 cumulative IPC: 2.42748 (Simulation time: 0 hr 1 min 0 sec) 
select_counter is 504
Heartbeat CPU 0 instructions: 3000003 cycles: 1298758 heartbeat IPC: 2.10589 cumulative IPC: 2.3099 (Simulation time: 0 hr 1 min 20 sec) 
select_counter is 455
Heartbeat CPU 0 instructions: 4000000 cycles: 1637648 heartbeat IPC: 2.9508 cumulative IPC: 2.44253 (Simulation time: 0 hr 1 min 41 sec) 
select_counter is 457
Heartbeat CPU 0 instructions: 5000000 cycles: 1992310 heartbeat IPC: 2.81959 cumulative IPC: 2.50965 (Simulation time: 0 hr 2 min 5 sec) 
select_counter is 464
Heartbeat CPU 0 instructions: 6000003 cycles: 2406673 heartbeat IPC: 2.41335 cumulative IPC: 2.49307 (Simulation time: 0 hr 2 min 30 sec) 
select_counter is 561
Heartbeat CPU 0 instructions: 7000002 cycles: 2815507 heartbeat IPC: 2.44598 cumulative IPC: 2.48623 (Simulation time: 0 hr 2 min 59 sec) 
select_counter is 621
Heartbeat CPU 0 instructions: 8000000 cycles: 3291557 heartbeat IPC: 2.10062 cumulative IPC: 2.43046 (Simulation time: 0 hr 3 min 21 sec) 
select_counter is 496
Heartbeat CPU 0 instructions: 9000001 cycles: 3630556 heartbeat IPC: 2.94986 cumulative IPC: 2.47896 (Simulation time: 0 hr 3 min 41 sec) 
select_counter is 171
Heartbeat CPU 0 instructions: 10000000 cycles: 3984647 heartbeat IPC: 2.82413 cumulative IPC: 2.50963 (Simulation time: 0 hr 4 min 2 sec) 
select_counter is 132
Heartbeat CPU 0 instructions: 11000000 cycles: 4399153 heartbeat IPC: 2.41251 cumulative IPC: 2.50048 (Simulation time: 0 hr 4 min 28 sec) 
select_counter is 252
Heartbeat CPU 0 instructions: 12000000 cycles: 4812074 heartbeat IPC: 2.42177 cumulative IPC: 2.49373 (Simulation time: 0 hr 4 min 52 sec) 
select_counter is 289
Heartbeat CPU 0 instructions: 13000001 cycles: 5277829 heartbeat IPC: 2.14705 cumulative IPC: 2.46313 (Simulation time: 0 hr 5 min 14 sec) 
select_counter is 185
Heartbeat CPU 0 instructions: 14000001 cycles: 5631638 heartbeat IPC: 2.82638 cumulative IPC: 2.48596 (Simulation time: 0 hr 5 min 33 sec) 
select_counter is 940
Heartbeat CPU 0 instructions: 15000000 cycles: 5978281 heartbeat IPC: 2.88481 cumulative IPC: 2.50908 (Simulation time: 0 hr 5 min 56 sec) 
select_counter is 865
Heartbeat CPU 0 instructions: 16000000 cycles: 6391822 heartbeat IPC: 2.41814 cumulative IPC: 2.5032 (Simulation time: 0 hr 6 min 22 sec) 
select_counter is 936
Heartbeat CPU 0 instructions: 17000000 cycles: 6803873 heartbeat IPC: 2.42688 cumulative IPC: 2.49858 (Simulation time: 0 hr 6 min 49 sec) 
select_counter is 974
Heartbeat CPU 0 instructions: 18000000 cycles: 7220365 heartbeat IPC: 2.40101 cumulative IPC: 2.49295 (Simulation time: 0 hr 7 min 14 sec) 
select_counter is 911
Heartbeat CPU 0 instructions: 19000003 cycles: 7634910 heartbeat IPC: 2.41229 cumulative IPC: 2.48857 (Simulation time: 0 hr 7 min 36 sec) 
select_counter is 706
Heartbeat CPU 0 instructions: 20000000 cycles: 7973859 heartbeat IPC: 2.95029 cumulative IPC: 2.5082 (Simulation time: 0 hr 7 min 59 sec) 
select_counter is 594
Heartbeat CPU 0 instructions: 21000000 cycles: 8383486 heartbeat IPC: 2.44125 cumulative IPC: 2.50492 (Simulation time: 0 hr 8 min 29 sec) 
select_counter is 634
Heartbeat CPU 0 instructions: 22000003 cycles: 8797030 heartbeat IPC: 2.41813 cumulative IPC: 2.50084 (Simulation time: 0 hr 8 min 55 sec) 
select_counter is 667
Heartbeat CPU 0 instructions: 23000003 cycles: 9207429 heartbeat IPC: 2.43665 cumulative IPC: 2.49798 (Simulation time: 0 hr 9 min 19 sec) 
select_counter is 674
Heartbeat CPU 0 instructions: 24000000 cycles: 9658108 heartbeat IPC: 2.21887 cumulative IPC: 2.48496 (Simulation time: 0 hr 9 min 41 sec) 
select_counter is 559
Heartbeat CPU 0 instructions: 25000000 cycles: 9997145 heartbeat IPC: 2.94953 cumulative IPC: 2.50071 (Simulation time: 0 hr 10 min 3 sec) 
select_counter is 377
Heartbeat CPU 0 instructions: 26000001 cycles: 10374316 heartbeat IPC: 2.65132 cumulative IPC: 2.50619 (Simulation time: 0 hr 10 min 28 sec) 
select_counter is 370
Heartbeat CPU 0 instructions: 27000001 cycles: 10789361 heartbeat IPC: 2.40938 cumulative IPC: 2.50247 (Simulation time: 0 hr 10 min 52 sec) 
select_counter is 398
Heartbeat CPU 0 instructions: 28000000 cycles: 11204399 heartbeat IPC: 2.40942 cumulative IPC: 2.49902 (Simulation time: 0 hr 11 min 17 sec) 
select_counter is 401
Heartbeat CPU 0 instructions: 29000003 cycles: 11667870 heartbeat IPC: 2.15764 cumulative IPC: 2.48546 (Simulation time: 0 hr 11 min 38 sec) 
select_counter is 329
Heartbeat CPU 0 instructions: 30000000 cycles: 12006786 heartbeat IPC: 2.95057 cumulative IPC: 2.49859 (Simulation time: 0 hr 12 min 1 sec) 
select_counter is 143
Heartbeat CPU 0 instructions: 31000003 cycles: 12370105 heartbeat IPC: 2.75241 cumulative IPC: 2.50604 (Simulation time: 0 hr 12 min 25 sec) 
select_counter is 125
Heartbeat CPU 0 instructions: 32000000 cycles: 12785128 heartbeat IPC: 2.4095 cumulative IPC: 2.50291 (Simulation time: 0 hr 12 min 52 sec) 
select_counter is 168
Heartbeat CPU 0 instructions: 33000001 cycles: 13194740 heartbeat IPC: 2.44134 cumulative IPC: 2.501 (Simulation time: 0 hr 13 min 21 sec) 
select_counter is 173
Heartbeat CPU 0 instructions: 34000000 cycles: 13669063 heartbeat IPC: 2.10827 cumulative IPC: 2.48737 (Simulation time: 0 hr 13 min 49 sec) 
select_counter is 113
Heartbeat CPU 0 instructions: 35000000 cycles: 14008027 heartbeat IPC: 2.95017 cumulative IPC: 2.49857 (Simulation time: 0 hr 14 min 14 sec) 
select_counter is 1002
Heartbeat CPU 0 instructions: 36000000 cycles: 14366366 heartbeat IPC: 2.79065 cumulative IPC: 2.50585 (Simulation time: 0 hr 14 min 35 sec) 
select_counter is 992
Heartbeat CPU 0 instructions: 37000001 cycles: 14782355 heartbeat IPC: 2.40391 cumulative IPC: 2.50298 (Simulation time: 0 hr 15 min 0 sec) 
select_counter is 1009
Heartbeat CPU 0 instructions: 38000000 cycles: 15191953 heartbeat IPC: 2.44142 cumulative IPC: 2.50132 (Simulation time: 0 hr 15 min 24 sec) 
select_counter is 996
Heartbeat CPU 0 instructions: 39000002 cycles: 15667122 heartbeat IPC: 2.10452 cumulative IPC: 2.48929 (Simulation time: 0 hr 15 min 43 sec) 
select_counter is 884
Heartbeat CPU 0 instructions: 40000000 cycles: 16006101 heartbeat IPC: 2.95003 cumulative IPC: 2.49905 (Simulation time: 0 hr 16 min 3 sec) 
select_counter is 749
Heartbeat CPU 0 instructions: 41000003 cycles: 16363411 heartbeat IPC: 2.7987 cumulative IPC: 2.50559 (Simulation time: 0 hr 16 min 25 sec) 
select_counter is 732
Heartbeat CPU 0 instructions: 42000000 cycles: 16779549 heartbeat IPC: 2.40304 cumulative IPC: 2.50305 (Simulation time: 0 hr 16 min 49 sec) 
select_counter is 752
Heartbeat CPU 0 instructions: 43000001 cycles: 17191010 heartbeat IPC: 2.43037 cumulative IPC: 2.50131 (Simulation time: 0 hr 17 min 13 sec) 
select_counter is 757
Heartbeat CPU 0 instructions: 44000000 cycles: 17661871 heartbeat IPC: 2.12377 cumulative IPC: 2.49124 (Simulation time: 0 hr 17 min 35 sec) 
select_counter is 647
Heartbeat CPU 0 instructions: 45000001 cycles: 18000862 heartbeat IPC: 2.94993 cumulative IPC: 2.49988 (Simulation time: 0 hr 17 min 57 sec) 
select_counter is 526
Heartbeat CPU 0 instructions: 46000001 cycles: 18361205 heartbeat IPC: 2.77513 cumulative IPC: 2.50528 (Simulation time: 0 hr 18 min 21 sec) 
select_counter is 522
Heartbeat CPU 0 instructions: 47000003 cycles: 18775818 heartbeat IPC: 2.41189 cumulative IPC: 2.50322 (Simulation time: 0 hr 18 min 47 sec) 
select_counter is 551
Heartbeat CPU 0 instructions: 48000000 cycles: 19191817 heartbeat IPC: 2.40384 cumulative IPC: 2.50107 (Simulation time: 0 hr 19 min 10 sec) 
select_counter is 562
Heartbeat CPU 0 instructions: 49000001 cycles: 19649954 heartbeat IPC: 2.18276 cumulative IPC: 2.49364 (Simulation time: 0 hr 19 min 32 sec) 
select_counter is 458
Heartbeat CPU 0 instructions: 50000003 cycles: 19988905 heartbeat IPC: 2.95028 cumulative IPC: 2.50139 (Simulation time: 0 hr 19 min 53 sec) 
select_counter is 353

Warmup complete CPU 0 instructions: 50000003 cycles: 19988905 (Simulation time: 0 hr 19 min 53 sec) 

Heartbeat CPU 0 instructions: 51000003 cycles: 21120349 heartbeat IPC: 0.883826 cumulative IPC: 0.883826 (Simulation time: 0 hr 20 min 19 sec) 
select_counter is 355
Heartbeat CPU 0 instructions: 52000000 cycles: 22673673 heartbeat IPC: 0.643779 cumulative IPC: 0.744942 (Simulation time: 0 hr 20 min 46 sec) 
select_counter is 381
Heartbeat CPU 0 instructions: 53000000 cycles: 24388987 heartbeat IPC: 0.582984 cumulative IPC: 0.681805 (Simulation time: 0 hr 21 min 12 sec) 
select_counter is 436
Heartbeat CPU 0 instructions: 54000003 cycles: 25714486 heartbeat IPC: 0.754435 cumulative IPC: 0.698619 (Simulation time: 0 hr 21 min 37 sec) 
select_counter is 592
Heartbeat CPU 0 instructions: 55000003 cycles: 26583588 heartbeat IPC: 1.15061 cumulative IPC: 0.758187 (Simulation time: 0 hr 22 min 2 sec) 
select_counter is 600
Heartbeat CPU 0 instructions: 56000000 cycles: 27453409 heartbeat IPC: 1.14966 cumulative IPC: 0.803804 (Simulation time: 0 hr 22 min 28 sec) 
select_counter is 534
Heartbeat CPU 0 instructions: 57000002 cycles: 28605791 heartbeat IPC: 0.86777 cumulative IPC: 0.812358 (Simulation time: 0 hr 22 min 53 sec) 
select_counter is 546
Heartbeat CPU 0 instructions: 58000001 cycles: 29632533 heartbeat IPC: 0.973954 cumulative IPC: 0.829563 (Simulation time: 0 hr 23 min 19 sec) 
select_counter is 466
Heartbeat CPU 0 instructions: 59000003 cycles: 30505878 heartbeat IPC: 1.14503 cumulative IPC: 0.85576 (Simulation time: 0 hr 23 min 43 sec) 
select_counter is 383
Heartbeat CPU 0 instructions: 60000000 cycles: 31402726 heartbeat IPC: 1.11501 cumulative IPC: 0.876131 (Simulation time: 0 hr 24 min 11 sec) 
select_counter is 373
Heartbeat CPU 0 instructions: 61000001 cycles: 32543629 heartbeat IPC: 0.8765 cumulative IPC: 0.876164 (Simulation time: 0 hr 24 min 39 sec) 
select_counter is 342
Heartbeat CPU 0 instructions: 62000001 cycles: 33377866 heartbeat IPC: 1.1987 cumulative IPC: 0.896261 (Simulation time: 0 hr 25 min 4 sec) 
select_counter is 244
Heartbeat CPU 0 instructions: 63000003 cycles: 34223257 heartbeat IPC: 1.18289 cumulative IPC: 0.913284 (Simulation time: 0 hr 25 min 29 sec) 
select_counter is 230
Heartbeat CPU 0 instructions: 64000000 cycles: 35457007 heartbeat IPC: 0.810535 cumulative IPC: 0.905088 (Simulation time: 0 hr 25 min 54 sec) 
select_counter is 213
Heartbeat CPU 0 instructions: 65000003 cycles: 36293793 heartbeat IPC: 1.19505 cumulative IPC: 0.919969 (Simulation time: 0 hr 26 min 16 sec) 
select_counter is 118
Heartbeat CPU 0 instructions: 66000002 cycles: 37134579 heartbeat IPC: 1.18936 cumulative IPC: 0.93318 (Simulation time: 0 hr 26 min 37 sec) 
select_counter is 59
Heartbeat CPU 0 instructions: 67000000 cycles: 38348996 heartbeat IPC: 0.823439 cumulative IPC: 0.925921 (Simulation time: 0 hr 27 min 2 sec) 
select_counter is 79
Heartbeat CPU 0 instructions: 68000000 cycles: 39914748 heartbeat IPC: 0.638671 cumulative IPC: 0.903349 (Simulation time: 0 hr 27 min 28 sec) 
select_counter is 39
Heartbeat CPU 0 instructions: 69000003 cycles: 40752355 heartbeat IPC: 1.19388 cumulative IPC: 0.91507 (Simulation time: 0 hr 27 min 54 sec) 
select_counter is 982
Heartbeat CPU 0 instructions: 70000000 cycles: 41591964 heartbeat IPC: 1.19103 cumulative IPC: 0.925795 (Simulation time: 0 hr 28 min 18 sec) 
select_counter is 902
Heartbeat CPU 0 instructions: 71000000 cycles: 42743078 heartbeat IPC: 0.868724 cumulative IPC: 0.922908 (Simulation time: 0 hr 28 min 43 sec) 
select_counter is 942
Heartbeat CPU 0 instructions: 72000000 cycles: 44202819 heartbeat IPC: 0.685053 cumulative IPC: 0.908568 (Simulation time: 0 hr 29 min 8 sec) 
select_counter is 926
Heartbeat CPU 0 instructions: 73000000 cycles: 45033510 heartbeat IPC: 1.20382 cumulative IPC: 0.918361 (Simulation time: 0 hr 29 min 32 sec) 
select_counter is 850
Heartbeat CPU 0 instructions: 74000000 cycles: 45884751 heartbeat IPC: 1.17476 cumulative IPC: 0.926789 (Simulation time: 0 hr 29 min 56 sec) 
select_counter is 792
Heartbeat CPU 0 instructions: 75000000 cycles: 47052241 heartbeat IPC: 0.856538 cumulative IPC: 0.923759 (Simulation time: 0 hr 30 min 21 sec) 
select_counter is 840
Heartbeat CPU 0 instructions: 76000000 cycles: 48310606 heartbeat IPC: 0.794682 cumulative IPC: 0.918024 (Simulation time: 0 hr 30 min 47 sec) 
select_counter is 791
Heartbeat CPU 0 instructions: 77000003 cycles: 49155535 heartbeat IPC: 1.18353 cumulative IPC: 0.925715 (Simulation time: 0 hr 31 min 12 sec) 
select_counter is 712
Heartbeat CPU 0 instructions: 78000000 cycles: 50007358 heartbeat IPC: 1.17395 cumulative IPC: 0.932759 (Simulation time: 0 hr 31 min 35 sec) 
select_counter is 683
Heartbeat CPU 0 instructions: 79000001 cycles: 51305655 heartbeat IPC: 0.770241 cumulative IPC: 0.926022 (Simulation time: 0 hr 32 min 5 sec) 
select_counter is 714
Heartbeat CPU 0 instructions: 80000000 cycles: 52430794 heartbeat IPC: 0.888778 cumulative IPC: 0.92473 (Simulation time: 0 hr 32 min 30 sec) 
select_counter is 677
Heartbeat CPU 0 instructions: 81000000 cycles: 53270867 heartbeat IPC: 1.19037 cumulative IPC: 0.931435 (Simulation time: 0 hr 32 min 52 sec) 
select_counter is 616
Heartbeat CPU 0 instructions: 82000000 cycles: 54104015 heartbeat IPC: 1.20027 cumulative IPC: 0.938001 (Simulation time: 0 hr 33 min 19 sec) 
select_counter is 618
Heartbeat CPU 0 instructions: 83000000 cycles: 55503402 heartbeat IPC: 0.714599 cumulative IPC: 0.929198 (Simulation time: 0 hr 33 min 44 sec) 
select_counter is 646
Heartbeat CPU 0 instructions: 84000000 cycles: 56400167 heartbeat IPC: 1.11512 cumulative IPC: 0.933777 (Simulation time: 0 hr 34 min 6 sec) 
select_counter is 556
Heartbeat CPU 0 instructions: 85000001 cycles: 57223306 heartbeat IPC: 1.21486 cumulative IPC: 0.939991 (Simulation time: 0 hr 34 min 30 sec) 
select_counter is 493
Heartbeat CPU 0 instructions: 86000001 cycles: 58245455 heartbeat IPC: 0.978331 cumulative IPC: 0.941015 (Simulation time: 0 hr 34 min 55 sec) 
select_counter is 538
Heartbeat CPU 0 instructions: 87000000 cycles: 59416753 heartbeat IPC: 0.853753 cumulative IPC: 0.938423 (Simulation time: 0 hr 35 min 20 sec) 
select_counter is 472
Heartbeat CPU 0 instructions: 88000000 cycles: 60259791 heartbeat IPC: 1.18619 cumulative IPC: 0.94361 (Simulation time: 0 hr 35 min 44 sec) 
select_counter is 382
Heartbeat CPU 0 instructions: 89000000 cycles: 61089533 heartbeat IPC: 1.20519 cumulative IPC: 0.948891 (Simulation time: 0 hr 36 min 8 sec) 
select_counter is 382
Heartbeat CPU 0 instructions: 90000000 cycles: 62370810 heartbeat IPC: 0.780471 cumulative IPC: 0.943799 (Simulation time: 0 hr 36 min 32 sec) 
select_counter is 401
Heartbeat CPU 0 instructions: 91000003 cycles: 63614991 heartbeat IPC: 0.803744 cumulative IPC: 0.939805 (Simulation time: 0 hr 36 min 55 sec) 
select_counter is 418
Heartbeat CPU 0 instructions: 92000000 cycles: 64566432 heartbeat IPC: 1.05103 cumulative IPC: 0.942179 (Simulation time: 0 hr 37 min 19 sec) 
select_counter is 365
Heartbeat CPU 0 instructions: 93000000 cycles: 65402142 heartbeat IPC: 1.19659 cumulative IPC: 0.94686 (Simulation time: 0 hr 37 min 42 sec) 
select_counter is 294
Heartbeat CPU 0 instructions: 94000002 cycles: 66242281 heartbeat IPC: 1.19028 cumulative IPC: 0.951282 (Simulation time: 0 hr 38 min 7 sec) 
select_counter is 293
Heartbeat CPU 0 instructions: 95000001 cycles: 67618219 heartbeat IPC: 0.726776 cumulative IPC: 0.944796 (Simulation time: 0 hr 38 min 39 sec) 
select_counter is 294
Heartbeat CPU 0 instructions: 96000000 cycles: 68456412 heartbeat IPC: 1.19304 cumulative IPC: 0.949089 (Simulation time: 0 hr 39 min 2 sec) 
select_counter is 220
Heartbeat CPU 0 instructions: 97000002 cycles: 69304708 heartbeat IPC: 1.17884 cumulative IPC: 0.953041 (Simulation time: 0 hr 39 min 27 sec) 
select_counter is 198
Heartbeat CPU 0 instructions: 98000003 cycles: 70483565 heartbeat IPC: 0.84828 cumulative IPC: 0.950596 (Simulation time: 0 hr 39 min 56 sec) 
select_counter is 258
Heartbeat CPU 0 instructions: 99000000 cycles: 71535209 heartbeat IPC: 0.950889 cumulative IPC: 0.950602 (Simulation time: 0 hr 40 min 21 sec) 
select_counter is 165
Heartbeat CPU 0 instructions: 100000000 cycles: 72364501 heartbeat IPC: 1.20585 cumulative IPC: 0.954643 (Simulation time: 0 hr 40 min 44 sec) 
select_counter is 101
Heartbeat CPU 0 instructions: 101000000 cycles: 73212165 heartbeat IPC: 1.17971 cumulative IPC: 0.958228 (Simulation time: 0 hr 41 min 8 sec) 
select_counter is 108
Heartbeat CPU 0 instructions: 102000003 cycles: 74667894 heartbeat IPC: 0.686943 cumulative IPC: 0.951005 (Simulation time: 0 hr 41 min 34 sec) 
select_counter is 139
Heartbeat CPU 0 instructions: 103000002 cycles: 75585223 heartbeat IPC: 1.09012 cumulative IPC: 0.953301 (Simulation time: 0 hr 41 min 59 sec) 
select_counter is 45
Heartbeat CPU 0 instructions: 104000000 cycles: 76420320 heartbeat IPC: 1.19746 cumulative IPC: 0.956914 (Simulation time: 0 hr 42 min 26 sec) 
select_counter is 1023
Heartbeat CPU 0 instructions: 105000002 cycles: 77503474 heartbeat IPC: 0.923232 cumulative IPC: 0.956279 (Simulation time: 0 hr 42 min 52 sec) 
select_counter is 1014
Heartbeat CPU 0 instructions: 106000000 cycles: 78961716 heartbeat IPC: 0.685756 cumulative IPC: 0.94959 (Simulation time: 0 hr 43 min 16 sec) 
select_counter is 985
Heartbeat CPU 0 instructions: 107000000 cycles: 79794009 heartbeat IPC: 1.2015 cumulative IPC: 0.953096 (Simulation time: 0 hr 43 min 41 sec) 
select_counter is 868
Heartbeat CPU 0 instructions: 108000000 cycles: 80620188 heartbeat IPC: 1.21039 cumulative IPC: 0.956602 (Simulation time: 0 hr 44 min 11 sec) 
select_counter is 847
Heartbeat CPU 0 instructions: 109000001 cycles: 81752932 heartbeat IPC: 0.882813 cumulative IPC: 0.955249 (Simulation time: 0 hr 44 min 38 sec) 
select_counter is 892
Heartbeat CPU 0 instructions: 110000000 cycles: 83106078 heartbeat IPC: 0.739018 cumulative IPC: 0.950613 (Simulation time: 0 hr 45 min 3 sec) 
select_counter is 829
Heartbeat CPU 0 instructions: 111000003 cycles: 83925469 heartbeat IPC: 1.22042 cumulative IPC: 0.954071 (Simulation time: 0 hr 45 min 28 sec) 
select_counter is 724
Heartbeat CPU 0 instructions: 112000000 cycles: 84752731 heartbeat IPC: 1.2088 cumulative IPC: 0.957325 (Simulation time: 0 hr 45 min 56 sec) 
select_counter is 710
Heartbeat CPU 0 instructions: 113000002 cycles: 85960330 heartbeat IPC: 0.828091 cumulative IPC: 0.954959 (Simulation time: 0 hr 46 min 22 sec) 
select_counter is 762
Heartbeat CPU 0 instructions: 114000001 cycles: 87152803 heartbeat IPC: 0.838593 cumulative IPC: 0.952893 (Simulation time: 0 hr 46 min 44 sec) 
select_counter is 668
Heartbeat CPU 0 instructions: 115000002 cycles: 87980464 heartbeat IPC: 1.20823 cumulative IPC: 0.956001 (Simulation time: 0 hr 47 min 6 sec) 
select_counter is 605
Heartbeat CPU 0 instructions: 116000000 cycles: 88795329 heartbeat IPC: 1.22719 cumulative IPC: 0.959213 (Simulation time: 0 hr 47 min 28 sec) 
select_counter is 608
Heartbeat CPU 0 instructions: 117000002 cycles: 90179848 heartbeat IPC: 0.722274 cumulative IPC: 0.954539 (Simulation time: 0 hr 47 min 52 sec) 
select_counter is 651
Heartbeat CPU 0 instructions: 118000000 cycles: 91131348 heartbeat IPC: 1.05097 cumulative IPC: 0.955829 (Simulation time: 0 hr 48 min 13 sec) 
select_counter is 544
Heartbeat CPU 0 instructions: 119000001 cycles: 91941297 heartbeat IPC: 1.23465 cumulative IPC: 0.958967 (Simulation time: 0 hr 48 min 37 sec) 
select_counter is 514
Heartbeat CPU 0 instructions: 120000000 cycles: 92889620 heartbeat IPC: 1.05449 cumulative IPC: 0.96021 (Simulation time: 0 hr 48 min 59 sec) 
select_counter is 550
Heartbeat CPU 0 instructions: 121000000 cycles: 94328810 heartbeat IPC: 0.694835 cumulative IPC: 0.955072 (Simulation time: 0 hr 49 min 23 sec) 
select_counter is 538
Heartbeat CPU 0 instructions: 122000003 cycles: 95177591 heartbeat IPC: 1.17816 cumulative IPC: 0.957591 (Simulation time: 0 hr 49 min 46 sec) 
select_counter is 418
Heartbeat CPU 0 instructions: 123000001 cycles: 96001067 heartbeat IPC: 1.21436 cumulative IPC: 0.960373 (Simulation time: 0 hr 50 min 8 sec) 
select_counter is 413
Heartbeat CPU 0 instructions: 124000000 cycles: 97111594 heartbeat IPC: 0.900472 cumulative IPC: 0.95951 (Simulation time: 0 hr 50 min 34 sec) 
select_counter is 453
Heartbeat CPU 0 instructions: 125000003 cycles: 98417930 heartbeat IPC: 0.765502 cumulative IPC: 0.956279 (Simulation time: 0 hr 50 min 57 sec) 
select_counter is 385
Heartbeat CPU 0 instructions: 126000001 cycles: 99258763 heartbeat IPC: 1.18929 cumulative IPC: 0.95875 (Simulation time: 0 hr 51 min 20 sec) 
select_counter is 309
Heartbeat CPU 0 instructions: 127000000 cycles: 100106728 heartbeat IPC: 1.17929 cumulative IPC: 0.961084 (Simulation time: 0 hr 51 min 45 sec) 
select_counter is 316
Heartbeat CPU 0 instructions: 128000000 cycles: 101399055 heartbeat IPC: 0.773798 cumulative IPC: 0.958111 (Simulation time: 0 hr 52 min 10 sec) 
select_counter is 366
Heartbeat CPU 0 instructions: 129000002 cycles: 102707367 heartbeat IPC: 0.764345 cumulative IPC: 0.955047 (Simulation time: 0 hr 52 min 32 sec) 
select_counter is 316
Heartbeat CPU 0 instructions: 130000002 cycles: 103547804 heartbeat IPC: 1.18986 cumulative IPC: 0.957408 (Simulation time: 0 hr 52 min 55 sec) 
select_counter is 245
Heartbeat CPU 0 instructions: 131000001 cycles: 104391718 heartbeat IPC: 1.18495 cumulative IPC: 0.959684 (Simulation time: 0 hr 53 min 15 sec) 
select_counter is 254
Heartbeat CPU 0 instructions: 132000000 cycles: 105698357 heartbeat IPC: 0.765322 cumulative IPC: 0.956721 (Simulation time: 0 hr 53 min 39 sec) 
select_counter is 289
Heartbeat CPU 0 instructions: 133000001 cycles: 107092250 heartbeat IPC: 0.717416 cumulative IPC: 0.952891 (Simulation time: 0 hr 54 min 1 sec) 
select_counter is 249
Heartbeat CPU 0 instructions: 134000002 cycles: 107921551 heartbeat IPC: 1.20584 cumulative IPC: 0.955277 (Simulation time: 0 hr 54 min 23 sec) 
select_counter is 165
Heartbeat CPU 0 instructions: 135000001 cycles: 108766110 heartbeat IPC: 1.18405 cumulative IPC: 0.957453 (Simulation time: 0 hr 54 min 44 sec) 
select_counter is 168
Heartbeat CPU 0 instructions: 136000000 cycles: 110008619 heartbeat IPC: 0.804822 cumulative IPC: 0.955346 (Simulation time: 0 hr 55 min 5 sec) 
select_counter is 211
Heartbeat CPU 0 instructions: 137000001 cycles: 111331466 heartbeat IPC: 0.755946 cumulative IPC: 0.952459 (Simulation time: 0 hr 55 min 27 sec) 
select_counter is 181
Heartbeat CPU 0 instructions: 138000002 cycles: 112175496 heartbeat IPC: 1.18479 cumulative IPC: 0.954586 (Simulation time: 0 hr 55 min 47 sec) 
select_counter is 110
Heartbeat CPU 0 instructions: 139000001 cycles: 113026480 heartbeat IPC: 1.17511 cumulative IPC: 0.956603 (Simulation time: 0 hr 56 min 4 sec) 
select_counter is 118
Heartbeat CPU 0 instructions: 140000000 cycles: 114329668 heartbeat IPC: 0.767348 cumulative IPC: 0.953988 (Simulation time: 0 hr 56 min 24 sec) 
select_counter is 157
Heartbeat CPU 0 instructions: 141000000 cycles: 115809500 heartbeat IPC: 0.675752 cumulative IPC: 0.949691 (Simulation time: 0 hr 56 min 44 sec) 
select_counter is 156
Heartbeat CPU 0 instructions: 142000002 cycles: 116942803 heartbeat IPC: 0.882378 cumulative IPC: 0.948905 (Simulation time: 0 hr 57 min 2 sec) 
select_counter is 155
Heartbeat CPU 0 instructions: 143000003 cycles: 117771384 heartbeat IPC: 1.20688 cumulative IPC: 0.951091 (Simulation time: 0 hr 57 min 19 sec) 
select_counter is 61
Heartbeat CPU 0 instructions: 144000000 cycles: 118619151 heartbeat IPC: 1.17957 cumulative IPC: 0.953054 (Simulation time: 0 hr 57 min 37 sec) 
select_counter is 57
Heartbeat CPU 0 instructions: 145000000 cycles: 119747569 heartbeat IPC: 0.886196 cumulative IPC: 0.952298 (Simulation time: 0 hr 57 min 55 sec) 
select_counter is 102
Heartbeat CPU 0 instructions: 146000001 cycles: 121155479 heartbeat IPC: 0.710273 cumulative IPC: 0.94893 (Simulation time: 0 hr 58 min 11 sec) 
select_counter is 54
Heartbeat CPU 0 instructions: 147000002 cycles: 121997460 heartbeat IPC: 1.18768 cumulative IPC: 0.950901 (Simulation time: 0 hr 58 min 26 sec) 
select_counter is 1010
Heartbeat CPU 0 instructions: 148000000 cycles: 122849129 heartbeat IPC: 1.17416 cumulative IPC: 0.952749 (Simulation time: 0 hr 58 min 40 sec) 
select_counter is 1015
Heartbeat CPU 0 instructions: 149000001 cycles: 124023806 heartbeat IPC: 0.851299 cumulative IPC: 0.951604 (Simulation time: 0 hr 58 min 55 sec) 
select_counter is 1023
Heartbeat CPU 0 instructions: 150000000 cycles: 125356112 heartbeat IPC: 0.750578 cumulative IPC: 0.949062 (Simulation time: 0 hr 59 min 8 sec) 
select_counter is 952
Finished CPU 0 instructions: 100000001 cycles: 105367208 cummulative IPC: 0.949062 (Simulation time: 0 hr 59 min 8 sec) 

ChampSim completed all CPUs

Region of Interest Statistics

CPU 0 cummulative IPC: 0.949062 instructions: 100000001 cycles: 105367208
LLC TOTAL     ACCESS:    1706369  HIT:     732451  MISS:     973918
LLC LOAD      ACCESS:     272162  HIT:     234126  MISS:      38036
LLC RFO       ACCESS:     107536  HIT:      95579  MISS:      11957
LLC PREFETCH  ACCESS:    1187089  HIT:     272131  MISS:     914958
LLC WRITEBACK ACCESS:     139582  HIT:     130615  MISS:       8967
Ship samples: 
12, 43, 76, 111, 136, 170, 204, 233, 259, 295, 350, 353, 390, 418, 457, 501, 542, 544, 603, 609, 662, 677, 711, 755, 776, 800, 832, 879, 905, 941, 974, 1000, 1027, 1078, 1112, 1121, 1154, 1200, 1237, 1267, 1309, 1317, 1364, 1381, 1413, 1456, 1492, 1504, 1536, 1592, 1624, 1648, 1687, 1716, 1741, 1784, 1815, 1845, 1883, 1904, 1923, 1953, 1988, 2043, 
Lime duel samples: 
15, 32, 75, 122, 151, 166, 194, 252, 272, 314, 342, 358, 392, 424, 454, 509, 533, 545, 586, 623, 643, 683, 706, 750, 778, 826, 839, 865, 903, 945, 978, 994, 1036, 1064, 1118, 1143, 1166, 1191, 1225, 1251, 1310, 1331, 1374, 1396, 1437, 1458, 1491, 1528, 1560, 1590, 1614, 1638, 1695, 1722, 1754, 1778, 1793, 1846, 1867, 1907, 1933, 1956, 2011, 2041, 
Lime samples: 
15, 122, 194, 314, 392, 509, 586, 683, 778, 865, 978, 1064, 1166, 1251, 1374, 1458, 1560, 1638, 1754, 1846, 1933, 
Insertion Distribution: 
	LOAD 8357 0 0 0 0 0 18769 21053 
	RFO 205 0 0 0 0 0 4324 8312 
	PREF 0 2240 0 0 0 0 72498 704165 
	WRITEBACK 0 0 0 0 0 0 0 6705 
Total Prefetch Downgrades: 20253
