
*** ChampSim Multicore Out-of-Order Simulator ***

Warmup Instructions: 50000000
Simulation Instructions: 100000000
Configuration: 2
Number of CPUs: 1
LLC sets: 2048
LLC ways: 16
Off-chip DRAM Channels: 1 Width: 64-bit Data Rate: 1600 MT/s

CPU 0 runs /datasets/cs240c-wi22-a00-public/data/Assignment2-gz/milc_360B.trace.gz
CPU 0 L1D next line prefetcher
CPU 0 L2C IP-based stride prefetcher
Heartbeat CPU 0 instructions: 1000001 cycles: 549511 heartbeat IPC: 1.8198 cumulative IPC: 1.8198 (Simulation time: 0 hr 0 min 31 sec) 
select_counter is 387
Heartbeat CPU 0 instructions: 2000003 cycles: 1099026 heartbeat IPC: 1.81979 cumulative IPC: 1.8198 (Simulation time: 0 hr 0 min 58 sec) 
select_counter is 333
Heartbeat CPU 0 instructions: 3000001 cycles: 1648486 heartbeat IPC: 1.81997 cumulative IPC: 1.81985 (Simulation time: 0 hr 1 min 26 sec) 
select_counter is 198
Heartbeat CPU 0 instructions: 4000000 cycles: 2197959 heartbeat IPC: 1.81992 cumulative IPC: 1.81987 (Simulation time: 0 hr 1 min 50 sec) 
select_counter is 95
Heartbeat CPU 0 instructions: 5000002 cycles: 2747468 heartbeat IPC: 1.81981 cumulative IPC: 1.81986 (Simulation time: 0 hr 2 min 19 sec) 
select_counter is 62
Heartbeat CPU 0 instructions: 6000001 cycles: 3296983 heartbeat IPC: 1.81978 cumulative IPC: 1.81985 (Simulation time: 0 hr 2 min 47 sec) 
select_counter is 1015
Heartbeat CPU 0 instructions: 7000000 cycles: 3846462 heartbeat IPC: 1.8199 cumulative IPC: 1.81985 (Simulation time: 0 hr 3 min 18 sec) 
select_counter is 942
Heartbeat CPU 0 instructions: 8000000 cycles: 4395923 heartbeat IPC: 1.81997 cumulative IPC: 1.81987 (Simulation time: 0 hr 3 min 44 sec) 
select_counter is 845
Heartbeat CPU 0 instructions: 9000001 cycles: 4945436 heartbeat IPC: 1.8198 cumulative IPC: 1.81986 (Simulation time: 0 hr 4 min 11 sec) 
select_counter is 716
Heartbeat CPU 0 instructions: 10000001 cycles: 5494911 heartbeat IPC: 1.81992 cumulative IPC: 1.81987 (Simulation time: 0 hr 4 min 39 sec) 
select_counter is 670
Heartbeat CPU 0 instructions: 11000001 cycles: 6044376 heartbeat IPC: 1.81995 cumulative IPC: 1.81987 (Simulation time: 0 hr 5 min 8 sec) 
select_counter is 548
Heartbeat CPU 0 instructions: 12000000 cycles: 6593855 heartbeat IPC: 1.8199 cumulative IPC: 1.81988 (Simulation time: 0 hr 5 min 35 sec) 
select_counter is 416
Heartbeat CPU 0 instructions: 13000001 cycles: 7143384 heartbeat IPC: 1.81974 cumulative IPC: 1.81987 (Simulation time: 0 hr 6 min 4 sec) 
select_counter is 215
Heartbeat CPU 0 instructions: 14000003 cycles: 7692851 heartbeat IPC: 1.81995 cumulative IPC: 1.81987 (Simulation time: 0 hr 6 min 33 sec) 
select_counter is 122
Heartbeat CPU 0 instructions: 15000003 cycles: 8242328 heartbeat IPC: 1.81991 cumulative IPC: 1.81987 (Simulation time: 0 hr 7 min 1 sec) 
select_counter is 41
Heartbeat CPU 0 instructions: 16000000 cycles: 8791808 heartbeat IPC: 1.8199 cumulative IPC: 1.81988 (Simulation time: 0 hr 7 min 32 sec) 
select_counter is 909
Heartbeat CPU 0 instructions: 17000001 cycles: 9341333 heartbeat IPC: 1.81976 cumulative IPC: 1.81987 (Simulation time: 0 hr 7 min 59 sec) 
select_counter is 800
Heartbeat CPU 0 instructions: 18000001 cycles: 9890809 heartbeat IPC: 1.81992 cumulative IPC: 1.81987 (Simulation time: 0 hr 8 min 28 sec) 
select_counter is 669
Heartbeat CPU 0 instructions: 19000000 cycles: 10440288 heartbeat IPC: 1.8199 cumulative IPC: 1.81987 (Simulation time: 0 hr 8 min 56 sec) 
select_counter is 497
Heartbeat CPU 0 instructions: 20000000 cycles: 10989424 heartbeat IPC: 1.82104 cumulative IPC: 1.81993 (Simulation time: 0 hr 9 min 22 sec) 
select_counter is 347
Heartbeat CPU 0 instructions: 21000000 cycles: 11536405 heartbeat IPC: 1.82822 cumulative IPC: 1.82032 (Simulation time: 0 hr 9 min 48 sec) 
select_counter is 274
Heartbeat CPU 0 instructions: 22000003 cycles: 12083409 heartbeat IPC: 1.82815 cumulative IPC: 1.82068 (Simulation time: 0 hr 10 min 15 sec) 
select_counter is 214
Heartbeat CPU 0 instructions: 23000003 cycles: 12630401 heartbeat IPC: 1.82818 cumulative IPC: 1.821 (Simulation time: 0 hr 10 min 42 sec) 
select_counter is 141
Heartbeat CPU 0 instructions: 24000000 cycles: 13177380 heartbeat IPC: 1.82822 cumulative IPC: 1.8213 (Simulation time: 0 hr 11 min 12 sec) 
select_counter is 59
Heartbeat CPU 0 instructions: 25000003 cycles: 13724416 heartbeat IPC: 1.82804 cumulative IPC: 1.82157 (Simulation time: 0 hr 11 min 38 sec) 
select_counter is 968
Heartbeat CPU 0 instructions: 26000003 cycles: 14271406 heartbeat IPC: 1.82819 cumulative IPC: 1.82182 (Simulation time: 0 hr 12 min 7 sec) 
select_counter is 839
Heartbeat CPU 0 instructions: 27000000 cycles: 14818381 heartbeat IPC: 1.82823 cumulative IPC: 1.82206 (Simulation time: 0 hr 12 min 41 sec) 
select_counter is 798
Heartbeat CPU 0 instructions: 28000000 cycles: 15365365 heartbeat IPC: 1.82821 cumulative IPC: 1.82228 (Simulation time: 0 hr 13 min 11 sec) 
select_counter is 700
Heartbeat CPU 0 instructions: 29000003 cycles: 15912381 heartbeat IPC: 1.82811 cumulative IPC: 1.82248 (Simulation time: 0 hr 13 min 40 sec) 
select_counter is 579
Heartbeat CPU 0 instructions: 30000000 cycles: 16459393 heartbeat IPC: 1.82811 cumulative IPC: 1.82267 (Simulation time: 0 hr 14 min 9 sec) 
select_counter is 472
Heartbeat CPU 0 instructions: 31000003 cycles: 17006360 heartbeat IPC: 1.82827 cumulative IPC: 1.82285 (Simulation time: 0 hr 14 min 39 sec) 
select_counter is 363
Heartbeat CPU 0 instructions: 32000000 cycles: 17553384 heartbeat IPC: 1.82807 cumulative IPC: 1.82301 (Simulation time: 0 hr 15 min 5 sec) 
select_counter is 225
Heartbeat CPU 0 instructions: 33000000 cycles: 18100356 heartbeat IPC: 1.82825 cumulative IPC: 1.82317 (Simulation time: 0 hr 15 min 30 sec) 
select_counter is 100
Heartbeat CPU 0 instructions: 34000001 cycles: 18647368 heartbeat IPC: 1.82812 cumulative IPC: 1.82331 (Simulation time: 0 hr 15 min 54 sec) 
select_counter is 31
Heartbeat CPU 0 instructions: 35000001 cycles: 19194373 heartbeat IPC: 1.82814 cumulative IPC: 1.82345 (Simulation time: 0 hr 16 min 23 sec) 
select_counter is 930
Heartbeat CPU 0 instructions: 36000000 cycles: 19741323 heartbeat IPC: 1.82832 cumulative IPC: 1.82359 (Simulation time: 0 hr 16 min 52 sec) 
select_counter is 774
Heartbeat CPU 0 instructions: 37000001 cycles: 20288363 heartbeat IPC: 1.82802 cumulative IPC: 1.82371 (Simulation time: 0 hr 17 min 17 sec) 
select_counter is 692
Heartbeat CPU 0 instructions: 38000001 cycles: 20835354 heartbeat IPC: 1.82818 cumulative IPC: 1.82382 (Simulation time: 0 hr 17 min 43 sec) 
select_counter is 621
Heartbeat CPU 0 instructions: 39000000 cycles: 21382325 heartbeat IPC: 1.82825 cumulative IPC: 1.82394 (Simulation time: 0 hr 18 min 8 sec) 
select_counter is 515
Heartbeat CPU 0 instructions: 40000000 cycles: 21929320 heartbeat IPC: 1.82817 cumulative IPC: 1.82404 (Simulation time: 0 hr 18 min 35 sec) 
select_counter is 448
Heartbeat CPU 0 instructions: 41000001 cycles: 22476331 heartbeat IPC: 1.82812 cumulative IPC: 1.82414 (Simulation time: 0 hr 18 min 59 sec) 
select_counter is 345
Heartbeat CPU 0 instructions: 42000001 cycles: 23023324 heartbeat IPC: 1.82818 cumulative IPC: 1.82424 (Simulation time: 0 hr 19 min 25 sec) 
select_counter is 226
Heartbeat CPU 0 instructions: 43000000 cycles: 23570300 heartbeat IPC: 1.82823 cumulative IPC: 1.82433 (Simulation time: 0 hr 19 min 51 sec) 
select_counter is 117
Heartbeat CPU 0 instructions: 44000000 cycles: 24074427 heartbeat IPC: 1.98363 cumulative IPC: 1.82767 (Simulation time: 0 hr 20 min 15 sec) 
select_counter is 717
Heartbeat CPU 0 instructions: 45000002 cycles: 24567679 heartbeat IPC: 2.02737 cumulative IPC: 1.83167 (Simulation time: 0 hr 20 min 38 sec) 
select_counter is 654
Heartbeat CPU 0 instructions: 46000000 cycles: 25060917 heartbeat IPC: 2.02741 cumulative IPC: 1.83553 (Simulation time: 0 hr 21 min 1 sec) 
select_counter is 649
Heartbeat CPU 0 instructions: 47000000 cycles: 25554137 heartbeat IPC: 2.02749 cumulative IPC: 1.83923 (Simulation time: 0 hr 21 min 24 sec) 
select_counter is 630
Heartbeat CPU 0 instructions: 48000000 cycles: 26047374 heartbeat IPC: 2.02742 cumulative IPC: 1.8428 (Simulation time: 0 hr 21 min 49 sec) 
select_counter is 626
Heartbeat CPU 0 instructions: 49000002 cycles: 26540623 heartbeat IPC: 2.02738 cumulative IPC: 1.84623 (Simulation time: 0 hr 22 min 12 sec) 
select_counter is 608
Heartbeat CPU 0 instructions: 50000000 cycles: 27018579 heartbeat IPC: 2.09224 cumulative IPC: 1.85058 (Simulation time: 0 hr 22 min 35 sec) 
select_counter is 587

Warmup complete CPU 0 instructions: 50000004 cycles: 27018580 (Simulation time: 0 hr 22 min 35 sec) 

Heartbeat CPU 0 instructions: 51000002 cycles: 28032908 heartbeat IPC: 0.985875 cumulative IPC: 0.985872 (Simulation time: 0 hr 23 min 0 sec) 
select_counter is 577
Heartbeat CPU 0 instructions: 52000000 cycles: 29837157 heartbeat IPC: 0.554246 cumulative IPC: 0.709576 (Simulation time: 0 hr 23 min 26 sec) 
select_counter is 613
Heartbeat CPU 0 instructions: 53000002 cycles: 32068791 heartbeat IPC: 0.448103 cumulative IPC: 0.594034 (Simulation time: 0 hr 23 min 51 sec) 
select_counter is 494
Heartbeat CPU 0 instructions: 54000003 cycles: 34308222 heartbeat IPC: 0.446542 cumulative IPC: 0.548724 (Simulation time: 0 hr 24 min 17 sec) 
select_counter is 510
Heartbeat CPU 0 instructions: 55000003 cycles: 36566814 heartbeat IPC: 0.442754 cumulative IPC: 0.523657 (Simulation time: 0 hr 24 min 43 sec) 
select_counter is 532
Heartbeat CPU 0 instructions: 56000000 cycles: 38814216 heartbeat IPC: 0.444957 cumulative IPC: 0.508662 (Simulation time: 0 hr 25 min 7 sec) 
select_counter is 502
Heartbeat CPU 0 instructions: 57000000 cycles: 41061458 heartbeat IPC: 0.44499 cumulative IPC: 0.498473 (Simulation time: 0 hr 25 min 32 sec) 
select_counter is 590
Heartbeat CPU 0 instructions: 58000000 cycles: 43290456 heartbeat IPC: 0.448632 cumulative IPC: 0.491646 (Simulation time: 0 hr 25 min 57 sec) 
select_counter is 573
Heartbeat CPU 0 instructions: 59000001 cycles: 45518265 heartbeat IPC: 0.448872 cumulative IPC: 0.486495 (Simulation time: 0 hr 26 min 23 sec) 
select_counter is 556
Heartbeat CPU 0 instructions: 60000000 cycles: 47765369 heartbeat IPC: 0.445017 cumulative IPC: 0.482002 (Simulation time: 0 hr 26 min 49 sec) 
select_counter is 453
Heartbeat CPU 0 instructions: 61000000 cycles: 49997066 heartbeat IPC: 0.44809 cumulative IPC: 0.478708 (Simulation time: 0 hr 27 min 14 sec) 
select_counter is 257
Heartbeat CPU 0 instructions: 62000003 cycles: 52228180 heartbeat IPC: 0.448208 cumulative IPC: 0.476009 (Simulation time: 0 hr 27 min 39 sec) 
select_counter is 146
Heartbeat CPU 0 instructions: 63000003 cycles: 54458432 heartbeat IPC: 0.44838 cumulative IPC: 0.473763 (Simulation time: 0 hr 28 min 2 sec) 
select_counter is 969
Heartbeat CPU 0 instructions: 64000000 cycles: 56688988 heartbeat IPC: 0.448317 cumulative IPC: 0.47185 (Simulation time: 0 hr 28 min 26 sec) 
select_counter is 829
Heartbeat CPU 0 instructions: 65000001 cycles: 58922553 heartbeat IPC: 0.447715 cumulative IPC: 0.470161 (Simulation time: 0 hr 28 min 51 sec) 
select_counter is 695
Heartbeat CPU 0 instructions: 66000001 cycles: 61153389 heartbeat IPC: 0.448262 cumulative IPC: 0.46873 (Simulation time: 0 hr 29 min 15 sec) 
select_counter is 565
Heartbeat CPU 0 instructions: 67000002 cycles: 63394343 heartbeat IPC: 0.446239 cumulative IPC: 0.467344 (Simulation time: 0 hr 29 min 40 sec) 
select_counter is 412
Heartbeat CPU 0 instructions: 68000000 cycles: 65626501 heartbeat IPC: 0.447996 cumulative IPC: 0.466225 (Simulation time: 0 hr 30 min 4 sec) 
select_counter is 297
Heartbeat CPU 0 instructions: 69000001 cycles: 67857746 heartbeat IPC: 0.448181 cumulative IPC: 0.46524 (Simulation time: 0 hr 30 min 29 sec) 
select_counter is 207
Heartbeat CPU 0 instructions: 70000000 cycles: 70089815 heartbeat IPC: 0.448014 cumulative IPC: 0.464347 (Simulation time: 0 hr 30 min 57 sec) 
select_counter is 64
Heartbeat CPU 0 instructions: 71000000 cycles: 72319493 heartbeat IPC: 0.448495 cumulative IPC: 0.463567 (Simulation time: 0 hr 31 min 25 sec) 
select_counter is 918
Heartbeat CPU 0 instructions: 72000000 cycles: 74547737 heartbeat IPC: 0.448784 cumulative IPC: 0.462874 (Simulation time: 0 hr 31 min 53 sec) 
select_counter is 764
Heartbeat CPU 0 instructions: 73000001 cycles: 76763990 heartbeat IPC: 0.451212 cumulative IPC: 0.462354 (Simulation time: 0 hr 32 min 21 sec) 
select_counter is 581
Heartbeat CPU 0 instructions: 74000002 cycles: 78362140 heartbeat IPC: 0.625724 cumulative IPC: 0.467439 (Simulation time: 0 hr 32 min 48 sec) 
select_counter is 982
Heartbeat CPU 0 instructions: 75000003 cycles: 79950150 heartbeat IPC: 0.62972 cumulative IPC: 0.472308 (Simulation time: 0 hr 33 min 12 sec) 
select_counter is 300
Heartbeat CPU 0 instructions: 76000000 cycles: 81525972 heartbeat IPC: 0.634588 cumulative IPC: 0.476999 (Simulation time: 0 hr 33 min 38 sec) 
select_counter is 596
Heartbeat CPU 0 instructions: 77000000 cycles: 83107756 heartbeat IPC: 0.632198 cumulative IPC: 0.481376 (Simulation time: 0 hr 34 min 4 sec) 
select_counter is 965
Heartbeat CPU 0 instructions: 78000000 cycles: 84689322 heartbeat IPC: 0.632285 cumulative IPC: 0.485515 (Simulation time: 0 hr 34 min 34 sec) 
select_counter is 325
Heartbeat CPU 0 instructions: 79000000 cycles: 86273556 heartbeat IPC: 0.63122 cumulative IPC: 0.48941 (Simulation time: 0 hr 35 min 0 sec) 
select_counter is 720
Heartbeat CPU 0 instructions: 80000000 cycles: 87857220 heartbeat IPC: 0.631447 cumulative IPC: 0.493108 (Simulation time: 0 hr 35 min 26 sec) 
select_counter is 160
Heartbeat CPU 0 instructions: 81000003 cycles: 89434521 heartbeat IPC: 0.633996 cumulative IPC: 0.496668 (Simulation time: 0 hr 35 min 51 sec) 
select_counter is 583
Heartbeat CPU 0 instructions: 82000003 cycles: 91017938 heartbeat IPC: 0.631546 cumulative IPC: 0.500005 (Simulation time: 0 hr 36 min 17 sec) 
select_counter is 25
Heartbeat CPU 0 instructions: 83000002 cycles: 92595201 heartbeat IPC: 0.634009 cumulative IPC: 0.503228 (Simulation time: 0 hr 36 min 42 sec) 
select_counter is 481
Heartbeat CPU 0 instructions: 84000000 cycles: 94178316 heartbeat IPC: 0.631665 cumulative IPC: 0.506256 (Simulation time: 0 hr 37 min 7 sec) 
select_counter is 965
Heartbeat CPU 0 instructions: 85000000 cycles: 95752396 heartbeat IPC: 0.635292 cumulative IPC: 0.509211 (Simulation time: 0 hr 37 min 32 sec) 
select_counter is 371
Heartbeat CPU 0 instructions: 86000000 cycles: 97332779 heartbeat IPC: 0.632758 cumulative IPC: 0.511988 (Simulation time: 0 hr 37 min 57 sec) 
select_counter is 861
Heartbeat CPU 0 instructions: 87000000 cycles: 98907466 heartbeat IPC: 0.635047 cumulative IPC: 0.514683 (Simulation time: 0 hr 38 min 23 sec) 
select_counter is 274
Heartbeat CPU 0 instructions: 88000000 cycles: 100488022 heartbeat IPC: 0.632689 cumulative IPC: 0.517222 (Simulation time: 0 hr 38 min 48 sec) 
select_counter is 655
Heartbeat CPU 0 instructions: 89000002 cycles: 102082150 heartbeat IPC: 0.627303 cumulative IPC: 0.51956 (Simulation time: 0 hr 39 min 14 sec) 
select_counter is 1012
Heartbeat CPU 0 instructions: 90000002 cycles: 103661651 heartbeat IPC: 0.633111 cumulative IPC: 0.5219 (Simulation time: 0 hr 39 min 41 sec) 
select_counter is 389
Heartbeat CPU 0 instructions: 91000003 cycles: 105247988 heartbeat IPC: 0.630384 cumulative IPC: 0.5241 (Simulation time: 0 hr 40 min 6 sec) 
select_counter is 744
Heartbeat CPU 0 instructions: 92000000 cycles: 106831349 heartbeat IPC: 0.631566 cumulative IPC: 0.526232 (Simulation time: 0 hr 40 min 34 sec) 
select_counter is 27
Heartbeat CPU 0 instructions: 93000000 cycles: 108412676 heartbeat IPC: 0.63238 cumulative IPC: 0.528294 (Simulation time: 0 hr 41 min 0 sec) 
select_counter is 353
Heartbeat CPU 0 instructions: 94000000 cycles: 109998025 heartbeat IPC: 0.630776 cumulative IPC: 0.530252 (Simulation time: 0 hr 41 min 25 sec) 
select_counter is 775
Heartbeat CPU 0 instructions: 95000000 cycles: 111586529 heartbeat IPC: 0.629523 cumulative IPC: 0.532116 (Simulation time: 0 hr 41 min 50 sec) 
select_counter is 45
Heartbeat CPU 0 instructions: 96000000 cycles: 113169035 heartbeat IPC: 0.631909 cumulative IPC: 0.53395 (Simulation time: 0 hr 42 min 17 sec) 
select_counter is 384
Heartbeat CPU 0 instructions: 97000002 cycles: 114743219 heartbeat IPC: 0.635251 cumulative IPC: 0.535767 (Simulation time: 0 hr 42 min 43 sec) 
select_counter is 790
Heartbeat CPU 0 instructions: 98000003 cycles: 116323616 heartbeat IPC: 0.632753 cumulative IPC: 0.537484 (Simulation time: 0 hr 43 min 9 sec) 
select_counter is 156
Heartbeat CPU 0 instructions: 99000000 cycles: 117896185 heartbeat IPC: 0.6359 cumulative IPC: 0.539187 (Simulation time: 0 hr 43 min 36 sec) 
select_counter is 570
Heartbeat CPU 0 instructions: 100000000 cycles: 119476411 heartbeat IPC: 0.632821 cumulative IPC: 0.540787 (Simulation time: 0 hr 44 min 4 sec) 
select_counter is 998
Heartbeat CPU 0 instructions: 101000002 cycles: 121058974 heartbeat IPC: 0.631888 cumulative IPC: 0.54232 (Simulation time: 0 hr 44 min 32 sec) 
select_counter is 300
Heartbeat CPU 0 instructions: 102000000 cycles: 122637349 heartbeat IPC: 0.633562 cumulative IPC: 0.543826 (Simulation time: 0 hr 44 min 57 sec) 
select_counter is 686
Heartbeat CPU 0 instructions: 103000002 cycles: 124217504 heartbeat IPC: 0.632851 cumulative IPC: 0.545273 (Simulation time: 0 hr 45 min 23 sec) 
select_counter is 61
Heartbeat CPU 0 instructions: 104000000 cycles: 125788356 heartbeat IPC: 0.636596 cumulative IPC: 0.546726 (Simulation time: 0 hr 45 min 48 sec) 
select_counter is 490
Heartbeat CPU 0 instructions: 105000003 cycles: 127366008 heartbeat IPC: 0.633855 cumulative IPC: 0.548096 (Simulation time: 0 hr 46 min 19 sec) 
select_counter is 833
Heartbeat CPU 0 instructions: 106000002 cycles: 128948886 heartbeat IPC: 0.63176 cumulative IPC: 0.549395 (Simulation time: 0 hr 46 min 57 sec) 
select_counter is 169
Heartbeat CPU 0 instructions: 107000000 cycles: 130521263 heartbeat IPC: 0.635979 cumulative IPC: 0.55071 (Simulation time: 0 hr 47 min 33 sec) 
select_counter is 555
Heartbeat CPU 0 instructions: 108000000 cycles: 132102117 heartbeat IPC: 0.632569 cumulative IPC: 0.551942 (Simulation time: 0 hr 47 min 58 sec) 
select_counter is 914
Heartbeat CPU 0 instructions: 109000002 cycles: 133677505 heartbeat IPC: 0.634766 cumulative IPC: 0.553165 (Simulation time: 0 hr 48 min 23 sec) 
select_counter is 279
Heartbeat CPU 0 instructions: 110000000 cycles: 135250908 heartbeat IPC: 0.635564 cumulative IPC: 0.554363 (Simulation time: 0 hr 48 min 49 sec) 
select_counter is 657
Heartbeat CPU 0 instructions: 111000000 cycles: 136833546 heartbeat IPC: 0.631856 cumulative IPC: 0.55548 (Simulation time: 0 hr 49 min 15 sec) 
select_counter is 998
Heartbeat CPU 0 instructions: 112000000 cycles: 138412456 heartbeat IPC: 0.633348 cumulative IPC: 0.556584 (Simulation time: 0 hr 49 min 41 sec) 
select_counter is 359
Heartbeat CPU 0 instructions: 113000002 cycles: 139990697 heartbeat IPC: 0.633618 cumulative IPC: 0.55766 (Simulation time: 0 hr 50 min 6 sec) 
select_counter is 706
Heartbeat CPU 0 instructions: 114000003 cycles: 141570174 heartbeat IPC: 0.633122 cumulative IPC: 0.5587 (Simulation time: 0 hr 50 min 33 sec) 
select_counter is 87
Heartbeat CPU 0 instructions: 115000002 cycles: 143143857 heartbeat IPC: 0.635451 cumulative IPC: 0.55974 (Simulation time: 0 hr 50 min 57 sec) 
select_counter is 450
Heartbeat CPU 0 instructions: 116000000 cycles: 144725514 heartbeat IPC: 0.632247 cumulative IPC: 0.560715 (Simulation time: 0 hr 51 min 22 sec) 
select_counter is 862
Heartbeat CPU 0 instructions: 117000003 cycles: 146299003 heartbeat IPC: 0.635532 cumulative IPC: 0.561702 (Simulation time: 0 hr 51 min 47 sec) 
select_counter is 150
Heartbeat CPU 0 instructions: 118000001 cycles: 147875305 heartbeat IPC: 0.634395 cumulative IPC: 0.56265 (Simulation time: 0 hr 52 min 11 sec) 
select_counter is 524
Heartbeat CPU 0 instructions: 119000000 cycles: 149452394 heartbeat IPC: 0.634079 cumulative IPC: 0.56357 (Simulation time: 0 hr 52 min 34 sec) 
select_counter is 920
Heartbeat CPU 0 instructions: 120000000 cycles: 151263144 heartbeat IPC: 0.552257 cumulative IPC: 0.563405 (Simulation time: 0 hr 52 min 58 sec) 
select_counter is 367
Heartbeat CPU 0 instructions: 121000003 cycles: 153482433 heartbeat IPC: 0.450596 cumulative IPC: 0.561425 (Simulation time: 0 hr 53 min 25 sec) 
select_counter is 716
Heartbeat CPU 0 instructions: 122000002 cycles: 155668237 heartbeat IPC: 0.457497 cumulative IPC: 0.559659 (Simulation time: 0 hr 53 min 50 sec) 
select_counter is 944
Heartbeat CPU 0 instructions: 123000002 cycles: 157899219 heartbeat IPC: 0.448233 cumulative IPC: 0.55776 (Simulation time: 0 hr 54 min 16 sec) 
select_counter is 934
Heartbeat CPU 0 instructions: 124000000 cycles: 160155555 heartbeat IPC: 0.443196 cumulative IPC: 0.555818 (Simulation time: 0 hr 54 min 41 sec) 
select_counter is 933
Heartbeat CPU 0 instructions: 125000002 cycles: 162355428 heartbeat IPC: 0.454573 cumulative IPC: 0.554173 (Simulation time: 0 hr 55 min 5 sec) 
select_counter is 928
Heartbeat CPU 0 instructions: 126000001 cycles: 164565198 heartbeat IPC: 0.452535 cumulative IPC: 0.55254 (Simulation time: 0 hr 55 min 29 sec) 
select_counter is 942
Heartbeat CPU 0 instructions: 127000001 cycles: 169381771 heartbeat IPC: 0.207616 cumulative IPC: 0.54087 (Simulation time: 0 hr 56 min 7 sec) 
select_counter is 1018
Heartbeat CPU 0 instructions: 128000000 cycles: 171237168 heartbeat IPC: 0.538968 cumulative IPC: 0.540846 (Simulation time: 0 hr 56 min 25 sec) 
select_counter is 760
Heartbeat CPU 0 instructions: 129000000 cycles: 173055609 heartbeat IPC: 0.549922 cumulative IPC: 0.540959 (Simulation time: 0 hr 56 min 43 sec) 
select_counter is 471
Heartbeat CPU 0 instructions: 130000001 cycles: 174877735 heartbeat IPC: 0.54881 cumulative IPC: 0.541055 (Simulation time: 0 hr 57 min 3 sec) 
select_counter is 192
Heartbeat CPU 0 instructions: 131000003 cycles: 176698901 heartbeat IPC: 0.5491 cumulative IPC: 0.541153 (Simulation time: 0 hr 57 min 20 sec) 
select_counter is 915
Heartbeat CPU 0 instructions: 132000000 cycles: 178516704 heartbeat IPC: 0.550113 cumulative IPC: 0.541261 (Simulation time: 0 hr 57 min 36 sec) 
select_counter is 636
Heartbeat CPU 0 instructions: 133000001 cycles: 180340419 heartbeat IPC: 0.548332 cumulative IPC: 0.541345 (Simulation time: 0 hr 57 min 52 sec) 
select_counter is 397
Heartbeat CPU 0 instructions: 134000003 cycles: 182149592 heartbeat IPC: 0.55274 cumulative IPC: 0.541478 (Simulation time: 0 hr 58 min 7 sec) 
select_counter is 127
Heartbeat CPU 0 instructions: 135000001 cycles: 183964469 heartbeat IPC: 0.551 cumulative IPC: 0.541588 (Simulation time: 0 hr 58 min 22 sec) 
select_counter is 895
Heartbeat CPU 0 instructions: 136000000 cycles: 185777738 heartbeat IPC: 0.55149 cumulative IPC: 0.541701 (Simulation time: 0 hr 58 min 41 sec) 
select_counter is 665
Heartbeat CPU 0 instructions: 137000001 cycles: 187599266 heartbeat IPC: 0.54899 cumulative IPC: 0.541784 (Simulation time: 0 hr 58 min 55 sec) 
select_counter is 435
Heartbeat CPU 0 instructions: 138000003 cycles: 189412095 heartbeat IPC: 0.551625 cumulative IPC: 0.541894 (Simulation time: 0 hr 59 min 8 sec) 
select_counter is 212
Heartbeat CPU 0 instructions: 139000003 cycles: 191225660 heartbeat IPC: 0.5514 cumulative IPC: 0.541999 (Simulation time: 0 hr 59 min 21 sec) 
select_counter is 973
Heartbeat CPU 0 instructions: 140000000 cycles: 193032195 heartbeat IPC: 0.553544 cumulative IPC: 0.542124 (Simulation time: 0 hr 59 min 33 sec) 
select_counter is 677
Heartbeat CPU 0 instructions: 141000003 cycles: 194848371 heartbeat IPC: 0.550609 cumulative IPC: 0.542216 (Simulation time: 0 hr 59 min 46 sec) 
select_counter is 406
Heartbeat CPU 0 instructions: 142000001 cycles: 196661778 heartbeat IPC: 0.551447 cumulative IPC: 0.542315 (Simulation time: 0 hr 59 min 58 sec) 
select_counter is 179
Heartbeat CPU 0 instructions: 143000003 cycles: 198475569 heartbeat IPC: 0.551333 cumulative IPC: 0.54241 (Simulation time: 1 hr 0 min 10 sec) 
select_counter is 921
Heartbeat CPU 0 instructions: 144000000 cycles: 200289087 heartbeat IPC: 0.551413 cumulative IPC: 0.542504 (Simulation time: 1 hr 0 min 22 sec) 
select_counter is 612
Heartbeat CPU 0 instructions: 145000001 cycles: 202105787 heartbeat IPC: 0.550449 cumulative IPC: 0.542587 (Simulation time: 1 hr 0 min 33 sec) 
select_counter is 404
Heartbeat CPU 0 instructions: 146000001 cycles: 203917418 heartbeat IPC: 0.551989 cumulative IPC: 0.542683 (Simulation time: 1 hr 0 min 45 sec) 
select_counter is 150
Heartbeat CPU 0 instructions: 147000001 cycles: 205731523 heartbeat IPC: 0.551236 cumulative IPC: 0.54277 (Simulation time: 1 hr 0 min 57 sec) 
select_counter is 941
Heartbeat CPU 0 instructions: 148000000 cycles: 207542329 heartbeat IPC: 0.55224 cumulative IPC: 0.542865 (Simulation time: 1 hr 1 min 7 sec) 
select_counter is 702
Heartbeat CPU 0 instructions: 149000001 cycles: 209356153 heartbeat IPC: 0.551322 cumulative IPC: 0.542949 (Simulation time: 1 hr 1 min 17 sec) 
select_counter is 518
Heartbeat CPU 0 instructions: 150000003 cycles: 211172540 heartbeat IPC: 0.550545 cumulative IPC: 0.543024 (Simulation time: 1 hr 1 min 27 sec) 
select_counter is 327
Finished CPU 0 instructions: 100000003 cycles: 184153961 cummulative IPC: 0.543024 (Simulation time: 1 hr 1 min 27 sec) 

ChampSim completed all CPUs

Region of Interest Statistics

CPU 0 cummulative IPC: 0.543024 instructions: 100000003 cycles: 184153961
LLC TOTAL     ACCESS:    3782726  HIT:     375057  MISS:    3407669
LLC LOAD      ACCESS:    1110057  HIT:       2306  MISS:    1107751
LLC RFO       ACCESS:     348144  HIT:       1234  MISS:     346910
LLC PREFETCH  ACCESS:    1535512  HIT:      37657  MISS:    1497855
LLC WRITEBACK ACCESS:     789013  HIT:     333860  MISS:     455153
Ship samples: 
19, 46, 77, 97, 154, 178, 208, 253, 264, 290, 328, 369, 388, 438, 466, 500, 522, 544, 592, 635, 648, 701, 723, 764, 796, 817, 855, 877, 921, 950, 963, 1022, 1032, 1071, 1113, 1137, 1175, 1211, 1220, 1274, 1309, 1321, 1358, 1383, 1421, 1448, 1498, 1534, 1558, 1586, 1625, 1639, 1684, 1703, 1747, 1790, 1820, 1832, 1870, 1904, 1943, 1981, 1987, 2046, 
Lime duel samples: 
5, 32, 71, 117, 156, 167, 210, 229, 257, 302, 330, 364, 402, 428, 449, 507, 530, 571, 607, 609, 651, 686, 728, 762, 777, 806, 841, 867, 899, 942, 980, 1000, 1054, 1086, 1097, 1146, 1159, 1194, 1233, 1271, 1280, 1323, 1364, 1399, 1413, 1468, 1494, 1511, 1560, 1576, 1616, 1657, 1667, 1720, 1739, 1768, 1809, 1837, 1876, 1889, 1942, 1963, 2006, 2035, 
Lime samples: 
5, 117, 210, 302, 402, 507, 607, 686, 777, 867, 980, 1086, 1159, 1271, 1364, 1468, 1560, 1657, 1739, 1837, 1942, 
Insertion Distribution: 
	LOAD 0 0 0 0 0 0 270765 488306 
	RFO 0 0 0 0 0 0 2251 97848 
	PREF 0 0 0 0 0 0 110134 814033 
	WRITEBACK 0 0 0 0 0 0 0 269233 
Total Prefetch Downgrades: 860
