
*** ChampSim Multicore Out-of-Order Simulator ***

Warmup Instructions: 50000000
Simulation Instructions: 100000000
Configuration: 2
Number of CPUs: 1
LLC sets: 2048
LLC ways: 16
Off-chip DRAM Channels: 1 Width: 64-bit Data Rate: 1600 MT/s

CPU 0 runs /datasets/cs240c-wi22-a00-public/data/Assignment2-gz/mcf_46B.trace.gz
CPU 0 L1D next line prefetcher
CPU 0 L2C IP-based stride prefetcher
Heartbeat CPU 0 instructions: 1000002 cycles: 492379 heartbeat IPC: 2.03096 cumulative IPC: 2.03096 (Simulation time: 0 hr 0 min 33 sec) 
select_counter is 523
Heartbeat CPU 0 instructions: 2000002 cycles: 987639 heartbeat IPC: 2.01914 cumulative IPC: 2.02503 (Simulation time: 0 hr 1 min 3 sec) 
select_counter is 683
Heartbeat CPU 0 instructions: 3000003 cycles: 1515406 heartbeat IPC: 1.89478 cumulative IPC: 1.97967 (Simulation time: 0 hr 1 min 36 sec) 
select_counter is 672
Heartbeat CPU 0 instructions: 4000000 cycles: 2038824 heartbeat IPC: 1.91051 cumulative IPC: 1.96192 (Simulation time: 0 hr 2 min 12 sec) 
select_counter is 248
Heartbeat CPU 0 instructions: 5000000 cycles: 2532478 heartbeat IPC: 2.02571 cumulative IPC: 1.97435 (Simulation time: 0 hr 2 min 41 sec) 
select_counter is 513
Heartbeat CPU 0 instructions: 6000002 cycles: 3035428 heartbeat IPC: 1.98827 cumulative IPC: 1.97666 (Simulation time: 0 hr 3 min 17 sec) 
select_counter is 19
Heartbeat CPU 0 instructions: 7000001 cycles: 3581051 heartbeat IPC: 1.83277 cumulative IPC: 1.95473 (Simulation time: 0 hr 3 min 52 sec) 
select_counter is 1004
Heartbeat CPU 0 instructions: 8000000 cycles: 4071539 heartbeat IPC: 2.03878 cumulative IPC: 1.96486 (Simulation time: 0 hr 4 min 26 sec) 
select_counter is 481
Heartbeat CPU 0 instructions: 9000001 cycles: 4554847 heartbeat IPC: 2.06908 cumulative IPC: 1.97592 (Simulation time: 0 hr 5 min 4 sec) 
select_counter is 758
Heartbeat CPU 0 instructions: 10000001 cycles: 5091284 heartbeat IPC: 1.86415 cumulative IPC: 1.96414 (Simulation time: 0 hr 5 min 38 sec) 
select_counter is 819
Heartbeat CPU 0 instructions: 11000002 cycles: 5639607 heartbeat IPC: 1.82374 cumulative IPC: 1.95049 (Simulation time: 0 hr 6 min 16 sec) 
select_counter is 756
Heartbeat CPU 0 instructions: 12000000 cycles: 6117948 heartbeat IPC: 2.09055 cumulative IPC: 1.96144 (Simulation time: 0 hr 6 min 49 sec) 
select_counter is 323
Heartbeat CPU 0 instructions: 13000000 cycles: 6613361 heartbeat IPC: 2.01852 cumulative IPC: 1.96572 (Simulation time: 0 hr 7 min 23 sec) 
select_counter is 985
Heartbeat CPU 0 instructions: 14000003 cycles: 7162616 heartbeat IPC: 1.82065 cumulative IPC: 1.95459 (Simulation time: 0 hr 7 min 58 sec) 
select_counter is 748
Heartbeat CPU 0 instructions: 15000000 cycles: 7639145 heartbeat IPC: 2.0985 cumulative IPC: 1.96357 (Simulation time: 0 hr 8 min 31 sec) 
select_counter is 298
Heartbeat CPU 0 instructions: 16000000 cycles: 8115992 heartbeat IPC: 2.09711 cumulative IPC: 1.97142 (Simulation time: 0 hr 9 min 6 sec) 
select_counter is 962
Heartbeat CPU 0 instructions: 17000002 cycles: 8661916 heartbeat IPC: 1.83176 cumulative IPC: 1.96261 (Simulation time: 0 hr 9 min 41 sec) 
select_counter is 1010
Heartbeat CPU 0 instructions: 18000000 cycles: 9149086 heartbeat IPC: 2.05267 cumulative IPC: 1.96741 (Simulation time: 0 hr 10 min 15 sec) 
select_counter is 653
Heartbeat CPU 0 instructions: 19000002 cycles: 9636558 heartbeat IPC: 2.0514 cumulative IPC: 1.97166 (Simulation time: 0 hr 10 min 50 sec) 
select_counter is 232
Heartbeat CPU 0 instructions: 20000000 cycles: 10213012 heartbeat IPC: 1.73474 cumulative IPC: 1.95829 (Simulation time: 0 hr 11 min 26 sec) 
select_counter is 737
Heartbeat CPU 0 instructions: 21000001 cycles: 10759336 heartbeat IPC: 1.83042 cumulative IPC: 1.95179 (Simulation time: 0 hr 12 min 3 sec) 
select_counter is 843
Heartbeat CPU 0 instructions: 22000002 cycles: 11237566 heartbeat IPC: 2.09105 cumulative IPC: 1.95772 (Simulation time: 0 hr 12 min 39 sec) 
select_counter is 325
Heartbeat CPU 0 instructions: 23000001 cycles: 11717239 heartbeat IPC: 2.08475 cumulative IPC: 1.96292 (Simulation time: 0 hr 13 min 14 sec) 
select_counter is 801
Heartbeat CPU 0 instructions: 24000000 cycles: 12248700 heartbeat IPC: 1.8816 cumulative IPC: 1.95939 (Simulation time: 0 hr 13 min 49 sec) 
select_counter is 1017
Heartbeat CPU 0 instructions: 25000002 cycles: 12749130 heartbeat IPC: 1.99829 cumulative IPC: 1.96092 (Simulation time: 0 hr 14 min 23 sec) 
select_counter is 505
Heartbeat CPU 0 instructions: 26000000 cycles: 13229371 heartbeat IPC: 2.08228 cumulative IPC: 1.96532 (Simulation time: 0 hr 14 min 52 sec) 
select_counter is 950
Heartbeat CPU 0 instructions: 27000002 cycles: 13741655 heartbeat IPC: 1.95205 cumulative IPC: 1.96483 (Simulation time: 0 hr 15 min 22 sec) 
select_counter is 883
Heartbeat CPU 0 instructions: 28000000 cycles: 14260111 heartbeat IPC: 1.9288 cumulative IPC: 1.96352 (Simulation time: 0 hr 15 min 57 sec) 
select_counter is 775
Heartbeat CPU 0 instructions: 29000001 cycles: 14738114 heartbeat IPC: 2.09204 cumulative IPC: 1.96769 (Simulation time: 0 hr 16 min 29 sec) 
select_counter is 353
Heartbeat CPU 0 instructions: 30000000 cycles: 15234926 heartbeat IPC: 2.01283 cumulative IPC: 1.96916 (Simulation time: 0 hr 16 min 58 sec) 
select_counter is 242
Heartbeat CPU 0 instructions: 31000002 cycles: 15770364 heartbeat IPC: 1.86763 cumulative IPC: 1.96571 (Simulation time: 0 hr 17 min 32 sec) 
select_counter is 444
Heartbeat CPU 0 instructions: 32000000 cycles: 16249114 heartbeat IPC: 2.08877 cumulative IPC: 1.96934 (Simulation time: 0 hr 18 min 5 sec) 
select_counter is 941
Heartbeat CPU 0 instructions: 33000000 cycles: 16753445 heartbeat IPC: 1.98282 cumulative IPC: 1.96974 (Simulation time: 0 hr 18 min 39 sec) 
select_counter is 698
Heartbeat CPU 0 instructions: 34000000 cycles: 17294989 heartbeat IPC: 1.84657 cumulative IPC: 1.96589 (Simulation time: 0 hr 19 min 13 sec) 
select_counter is 993
Heartbeat CPU 0 instructions: 35000001 cycles: 17784101 heartbeat IPC: 2.04452 cumulative IPC: 1.96805 (Simulation time: 0 hr 19 min 44 sec) 
select_counter is 406
Heartbeat CPU 0 instructions: 36000000 cycles: 18289363 heartbeat IPC: 1.97917 cumulative IPC: 1.96836 (Simulation time: 0 hr 20 min 18 sec) 
select_counter is 276
Heartbeat CPU 0 instructions: 37000002 cycles: 18805089 heartbeat IPC: 1.93902 cumulative IPC: 1.96755 (Simulation time: 0 hr 20 min 52 sec) 
select_counter is 1023
Heartbeat CPU 0 instructions: 38000001 cycles: 19322027 heartbeat IPC: 1.93447 cumulative IPC: 1.96667 (Simulation time: 0 hr 21 min 25 sec) 
select_counter is 713
Heartbeat CPU 0 instructions: 39000000 cycles: 19798904 heartbeat IPC: 2.09697 cumulative IPC: 1.96981 (Simulation time: 0 hr 21 min 56 sec) 
select_counter is 279
Heartbeat CPU 0 instructions: 40000000 cycles: 20287613 heartbeat IPC: 2.04621 cumulative IPC: 1.97165 (Simulation time: 0 hr 22 min 26 sec) 
select_counter is 1013
Heartbeat CPU 0 instructions: 41000000 cycles: 20830153 heartbeat IPC: 1.84318 cumulative IPC: 1.9683 (Simulation time: 0 hr 22 min 58 sec) 
select_counter is 945
Heartbeat CPU 0 instructions: 42000001 cycles: 21313579 heartbeat IPC: 2.06857 cumulative IPC: 1.97057 (Simulation time: 0 hr 23 min 29 sec) 
select_counter is 423
Heartbeat CPU 0 instructions: 43000000 cycles: 21790869 heartbeat IPC: 2.09516 cumulative IPC: 1.9733 (Simulation time: 0 hr 23 min 59 sec) 
select_counter is 1005
Heartbeat CPU 0 instructions: 44000000 cycles: 22325059 heartbeat IPC: 1.87199 cumulative IPC: 1.97088 (Simulation time: 0 hr 24 min 35 sec) 
select_counter is 1018
Heartbeat CPU 0 instructions: 45000001 cycles: 22820803 heartbeat IPC: 2.01717 cumulative IPC: 1.97189 (Simulation time: 0 hr 25 min 6 sec) 
select_counter is 592
Heartbeat CPU 0 instructions: 46000001 cycles: 23300369 heartbeat IPC: 2.08522 cumulative IPC: 1.97422 (Simulation time: 0 hr 25 min 35 sec) 
select_counter is 122
Heartbeat CPU 0 instructions: 47000002 cycles: 23811922 heartbeat IPC: 1.95483 cumulative IPC: 1.9738 (Simulation time: 0 hr 26 min 7 sec) 
select_counter is 971
Heartbeat CPU 0 instructions: 48000000 cycles: 24333629 heartbeat IPC: 1.91678 cumulative IPC: 1.97258 (Simulation time: 0 hr 26 min 41 sec) 
select_counter is 776
Heartbeat CPU 0 instructions: 49000000 cycles: 24816370 heartbeat IPC: 2.0715 cumulative IPC: 1.9745 (Simulation time: 0 hr 27 min 12 sec) 
select_counter is 307
Heartbeat CPU 0 instructions: 50000000 cycles: 25306921 heartbeat IPC: 2.03852 cumulative IPC: 1.97574 (Simulation time: 0 hr 27 min 42 sec) 
select_counter is 1016

Warmup complete CPU 0 instructions: 50000004 cycles: 25306922 (Simulation time: 0 hr 27 min 42 sec) 

Heartbeat CPU 0 instructions: 51000001 cycles: 39994396 heartbeat IPC: 0.0680853 cumulative IPC: 0.068085 (Simulation time: 0 hr 28 min 45 sec) 
select_counter is 966
Heartbeat CPU 0 instructions: 52000000 cycles: 45042808 heartbeat IPC: 0.198082 cumulative IPC: 0.101338 (Simulation time: 0 hr 29 min 24 sec) 
select_counter is 501
Heartbeat CPU 0 instructions: 53000000 cycles: 49233948 heartbeat IPC: 0.238599 cumulative IPC: 0.125381 (Simulation time: 0 hr 30 min 1 sec) 
select_counter is 71
Heartbeat CPU 0 instructions: 54000002 cycles: 65076494 heartbeat IPC: 0.0631213 cumulative IPC: 0.100579 (Simulation time: 0 hr 31 min 7 sec) 
select_counter is 966
Heartbeat CPU 0 instructions: 55000002 cycles: 70720431 heartbeat IPC: 0.177181 cumulative IPC: 0.110099 (Simulation time: 0 hr 31 min 52 sec) 
select_counter is 672
Heartbeat CPU 0 instructions: 56000000 cycles: 75179396 heartbeat IPC: 0.224267 cumulative IPC: 0.120307 (Simulation time: 0 hr 32 min 34 sec) 
select_counter is 393
Heartbeat CPU 0 instructions: 57000000 cycles: 88782388 heartbeat IPC: 0.0735132 cumulative IPC: 0.110279 (Simulation time: 0 hr 33 min 35 sec) 
select_counter is 490
Heartbeat CPU 0 instructions: 58000000 cycles: 96321133 heartbeat IPC: 0.132648 cumulative IPC: 0.112653 (Simulation time: 0 hr 34 min 19 sec) 
select_counter is 182
Heartbeat CPU 0 instructions: 59000002 cycles: 100899140 heartbeat IPC: 0.218436 cumulative IPC: 0.11906 (Simulation time: 0 hr 34 min 59 sec) 
select_counter is 794
Heartbeat CPU 0 instructions: 60000000 cycles: 112519553 heartbeat IPC: 0.0860553 cumulative IPC: 0.114662 (Simulation time: 0 hr 35 min 56 sec) 
select_counter is 1006
Heartbeat CPU 0 instructions: 61000002 cycles: 122263327 heartbeat IPC: 0.10263 cumulative IPC: 0.113453 (Simulation time: 0 hr 36 min 49 sec) 
select_counter is 694
Heartbeat CPU 0 instructions: 62000000 cycles: 126727148 heartbeat IPC: 0.224023 cumulative IPC: 0.11832 (Simulation time: 0 hr 37 min 31 sec) 
select_counter is 266
Heartbeat CPU 0 instructions: 63000001 cycles: 136884492 heartbeat IPC: 0.098451 cumulative IPC: 0.116511 (Simulation time: 0 hr 38 min 23 sec) 
select_counter is 152
Heartbeat CPU 0 instructions: 64000000 cycles: 148586332 heartbeat IPC: 0.0854566 cumulative IPC: 0.113563 (Simulation time: 0 hr 39 min 12 sec) 
select_counter is 303
Heartbeat CPU 0 instructions: 65000002 cycles: 154073769 heartbeat IPC: 0.182235 cumulative IPC: 0.11649 (Simulation time: 0 hr 39 min 54 sec) 
select_counter is 132
Heartbeat CPU 0 instructions: 66000000 cycles: 160469315 heartbeat IPC: 0.156359 cumulative IPC: 0.118376 (Simulation time: 0 hr 40 min 36 sec) 
select_counter is 76
Heartbeat CPU 0 instructions: 67000002 cycles: 176554946 heartbeat IPC: 0.0621674 cumulative IPC: 0.112398 (Simulation time: 0 hr 41 min 43 sec) 
select_counter is 450
Heartbeat CPU 0 instructions: 68000000 cycles: 180953489 heartbeat IPC: 0.227348 cumulative IPC: 0.115647 (Simulation time: 0 hr 42 min 22 sec) 
select_counter is 956
Heartbeat CPU 0 instructions: 69000000 cycles: 185479759 heartbeat IPC: 0.220932 cumulative IPC: 0.118622 (Simulation time: 0 hr 43 min 3 sec) 
select_counter is 442
Heartbeat CPU 0 instructions: 70000001 cycles: 199679464 heartbeat IPC: 0.0704241 cumulative IPC: 0.114697 (Simulation time: 0 hr 44 min 8 sec) 
select_counter is 536
Heartbeat CPU 0 instructions: 71000002 cycles: 208463597 heartbeat IPC: 0.113842 cumulative IPC: 0.114656 (Simulation time: 0 hr 44 min 55 sec) 
select_counter is 439
Heartbeat CPU 0 instructions: 72000000 cycles: 213398087 heartbeat IPC: 0.202655 cumulative IPC: 0.116965 (Simulation time: 0 hr 45 min 33 sec) 
select_counter is 961
Heartbeat CPU 0 instructions: 73000002 cycles: 222635795 heartbeat IPC: 0.108252 cumulative IPC: 0.116557 (Simulation time: 0 hr 46 min 22 sec) 
select_counter is 904
Heartbeat CPU 0 instructions: 74000001 cycles: 234435626 heartbeat IPC: 0.0847469 cumulative IPC: 0.114762 (Simulation time: 0 hr 47 min 31 sec) 
select_counter is 684
Heartbeat CPU 0 instructions: 75000001 cycles: 239068118 heartbeat IPC: 0.215867 cumulative IPC: 0.116953 (Simulation time: 0 hr 48 min 11 sec) 
select_counter is 1004
Heartbeat CPU 0 instructions: 76000000 cycles: 245580818 heartbeat IPC: 0.153546 cumulative IPC: 0.118035 (Simulation time: 0 hr 48 min 53 sec) 
select_counter is 707
Heartbeat CPU 0 instructions: 77000001 cycles: 261319219 heartbeat IPC: 0.0635389 cumulative IPC: 0.114401 (Simulation time: 0 hr 49 min 59 sec) 
select_counter is 1021
Heartbeat CPU 0 instructions: 78000002 cycles: 266555995 heartbeat IPC: 0.190957 cumulative IPC: 0.116063 (Simulation time: 0 hr 50 min 42 sec) 
select_counter is 344
Heartbeat CPU 0 instructions: 79000001 cycles: 271058859 heartbeat IPC: 0.222081 cumulative IPC: 0.118005 (Simulation time: 0 hr 51 min 21 sec) 
select_counter is 880
Heartbeat CPU 0 instructions: 80000000 cycles: 284257496 heartbeat IPC: 0.0757653 cumulative IPC: 0.115852 (Simulation time: 0 hr 52 min 15 sec) 
select_counter is 1021
Heartbeat CPU 0 instructions: 81000000 cycles: 292003621 heartbeat IPC: 0.129097 cumulative IPC: 0.116237 (Simulation time: 0 hr 53 min 1 sec) 
select_counter is 551
Heartbeat CPU 0 instructions: 82000000 cycles: 296915901 heartbeat IPC: 0.203571 cumulative IPC: 0.117816 (Simulation time: 0 hr 53 min 42 sec) 
select_counter is 96
Heartbeat CPU 0 instructions: 83000001 cycles: 306748960 heartbeat IPC: 0.101698 cumulative IPC: 0.117253 (Simulation time: 0 hr 54 min 24 sec) 
select_counter is 985
Heartbeat CPU 0 instructions: 84000000 cycles: 318321084 heartbeat IPC: 0.0864145 cumulative IPC: 0.116035 (Simulation time: 0 hr 55 min 9 sec) 
select_counter is 771
Heartbeat CPU 0 instructions: 85000001 cycles: 322835709 heartbeat IPC: 0.221503 cumulative IPC: 0.117636 (Simulation time: 0 hr 55 min 40 sec) 
select_counter is 293
Heartbeat CPU 0 instructions: 86000000 cycles: 330762810 heartbeat IPC: 0.126149 cumulative IPC: 0.117857 (Simulation time: 0 hr 56 min 16 sec) 
select_counter is 237
Heartbeat CPU 0 instructions: 87000000 cycles: 345378262 heartbeat IPC: 0.0684207 cumulative IPC: 0.115599 (Simulation time: 0 hr 57 min 4 sec) 
select_counter is 419
Heartbeat CPU 0 instructions: 88000000 cycles: 351488192 heartbeat IPC: 0.163668 cumulative IPC: 0.1165 (Simulation time: 0 hr 57 min 33 sec) 
select_counter is 869
Heartbeat CPU 0 instructions: 89000000 cycles: 356183127 heartbeat IPC: 0.212995 cumulative IPC: 0.117869 (Simulation time: 0 hr 58 min 5 sec) 
select_counter is 386
Heartbeat CPU 0 instructions: 90000003 cycles: 368142188 heartbeat IPC: 0.0836189 cumulative IPC: 0.116674 (Simulation time: 0 hr 58 min 38 sec) 
select_counter is 320
Heartbeat CPU 0 instructions: 91000000 cycles: 377188188 heartbeat IPC: 0.110546 cumulative IPC: 0.116517 (Simulation time: 0 hr 59 min 4 sec) 
select_counter is 113
Heartbeat CPU 0 instructions: 92000000 cycles: 381821053 heartbeat IPC: 0.215849 cumulative IPC: 0.117807 (Simulation time: 0 hr 59 min 24 sec) 
select_counter is 673
Heartbeat CPU 0 instructions: 93000002 cycles: 390872535 heartbeat IPC: 0.110479 cumulative IPC: 0.117626 (Simulation time: 0 hr 59 min 49 sec) 
select_counter is 650
Heartbeat CPU 0 instructions: 94000002 cycles: 402593756 heartbeat IPC: 0.0853153 cumulative IPC: 0.116622 (Simulation time: 1 hr 0 min 16 sec) 
select_counter is 532
Heartbeat CPU 0 instructions: 95000000 cycles: 408371634 heartbeat IPC: 0.173074 cumulative IPC: 0.117474 (Simulation time: 1 hr 0 min 35 sec) 
select_counter is 6
Heartbeat CPU 0 instructions: 96000000 cycles: 414402133 heartbeat IPC: 0.165824 cumulative IPC: 0.118223 (Simulation time: 1 hr 0 min 54 sec) 
select_counter is 603
Heartbeat CPU 0 instructions: 97000000 cycles: 429273097 heartbeat IPC: 0.0672451 cumulative IPC: 0.116346 (Simulation time: 1 hr 1 min 21 sec) 
select_counter is 810
Heartbeat CPU 0 instructions: 98000002 cycles: 434236790 heartbeat IPC: 0.201463 cumulative IPC: 0.11738 (Simulation time: 1 hr 1 min 38 sec) 
select_counter is 472
Heartbeat CPU 0 instructions: 99000002 cycles: 438939762 heartbeat IPC: 0.212632 cumulative IPC: 0.118463 (Simulation time: 1 hr 1 min 54 sec) 
select_counter is 29
Heartbeat CPU 0 instructions: 100000000 cycles: 453168985 heartbeat IPC: 0.0702778 cumulative IPC: 0.11686 (Simulation time: 1 hr 2 min 17 sec) 
select_counter is 958
Heartbeat CPU 0 instructions: 101000000 cycles: 460318900 heartbeat IPC: 0.139862 cumulative IPC: 0.117238 (Simulation time: 1 hr 2 min 33 sec) 
select_counter is 559
Heartbeat CPU 0 instructions: 102000003 cycles: 464644594 heartbeat IPC: 0.231177 cumulative IPC: 0.11836 (Simulation time: 1 hr 2 min 47 sec) 
select_counter is 92
Heartbeat CPU 0 instructions: 103000003 cycles: 476784370 heartbeat IPC: 0.0823738 cumulative IPC: 0.117392 (Simulation time: 1 hr 3 min 5 sec) 
select_counter is 964
Heartbeat CPU 0 instructions: 104000000 cycles: 488869679 heartbeat IPC: 0.0827448 cumulative IPC: 0.116489 (Simulation time: 1 hr 3 min 22 sec) 
select_counter is 627
Heartbeat CPU 0 instructions: 105000000 cycles: 493850783 heartbeat IPC: 0.200759 cumulative IPC: 0.117385 (Simulation time: 1 hr 3 min 35 sec) 
select_counter is 116
Heartbeat CPU 0 instructions: 106000000 cycles: 498581395 heartbeat IPC: 0.211389 cumulative IPC: 0.118325 (Simulation time: 1 hr 3 min 47 sec) 
select_counter is 662
Heartbeat CPU 0 instructions: 107000002 cycles: 513852024 heartbeat IPC: 0.0654853 cumulative IPC: 0.116673 (Simulation time: 1 hr 4 min 7 sec) 
select_counter is 900
Heartbeat CPU 0 instructions: 108000000 cycles: 519578642 heartbeat IPC: 0.174623 cumulative IPC: 0.117344 (Simulation time: 1 hr 4 min 19 sec) 
select_counter is 438
Heartbeat CPU 0 instructions: 109000001 cycles: 524179992 heartbeat IPC: 0.217328 cumulative IPC: 0.118267 (Simulation time: 1 hr 4 min 30 sec) 
select_counter is 821
Heartbeat CPU 0 instructions: 110000002 cycles: 534227671 heartbeat IPC: 0.0995256 cumulative IPC: 0.117897 (Simulation time: 1 hr 4 min 44 sec) 
select_counter is 591
Heartbeat CPU 0 instructions: 111000003 cycles: 545258579 heartbeat IPC: 0.0906545 cumulative IPC: 0.117319 (Simulation time: 1 hr 4 min 59 sec) 
select_counter is 403
Heartbeat CPU 0 instructions: 112000000 cycles: 549453661 heartbeat IPC: 0.238374 cumulative IPC: 0.118287 (Simulation time: 1 hr 5 min 9 sec) 
select_counter is 912
Heartbeat CPU 0 instructions: 113000000 cycles: 557603044 heartbeat IPC: 0.122709 cumulative IPC: 0.118355 (Simulation time: 1 hr 5 min 18 sec) 
select_counter is 713
Heartbeat CPU 0 instructions: 114000000 cycles: 571427023 heartbeat IPC: 0.0723381 cumulative IPC: 0.11719 (Simulation time: 1 hr 5 min 26 sec) 
select_counter is 607
Heartbeat CPU 0 instructions: 115000001 cycles: 579218232 heartbeat IPC: 0.12835 cumulative IPC: 0.117347 (Simulation time: 1 hr 5 min 32 sec) 
select_counter is 170
Heartbeat CPU 0 instructions: 116000000 cycles: 583672797 heartbeat IPC: 0.224489 cumulative IPC: 0.118202 (Simulation time: 1 hr 5 min 36 sec) 
select_counter is 781
Heartbeat CPU 0 instructions: 117000000 cycles: 594209376 heartbeat IPC: 0.0949075 cumulative IPC: 0.117771 (Simulation time: 1 hr 5 min 42 sec) 
select_counter is 731
Heartbeat CPU 0 instructions: 118000000 cycles: 604617397 heartbeat IPC: 0.0960797 cumulative IPC: 0.117381 (Simulation time: 1 hr 5 min 48 sec) 
select_counter is 580
Heartbeat CPU 0 instructions: 119000000 cycles: 608909744 heartbeat IPC: 0.232973 cumulative IPC: 0.118231 (Simulation time: 1 hr 5 min 53 sec) 
select_counter is 88
Heartbeat CPU 0 instructions: 120000000 cycles: 615909359 heartbeat IPC: 0.142865 cumulative IPC: 0.118523 (Simulation time: 1 hr 5 min 58 sec) 
select_counter is 624
Heartbeat CPU 0 instructions: 121000000 cycles: 629834066 heartbeat IPC: 0.0718148 cumulative IPC: 0.117447 (Simulation time: 1 hr 6 min 5 sec) 
select_counter is 780
Heartbeat CPU 0 instructions: 122000001 cycles: 634230192 heartbeat IPC: 0.227473 cumulative IPC: 0.118241 (Simulation time: 1 hr 6 min 9 sec) 
select_counter is 321
Heartbeat CPU 0 instructions: 123000000 cycles: 638652104 heartbeat IPC: 0.226146 cumulative IPC: 0.119019 (Simulation time: 1 hr 6 min 14 sec) 
select_counter is 832
Heartbeat CPU 0 instructions: 124000000 cycles: 653577262 heartbeat IPC: 0.067001 cumulative IPC: 0.117784 (Simulation time: 1 hr 6 min 21 sec) 
select_counter is 983
Heartbeat CPU 0 instructions: 125000000 cycles: 659742696 heartbeat IPC: 0.162195 cumulative IPC: 0.118215 (Simulation time: 1 hr 6 min 26 sec) 
select_counter is 417
Heartbeat CPU 0 instructions: 126000000 cycles: 664171975 heartbeat IPC: 0.22577 cumulative IPC: 0.118961 (Simulation time: 1 hr 6 min 30 sec) 
select_counter is 676
Heartbeat CPU 0 instructions: 127000002 cycles: 676397467 heartbeat IPC: 0.0817965 cumulative IPC: 0.118263 (Simulation time: 1 hr 6 min 37 sec) 
select_counter is 756
Heartbeat CPU 0 instructions: 128000000 cycles: 685162324 heartbeat IPC: 0.114092 cumulative IPC: 0.118208 (Simulation time: 1 hr 6 min 43 sec) 
select_counter is 451
Heartbeat CPU 0 instructions: 129000000 cycles: 689383799 heartbeat IPC: 0.236884 cumulative IPC: 0.118962 (Simulation time: 1 hr 6 min 47 sec) 
select_counter is 971
Heartbeat CPU 0 instructions: 130000000 cycles: 698533771 heartbeat IPC: 0.10929 cumulative IPC: 0.118831 (Simulation time: 1 hr 6 min 53 sec) 
select_counter is 706
Heartbeat CPU 0 instructions: 131000000 cycles: 711218993 heartbeat IPC: 0.0788319 cumulative IPC: 0.118091 (Simulation time: 1 hr 7 min 0 sec) 
select_counter is 753
Heartbeat CPU 0 instructions: 132000000 cycles: 716439265 heartbeat IPC: 0.191561 cumulative IPC: 0.118646 (Simulation time: 1 hr 7 min 4 sec) 
select_counter is 195
Heartbeat CPU 0 instructions: 133000002 cycles: 721605826 heartbeat IPC: 0.193553 cumulative IPC: 0.119202 (Simulation time: 1 hr 7 min 9 sec) 
select_counter is 737
Heartbeat CPU 0 instructions: 134000001 cycles: 737236692 heartbeat IPC: 0.0639759 cumulative IPC: 0.117989 (Simulation time: 1 hr 7 min 17 sec) 
select_counter is 1011
Heartbeat CPU 0 instructions: 135000001 cycles: 742028551 heartbeat IPC: 0.208687 cumulative IPC: 0.118596 (Simulation time: 1 hr 7 min 21 sec) 
select_counter is 507
Heartbeat CPU 0 instructions: 136000000 cycles: 750409099 heartbeat IPC: 0.119324 cumulative IPC: 0.118604 (Simulation time: 1 hr 7 min 26 sec) 
select_counter is 484
Heartbeat CPU 0 instructions: 137000000 cycles: 760524094 heartbeat IPC: 0.0988631 cumulative IPC: 0.118332 (Simulation time: 1 hr 7 min 32 sec) 
select_counter is 994
Heartbeat CPU 0 instructions: 138000001 cycles: 772004403 heartbeat IPC: 0.0871058 cumulative IPC: 0.117852 (Simulation time: 1 hr 7 min 39 sec) 
select_counter is 784
Heartbeat CPU 0 instructions: 139000002 cycles: 776554216 heartbeat IPC: 0.219789 cumulative IPC: 0.11847 (Simulation time: 1 hr 7 min 44 sec) 
select_counter is 248
Heartbeat CPU 0 instructions: 140000000 cycles: 782861907 heartbeat IPC: 0.158536 cumulative IPC: 0.118803 (Simulation time: 1 hr 7 min 49 sec) 
select_counter is 794
Heartbeat CPU 0 instructions: 141000002 cycles: 797153858 heartbeat IPC: 0.0699696 cumulative IPC: 0.117899 (Simulation time: 1 hr 7 min 56 sec) 
select_counter is 998
Heartbeat CPU 0 instructions: 142000002 cycles: 801615192 heartbeat IPC: 0.224148 cumulative IPC: 0.11851 (Simulation time: 1 hr 8 min 1 sec) 
select_counter is 546
Heartbeat CPU 0 instructions: 143000002 cycles: 805562222 heartbeat IPC: 0.253355 cumulative IPC: 0.119192 (Simulation time: 1 hr 8 min 5 sec) 
select_counter is 114
Heartbeat CPU 0 instructions: 144000000 cycles: 821188404 heartbeat IPC: 0.063995 cumulative IPC: 0.118108 (Simulation time: 1 hr 8 min 13 sec) 
select_counter is 1020
Heartbeat CPU 0 instructions: 145000001 cycles: 826761356 heartbeat IPC: 0.179438 cumulative IPC: 0.118534 (Simulation time: 1 hr 8 min 18 sec) 
select_counter is 669
Heartbeat CPU 0 instructions: 146000001 cycles: 831035856 heartbeat IPC: 0.233945 cumulative IPC: 0.119147 (Simulation time: 1 hr 8 min 22 sec) 
select_counter is 299
Heartbeat CPU 0 instructions: 147000000 cycles: 844410642 heartbeat IPC: 0.0747675 cumulative IPC: 0.118422 (Simulation time: 1 hr 8 min 29 sec) 
select_counter is 351
Heartbeat CPU 0 instructions: 148000000 cycles: 851994772 heartbeat IPC: 0.131854 cumulative IPC: 0.118545 (Simulation time: 1 hr 8 min 35 sec) 
select_counter is 241
Heartbeat CPU 0 instructions: 149000000 cycles: 856453529 heartbeat IPC: 0.224278 cumulative IPC: 0.119113 (Simulation time: 1 hr 8 min 39 sec) 
select_counter is 821
Heartbeat CPU 0 instructions: 150000000 cycles: 867462799 heartbeat IPC: 0.0908325 cumulative IPC: 0.118743 (Simulation time: 1 hr 8 min 46 sec) 
select_counter is 891
Finished CPU 0 instructions: 100000000 cycles: 842156095 cummulative IPC: 0.118743 (Simulation time: 1 hr 8 min 46 sec) 

ChampSim completed all CPUs

Region of Interest Statistics

CPU 0 cummulative IPC: 0.118743 instructions: 100000000 cycles: 842156095
LLC TOTAL     ACCESS:   18822659  HIT:    7450408  MISS:   11372251
LLC LOAD      ACCESS:    8514836  HIT:    4099460  MISS:    4415376
LLC RFO       ACCESS:     210369  HIT:      99181  MISS:     111188
LLC PREFETCH  ACCESS:    8002322  HIT:    1975168  MISS:    6027154
LLC WRITEBACK ACCESS:    2095132  HIT:    1276599  MISS:     818533
Ship samples: 
10, 42, 76, 109, 150, 183, 215, 238, 278, 291, 332, 366, 396, 419, 475, 495, 535, 563, 596, 608, 645, 694, 734, 749, 794, 829, 837, 874, 916, 940, 970, 1013, 1045, 1060, 1098, 1139, 1180, 1196, 1229, 1264, 1289, 1326, 1368, 1377, 1414, 1469, 1481, 1521, 1563, 1575, 1625, 1653, 1668, 1713, 1755, 1785, 1806, 1843, 1856, 1907, 1922, 1974, 1987, 2025, 
Lime duel samples: 
20, 58, 78, 122, 157, 164, 203, 230, 272, 310, 328, 373, 387, 425, 474, 508, 517, 569, 579, 609, 650, 696, 733, 740, 789, 816, 838, 875, 914, 941, 976, 1019, 1025, 1065, 1097, 1124, 1167, 1193, 1243, 1273, 1288, 1325, 1359, 1400, 1421, 1453, 1488, 1522, 1566, 1589, 1605, 1658, 1686, 1697, 1745, 1761, 1796, 1832, 1862, 1908, 1926, 1968, 1995, 2023, 
Lime samples: 
20, 122, 203, 310, 387, 508, 579, 696, 789, 875, 976, 1065, 1167, 1273, 1359, 1453, 1566, 1658, 1745, 1832, 1926, 
Insertion Distribution: 
	LOAD 272952 0 0 0 0 0 191822 1082027 
	RFO 18063 0 0 0 0 0 5941 22856 
	PREF 0 809167 0 0 0 0 536195 2135622 
	WRITEBACK 0 0 0 0 0 0 0 240648 
Total Prefetch Downgrades: 754348
