
*** ChampSim Multicore Out-of-Order Simulator ***

Warmup Instructions: 50000000
Simulation Instructions: 100000000
Configuration: 2
Number of CPUs: 1
LLC sets: 2048
LLC ways: 16
Off-chip DRAM Channels: 1 Width: 64-bit Data Rate: 1600 MT/s

CPU 0 runs /datasets/cs240c-wi22-a00-public/data/Assignment2-gz/leslie3d_1116B.trace.gz
CPU 0 L1D next line prefetcher
CPU 0 L2C IP-based stride prefetcher
Heartbeat CPU 0 instructions: 1000003 cycles: 535311 heartbeat IPC: 1.86808 cumulative IPC: 1.86808 (Simulation time: 0 hr 0 min 27 sec) 
select_counter is 526
Heartbeat CPU 0 instructions: 2000003 cycles: 1071188 heartbeat IPC: 1.8661 cumulative IPC: 1.86709 (Simulation time: 0 hr 0 min 54 sec) 
select_counter is 536
Heartbeat CPU 0 instructions: 3000003 cycles: 1607882 heartbeat IPC: 1.86326 cumulative IPC: 1.86581 (Simulation time: 0 hr 1 min 22 sec) 
select_counter is 596
Heartbeat CPU 0 instructions: 4000000 cycles: 2143243 heartbeat IPC: 1.86789 cumulative IPC: 1.86633 (Simulation time: 0 hr 1 min 54 sec) 
select_counter is 630
Heartbeat CPU 0 instructions: 5000001 cycles: 2678333 heartbeat IPC: 1.86885 cumulative IPC: 1.86683 (Simulation time: 0 hr 2 min 21 sec) 
select_counter is 518
Heartbeat CPU 0 instructions: 6000001 cycles: 3213731 heartbeat IPC: 1.86777 cumulative IPC: 1.86699 (Simulation time: 0 hr 2 min 48 sec) 
select_counter is 443
Heartbeat CPU 0 instructions: 7000001 cycles: 3749695 heartbeat IPC: 1.8658 cumulative IPC: 1.86682 (Simulation time: 0 hr 3 min 18 sec) 
select_counter is 489
Heartbeat CPU 0 instructions: 8000000 cycles: 4285731 heartbeat IPC: 1.86554 cumulative IPC: 1.86666 (Simulation time: 0 hr 3 min 44 sec) 
select_counter is 483
Heartbeat CPU 0 instructions: 9000003 cycles: 4820856 heartbeat IPC: 1.86873 cumulative IPC: 1.86689 (Simulation time: 0 hr 4 min 10 sec) 
select_counter is 423
Heartbeat CPU 0 instructions: 10000002 cycles: 5355889 heartbeat IPC: 1.86904 cumulative IPC: 1.8671 (Simulation time: 0 hr 4 min 39 sec) 
select_counter is 404
Heartbeat CPU 0 instructions: 11000001 cycles: 5891700 heartbeat IPC: 1.86633 cumulative IPC: 1.86703 (Simulation time: 0 hr 5 min 12 sec) 
select_counter is 426
Heartbeat CPU 0 instructions: 12000000 cycles: 6428176 heartbeat IPC: 1.86401 cumulative IPC: 1.86678 (Simulation time: 0 hr 5 min 42 sec) 
select_counter is 356
Heartbeat CPU 0 instructions: 13000002 cycles: 6963552 heartbeat IPC: 1.86785 cumulative IPC: 1.86686 (Simulation time: 0 hr 6 min 12 sec) 
select_counter is 301
Heartbeat CPU 0 instructions: 14000003 cycles: 7498358 heartbeat IPC: 1.86984 cumulative IPC: 1.86708 (Simulation time: 0 hr 6 min 36 sec) 
select_counter is 288
Heartbeat CPU 0 instructions: 15000002 cycles: 8033890 heartbeat IPC: 1.8673 cumulative IPC: 1.86709 (Simulation time: 0 hr 7 min 8 sec) 
select_counter is 299
Heartbeat CPU 0 instructions: 16000000 cycles: 8570004 heartbeat IPC: 1.86527 cumulative IPC: 1.86698 (Simulation time: 0 hr 7 min 35 sec) 
select_counter is 288
Heartbeat CPU 0 instructions: 17000003 cycles: 9106461 heartbeat IPC: 1.86409 cumulative IPC: 1.86681 (Simulation time: 0 hr 8 min 4 sec) 
select_counter is 242
Heartbeat CPU 0 instructions: 18000001 cycles: 9641513 heartbeat IPC: 1.86897 cumulative IPC: 1.86693 (Simulation time: 0 hr 8 min 33 sec) 
select_counter is 241
Heartbeat CPU 0 instructions: 19000001 cycles: 10176948 heartbeat IPC: 1.86764 cumulative IPC: 1.86696 (Simulation time: 0 hr 9 min 1 sec) 
select_counter is 251
Heartbeat CPU 0 instructions: 20000000 cycles: 10712351 heartbeat IPC: 1.86775 cumulative IPC: 1.867 (Simulation time: 0 hr 9 min 27 sec) 
select_counter is 248
Heartbeat CPU 0 instructions: 21000000 cycles: 11248895 heartbeat IPC: 1.86378 cumulative IPC: 1.86685 (Simulation time: 0 hr 9 min 54 sec) 
select_counter is 249
Heartbeat CPU 0 instructions: 22000000 cycles: 11784056 heartbeat IPC: 1.8686 cumulative IPC: 1.86693 (Simulation time: 0 hr 10 min 23 sec) 
select_counter is 246
Heartbeat CPU 0 instructions: 23000003 cycles: 12319344 heartbeat IPC: 1.86816 cumulative IPC: 1.86698 (Simulation time: 0 hr 10 min 52 sec) 
select_counter is 236
Heartbeat CPU 0 instructions: 24000000 cycles: 12854476 heartbeat IPC: 1.86869 cumulative IPC: 1.86705 (Simulation time: 0 hr 11 min 25 sec) 
select_counter is 256
Heartbeat CPU 0 instructions: 25000001 cycles: 13390463 heartbeat IPC: 1.86572 cumulative IPC: 1.867 (Simulation time: 0 hr 11 min 58 sec) 
select_counter is 284
Heartbeat CPU 0 instructions: 26000002 cycles: 13926838 heartbeat IPC: 1.86437 cumulative IPC: 1.8669 (Simulation time: 0 hr 12 min 31 sec) 
select_counter is 287
Heartbeat CPU 0 instructions: 27000003 cycles: 14461782 heartbeat IPC: 1.86936 cumulative IPC: 1.86699 (Simulation time: 0 hr 13 min 0 sec) 
select_counter is 289
Heartbeat CPU 0 instructions: 28000000 cycles: 14996909 heartbeat IPC: 1.86871 cumulative IPC: 1.86705 (Simulation time: 0 hr 13 min 30 sec) 
select_counter is 310
Heartbeat CPU 0 instructions: 29000000 cycles: 15532447 heartbeat IPC: 1.86728 cumulative IPC: 1.86706 (Simulation time: 0 hr 14 min 0 sec) 
select_counter is 345
Heartbeat CPU 0 instructions: 30000002 cycles: 16069311 heartbeat IPC: 1.86267 cumulative IPC: 1.86691 (Simulation time: 0 hr 14 min 33 sec) 
select_counter is 373
Heartbeat CPU 0 instructions: 31000001 cycles: 16604563 heartbeat IPC: 1.86828 cumulative IPC: 1.86696 (Simulation time: 0 hr 15 min 6 sec) 
select_counter is 381
Heartbeat CPU 0 instructions: 32000000 cycles: 17140095 heartbeat IPC: 1.8673 cumulative IPC: 1.86697 (Simulation time: 0 hr 15 min 36 sec) 
select_counter is 403
Heartbeat CPU 0 instructions: 33000001 cycles: 17675375 heartbeat IPC: 1.86818 cumulative IPC: 1.867 (Simulation time: 0 hr 16 min 5 sec) 
select_counter is 420
Heartbeat CPU 0 instructions: 34000000 cycles: 18211149 heartbeat IPC: 1.86646 cumulative IPC: 1.86699 (Simulation time: 0 hr 16 min 35 sec) 
select_counter is 439
Heartbeat CPU 0 instructions: 35000000 cycles: 18747235 heartbeat IPC: 1.86537 cumulative IPC: 1.86694 (Simulation time: 0 hr 17 min 1 sec) 
select_counter is 455
Heartbeat CPU 0 instructions: 36000000 cycles: 19281904 heartbeat IPC: 1.87032 cumulative IPC: 1.86704 (Simulation time: 0 hr 17 min 28 sec) 
select_counter is 451
Heartbeat CPU 0 instructions: 37000003 cycles: 19864247 heartbeat IPC: 1.71721 cumulative IPC: 1.86264 (Simulation time: 0 hr 17 min 56 sec) 
select_counter is 785
Heartbeat CPU 0 instructions: 38000003 cycles: 20282496 heartbeat IPC: 2.39092 cumulative IPC: 1.87354 (Simulation time: 0 hr 18 min 21 sec) 
select_counter is 1020
Heartbeat CPU 0 instructions: 39000003 cycles: 20700658 heartbeat IPC: 2.39142 cumulative IPC: 1.884 (Simulation time: 0 hr 18 min 45 sec) 
select_counter is 1023
Heartbeat CPU 0 instructions: 40000000 cycles: 21119037 heartbeat IPC: 2.39017 cumulative IPC: 1.89403 (Simulation time: 0 hr 19 min 10 sec) 
select_counter is 1021
Heartbeat CPU 0 instructions: 41000002 cycles: 21537201 heartbeat IPC: 2.39141 cumulative IPC: 1.90368 (Simulation time: 0 hr 19 min 33 sec) 
select_counter is 1023
Heartbeat CPU 0 instructions: 42000001 cycles: 21955053 heartbeat IPC: 2.39319 cumulative IPC: 1.913 (Simulation time: 0 hr 19 min 59 sec) 
select_counter is 1022
Heartbeat CPU 0 instructions: 43000003 cycles: 22373082 heartbeat IPC: 2.39218 cumulative IPC: 1.92195 (Simulation time: 0 hr 20 min 27 sec) 
select_counter is 1022
Heartbeat CPU 0 instructions: 44000000 cycles: 22790994 heartbeat IPC: 2.39284 cumulative IPC: 1.93059 (Simulation time: 0 hr 20 min 53 sec) 
select_counter is 1022
Heartbeat CPU 0 instructions: 45000002 cycles: 23209123 heartbeat IPC: 2.39161 cumulative IPC: 1.93889 (Simulation time: 0 hr 21 min 20 sec) 
select_counter is 1022
Heartbeat CPU 0 instructions: 46000002 cycles: 23627031 heartbeat IPC: 2.39287 cumulative IPC: 1.94692 (Simulation time: 0 hr 21 min 46 sec) 
select_counter is 1022
Heartbeat CPU 0 instructions: 47000001 cycles: 24044715 heartbeat IPC: 2.39415 cumulative IPC: 1.95469 (Simulation time: 0 hr 22 min 11 sec) 
select_counter is 1023
Heartbeat CPU 0 instructions: 48000000 cycles: 24462692 heartbeat IPC: 2.39247 cumulative IPC: 1.96217 (Simulation time: 0 hr 22 min 37 sec) 
select_counter is 1023
Heartbeat CPU 0 instructions: 49000000 cycles: 24919943 heartbeat IPC: 2.18698 cumulative IPC: 1.9663 (Simulation time: 0 hr 23 min 3 sec) 
select_counter is 1019
Heartbeat CPU 0 instructions: 50000000 cycles: 25407234 heartbeat IPC: 2.05216 cumulative IPC: 1.96794 (Simulation time: 0 hr 23 min 31 sec) 
select_counter is 971

Warmup complete CPU 0 instructions: 50000004 cycles: 25407236 (Simulation time: 0 hr 23 min 31 sec) 

Heartbeat CPU 0 instructions: 51000003 cycles: 28096349 heartbeat IPC: 0.371871 cumulative IPC: 0.371869 (Simulation time: 0 hr 24 min 9 sec) 
select_counter is 1023
Heartbeat CPU 0 instructions: 52000000 cycles: 30599686 heartbeat IPC: 0.399466 cumulative IPC: 0.385174 (Simulation time: 0 hr 24 min 46 sec) 
select_counter is 1021
Heartbeat CPU 0 instructions: 53000003 cycles: 33073347 heartbeat IPC: 0.40426 cumulative IPC: 0.391333 (Simulation time: 0 hr 25 min 19 sec) 
select_counter is 993
Heartbeat CPU 0 instructions: 54000000 cycles: 35435950 heartbeat IPC: 0.423261 cumulative IPC: 0.398854 (Simulation time: 0 hr 25 min 56 sec) 
select_counter is 1020
Heartbeat CPU 0 instructions: 55000002 cycles: 37774425 heartbeat IPC: 0.42763 cumulative IPC: 0.404295 (Simulation time: 0 hr 26 min 36 sec) 
select_counter is 1018
Heartbeat CPU 0 instructions: 56000000 cycles: 40174527 heartbeat IPC: 0.416648 cumulative IPC: 0.406303 (Simulation time: 0 hr 27 min 14 sec) 
select_counter is 1018
Heartbeat CPU 0 instructions: 57000001 cycles: 42547476 heartbeat IPC: 0.421417 cumulative IPC: 0.408395 (Simulation time: 0 hr 27 min 55 sec) 
select_counter is 1019
Heartbeat CPU 0 instructions: 58000001 cycles: 44841772 heartbeat IPC: 0.435864 cumulative IPC: 0.411638 (Simulation time: 0 hr 28 min 33 sec) 
select_counter is 1016
Heartbeat CPU 0 instructions: 59000000 cycles: 46146461 heartbeat IPC: 0.766465 cumulative IPC: 0.43396 (Simulation time: 0 hr 29 min 4 sec) 
select_counter is 988
Heartbeat CPU 0 instructions: 60000000 cycles: 47453775 heartbeat IPC: 0.764927 cumulative IPC: 0.453586 (Simulation time: 0 hr 29 min 38 sec) 
select_counter is 1015
Heartbeat CPU 0 instructions: 61000000 cycles: 48823130 heartbeat IPC: 0.730271 cumulative IPC: 0.469766 (Simulation time: 0 hr 30 min 7 sec) 
select_counter is 1013
Heartbeat CPU 0 instructions: 62000002 cycles: 50220862 heartbeat IPC: 0.715446 cumulative IPC: 0.483605 (Simulation time: 0 hr 30 min 39 sec) 
select_counter is 973
Heartbeat CPU 0 instructions: 63000003 cycles: 51466767 heartbeat IPC: 0.80263 cumulative IPC: 0.498858 (Simulation time: 0 hr 31 min 11 sec) 
select_counter is 937
Heartbeat CPU 0 instructions: 64000000 cycles: 52730122 heartbeat IPC: 0.791541 cumulative IPC: 0.512391 (Simulation time: 0 hr 31 min 46 sec) 
select_counter is 939
Heartbeat CPU 0 instructions: 65000001 cycles: 54189367 heartbeat IPC: 0.685287 cumulative IPC: 0.521157 (Simulation time: 0 hr 32 min 18 sec) 
select_counter is 1011
Heartbeat CPU 0 instructions: 66000000 cycles: 55411912 heartbeat IPC: 0.817965 cumulative IPC: 0.53325 (Simulation time: 0 hr 32 min 48 sec) 
select_counter is 970
Heartbeat CPU 0 instructions: 67000001 cycles: 56655299 heartbeat IPC: 0.804256 cumulative IPC: 0.544034 (Simulation time: 0 hr 33 min 21 sec) 
select_counter is 950
Heartbeat CPU 0 instructions: 68000000 cycles: 58061971 heartbeat IPC: 0.710897 cumulative IPC: 0.551222 (Simulation time: 0 hr 33 min 49 sec) 
select_counter is 976
Heartbeat CPU 0 instructions: 69000002 cycles: 59347516 heartbeat IPC: 0.777882 cumulative IPC: 0.559807 (Simulation time: 0 hr 34 min 21 sec) 
select_counter is 945
Heartbeat CPU 0 instructions: 70000000 cycles: 60564687 heartbeat IPC: 0.821576 cumulative IPC: 0.568869 (Simulation time: 0 hr 34 min 53 sec) 
select_counter is 937
Heartbeat CPU 0 instructions: 71000002 cycles: 61803028 heartbeat IPC: 0.807534 cumulative IPC: 0.57699 (Simulation time: 0 hr 35 min 23 sec) 
select_counter is 934
Heartbeat CPU 0 instructions: 72000000 cycles: 63223402 heartbeat IPC: 0.704039 cumulative IPC: 0.581762 (Simulation time: 0 hr 35 min 54 sec) 
select_counter is 951
Heartbeat CPU 0 instructions: 73000000 cycles: 64459638 heartbeat IPC: 0.808907 cumulative IPC: 0.588952 (Simulation time: 0 hr 36 min 26 sec) 
select_counter is 926
Heartbeat CPU 0 instructions: 74000000 cycles: 65686239 heartbeat IPC: 0.815261 cumulative IPC: 0.595844 (Simulation time: 0 hr 36 min 59 sec) 
select_counter is 914
Heartbeat CPU 0 instructions: 75000002 cycles: 67118279 heartbeat IPC: 0.698306 cumulative IPC: 0.599362 (Simulation time: 0 hr 37 min 29 sec) 
select_counter is 927
Heartbeat CPU 0 instructions: 76000000 cycles: 68339963 heartbeat IPC: 0.818541 cumulative IPC: 0.605599 (Simulation time: 0 hr 38 min 1 sec) 
select_counter is 899
Heartbeat CPU 0 instructions: 77000001 cycles: 69552742 heartbeat IPC: 0.824553 cumulative IPC: 0.611614 (Simulation time: 0 hr 38 min 32 sec) 
select_counter is 860
Heartbeat CPU 0 instructions: 78000000 cycles: 70866711 heartbeat IPC: 0.761052 cumulative IPC: 0.615933 (Simulation time: 0 hr 39 min 5 sec) 
select_counter is 839
Heartbeat CPU 0 instructions: 79000001 cycles: 72190545 heartbeat IPC: 0.755382 cumulative IPC: 0.619879 (Simulation time: 0 hr 39 min 36 sec) 
select_counter is 833
Heartbeat CPU 0 instructions: 80000000 cycles: 73407990 heartbeat IPC: 0.821392 cumulative IPC: 0.62499 (Simulation time: 0 hr 40 min 8 sec) 
select_counter is 796
Heartbeat CPU 0 instructions: 81000003 cycles: 74623907 heartbeat IPC: 0.822427 cumulative IPC: 0.629868 (Simulation time: 0 hr 40 min 39 sec) 
select_counter is 772
Heartbeat CPU 0 instructions: 82000000 cycles: 76031018 heartbeat IPC: 0.710674 cumulative IPC: 0.632114 (Simulation time: 0 hr 41 min 7 sec) 
select_counter is 777
Heartbeat CPU 0 instructions: 83000001 cycles: 77245300 heartbeat IPC: 0.823533 cumulative IPC: 0.636598 (Simulation time: 0 hr 41 min 41 sec) 
select_counter is 718
Heartbeat CPU 0 instructions: 84000000 cycles: 78469047 heartbeat IPC: 0.817162 cumulative IPC: 0.640762 (Simulation time: 0 hr 42 min 13 sec) 
select_counter is 680
Heartbeat CPU 0 instructions: 85000003 cycles: 79870528 heartbeat IPC: 0.713533 cumulative IPC: 0.642635 (Simulation time: 0 hr 42 min 42 sec) 
select_counter is 671
Heartbeat CPU 0 instructions: 86000002 cycles: 81099007 heartbeat IPC: 0.814014 cumulative IPC: 0.646415 (Simulation time: 0 hr 43 min 12 sec) 
select_counter is 642
Heartbeat CPU 0 instructions: 87000001 cycles: 82311835 heartbeat IPC: 0.824518 cumulative IPC: 0.650211 (Simulation time: 0 hr 43 min 46 sec) 
select_counter is 580
Heartbeat CPU 0 instructions: 88000000 cycles: 83552111 heartbeat IPC: 0.806271 cumulative IPC: 0.65354 (Simulation time: 0 hr 44 min 17 sec) 
select_counter is 544
Heartbeat CPU 0 instructions: 89000001 cycles: 84946939 heartbeat IPC: 0.716935 cumulative IPC: 0.655025 (Simulation time: 0 hr 44 min 48 sec) 
select_counter is 527
Heartbeat CPU 0 instructions: 90000003 cycles: 86174636 heartbeat IPC: 0.814535 cumulative IPC: 0.658248 (Simulation time: 0 hr 45 min 27 sec) 
select_counter is 480
Heartbeat CPU 0 instructions: 91000000 cycles: 87409023 heartbeat IPC: 0.810116 cumulative IPC: 0.661271 (Simulation time: 0 hr 45 min 59 sec) 
select_counter is 436
Heartbeat CPU 0 instructions: 92000000 cycles: 88924683 heartbeat IPC: 0.659779 cumulative IPC: 0.661236 (Simulation time: 0 hr 46 min 28 sec) 
select_counter is 450
Heartbeat CPU 0 instructions: 93000002 cycles: 90137376 heartbeat IPC: 0.824613 cumulative IPC: 0.664296 (Simulation time: 0 hr 46 min 59 sec) 
select_counter is 410
Heartbeat CPU 0 instructions: 94000000 cycles: 91338407 heartbeat IPC: 0.832616 cumulative IPC: 0.667363 (Simulation time: 0 hr 47 min 32 sec) 
select_counter is 362
Heartbeat CPU 0 instructions: 95000003 cycles: 92700898 heartbeat IPC: 0.733952 cumulative IPC: 0.668711 (Simulation time: 0 hr 48 min 1 sec) 
select_counter is 320
Heartbeat CPU 0 instructions: 96000000 cycles: 94048140 heartbeat IPC: 0.742255 cumulative IPC: 0.670154 (Simulation time: 0 hr 48 min 34 sec) 
select_counter is 269
Heartbeat CPU 0 instructions: 97000000 cycles: 95227273 heartbeat IPC: 0.848081 cumulative IPC: 0.673159 (Simulation time: 0 hr 49 min 7 sec) 
select_counter is 227
Heartbeat CPU 0 instructions: 98000000 cycles: 96431799 heartbeat IPC: 0.830202 cumulative IPC: 0.675822 (Simulation time: 0 hr 49 min 38 sec) 
select_counter is 190
Heartbeat CPU 0 instructions: 99000003 cycles: 97889524 heartbeat IPC: 0.686002 cumulative IPC: 0.676027 (Simulation time: 0 hr 50 min 6 sec) 
select_counter is 154
Heartbeat CPU 0 instructions: 100000000 cycles: 99096515 heartbeat IPC: 0.828504 cumulative IPC: 0.678525 (Simulation time: 0 hr 50 min 37 sec) 
select_counter is 110
Heartbeat CPU 0 instructions: 101000001 cycles: 100301623 heartbeat IPC: 0.829802 cumulative IPC: 0.680959 (Simulation time: 0 hr 51 min 9 sec) 
select_counter is 72
Heartbeat CPU 0 instructions: 102000003 cycles: 101729729 heartbeat IPC: 0.70023 cumulative IPC: 0.681319 (Simulation time: 0 hr 51 min 38 sec) 
select_counter is 57
Heartbeat CPU 0 instructions: 103000002 cycles: 102942309 heartbeat IPC: 0.824687 cumulative IPC: 0.683562 (Simulation time: 0 hr 52 min 8 sec) 
select_counter is 1023
Heartbeat CPU 0 instructions: 104000000 cycles: 104139493 heartbeat IPC: 0.835292 cumulative IPC: 0.685869 (Simulation time: 0 hr 52 min 36 sec) 
select_counter is 981
Heartbeat CPU 0 instructions: 105000000 cycles: 105363060 heartbeat IPC: 0.817283 cumulative IPC: 0.68788 (Simulation time: 0 hr 53 min 4 sec) 
select_counter is 928
Heartbeat CPU 0 instructions: 106000003 cycles: 107210238 heartbeat IPC: 0.541368 cumulative IPC: 0.684571 (Simulation time: 0 hr 53 min 33 sec) 
select_counter is 975
Heartbeat CPU 0 instructions: 107000002 cycles: 109198271 heartbeat IPC: 0.503009 cumulative IPC: 0.680264 (Simulation time: 0 hr 54 min 0 sec) 
select_counter is 1020
Heartbeat CPU 0 instructions: 108000000 cycles: 111245805 heartbeat IPC: 0.488391 cumulative IPC: 0.675687 (Simulation time: 0 hr 54 min 28 sec) 
select_counter is 1019
Heartbeat CPU 0 instructions: 109000003 cycles: 113328409 heartbeat IPC: 0.48017 cumulative IPC: 0.671056 (Simulation time: 0 hr 54 min 56 sec) 
select_counter is 1023
Heartbeat CPU 0 instructions: 110000003 cycles: 115338938 heartbeat IPC: 0.497382 cumulative IPC: 0.667173 (Simulation time: 0 hr 55 min 24 sec) 
select_counter is 1022
Heartbeat CPU 0 instructions: 111000003 cycles: 117416326 heartbeat IPC: 0.481374 cumulative IPC: 0.662978 (Simulation time: 0 hr 55 min 49 sec) 
select_counter is 979
Heartbeat CPU 0 instructions: 112000000 cycles: 119408005 heartbeat IPC: 0.502087 cumulative IPC: 0.659569 (Simulation time: 0 hr 56 min 17 sec) 
select_counter is 897
Heartbeat CPU 0 instructions: 113000000 cycles: 121403139 heartbeat IPC: 0.501219 cumulative IPC: 0.656278 (Simulation time: 0 hr 56 min 45 sec) 
select_counter is 622
Heartbeat CPU 0 instructions: 114000000 cycles: 123440222 heartbeat IPC: 0.490898 cumulative IPC: 0.652841 (Simulation time: 0 hr 57 min 13 sec) 
select_counter is 833
Heartbeat CPU 0 instructions: 115000001 cycles: 125433029 heartbeat IPC: 0.501805 cumulative IPC: 0.649832 (Simulation time: 0 hr 57 min 35 sec) 
select_counter is 894
Heartbeat CPU 0 instructions: 116000000 cycles: 127895553 heartbeat IPC: 0.406087 cumulative IPC: 0.643976 (Simulation time: 0 hr 57 min 56 sec) 
select_counter is 1023
Heartbeat CPU 0 instructions: 117000003 cycles: 130330588 heartbeat IPC: 0.410673 cumulative IPC: 0.638561 (Simulation time: 0 hr 58 min 18 sec) 
select_counter is 1021
Heartbeat CPU 0 instructions: 118000002 cycles: 132748196 heartbeat IPC: 0.413632 cumulative IPC: 0.633495 (Simulation time: 0 hr 58 min 39 sec) 
select_counter is 1022
Heartbeat CPU 0 instructions: 119000002 cycles: 135189971 heartbeat IPC: 0.409538 cumulative IPC: 0.628514 (Simulation time: 0 hr 58 min 59 sec) 
select_counter is 990
Heartbeat CPU 0 instructions: 120000000 cycles: 137547088 heartbeat IPC: 0.424246 cumulative IPC: 0.62422 (Simulation time: 0 hr 59 min 18 sec) 
select_counter is 1019
Heartbeat CPU 0 instructions: 121000001 cycles: 139872372 heartbeat IPC: 0.430055 cumulative IPC: 0.620276 (Simulation time: 0 hr 59 min 37 sec) 
select_counter is 1019
Heartbeat CPU 0 instructions: 122000002 cycles: 142229990 heartbeat IPC: 0.424157 cumulative IPC: 0.616318 (Simulation time: 0 hr 59 min 56 sec) 
select_counter is 1018
Heartbeat CPU 0 instructions: 123000001 cycles: 144635065 heartbeat IPC: 0.415787 cumulative IPC: 0.612273 (Simulation time: 1 hr 0 min 16 sec) 
select_counter is 1016
Heartbeat CPU 0 instructions: 124000000 cycles: 146024925 heartbeat IPC: 0.719496 cumulative IPC: 0.613509 (Simulation time: 1 hr 0 min 31 sec) 
select_counter is 838
Heartbeat CPU 0 instructions: 125000000 cycles: 147387754 heartbeat IPC: 0.733768 cumulative IPC: 0.614852 (Simulation time: 1 hr 0 min 46 sec) 
select_counter is 630
Heartbeat CPU 0 instructions: 126000000 cycles: 148767785 heartbeat IPC: 0.724621 cumulative IPC: 0.61608 (Simulation time: 1 hr 1 min 0 sec) 
select_counter is 397
Heartbeat CPU 0 instructions: 127000003 cycles: 150062432 heartbeat IPC: 0.772414 cumulative IPC: 0.617704 (Simulation time: 1 hr 1 min 13 sec) 
select_counter is 202
Heartbeat CPU 0 instructions: 128000000 cycles: 151362109 heartbeat IPC: 0.76942 cumulative IPC: 0.619269 (Simulation time: 1 hr 1 min 25 sec) 
select_counter is 22
Heartbeat CPU 0 instructions: 129000000 cycles: 152636673 heartbeat IPC: 0.784582 cumulative IPC: 0.620925 (Simulation time: 1 hr 1 min 38 sec) 
select_counter is 880
Heartbeat CPU 0 instructions: 130000000 cycles: 154009615 heartbeat IPC: 0.728363 cumulative IPC: 0.622072 (Simulation time: 1 hr 1 min 50 sec) 
select_counter is 666
Heartbeat CPU 0 instructions: 131000000 cycles: 155332985 heartbeat IPC: 0.755647 cumulative IPC: 0.623433 (Simulation time: 1 hr 2 min 1 sec) 
select_counter is 468
Heartbeat CPU 0 instructions: 132000000 cycles: 156648126 heartbeat IPC: 0.760375 cumulative IPC: 0.624805 (Simulation time: 1 hr 2 min 12 sec) 
select_counter is 344
Heartbeat CPU 0 instructions: 133000001 cycles: 157944673 heartbeat IPC: 0.77128 cumulative IPC: 0.626238 (Simulation time: 1 hr 2 min 22 sec) 
select_counter is 184
Heartbeat CPU 0 instructions: 134000000 cycles: 159207684 heartbeat IPC: 0.791758 cumulative IPC: 0.627801 (Simulation time: 1 hr 2 min 32 sec) 
select_counter is 1004
Heartbeat CPU 0 instructions: 135000001 cycles: 160536141 heartbeat IPC: 0.752754 cumulative IPC: 0.629029 (Simulation time: 1 hr 2 min 43 sec) 
select_counter is 848
Heartbeat CPU 0 instructions: 136000000 cycles: 161853491 heartbeat IPC: 0.759099 cumulative IPC: 0.630285 (Simulation time: 1 hr 2 min 53 sec) 
select_counter is 740
Heartbeat CPU 0 instructions: 137000003 cycles: 163216035 heartbeat IPC: 0.733923 cumulative IPC: 0.631309 (Simulation time: 1 hr 3 min 3 sec) 
select_counter is 605
Heartbeat CPU 0 instructions: 138000002 cycles: 164520067 heartbeat IPC: 0.766852 cumulative IPC: 0.63258 (Simulation time: 1 hr 3 min 13 sec) 
select_counter is 494
Heartbeat CPU 0 instructions: 139000000 cycles: 165835251 heartbeat IPC: 0.760348 cumulative IPC: 0.633777 (Simulation time: 1 hr 3 min 23 sec) 
select_counter is 374
Heartbeat CPU 0 instructions: 140000000 cycles: 167143386 heartbeat IPC: 0.764447 cumulative IPC: 0.634983 (Simulation time: 1 hr 3 min 33 sec) 
select_counter is 179
Heartbeat CPU 0 instructions: 141000001 cycles: 168408491 heartbeat IPC: 0.790449 cumulative IPC: 0.636358 (Simulation time: 1 hr 3 min 42 sec) 
select_counter is 12
Heartbeat CPU 0 instructions: 142000003 cycles: 169735676 heartbeat IPC: 0.753476 cumulative IPC: 0.637435 (Simulation time: 1 hr 3 min 52 sec) 
select_counter is 914
Heartbeat CPU 0 instructions: 143000003 cycles: 171045813 heartbeat IPC: 0.763279 cumulative IPC: 0.638567 (Simulation time: 1 hr 4 min 2 sec) 
select_counter is 772
Heartbeat CPU 0 instructions: 144000000 cycles: 172415165 heartbeat IPC: 0.73027 cumulative IPC: 0.639421 (Simulation time: 1 hr 4 min 11 sec) 
select_counter is 650
Heartbeat CPU 0 instructions: 145000003 cycles: 173765442 heartbeat IPC: 0.740591 cumulative IPC: 0.640342 (Simulation time: 1 hr 4 min 20 sec) 
select_counter is 567
Heartbeat CPU 0 instructions: 146000003 cycles: 175112500 heartbeat IPC: 0.742359 cumulative IPC: 0.64126 (Simulation time: 1 hr 4 min 29 sec) 
select_counter is 444
Heartbeat CPU 0 instructions: 147000003 cycles: 176445357 heartbeat IPC: 0.750268 cumulative IPC: 0.642222 (Simulation time: 1 hr 4 min 37 sec) 
select_counter is 310
Heartbeat CPU 0 instructions: 148000000 cycles: 177725633 heartbeat IPC: 0.781079 cumulative IPC: 0.643389 (Simulation time: 1 hr 4 min 45 sec) 
select_counter is 152
Heartbeat CPU 0 instructions: 149000000 cycles: 179041207 heartbeat IPC: 0.760125 cumulative IPC: 0.644389 (Simulation time: 1 hr 4 min 53 sec) 
select_counter is 15
Heartbeat CPU 0 instructions: 150000001 cycles: 180334798 heartbeat IPC: 0.773043 cumulative IPC: 0.645463 (Simulation time: 1 hr 5 min 2 sec) 
select_counter is 881
Finished CPU 0 instructions: 100000001 cycles: 154927563 cummulative IPC: 0.645463 (Simulation time: 1 hr 5 min 2 sec) 

ChampSim completed all CPUs

Region of Interest Statistics

CPU 0 cummulative IPC: 0.645463 instructions: 100000001 cycles: 154927563
LLC TOTAL     ACCESS:    4213087  HIT:    1155734  MISS:    3057353
LLC LOAD      ACCESS:     414173  HIT:      75126  MISS:     339047
LLC RFO       ACCESS:     595301  HIT:     160699  MISS:     434602
LLC PREFETCH  ACCESS:    2368244  HIT:     275107  MISS:    2093137
LLC WRITEBACK ACCESS:     835369  HIT:     644802  MISS:     190567
Ship samples: 
14, 63, 93, 98, 154, 172, 195, 255, 287, 319, 342, 364, 410, 444, 458, 501, 528, 571, 595, 620, 651, 694, 721, 764, 776, 801, 838, 870, 917, 956, 976, 1015, 1030, 1069, 1104, 1127, 1169, 1194, 1234, 1268, 1282, 1337, 1346, 1385, 1409, 1462, 1495, 1522, 1536, 1591, 1625, 1645, 1691, 1710, 1758, 1768, 1815, 1832, 1856, 1904, 1943, 1971, 2003, 2028, 
Lime duel samples: 
26, 34, 67, 126, 159, 174, 200, 249, 269, 306, 336, 363, 391, 424, 475, 494, 536, 565, 589, 637, 653, 696, 718, 757, 785, 827, 862, 877, 897, 930, 991, 1009, 1024, 1075, 1113, 1145, 1180, 1213, 1219, 1254, 1306, 1333, 1352, 1407, 1431, 1445, 1490, 1517, 1565, 1568, 1617, 1662, 1675, 1719, 1741, 1762, 1792, 1825, 1881, 1906, 1921, 1958, 1998, 2022, 
Lime samples: 
26, 126, 200, 306, 391, 494, 589, 696, 785, 877, 991, 1075, 1180, 1254, 1352, 1445, 1565, 1662, 1741, 1825, 1921, 
Insertion Distribution: 
	LOAD 4326 0 0 0 0 0 5295 56850 
	RFO 453 0 0 0 0 0 5632 104991 
	PREF 0 21976 0 0 0 0 69159 675794 
	WRITEBACK 0 0 0 0 0 0 0 150071 
Total Prefetch Downgrades: 19695
