
*** ChampSim Multicore Out-of-Order Simulator ***

Warmup Instructions: 50000000
Simulation Instructions: 100000000
Configuration: 2
Number of CPUs: 1
LLC sets: 2048
LLC ways: 16
Off-chip DRAM Channels: 1 Width: 64-bit Data Rate: 1600 MT/s

CPU 0 runs /datasets/cs240c-wi22-a00-public/data/Assignment2-gz/sphinx3_2520B.trace.gz
CPU 0 L1D next line prefetcher
CPU 0 L2C IP-based stride prefetcher
Heartbeat CPU 0 instructions: 1000003 cycles: 338965 heartbeat IPC: 2.95017 cumulative IPC: 2.95017 (Simulation time: 0 hr 0 min 26 sec) 
select_counter is 512
Heartbeat CPU 0 instructions: 2000000 cycles: 737245 heartbeat IPC: 2.51079 cumulative IPC: 2.7128 (Simulation time: 0 hr 0 min 51 sec) 
select_counter is 507
Heartbeat CPU 0 instructions: 3000003 cycles: 1185246 heartbeat IPC: 2.23214 cumulative IPC: 2.53112 (Simulation time: 0 hr 1 min 13 sec) 
select_counter is 476
Heartbeat CPU 0 instructions: 4000000 cycles: 1524272 heartbeat IPC: 2.94962 cumulative IPC: 2.6242 (Simulation time: 0 hr 1 min 39 sec) 
select_counter is 406
Heartbeat CPU 0 instructions: 5000001 cycles: 1902443 heartbeat IPC: 2.64431 cumulative IPC: 2.6282 (Simulation time: 0 hr 2 min 0 sec) 
select_counter is 118
Heartbeat CPU 0 instructions: 6000001 cycles: 2367875 heartbeat IPC: 2.14854 cumulative IPC: 2.53392 (Simulation time: 0 hr 2 min 20 sec) 
select_counter is 891
Heartbeat CPU 0 instructions: 7000001 cycles: 2706818 heartbeat IPC: 2.95035 cumulative IPC: 2.58606 (Simulation time: 0 hr 2 min 40 sec) 
select_counter is 878
Heartbeat CPU 0 instructions: 8000000 cycles: 3055820 heartbeat IPC: 2.86531 cumulative IPC: 2.61796 (Simulation time: 0 hr 2 min 59 sec) 
select_counter is 682
Heartbeat CPU 0 instructions: 9000000 cycles: 3509237 heartbeat IPC: 2.20548 cumulative IPC: 2.56466 (Simulation time: 0 hr 3 min 20 sec) 
select_counter is 434
Heartbeat CPU 0 instructions: 10000000 cycles: 3859394 heartbeat IPC: 2.85586 cumulative IPC: 2.59108 (Simulation time: 0 hr 3 min 41 sec) 
select_counter is 422
Heartbeat CPU 0 instructions: 11000003 cycles: 4204156 heartbeat IPC: 2.90056 cumulative IPC: 2.61646 (Simulation time: 0 hr 4 min 4 sec) 
select_counter is 272
Heartbeat CPU 0 instructions: 12000000 cycles: 4648770 heartbeat IPC: 2.24914 cumulative IPC: 2.58133 (Simulation time: 0 hr 4 min 28 sec) 
select_counter is 14
Heartbeat CPU 0 instructions: 13000000 cycles: 5008370 heartbeat IPC: 2.78087 cumulative IPC: 2.59565 (Simulation time: 0 hr 4 min 50 sec) 
select_counter is 1000
Heartbeat CPU 0 instructions: 14000002 cycles: 5351081 heartbeat IPC: 2.91792 cumulative IPC: 2.61629 (Simulation time: 0 hr 5 min 10 sec) 
select_counter is 852
Heartbeat CPU 0 instructions: 15000003 cycles: 5790386 heartbeat IPC: 2.27632 cumulative IPC: 2.5905 (Simulation time: 0 hr 5 min 33 sec) 
select_counter is 589
Heartbeat CPU 0 instructions: 16000000 cycles: 6157240 heartbeat IPC: 2.72587 cumulative IPC: 2.59857 (Simulation time: 0 hr 5 min 55 sec) 
select_counter is 555
Heartbeat CPU 0 instructions: 17000000 cycles: 6498655 heartbeat IPC: 2.92899 cumulative IPC: 2.61593 (Simulation time: 0 hr 6 min 16 sec) 
select_counter is 410
Heartbeat CPU 0 instructions: 18000002 cycles: 6932978 heartbeat IPC: 2.30244 cumulative IPC: 2.59629 (Simulation time: 0 hr 6 min 41 sec) 
select_counter is 148
Heartbeat CPU 0 instructions: 19000000 cycles: 7304302 heartbeat IPC: 2.69306 cumulative IPC: 2.60121 (Simulation time: 0 hr 7 min 2 sec) 
select_counter is 113
Heartbeat CPU 0 instructions: 20000000 cycles: 7645492 heartbeat IPC: 2.93092 cumulative IPC: 2.61592 (Simulation time: 0 hr 7 min 24 sec) 
select_counter is 1004
Heartbeat CPU 0 instructions: 21000001 cycles: 8089802 heartbeat IPC: 2.25068 cumulative IPC: 2.59586 (Simulation time: 0 hr 7 min 46 sec) 
select_counter is 942
Heartbeat CPU 0 instructions: 22000002 cycles: 8503902 heartbeat IPC: 2.41488 cumulative IPC: 2.58705 (Simulation time: 0 hr 8 min 8 sec) 
select_counter is 777
Heartbeat CPU 0 instructions: 23000001 cycles: 8942888 heartbeat IPC: 2.27797 cumulative IPC: 2.57188 (Simulation time: 0 hr 8 min 32 sec) 
select_counter is 749
Heartbeat CPU 0 instructions: 24000000 cycles: 9281906 heartbeat IPC: 2.94969 cumulative IPC: 2.58568 (Simulation time: 0 hr 8 min 54 sec) 
select_counter is 666
Heartbeat CPU 0 instructions: 25000003 cycles: 9668645 heartbeat IPC: 2.58573 cumulative IPC: 2.58568 (Simulation time: 0 hr 9 min 18 sec) 
select_counter is 432
Heartbeat CPU 0 instructions: 26000001 cycles: 10085491 heartbeat IPC: 2.39896 cumulative IPC: 2.57796 (Simulation time: 0 hr 9 min 40 sec) 
select_counter is 398
Heartbeat CPU 0 instructions: 27000003 cycles: 10424466 heartbeat IPC: 2.95008 cumulative IPC: 2.59006 (Simulation time: 0 hr 10 min 3 sec) 
select_counter is 307
Heartbeat CPU 0 instructions: 28000000 cycles: 10827785 heartbeat IPC: 2.47942 cumulative IPC: 2.58594 (Simulation time: 0 hr 10 min 29 sec) 
select_counter is 72
Heartbeat CPU 0 instructions: 29000002 cycles: 11228320 heartbeat IPC: 2.49667 cumulative IPC: 2.58276 (Simulation time: 0 hr 10 min 51 sec) 
select_counter is 28
Heartbeat CPU 0 instructions: 30000002 cycles: 11567259 heartbeat IPC: 2.95038 cumulative IPC: 2.59353 (Simulation time: 0 hr 11 min 19 sec) 
select_counter is 952
Heartbeat CPU 0 instructions: 31000000 cycles: 11988518 heartbeat IPC: 2.37383 cumulative IPC: 2.58581 (Simulation time: 0 hr 11 min 45 sec) 
select_counter is 724
Heartbeat CPU 0 instructions: 32000000 cycles: 12369867 heartbeat IPC: 2.62227 cumulative IPC: 2.58693 (Simulation time: 0 hr 12 min 6 sec) 
select_counter is 677
Heartbeat CPU 0 instructions: 33000002 cycles: 12710621 heartbeat IPC: 2.93467 cumulative IPC: 2.59625 (Simulation time: 0 hr 12 min 29 sec) 
select_counter is 570
Heartbeat CPU 0 instructions: 34000000 cycles: 13150398 heartbeat IPC: 2.27388 cumulative IPC: 2.58547 (Simulation time: 0 hr 12 min 52 sec) 
select_counter is 349
Heartbeat CPU 0 instructions: 35000001 cycles: 13511673 heartbeat IPC: 2.76798 cumulative IPC: 2.59035 (Simulation time: 0 hr 13 min 12 sec) 
select_counter is 301
Heartbeat CPU 0 instructions: 36000000 cycles: 13854005 heartbeat IPC: 2.92114 cumulative IPC: 2.59853 (Simulation time: 0 hr 13 min 38 sec) 
select_counter is 202
Heartbeat CPU 0 instructions: 37000000 cycles: 14313506 heartbeat IPC: 2.17627 cumulative IPC: 2.58497 (Simulation time: 0 hr 14 min 1 sec) 
select_counter is 6
Heartbeat CPU 0 instructions: 38000000 cycles: 14653818 heartbeat IPC: 2.93848 cumulative IPC: 2.59318 (Simulation time: 0 hr 14 min 21 sec) 
select_counter is 960
Heartbeat CPU 0 instructions: 39000003 cycles: 15000173 heartbeat IPC: 2.88722 cumulative IPC: 2.59997 (Simulation time: 0 hr 14 min 41 sec) 
select_counter is 821
Heartbeat CPU 0 instructions: 40000000 cycles: 15458896 heartbeat IPC: 2.17996 cumulative IPC: 2.58751 (Simulation time: 0 hr 15 min 1 sec) 
select_counter is 621
Heartbeat CPU 0 instructions: 41000001 cycles: 15797934 heartbeat IPC: 2.94952 cumulative IPC: 2.59528 (Simulation time: 0 hr 15 min 21 sec) 
select_counter is 551
Heartbeat CPU 0 instructions: 42000003 cycles: 16145894 heartbeat IPC: 2.8739 cumulative IPC: 2.60128 (Simulation time: 0 hr 15 min 43 sec) 
select_counter is 421
Heartbeat CPU 0 instructions: 43000001 cycles: 16602112 heartbeat IPC: 2.19193 cumulative IPC: 2.59003 (Simulation time: 0 hr 16 min 9 sec) 
select_counter is 214
Heartbeat CPU 0 instructions: 44000000 cycles: 16940982 heartbeat IPC: 2.95098 cumulative IPC: 2.59725 (Simulation time: 0 hr 16 min 31 sec) 
select_counter is 141
Heartbeat CPU 0 instructions: 45000001 cycles: 17288092 heartbeat IPC: 2.88093 cumulative IPC: 2.60295 (Simulation time: 0 hr 16 min 53 sec) 
select_counter is 25
Heartbeat CPU 0 instructions: 46000000 cycles: 17745763 heartbeat IPC: 2.18497 cumulative IPC: 2.59217 (Simulation time: 0 hr 17 min 14 sec) 
select_counter is 841
Heartbeat CPU 0 instructions: 47000003 cycles: 18084751 heartbeat IPC: 2.94997 cumulative IPC: 2.59887 (Simulation time: 0 hr 17 min 33 sec) 
select_counter is 765
Heartbeat CPU 0 instructions: 48000000 cycles: 18433286 heartbeat IPC: 2.86914 cumulative IPC: 2.60399 (Simulation time: 0 hr 17 min 54 sec) 
select_counter is 645
Heartbeat CPU 0 instructions: 49000002 cycles: 18888038 heartbeat IPC: 2.19901 cumulative IPC: 2.59423 (Simulation time: 0 hr 18 min 14 sec) 
select_counter is 448
Heartbeat CPU 0 instructions: 50000001 cycles: 19227019 heartbeat IPC: 2.95001 cumulative IPC: 2.60051 (Simulation time: 0 hr 18 min 32 sec) 
select_counter is 371

Warmup complete CPU 0 instructions: 50000001 cycles: 19227019 (Simulation time: 0 hr 18 min 32 sec) 

Heartbeat CPU 0 instructions: 51000001 cycles: 20038915 heartbeat IPC: 1.23168 cumulative IPC: 1.23168 (Simulation time: 0 hr 18 min 55 sec) 
select_counter is 245
Heartbeat CPU 0 instructions: 52000000 cycles: 20818692 heartbeat IPC: 1.28242 cumulative IPC: 1.25654 (Simulation time: 0 hr 19 min 17 sec) 
select_counter is 60
Heartbeat CPU 0 instructions: 53000001 cycles: 21617079 heartbeat IPC: 1.25253 cumulative IPC: 1.2552 (Simulation time: 0 hr 19 min 39 sec) 
select_counter is 996
Heartbeat CPU 0 instructions: 54000001 cycles: 22402391 heartbeat IPC: 1.27338 cumulative IPC: 1.25969 (Simulation time: 0 hr 20 min 1 sec) 
select_counter is 869
Heartbeat CPU 0 instructions: 55000000 cycles: 23174176 heartbeat IPC: 1.2957 cumulative IPC: 1.26673 (Simulation time: 0 hr 20 min 27 sec) 
select_counter is 704
Heartbeat CPU 0 instructions: 56000000 cycles: 23945684 heartbeat IPC: 1.29616 cumulative IPC: 1.27155 (Simulation time: 0 hr 20 min 49 sec) 
select_counter is 635
Heartbeat CPU 0 instructions: 57000000 cycles: 24839902 heartbeat IPC: 1.1183 cumulative IPC: 1.24713 (Simulation time: 0 hr 21 min 13 sec) 
select_counter is 532
Heartbeat CPU 0 instructions: 58000002 cycles: 25969662 heartbeat IPC: 0.885146 cumulative IPC: 1.18648 (Simulation time: 0 hr 21 min 38 sec) 
select_counter is 531
Heartbeat CPU 0 instructions: 59000001 cycles: 26773162 heartbeat IPC: 1.24455 cumulative IPC: 1.19266 (Simulation time: 0 hr 22 min 1 sec) 
select_counter is 365
Heartbeat CPU 0 instructions: 60000000 cycles: 27569490 heartbeat IPC: 1.25576 cumulative IPC: 1.19869 (Simulation time: 0 hr 22 min 28 sec) 
select_counter is 296
Heartbeat CPU 0 instructions: 61000001 cycles: 28347267 heartbeat IPC: 1.28572 cumulative IPC: 1.20611 (Simulation time: 0 hr 22 min 51 sec) 
select_counter is 195
Heartbeat CPU 0 instructions: 62000000 cycles: 29132506 heartbeat IPC: 1.2735 cumulative IPC: 1.21145 (Simulation time: 0 hr 23 min 12 sec) 
select_counter is 14
Heartbeat CPU 0 instructions: 63000002 cycles: 29921946 heartbeat IPC: 1.26672 cumulative IPC: 1.21553 (Simulation time: 0 hr 23 min 34 sec) 
select_counter is 961
Heartbeat CPU 0 instructions: 64000000 cycles: 30713340 heartbeat IPC: 1.26359 cumulative IPC: 1.21884 (Simulation time: 0 hr 23 min 59 sec) 
select_counter is 851
Heartbeat CPU 0 instructions: 65000003 cycles: 31473053 heartbeat IPC: 1.31629 cumulative IPC: 1.22489 (Simulation time: 0 hr 24 min 22 sec) 
select_counter is 685
Heartbeat CPU 0 instructions: 66000003 cycles: 32254787 heartbeat IPC: 1.27921 cumulative IPC: 1.22815 (Simulation time: 0 hr 24 min 49 sec) 
select_counter is 617
Heartbeat CPU 0 instructions: 67000003 cycles: 33068629 heartbeat IPC: 1.22874 cumulative IPC: 1.22818 (Simulation time: 0 hr 25 min 16 sec) 
select_counter is 486
Heartbeat CPU 0 instructions: 68000000 cycles: 33845175 heartbeat IPC: 1.28775 cumulative IPC: 1.23135 (Simulation time: 0 hr 25 min 41 sec) 
select_counter is 337
Heartbeat CPU 0 instructions: 69000003 cycles: 34633535 heartbeat IPC: 1.26846 cumulative IPC: 1.23324 (Simulation time: 0 hr 26 min 5 sec) 
select_counter is 271
Heartbeat CPU 0 instructions: 70000000 cycles: 35430663 heartbeat IPC: 1.2545 cumulative IPC: 1.23429 (Simulation time: 0 hr 26 min 31 sec) 
select_counter is 134
Heartbeat CPU 0 instructions: 71000002 cycles: 36219954 heartbeat IPC: 1.26696 cumulative IPC: 1.23581 (Simulation time: 0 hr 26 min 55 sec) 
select_counter is 1009
Heartbeat CPU 0 instructions: 72000000 cycles: 37007698 heartbeat IPC: 1.26945 cumulative IPC: 1.2373 (Simulation time: 0 hr 27 min 19 sec) 
select_counter is 940
Heartbeat CPU 0 instructions: 73000003 cycles: 37805924 heartbeat IPC: 1.25278 cumulative IPC: 1.23796 (Simulation time: 0 hr 27 min 47 sec) 
select_counter is 785
Heartbeat CPU 0 instructions: 74000003 cycles: 38567189 heartbeat IPC: 1.3136 cumulative IPC: 1.24094 (Simulation time: 0 hr 28 min 10 sec) 
select_counter is 655
Heartbeat CPU 0 instructions: 75000002 cycles: 39358562 heartbeat IPC: 1.26363 cumulative IPC: 1.24183 (Simulation time: 0 hr 28 min 34 sec) 
select_counter is 582
Heartbeat CPU 0 instructions: 76000000 cycles: 40138876 heartbeat IPC: 1.28153 cumulative IPC: 1.24331 (Simulation time: 0 hr 28 min 58 sec) 
select_counter is 419
Heartbeat CPU 0 instructions: 77000003 cycles: 40934333 heartbeat IPC: 1.25714 cumulative IPC: 1.24382 (Simulation time: 0 hr 29 min 23 sec) 
select_counter is 310
Heartbeat CPU 0 instructions: 78000003 cycles: 41713961 heartbeat IPC: 1.28266 cumulative IPC: 1.24517 (Simulation time: 0 hr 29 min 46 sec) 
select_counter is 234
Heartbeat CPU 0 instructions: 79000000 cycles: 42492241 heartbeat IPC: 1.28488 cumulative IPC: 1.2465 (Simulation time: 0 hr 30 min 7 sec) 
select_counter is 58
Heartbeat CPU 0 instructions: 80000000 cycles: 43301815 heartbeat IPC: 1.23522 cumulative IPC: 1.24612 (Simulation time: 0 hr 30 min 31 sec) 
select_counter is 987
Heartbeat CPU 0 instructions: 81000001 cycles: 44086524 heartbeat IPC: 1.27436 cumulative IPC: 1.24701 (Simulation time: 0 hr 30 min 53 sec) 
select_counter is 910
Heartbeat CPU 0 instructions: 82000002 cycles: 44869406 heartbeat IPC: 1.27733 cumulative IPC: 1.24793 (Simulation time: 0 hr 31 min 18 sec) 
select_counter is 721
Heartbeat CPU 0 instructions: 83000003 cycles: 45670385 heartbeat IPC: 1.24847 cumulative IPC: 1.24795 (Simulation time: 0 hr 31 min 44 sec) 
select_counter is 636
Heartbeat CPU 0 instructions: 84000000 cycles: 46445437 heartbeat IPC: 1.29023 cumulative IPC: 1.24915 (Simulation time: 0 hr 32 min 10 sec) 
select_counter is 558
Heartbeat CPU 0 instructions: 85000001 cycles: 47219706 heartbeat IPC: 1.29154 cumulative IPC: 1.25033 (Simulation time: 0 hr 32 min 43 sec) 
select_counter is 357
Heartbeat CPU 0 instructions: 86000000 cycles: 47999722 heartbeat IPC: 1.28202 cumulative IPC: 1.25119 (Simulation time: 0 hr 33 min 8 sec) 
select_counter is 287
Heartbeat CPU 0 instructions: 87000003 cycles: 48771996 heartbeat IPC: 1.29488 cumulative IPC: 1.25233 (Simulation time: 0 hr 33 min 33 sec) 
select_counter is 192
Heartbeat CPU 0 instructions: 88000000 cycles: 49555365 heartbeat IPC: 1.27653 cumulative IPC: 1.25295 (Simulation time: 0 hr 33 min 57 sec) 
select_counter is 11
Heartbeat CPU 0 instructions: 89000000 cycles: 50327537 heartbeat IPC: 1.29505 cumulative IPC: 1.254 (Simulation time: 0 hr 34 min 21 sec) 
select_counter is 958
Heartbeat CPU 0 instructions: 90000001 cycles: 51085814 heartbeat IPC: 1.31878 cumulative IPC: 1.25554 (Simulation time: 0 hr 34 min 47 sec) 
select_counter is 866
Heartbeat CPU 0 instructions: 91000001 cycles: 51871167 heartbeat IPC: 1.27331 cumulative IPC: 1.25597 (Simulation time: 0 hr 35 min 11 sec) 
select_counter is 686
Heartbeat CPU 0 instructions: 92000000 cycles: 52645611 heartbeat IPC: 1.29125 cumulative IPC: 1.25679 (Simulation time: 0 hr 35 min 34 sec) 
select_counter is 601
Heartbeat CPU 0 instructions: 93000002 cycles: 53387701 heartbeat IPC: 1.34755 cumulative IPC: 1.25876 (Simulation time: 0 hr 35 min 58 sec) 
select_counter is 509
Heartbeat CPU 0 instructions: 94000000 cycles: 54188339 heartbeat IPC: 1.249 cumulative IPC: 1.25853 (Simulation time: 0 hr 36 min 20 sec) 
select_counter is 335
Heartbeat CPU 0 instructions: 95000000 cycles: 54961378 heartbeat IPC: 1.2936 cumulative IPC: 1.25929 (Simulation time: 0 hr 36 min 44 sec) 
select_counter is 245
Heartbeat CPU 0 instructions: 96000000 cycles: 55738149 heartbeat IPC: 1.28738 cumulative IPC: 1.25989 (Simulation time: 0 hr 37 min 9 sec) 
select_counter is 156
Heartbeat CPU 0 instructions: 97000002 cycles: 56920697 heartbeat IPC: 0.845633 cumulative IPC: 1.24689 (Simulation time: 0 hr 37 min 34 sec) 
select_counter is 126
Heartbeat CPU 0 instructions: 98000003 cycles: 57847039 heartbeat IPC: 1.07952 cumulative IPC: 1.24288 (Simulation time: 0 hr 37 min 57 sec) 
select_counter is 999
Heartbeat CPU 0 instructions: 99000000 cycles: 58647027 heartbeat IPC: 1.25002 cumulative IPC: 1.24302 (Simulation time: 0 hr 38 min 21 sec) 
select_counter is 916
Heartbeat CPU 0 instructions: 100000000 cycles: 59418638 heartbeat IPC: 1.29599 cumulative IPC: 1.24404 (Simulation time: 0 hr 38 min 44 sec) 
select_counter is 825
Heartbeat CPU 0 instructions: 101000001 cycles: 60742907 heartbeat IPC: 0.755134 cumulative IPC: 1.22845 (Simulation time: 0 hr 39 min 8 sec) 
select_counter is 690
Heartbeat CPU 0 instructions: 102000002 cycles: 61569985 heartbeat IPC: 1.20908 cumulative IPC: 1.22807 (Simulation time: 0 hr 39 min 33 sec) 
select_counter is 573
Heartbeat CPU 0 instructions: 103000001 cycles: 62383431 heartbeat IPC: 1.22934 cumulative IPC: 1.22809 (Simulation time: 0 hr 39 min 59 sec) 
select_counter is 534
Heartbeat CPU 0 instructions: 104000000 cycles: 63566411 heartbeat IPC: 0.845322 cumulative IPC: 1.21788 (Simulation time: 0 hr 40 min 26 sec) 
select_counter is 511
Heartbeat CPU 0 instructions: 105000002 cycles: 64391301 heartbeat IPC: 1.21229 cumulative IPC: 1.21778 (Simulation time: 0 hr 40 min 52 sec) 
select_counter is 405
Heartbeat CPU 0 instructions: 106000000 cycles: 65197248 heartbeat IPC: 1.24077 cumulative IPC: 1.21818 (Simulation time: 0 hr 41 min 16 sec) 
select_counter is 301
Heartbeat CPU 0 instructions: 107000000 cycles: 66256039 heartbeat IPC: 0.944473 cumulative IPC: 1.21202 (Simulation time: 0 hr 41 min 40 sec) 
select_counter is 245
Heartbeat CPU 0 instructions: 108000000 cycles: 67234004 heartbeat IPC: 1.02253 cumulative IPC: 1.20816 (Simulation time: 0 hr 42 min 4 sec) 
select_counter is 97
Heartbeat CPU 0 instructions: 109000003 cycles: 68019636 heartbeat IPC: 1.27286 cumulative IPC: 1.2092 (Simulation time: 0 hr 42 min 29 sec) 
select_counter is 1001
Heartbeat CPU 0 instructions: 110000000 cycles: 68889818 heartbeat IPC: 1.14918 cumulative IPC: 1.20815 (Simulation time: 0 hr 42 min 53 sec) 
select_counter is 925
Heartbeat CPU 0 instructions: 111000001 cycles: 70103707 heartbeat IPC: 0.823799 cumulative IPC: 1.19898 (Simulation time: 0 hr 43 min 18 sec) 
select_counter is 782
Heartbeat CPU 0 instructions: 112000000 cycles: 70912308 heartbeat IPC: 1.2367 cumulative IPC: 1.19957 (Simulation time: 0 hr 43 min 42 sec) 
select_counter is 671
Heartbeat CPU 0 instructions: 113000000 cycles: 71719780 heartbeat IPC: 1.23843 cumulative IPC: 1.20017 (Simulation time: 0 hr 44 min 7 sec) 
select_counter is 574
Heartbeat CPU 0 instructions: 114000000 cycles: 72938242 heartbeat IPC: 0.820707 cumulative IPC: 1.19156 (Simulation time: 0 hr 44 min 32 sec) 
select_counter is 493
Heartbeat CPU 0 instructions: 115000000 cycles: 73750929 heartbeat IPC: 1.23049 cumulative IPC: 1.19214 (Simulation time: 0 hr 45 min 3 sec) 
select_counter is 319
Heartbeat CPU 0 instructions: 116000000 cycles: 74546610 heartbeat IPC: 1.25679 cumulative IPC: 1.19307 (Simulation time: 0 hr 45 min 36 sec) 
select_counter is 231
Heartbeat CPU 0 instructions: 117000001 cycles: 75616934 heartbeat IPC: 0.934297 cumulative IPC: 1.18816 (Simulation time: 0 hr 46 min 0 sec) 
select_counter is 173
Heartbeat CPU 0 instructions: 118000001 cycles: 76603546 heartbeat IPC: 1.01357 cumulative IPC: 1.18515 (Simulation time: 0 hr 46 min 23 sec) 
select_counter is 1021
Heartbeat CPU 0 instructions: 119000001 cycles: 77388048 heartbeat IPC: 1.27469 cumulative IPC: 1.18636 (Simulation time: 0 hr 46 min 47 sec) 
select_counter is 911
Heartbeat CPU 0 instructions: 120000000 cycles: 78256448 heartbeat IPC: 1.15154 cumulative IPC: 1.18585 (Simulation time: 0 hr 47 min 12 sec) 
select_counter is 842
Heartbeat CPU 0 instructions: 121000003 cycles: 79449949 heartbeat IPC: 0.837874 cumulative IPC: 1.17895 (Simulation time: 0 hr 47 min 37 sec) 
select_counter is 699
Heartbeat CPU 0 instructions: 122000000 cycles: 80264484 heartbeat IPC: 1.22769 cumulative IPC: 1.1796 (Simulation time: 0 hr 48 min 1 sec) 
select_counter is 583
Heartbeat CPU 0 instructions: 123000003 cycles: 81066838 heartbeat IPC: 1.24634 cumulative IPC: 1.18047 (Simulation time: 0 hr 48 min 28 sec) 
select_counter is 494
Heartbeat CPU 0 instructions: 124000000 cycles: 82281670 heartbeat IPC: 0.823157 cumulative IPC: 1.17359 (Simulation time: 0 hr 48 min 54 sec) 
select_counter is 430
Heartbeat CPU 0 instructions: 125000000 cycles: 83140752 heartbeat IPC: 1.16403 cumulative IPC: 1.17346 (Simulation time: 0 hr 49 min 19 sec) 
select_counter is 260
Heartbeat CPU 0 instructions: 126000001 cycles: 83925033 heartbeat IPC: 1.27505 cumulative IPC: 1.17469 (Simulation time: 0 hr 49 min 45 sec) 
select_counter is 158
Heartbeat CPU 0 instructions: 127000000 cycles: 85001276 heartbeat IPC: 0.929157 cumulative IPC: 1.17067 (Simulation time: 0 hr 50 min 10 sec) 
select_counter is 94
Heartbeat CPU 0 instructions: 128000000 cycles: 86066170 heartbeat IPC: 0.939061 cumulative IPC: 1.16698 (Simulation time: 0 hr 50 min 34 sec) 
select_counter is 923
Heartbeat CPU 0 instructions: 129000000 cycles: 86849759 heartbeat IPC: 1.27618 cumulative IPC: 1.16825 (Simulation time: 0 hr 50 min 56 sec) 
select_counter is 828
Heartbeat CPU 0 instructions: 130000000 cycles: 87647564 heartbeat IPC: 1.25344 cumulative IPC: 1.16924 (Simulation time: 0 hr 51 min 20 sec) 
select_counter is 756
Heartbeat CPU 0 instructions: 131000002 cycles: 88909762 heartbeat IPC: 0.79227 cumulative IPC: 1.16241 (Simulation time: 0 hr 51 min 43 sec) 
select_counter is 645
Heartbeat CPU 0 instructions: 132000000 cycles: 89721753 heartbeat IPC: 1.23154 cumulative IPC: 1.16321 (Simulation time: 0 hr 52 min 5 sec) 
select_counter is 507
Heartbeat CPU 0 instructions: 133000001 cycles: 90520867 heartbeat IPC: 1.25139 cumulative IPC: 1.1642 (Simulation time: 0 hr 52 min 27 sec) 
select_counter is 420
Heartbeat CPU 0 instructions: 134000001 cycles: 91699433 heartbeat IPC: 0.848489 cumulative IPC: 1.15906 (Simulation time: 0 hr 52 min 52 sec) 
select_counter is 363
Heartbeat CPU 0 instructions: 135000002 cycles: 92590887 heartbeat IPC: 1.12176 cumulative IPC: 1.15861 (Simulation time: 0 hr 53 min 14 sec) 
select_counter is 194
Heartbeat CPU 0 instructions: 136000000 cycles: 93373912 heartbeat IPC: 1.2771 cumulative IPC: 1.15986 (Simulation time: 0 hr 53 min 38 sec) 
select_counter is 88
Heartbeat CPU 0 instructions: 137000002 cycles: 94333738 heartbeat IPC: 1.04186 cumulative IPC: 1.15835 (Simulation time: 0 hr 53 min 59 sec) 
select_counter is 17
Heartbeat CPU 0 instructions: 138000000 cycles: 95697023 heartbeat IPC: 0.733521 cumulative IPC: 1.15078 (Simulation time: 0 hr 54 min 20 sec) 
select_counter is 1011
Heartbeat CPU 0 instructions: 139000000 cycles: 96784679 heartbeat IPC: 0.919408 cumulative IPC: 1.14753 (Simulation time: 0 hr 54 min 44 sec) 
select_counter is 976
Heartbeat CPU 0 instructions: 140000000 cycles: 97589147 heartbeat IPC: 1.24306 cumulative IPC: 1.14851 (Simulation time: 0 hr 55 min 11 sec) 
select_counter is 825
Heartbeat CPU 0 instructions: 141000003 cycles: 98382879 heartbeat IPC: 1.25987 cumulative IPC: 1.14963 (Simulation time: 0 hr 55 min 40 sec) 
select_counter is 739
Heartbeat CPU 0 instructions: 142000000 cycles: 99534392 heartbeat IPC: 0.86842 cumulative IPC: 1.1456 (Simulation time: 0 hr 56 min 6 sec) 
select_counter is 685
Heartbeat CPU 0 instructions: 143000003 cycles: 100486833 heartbeat IPC: 1.04994 cumulative IPC: 1.14448 (Simulation time: 0 hr 56 min 27 sec) 
select_counter is 531
Heartbeat CPU 0 instructions: 144000000 cycles: 101265681 heartbeat IPC: 1.28394 cumulative IPC: 1.1458 (Simulation time: 0 hr 56 min 45 sec) 
select_counter is 438
Heartbeat CPU 0 instructions: 145000000 cycles: 102160818 heartbeat IPC: 1.11715 cumulative IPC: 1.14549 (Simulation time: 0 hr 57 min 4 sec) 
select_counter is 377
Heartbeat CPU 0 instructions: 146000000 cycles: 103316681 heartbeat IPC: 0.865154 cumulative IPC: 1.14164 (Simulation time: 0 hr 57 min 21 sec) 
select_counter is 232
Heartbeat CPU 0 instructions: 147000003 cycles: 104131057 heartbeat IPC: 1.22794 cumulative IPC: 1.14247 (Simulation time: 0 hr 57 min 37 sec) 
select_counter is 139
Heartbeat CPU 0 instructions: 148000000 cycles: 104930960 heartbeat IPC: 1.25015 cumulative IPC: 1.14347 (Simulation time: 0 hr 57 min 52 sec) 
select_counter is 54
Heartbeat CPU 0 instructions: 149000003 cycles: 106220904 heartbeat IPC: 0.77523 cumulative IPC: 1.13801 (Simulation time: 0 hr 58 min 7 sec) 
select_counter is 1015
Heartbeat CPU 0 instructions: 150000001 cycles: 107045324 heartbeat IPC: 1.21297 cumulative IPC: 1.13871 (Simulation time: 0 hr 58 min 21 sec) 
select_counter is 859
Finished CPU 0 instructions: 100000000 cycles: 87818305 cummulative IPC: 1.13871 (Simulation time: 0 hr 58 min 21 sec) 

ChampSim completed all CPUs

Region of Interest Statistics

CPU 0 cummulative IPC: 1.13871 instructions: 100000000 cycles: 87818305
LLC TOTAL     ACCESS:    1520518  HIT:     890660  MISS:     629858
LLC LOAD      ACCESS:     160620  HIT:     138982  MISS:      21638
LLC RFO       ACCESS:     118654  HIT:     117387  MISS:       1267
LLC PREFETCH  ACCESS:    1108935  HIT:     502321  MISS:     606614
LLC WRITEBACK ACCESS:     132309  HIT:     131970  MISS:        339
Ship samples: 
20, 37, 64, 100, 146, 170, 215, 246, 266, 295, 344, 369, 393, 420, 476, 508, 516, 573, 605, 610, 670, 677, 731, 765, 784, 823, 858, 875, 903, 939, 974, 992, 1025, 1075, 1116, 1133, 1154, 1200, 1231, 1250, 1298, 1320, 1345, 1391, 1410, 1452, 1474, 1506, 1546, 1569, 1610, 1632, 1666, 1705, 1758, 1776, 1796, 1852, 1867, 1902, 1926, 1981, 1990, 2028, 
Lime duel samples: 
27, 33, 92, 125, 129, 160, 214, 238, 263, 308, 338, 373, 386, 447, 456, 511, 541, 569, 577, 638, 655, 684, 726, 764, 773, 804, 840, 872, 899, 943, 963, 1000, 1042, 1085, 1118, 1141, 1178, 1203, 1245, 1261, 1311, 1337, 1356, 1395, 1416, 1466, 1488, 1516, 1539, 1589, 1606, 1647, 1676, 1713, 1745, 1771, 1808, 1848, 1861, 1899, 1933, 1978, 1992, 2047, 
Lime samples: 
27, 125, 214, 308, 386, 511, 577, 684, 773, 872, 963, 1085, 1178, 1261, 1356, 1466, 1539, 1647, 1745, 1848, 1933, 
Insertion Distribution: 
	LOAD 2969 0 0 0 0 0 7283 5831 
	RFO 247 0 0 0 0 0 2679 0 
	PREF 0 6186 0 0 0 0 42057 414824 
	WRITEBACK 0 0 0 0 0 0 0 800 
Total Prefetch Downgrades: 12705
