
*** ChampSim Multicore Out-of-Order Simulator ***

Warmup Instructions: 50000000
Simulation Instructions: 100000000
Configuration: 2
Number of CPUs: 1
LLC sets: 2048
LLC ways: 16
Off-chip DRAM Channels: 1 Width: 64-bit Data Rate: 1600 MT/s

CPU 0 runs /datasets/cs240c-wi22-a00-public/data/Assignment2-gz/lbm_94B.trace.gz
CPU 0 L1D next line prefetcher
CPU 0 L2C IP-based stride prefetcher
Heartbeat CPU 0 instructions: 1000000 cycles: 422068 heartbeat IPC: 2.36929 cumulative IPC: 2.36929 (Simulation time: 0 hr 0 min 27 sec) 
select_counter is 654
Heartbeat CPU 0 instructions: 2000000 cycles: 812399 heartbeat IPC: 2.56193 cumulative IPC: 2.46184 (Simulation time: 0 hr 0 min 48 sec) 
select_counter is 1023
Heartbeat CPU 0 instructions: 3000000 cycles: 1211540 heartbeat IPC: 2.50538 cumulative IPC: 2.47619 (Simulation time: 0 hr 1 min 10 sec) 
select_counter is 1022
Heartbeat CPU 0 instructions: 4000000 cycles: 1631535 heartbeat IPC: 2.38098 cumulative IPC: 2.45168 (Simulation time: 0 hr 1 min 32 sec) 
select_counter is 922
Heartbeat CPU 0 instructions: 5000001 cycles: 2021787 heartbeat IPC: 2.56245 cumulative IPC: 2.47306 (Simulation time: 0 hr 1 min 54 sec) 
select_counter is 1023
Heartbeat CPU 0 instructions: 6000000 cycles: 2422465 heartbeat IPC: 2.49577 cumulative IPC: 2.47682 (Simulation time: 0 hr 2 min 17 sec) 
select_counter is 998
Heartbeat CPU 0 instructions: 7000001 cycles: 2840613 heartbeat IPC: 2.3915 cumulative IPC: 2.46426 (Simulation time: 0 hr 2 min 48 sec) 
select_counter is 742
Heartbeat CPU 0 instructions: 8000000 cycles: 3230852 heartbeat IPC: 2.56253 cumulative IPC: 2.47613 (Simulation time: 0 hr 3 min 14 sec) 
select_counter is 1015
Heartbeat CPU 0 instructions: 9000003 cycles: 3631886 heartbeat IPC: 2.49356 cumulative IPC: 2.47805 (Simulation time: 0 hr 3 min 42 sec) 
select_counter is 976
Heartbeat CPU 0 instructions: 10000000 cycles: 4048463 heartbeat IPC: 2.40051 cumulative IPC: 2.47007 (Simulation time: 0 hr 4 min 2 sec) 
select_counter is 785
Heartbeat CPU 0 instructions: 11000003 cycles: 4438654 heartbeat IPC: 2.56286 cumulative IPC: 2.47823 (Simulation time: 0 hr 4 min 22 sec) 
select_counter is 1022
Heartbeat CPU 0 instructions: 12000000 cycles: 4839215 heartbeat IPC: 2.49649 cumulative IPC: 2.47974 (Simulation time: 0 hr 4 min 43 sec) 
select_counter is 1023
Heartbeat CPU 0 instructions: 13000000 cycles: 5254601 heartbeat IPC: 2.4074 cumulative IPC: 2.47402 (Simulation time: 0 hr 5 min 5 sec) 
select_counter is 1023
Heartbeat CPU 0 instructions: 14000003 cycles: 5644866 heartbeat IPC: 2.56237 cumulative IPC: 2.48013 (Simulation time: 0 hr 5 min 26 sec) 
select_counter is 1014
Heartbeat CPU 0 instructions: 15000001 cycles: 6045259 heartbeat IPC: 2.49754 cumulative IPC: 2.48128 (Simulation time: 0 hr 5 min 47 sec) 
select_counter is 991
Heartbeat CPU 0 instructions: 16000000 cycles: 6459651 heartbeat IPC: 2.41317 cumulative IPC: 2.47691 (Simulation time: 0 hr 6 min 8 sec) 
select_counter is 1023
Heartbeat CPU 0 instructions: 17000001 cycles: 6849916 heartbeat IPC: 2.56236 cumulative IPC: 2.48178 (Simulation time: 0 hr 6 min 30 sec) 
select_counter is 1022
Heartbeat CPU 0 instructions: 18000001 cycles: 7248783 heartbeat IPC: 2.5071 cumulative IPC: 2.48318 (Simulation time: 0 hr 6 min 56 sec) 
select_counter is 1013
Heartbeat CPU 0 instructions: 19000000 cycles: 7663329 heartbeat IPC: 2.41228 cumulative IPC: 2.47934 (Simulation time: 0 hr 7 min 20 sec) 
select_counter is 948
Heartbeat CPU 0 instructions: 20000000 cycles: 8053596 heartbeat IPC: 2.56235 cumulative IPC: 2.48336 (Simulation time: 0 hr 7 min 45 sec) 
select_counter is 1009
Heartbeat CPU 0 instructions: 21000003 cycles: 8451676 heartbeat IPC: 2.51207 cumulative IPC: 2.48471 (Simulation time: 0 hr 8 min 10 sec) 
select_counter is 1016
Heartbeat CPU 0 instructions: 22000000 cycles: 8865862 heartbeat IPC: 2.41437 cumulative IPC: 2.48143 (Simulation time: 0 hr 8 min 37 sec) 
select_counter is 964
Heartbeat CPU 0 instructions: 23000000 cycles: 9256055 heartbeat IPC: 2.56283 cumulative IPC: 2.48486 (Simulation time: 0 hr 9 min 3 sec) 
select_counter is 1000
Heartbeat CPU 0 instructions: 24000000 cycles: 9652148 heartbeat IPC: 2.52466 cumulative IPC: 2.48649 (Simulation time: 0 hr 9 min 27 sec) 
select_counter is 1022
Heartbeat CPU 0 instructions: 25000000 cycles: 10065814 heartbeat IPC: 2.41741 cumulative IPC: 2.48365 (Simulation time: 0 hr 9 min 50 sec) 
select_counter is 987
Heartbeat CPU 0 instructions: 26000003 cycles: 10456067 heartbeat IPC: 2.56245 cumulative IPC: 2.48659 (Simulation time: 0 hr 10 min 13 sec) 
select_counter is 1018
Heartbeat CPU 0 instructions: 27000002 cycles: 10851129 heartbeat IPC: 2.53125 cumulative IPC: 2.48822 (Simulation time: 0 hr 10 min 35 sec) 
select_counter is 1023
Heartbeat CPU 0 instructions: 28000000 cycles: 11264575 heartbeat IPC: 2.41869 cumulative IPC: 2.48567 (Simulation time: 0 hr 10 min 57 sec) 
select_counter is 1018
Heartbeat CPU 0 instructions: 29000000 cycles: 11654763 heartbeat IPC: 2.56287 cumulative IPC: 2.48825 (Simulation time: 0 hr 11 min 20 sec) 
select_counter is 1022
Heartbeat CPU 0 instructions: 30000000 cycles: 12049799 heartbeat IPC: 2.53141 cumulative IPC: 2.48967 (Simulation time: 0 hr 11 min 44 sec) 
select_counter is 1015
Heartbeat CPU 0 instructions: 31000003 cycles: 12460718 heartbeat IPC: 2.43358 cumulative IPC: 2.48782 (Simulation time: 0 hr 12 min 8 sec) 
select_counter is 1019
Heartbeat CPU 0 instructions: 32000000 cycles: 12851007 heartbeat IPC: 2.5622 cumulative IPC: 2.49008 (Simulation time: 0 hr 12 min 31 sec) 
select_counter is 1023
Heartbeat CPU 0 instructions: 33000002 cycles: 13246131 heartbeat IPC: 2.53086 cumulative IPC: 2.49129 (Simulation time: 0 hr 12 min 53 sec) 
select_counter is 1002
Heartbeat CPU 0 instructions: 34000003 cycles: 13653670 heartbeat IPC: 2.45376 cumulative IPC: 2.49017 (Simulation time: 0 hr 13 min 15 sec) 
select_counter is 1023
Heartbeat CPU 0 instructions: 35000002 cycles: 14045312 heartbeat IPC: 2.55335 cumulative IPC: 2.49193 (Simulation time: 0 hr 13 min 37 sec) 
select_counter is 1021
Heartbeat CPU 0 instructions: 36000000 cycles: 14440324 heartbeat IPC: 2.53156 cumulative IPC: 2.49302 (Simulation time: 0 hr 13 min 58 sec) 
select_counter is 1008
Heartbeat CPU 0 instructions: 37000003 cycles: 14842547 heartbeat IPC: 2.48619 cumulative IPC: 2.49283 (Simulation time: 0 hr 14 min 20 sec) 
select_counter is 1019
Heartbeat CPU 0 instructions: 38000002 cycles: 15237078 heartbeat IPC: 2.53465 cumulative IPC: 2.49392 (Simulation time: 0 hr 14 min 41 sec) 
select_counter is 1018
Heartbeat CPU 0 instructions: 39000000 cycles: 15627292 heartbeat IPC: 2.56269 cumulative IPC: 2.49563 (Simulation time: 0 hr 15 min 3 sec) 
select_counter is 1022
Heartbeat CPU 0 instructions: 40000000 cycles: 16027617 heartbeat IPC: 2.49797 cumulative IPC: 2.49569 (Simulation time: 0 hr 15 min 23 sec) 
select_counter is 996
Heartbeat CPU 0 instructions: 41000003 cycles: 16426300 heartbeat IPC: 2.50827 cumulative IPC: 2.496 (Simulation time: 0 hr 15 min 43 sec) 
select_counter is 1023
Heartbeat CPU 0 instructions: 42000003 cycles: 16816554 heartbeat IPC: 2.56243 cumulative IPC: 2.49754 (Simulation time: 0 hr 16 min 4 sec) 
select_counter is 1023
Heartbeat CPU 0 instructions: 43000003 cycles: 17211825 heartbeat IPC: 2.52991 cumulative IPC: 2.49828 (Simulation time: 0 hr 16 min 30 sec) 
select_counter is 1009
Heartbeat CPU 0 instructions: 44000000 cycles: 17612810 heartbeat IPC: 2.49385 cumulative IPC: 2.49818 (Simulation time: 0 hr 16 min 51 sec) 
select_counter is 1020
Heartbeat CPU 0 instructions: 45000002 cycles: 18003072 heartbeat IPC: 2.56239 cumulative IPC: 2.49957 (Simulation time: 0 hr 17 min 10 sec) 
select_counter is 1017
Heartbeat CPU 0 instructions: 46000001 cycles: 18398233 heartbeat IPC: 2.53061 cumulative IPC: 2.50024 (Simulation time: 0 hr 17 min 30 sec) 
select_counter is 1021
Heartbeat CPU 0 instructions: 47000003 cycles: 18796640 heartbeat IPC: 2.51 cumulative IPC: 2.50045 (Simulation time: 0 hr 17 min 50 sec) 
select_counter is 1019
Heartbeat CPU 0 instructions: 48000000 cycles: 19186786 heartbeat IPC: 2.56314 cumulative IPC: 2.50172 (Simulation time: 0 hr 18 min 10 sec) 
select_counter is 1020
Heartbeat CPU 0 instructions: 49000000 cycles: 19581876 heartbeat IPC: 2.53107 cumulative IPC: 2.50231 (Simulation time: 0 hr 18 min 29 sec) 
select_counter is 1009
Heartbeat CPU 0 instructions: 50000003 cycles: 19976190 heartbeat IPC: 2.53606 cumulative IPC: 2.50298 (Simulation time: 0 hr 18 min 50 sec) 
select_counter is 1009

Warmup complete CPU 0 instructions: 50000003 cycles: 19976190 (Simulation time: 0 hr 18 min 50 sec) 

Heartbeat CPU 0 instructions: 51000003 cycles: 21403527 heartbeat IPC: 0.700605 cumulative IPC: 0.700605 (Simulation time: 0 hr 19 min 13 sec) 
select_counter is 1020
Heartbeat CPU 0 instructions: 52000000 cycles: 22805117 heartbeat IPC: 0.713473 cumulative IPC: 0.706981 (Simulation time: 0 hr 19 min 37 sec) 
select_counter is 1021
Heartbeat CPU 0 instructions: 53000001 cycles: 24298109 heartbeat IPC: 0.669797 cumulative IPC: 0.694136 (Simulation time: 0 hr 20 min 2 sec) 
select_counter is 1018
Heartbeat CPU 0 instructions: 54000000 cycles: 25722220 heartbeat IPC: 0.702192 cumulative IPC: 0.696132 (Simulation time: 0 hr 20 min 27 sec) 
select_counter is 1022
Heartbeat CPU 0 instructions: 55000003 cycles: 27103132 heartbeat IPC: 0.724161 cumulative IPC: 0.701563 (Simulation time: 0 hr 20 min 49 sec) 
select_counter is 1015
Heartbeat CPU 0 instructions: 56000000 cycles: 28555804 heartbeat IPC: 0.688385 cumulative IPC: 0.699332 (Simulation time: 0 hr 21 min 13 sec) 
select_counter is 1023
Heartbeat CPU 0 instructions: 57000003 cycles: 29941994 heartbeat IPC: 0.721404 cumulative IPC: 0.702402 (Simulation time: 0 hr 21 min 35 sec) 
select_counter is 1021
Heartbeat CPU 0 instructions: 58000003 cycles: 31347852 heartbeat IPC: 0.711309 cumulative IPC: 0.703503 (Simulation time: 0 hr 21 min 59 sec) 
select_counter is 1016
Heartbeat CPU 0 instructions: 59000001 cycles: 32768892 heartbeat IPC: 0.703709 cumulative IPC: 0.703526 (Simulation time: 0 hr 22 min 22 sec) 
select_counter is 1010
Heartbeat CPU 0 instructions: 60000000 cycles: 34140981 heartbeat IPC: 0.728815 cumulative IPC: 0.705976 (Simulation time: 0 hr 22 min 46 sec) 
select_counter is 1015
Heartbeat CPU 0 instructions: 61000000 cycles: 35489990 heartbeat IPC: 0.741285 cumulative IPC: 0.709046 (Simulation time: 0 hr 23 min 8 sec) 
select_counter is 1023
Heartbeat CPU 0 instructions: 62000000 cycles: 36876067 heartbeat IPC: 0.721461 cumulative IPC: 0.710064 (Simulation time: 0 hr 23 min 33 sec) 
select_counter is 1017
Heartbeat CPU 0 instructions: 63000003 cycles: 38313045 heartbeat IPC: 0.695907 cumulative IPC: 0.708955 (Simulation time: 0 hr 23 min 57 sec) 
select_counter is 1022
Heartbeat CPU 0 instructions: 64000000 cycles: 39677600 heartbeat IPC: 0.732837 cumulative IPC: 0.710609 (Simulation time: 0 hr 24 min 23 sec) 
select_counter is 1022
Heartbeat CPU 0 instructions: 65000003 cycles: 41024697 heartbeat IPC: 0.742339 cumulative IPC: 0.71264 (Simulation time: 0 hr 24 min 46 sec) 
select_counter is 1022
Heartbeat CPU 0 instructions: 66000002 cycles: 42420062 heartbeat IPC: 0.716658 cumulative IPC: 0.712889 (Simulation time: 0 hr 25 min 10 sec) 
select_counter is 1022
Heartbeat CPU 0 instructions: 67000002 cycles: 43770759 heartbeat IPC: 0.740358 cumulative IPC: 0.714449 (Simulation time: 0 hr 25 min 34 sec) 
select_counter is 1018
Heartbeat CPU 0 instructions: 68000000 cycles: 45141486 heartbeat IPC: 0.729538 cumulative IPC: 0.715271 (Simulation time: 0 hr 25 min 57 sec) 
select_counter is 1021
Heartbeat CPU 0 instructions: 69000000 cycles: 46522514 heartbeat IPC: 0.724098 cumulative IPC: 0.71573 (Simulation time: 0 hr 26 min 20 sec) 
select_counter is 1023
Heartbeat CPU 0 instructions: 70000001 cycles: 47982683 heartbeat IPC: 0.684853 cumulative IPC: 0.71412 (Simulation time: 0 hr 26 min 44 sec) 
select_counter is 1022
Heartbeat CPU 0 instructions: 71000001 cycles: 49338098 heartbeat IPC: 0.737781 cumulative IPC: 0.715212 (Simulation time: 0 hr 27 min 7 sec) 
select_counter is 1021
Heartbeat CPU 0 instructions: 72000000 cycles: 50691099 heartbeat IPC: 0.739097 cumulative IPC: 0.716264 (Simulation time: 0 hr 27 min 30 sec) 
select_counter is 1020
Heartbeat CPU 0 instructions: 73000001 cycles: 52115307 heartbeat IPC: 0.702145 cumulative IPC: 0.715639 (Simulation time: 0 hr 27 min 55 sec) 
select_counter is 1012
Heartbeat CPU 0 instructions: 74000001 cycles: 53509259 heartbeat IPC: 0.717385 cumulative IPC: 0.715711 (Simulation time: 0 hr 28 min 20 sec) 
select_counter is 1022
Heartbeat CPU 0 instructions: 75000000 cycles: 54872434 heartbeat IPC: 0.733581 cumulative IPC: 0.716409 (Simulation time: 0 hr 28 min 45 sec) 
select_counter is 1023
Heartbeat CPU 0 instructions: 76000000 cycles: 56282278 heartbeat IPC: 0.709298 cumulative IPC: 0.716133 (Simulation time: 0 hr 29 min 8 sec) 
select_counter is 1023
Heartbeat CPU 0 instructions: 77000002 cycles: 57657165 heartbeat IPC: 0.727334 cumulative IPC: 0.716542 (Simulation time: 0 hr 29 min 33 sec) 
select_counter is 1019
Heartbeat CPU 0 instructions: 78000003 cycles: 59032993 heartbeat IPC: 0.726836 cumulative IPC: 0.716905 (Simulation time: 0 hr 29 min 57 sec) 
select_counter is 1021
Heartbeat CPU 0 instructions: 79000000 cycles: 60419722 heartbeat IPC: 0.721119 cumulative IPC: 0.717049 (Simulation time: 0 hr 30 min 21 sec) 
select_counter is 1018
Heartbeat CPU 0 instructions: 80000000 cycles: 61823642 heartbeat IPC: 0.712291 cumulative IPC: 0.716889 (Simulation time: 0 hr 30 min 46 sec) 
select_counter is 1016
Heartbeat CPU 0 instructions: 81000000 cycles: 63171532 heartbeat IPC: 0.7419 cumulative IPC: 0.71767 (Simulation time: 0 hr 31 min 14 sec) 
select_counter is 1017
Heartbeat CPU 0 instructions: 82000000 cycles: 64553440 heartbeat IPC: 0.723637 cumulative IPC: 0.717855 (Simulation time: 0 hr 31 min 38 sec) 
select_counter is 1019
Heartbeat CPU 0 instructions: 83000003 cycles: 65956031 heartbeat IPC: 0.712968 cumulative IPC: 0.717706 (Simulation time: 0 hr 32 min 3 sec) 
select_counter is 1013
Heartbeat CPU 0 instructions: 84000000 cycles: 67314247 heartbeat IPC: 0.736258 cumulative IPC: 0.718238 (Simulation time: 0 hr 32 min 28 sec) 
select_counter is 1019
Heartbeat CPU 0 instructions: 85000001 cycles: 68696459 heartbeat IPC: 0.723479 cumulative IPC: 0.718387 (Simulation time: 0 hr 32 min 52 sec) 
select_counter is 1020
Heartbeat CPU 0 instructions: 86000003 cycles: 70112785 heartbeat IPC: 0.706054 cumulative IPC: 0.718038 (Simulation time: 0 hr 33 min 14 sec) 
select_counter is 1020
Heartbeat CPU 0 instructions: 87000000 cycles: 71486826 heartbeat IPC: 0.727778 cumulative IPC: 0.718298 (Simulation time: 0 hr 33 min 37 sec) 
select_counter is 1021
Heartbeat CPU 0 instructions: 88000000 cycles: 72845839 heartbeat IPC: 0.735828 cumulative IPC: 0.718749 (Simulation time: 0 hr 34 min 0 sec) 
select_counter is 1021
Heartbeat CPU 0 instructions: 89000003 cycles: 74211836 heartbeat IPC: 0.732068 cumulative IPC: 0.719084 (Simulation time: 0 hr 34 min 23 sec) 
select_counter is 1020
Heartbeat CPU 0 instructions: 90000003 cycles: 75639583 heartbeat IPC: 0.700404 cumulative IPC: 0.718605 (Simulation time: 0 hr 34 min 48 sec) 
select_counter is 1020
Heartbeat CPU 0 instructions: 91000002 cycles: 76985896 heartbeat IPC: 0.742769 cumulative IPC: 0.719176 (Simulation time: 0 hr 35 min 12 sec) 
select_counter is 1021
Heartbeat CPU 0 instructions: 92000000 cycles: 78357634 heartbeat IPC: 0.729001 cumulative IPC: 0.719407 (Simulation time: 0 hr 35 min 35 sec) 
select_counter is 1016
Heartbeat CPU 0 instructions: 93000003 cycles: 79793766 heartbeat IPC: 0.696317 cumulative IPC: 0.718852 (Simulation time: 0 hr 35 min 58 sec) 
select_counter is 1021
Heartbeat CPU 0 instructions: 94000001 cycles: 81149592 heartbeat IPC: 0.737556 cumulative IPC: 0.719267 (Simulation time: 0 hr 36 min 21 sec) 
select_counter is 1021
Heartbeat CPU 0 instructions: 95000001 cycles: 82505239 heartbeat IPC: 0.737655 cumulative IPC: 0.719665 (Simulation time: 0 hr 36 min 44 sec) 
select_counter is 1017
Heartbeat CPU 0 instructions: 96000000 cycles: 83868561 heartbeat IPC: 0.733502 cumulative IPC: 0.719961 (Simulation time: 0 hr 37 min 7 sec) 
select_counter is 1019
Heartbeat CPU 0 instructions: 97000000 cycles: 85294201 heartbeat IPC: 0.701439 cumulative IPC: 0.719556 (Simulation time: 0 hr 37 min 31 sec) 
select_counter is 1020
Heartbeat CPU 0 instructions: 98000002 cycles: 86648372 heartbeat IPC: 0.738461 cumulative IPC: 0.71994 (Simulation time: 0 hr 37 min 55 sec) 
select_counter is 1021
Heartbeat CPU 0 instructions: 99000001 cycles: 88014573 heartbeat IPC: 0.731956 cumulative IPC: 0.720182 (Simulation time: 0 hr 38 min 18 sec) 
select_counter is 1008
Heartbeat CPU 0 instructions: 100000000 cycles: 89408599 heartbeat IPC: 0.717346 cumulative IPC: 0.720125 (Simulation time: 0 hr 38 min 42 sec) 
select_counter is 1023
Heartbeat CPU 0 instructions: 101000003 cycles: 90796879 heartbeat IPC: 0.720318 cumulative IPC: 0.720129 (Simulation time: 0 hr 39 min 8 sec) 
select_counter is 1017
Heartbeat CPU 0 instructions: 102000002 cycles: 92171735 heartbeat IPC: 0.727348 cumulative IPC: 0.720266 (Simulation time: 0 hr 39 min 32 sec) 
select_counter is 1007
Heartbeat CPU 0 instructions: 103000000 cycles: 93615636 heartbeat IPC: 0.692567 cumulative IPC: 0.719723 (Simulation time: 0 hr 39 min 56 sec) 
select_counter is 1020
Heartbeat CPU 0 instructions: 104000000 cycles: 94992258 heartbeat IPC: 0.726416 cumulative IPC: 0.719846 (Simulation time: 0 hr 40 min 22 sec) 
select_counter is 1021
Heartbeat CPU 0 instructions: 105000002 cycles: 96375332 heartbeat IPC: 0.723029 cumulative IPC: 0.719903 (Simulation time: 0 hr 40 min 46 sec) 
select_counter is 1022
Heartbeat CPU 0 instructions: 106000001 cycles: 97722148 heartbeat IPC: 0.742491 cumulative IPC: 0.720295 (Simulation time: 0 hr 41 min 10 sec) 
select_counter is 1021
Heartbeat CPU 0 instructions: 107000000 cycles: 99144737 heartbeat IPC: 0.702943 cumulative IPC: 0.719983 (Simulation time: 0 hr 41 min 34 sec) 
select_counter is 1022
Heartbeat CPU 0 instructions: 108000000 cycles: 100527310 heartbeat IPC: 0.723289 cumulative IPC: 0.72004 (Simulation time: 0 hr 41 min 57 sec) 
select_counter is 1018
Heartbeat CPU 0 instructions: 109000002 cycles: 101896318 heartbeat IPC: 0.730457 cumulative IPC: 0.720214 (Simulation time: 0 hr 42 min 21 sec) 
select_counter is 1009
Heartbeat CPU 0 instructions: 110000000 cycles: 103332735 heartbeat IPC: 0.696175 cumulative IPC: 0.719799 (Simulation time: 0 hr 42 min 45 sec) 
select_counter is 1022
Heartbeat CPU 0 instructions: 111000003 cycles: 104688629 heartbeat IPC: 0.737523 cumulative IPC: 0.720083 (Simulation time: 0 hr 43 min 9 sec) 
select_counter is 1021
Heartbeat CPU 0 instructions: 112000000 cycles: 106039641 heartbeat IPC: 0.740184 cumulative IPC: 0.720399 (Simulation time: 0 hr 43 min 34 sec) 
select_counter is 1021
Heartbeat CPU 0 instructions: 113000001 cycles: 107442276 heartbeat IPC: 0.712945 cumulative IPC: 0.720279 (Simulation time: 0 hr 44 min 1 sec) 
select_counter is 1012
Heartbeat CPU 0 instructions: 114000003 cycles: 108830085 heartbeat IPC: 0.720562 cumulative IPC: 0.720284 (Simulation time: 0 hr 44 min 25 sec) 
select_counter is 1012
Heartbeat CPU 0 instructions: 115000003 cycles: 110191163 heartbeat IPC: 0.734712 cumulative IPC: 0.720501 (Simulation time: 0 hr 44 min 49 sec) 
select_counter is 1013
Heartbeat CPU 0 instructions: 116000000 cycles: 111496264 heartbeat IPC: 0.766222 cumulative IPC: 0.721153 (Simulation time: 0 hr 45 min 12 sec) 
select_counter is 1023
Heartbeat CPU 0 instructions: 117000003 cycles: 112907448 heartbeat IPC: 0.708627 cumulative IPC: 0.720963 (Simulation time: 0 hr 45 min 37 sec) 
select_counter is 1019
Heartbeat CPU 0 instructions: 118000003 cycles: 114241327 heartbeat IPC: 0.749693 cumulative IPC: 0.72137 (Simulation time: 0 hr 46 min 1 sec) 
select_counter is 1022
Heartbeat CPU 0 instructions: 119000000 cycles: 115604527 heartbeat IPC: 0.733566 cumulative IPC: 0.721543 (Simulation time: 0 hr 46 min 25 sec) 
select_counter is 1018
Heartbeat CPU 0 instructions: 120000000 cycles: 117000342 heartbeat IPC: 0.716427 cumulative IPC: 0.72147 (Simulation time: 0 hr 46 min 51 sec) 
select_counter is 1015
Heartbeat CPU 0 instructions: 121000002 cycles: 118336587 heartbeat IPC: 0.748367 cumulative IPC: 0.721835 (Simulation time: 0 hr 47 min 20 sec) 
select_counter is 1010
Heartbeat CPU 0 instructions: 122000003 cycles: 119705629 heartbeat IPC: 0.730439 cumulative IPC: 0.721953 (Simulation time: 0 hr 47 min 48 sec) 
select_counter is 1013
Heartbeat CPU 0 instructions: 123000002 cycles: 121087083 heartbeat IPC: 0.723874 cumulative IPC: 0.72198 (Simulation time: 0 hr 48 min 16 sec) 
select_counter is 1023
Heartbeat CPU 0 instructions: 124000000 cycles: 122503223 heartbeat IPC: 0.706143 cumulative IPC: 0.721761 (Simulation time: 0 hr 48 min 43 sec) 
select_counter is 1022
Heartbeat CPU 0 instructions: 125000001 cycles: 123841732 heartbeat IPC: 0.747101 cumulative IPC: 0.722087 (Simulation time: 0 hr 49 min 9 sec) 
select_counter is 1020
Heartbeat CPU 0 instructions: 126000003 cycles: 125228251 heartbeat IPC: 0.721232 cumulative IPC: 0.722076 (Simulation time: 0 hr 49 min 33 sec) 
select_counter is 1018
Heartbeat CPU 0 instructions: 127000002 cycles: 126637661 heartbeat IPC: 0.709516 cumulative IPC: 0.72191 (Simulation time: 0 hr 49 min 57 sec) 
select_counter is 1021
Heartbeat CPU 0 instructions: 128000000 cycles: 127950938 heartbeat IPC: 0.761452 cumulative IPC: 0.722391 (Simulation time: 0 hr 50 min 20 sec) 
select_counter is 1020
Heartbeat CPU 0 instructions: 129000003 cycles: 129275927 heartbeat IPC: 0.754726 cumulative IPC: 0.722783 (Simulation time: 0 hr 50 min 43 sec) 
select_counter is 1021
Heartbeat CPU 0 instructions: 130000000 cycles: 130638107 heartbeat IPC: 0.734115 cumulative IPC: 0.722923 (Simulation time: 0 hr 51 min 5 sec) 
select_counter is 1010
Heartbeat CPU 0 instructions: 131000001 cycles: 132009295 heartbeat IPC: 0.729295 cumulative IPC: 0.723001 (Simulation time: 0 hr 51 min 27 sec) 
select_counter is 1018
Heartbeat CPU 0 instructions: 132000000 cycles: 133381088 heartbeat IPC: 0.728972 cumulative IPC: 0.723073 (Simulation time: 0 hr 51 min 50 sec) 
select_counter is 1023
Heartbeat CPU 0 instructions: 133000003 cycles: 134735482 heartbeat IPC: 0.73834 cumulative IPC: 0.723253 (Simulation time: 0 hr 52 min 11 sec) 
select_counter is 1022
Heartbeat CPU 0 instructions: 134000001 cycles: 136160437 heartbeat IPC: 0.701775 cumulative IPC: 0.72299 (Simulation time: 0 hr 52 min 33 sec) 
select_counter is 1018
Heartbeat CPU 0 instructions: 135000000 cycles: 137529319 heartbeat IPC: 0.730522 cumulative IPC: 0.723077 (Simulation time: 0 hr 52 min 55 sec) 
select_counter is 1016
Heartbeat CPU 0 instructions: 136000000 cycles: 138877817 heartbeat IPC: 0.741566 cumulative IPC: 0.723287 (Simulation time: 0 hr 53 min 16 sec) 
select_counter is 1023
Heartbeat CPU 0 instructions: 137000002 cycles: 140304249 heartbeat IPC: 0.701051 cumulative IPC: 0.723023 (Simulation time: 0 hr 53 min 37 sec) 
select_counter is 1014
Heartbeat CPU 0 instructions: 138000001 cycles: 141682399 heartbeat IPC: 0.72561 cumulative IPC: 0.723053 (Simulation time: 0 hr 53 min 57 sec) 
select_counter is 1020
Heartbeat CPU 0 instructions: 139000000 cycles: 143032296 heartbeat IPC: 0.740797 cumulative IPC: 0.723247 (Simulation time: 0 hr 54 min 17 sec) 
select_counter is 1023
Heartbeat CPU 0 instructions: 140000000 cycles: 144405201 heartbeat IPC: 0.728383 cumulative IPC: 0.723304 (Simulation time: 0 hr 54 min 38 sec) 
select_counter is 1011
Heartbeat CPU 0 instructions: 141000001 cycles: 145836415 heartbeat IPC: 0.698708 cumulative IPC: 0.723024 (Simulation time: 0 hr 54 min 57 sec) 
select_counter is 1011
Heartbeat CPU 0 instructions: 142000003 cycles: 147206590 heartbeat IPC: 0.729835 cumulative IPC: 0.723098 (Simulation time: 0 hr 55 min 16 sec) 
select_counter is 1023
Heartbeat CPU 0 instructions: 143000003 cycles: 148590541 heartbeat IPC: 0.722569 cumulative IPC: 0.723092 (Simulation time: 0 hr 55 min 34 sec) 
select_counter is 1022
Heartbeat CPU 0 instructions: 144000000 cycles: 149989112 heartbeat IPC: 0.715013 cumulative IPC: 0.723005 (Simulation time: 0 hr 55 min 52 sec) 
select_counter is 1013
Heartbeat CPU 0 instructions: 145000002 cycles: 151337044 heartbeat IPC: 0.741879 cumulative IPC: 0.723199 (Simulation time: 0 hr 56 min 11 sec) 
select_counter is 1022
Heartbeat CPU 0 instructions: 146000000 cycles: 152755229 heartbeat IPC: 0.705125 cumulative IPC: 0.723006 (Simulation time: 0 hr 56 min 29 sec) 
select_counter is 1017
Heartbeat CPU 0 instructions: 147000000 cycles: 154180968 heartbeat IPC: 0.701391 cumulative IPC: 0.722776 (Simulation time: 0 hr 56 min 48 sec) 
select_counter is 973
Heartbeat CPU 0 instructions: 148000000 cycles: 155560698 heartbeat IPC: 0.724779 cumulative IPC: 0.722796 (Simulation time: 0 hr 57 min 6 sec) 
select_counter is 1021
Heartbeat CPU 0 instructions: 149000001 cycles: 156910871 heartbeat IPC: 0.740647 cumulative IPC: 0.722972 (Simulation time: 0 hr 57 min 23 sec) 
select_counter is 1016
Heartbeat CPU 0 instructions: 150000003 cycles: 158299349 heartbeat IPC: 0.720214 cumulative IPC: 0.722945 (Simulation time: 0 hr 57 min 40 sec) 
select_counter is 1021
Finished CPU 0 instructions: 100000000 cycles: 138323159 cummulative IPC: 0.722945 (Simulation time: 0 hr 57 min 40 sec) 

ChampSim completed all CPUs

Region of Interest Statistics

CPU 0 cummulative IPC: 0.722945 instructions: 100000000 cycles: 138323159
LLC TOTAL     ACCESS:    5313704  HIT:    1485626  MISS:    3828078
LLC LOAD      ACCESS:     372532  HIT:        470  MISS:     372062
LLC RFO       ACCESS:    2270806  HIT:     480876  MISS:    1789930
LLC PREFETCH  ACCESS:     399616  HIT:        512  MISS:     399104
LLC WRITEBACK ACCESS:    2270750  HIT:    1003768  MISS:    1266982
Ship samples: 
17, 47, 77, 119, 147, 179, 209, 235, 263, 309, 338, 352, 385, 447, 450, 497, 543, 549, 581, 633, 654, 687, 718, 765, 797, 808, 848, 887, 899, 946, 966, 1022, 1041, 1068, 1119, 1140, 1160, 1206, 1217, 1257, 1309, 1336, 1360, 1385, 1436, 1453, 1484, 1521, 1567, 1583, 1629, 1646, 1668, 1697, 1750, 1783, 1793, 1855, 1862, 1896, 1938, 1953, 2010, 2021, 
Lime duel samples: 
16, 54, 92, 103, 150, 184, 201, 231, 281, 305, 329, 361, 391, 442, 448, 496, 536, 558, 582, 635, 669, 674, 726, 744, 799, 807, 847, 872, 914, 950, 965, 995, 1030, 1059, 1111, 1126, 1165, 1187, 1228, 1269, 1288, 1337, 1350, 1386, 1414, 1454, 1472, 1523, 1552, 1576, 1605, 1660, 1664, 1708, 1754, 1769, 1807, 1853, 1868, 1893, 1941, 1960, 1989, 2033, 
Lime samples: 
16, 103, 201, 305, 391, 496, 582, 674, 799, 872, 965, 1059, 1165, 1269, 1350, 1454, 1552, 1660, 1754, 1853, 1941, 
Insertion Distribution: 
	LOAD 0 0 0 0 0 0 1180 16073 
	RFO 3527 0 0 0 0 0 21900 80401 
	PREF 0 217 0 0 0 0 3053 18091 
	WRITEBACK 0 0 0 0 0 0 0 76867 
Total Prefetch Downgrades: 465
