
*** ChampSim Multicore Out-of-Order Simulator ***

Warmup Instructions: 50000000
Simulation Instructions: 100000000
Configuration: 2
Number of CPUs: 1
LLC sets: 2048
LLC ways: 16
Off-chip DRAM Channels: 1 Width: 64-bit Data Rate: 1600 MT/s

CPU 0 runs /datasets/cs240c-wi22-a00-public/data/Assignment2-gz/libquantum_1735B.trace.gz
CPU 0 L1D next line prefetcher
CPU 0 L2C IP-based stride prefetcher
Heartbeat CPU 0 instructions: 1000001 cycles: 333341 heartbeat IPC: 2.99993 cumulative IPC: 2.99993 (Simulation time: 0 hr 0 min 16 sec) 
select_counter is 511
Heartbeat CPU 0 instructions: 2000000 cycles: 666674 heartbeat IPC: 3 cumulative IPC: 2.99997 (Simulation time: 0 hr 0 min 32 sec) 
select_counter is 511
Heartbeat CPU 0 instructions: 3000000 cycles: 989045 heartbeat IPC: 3.10202 cumulative IPC: 3.03323 (Simulation time: 0 hr 0 min 48 sec) 
select_counter is 509
Heartbeat CPU 0 instructions: 4000000 cycles: 1290770 heartbeat IPC: 3.31428 cumulative IPC: 3.09893 (Simulation time: 0 hr 1 min 5 sec) 
select_counter is 524
Heartbeat CPU 0 instructions: 5000001 cycles: 1592495 heartbeat IPC: 3.31428 cumulative IPC: 3.13973 (Simulation time: 0 hr 1 min 21 sec) 
select_counter is 540
Heartbeat CPU 0 instructions: 6000001 cycles: 1894219 heartbeat IPC: 3.31429 cumulative IPC: 3.16753 (Simulation time: 0 hr 1 min 37 sec) 
select_counter is 574
Heartbeat CPU 0 instructions: 7000002 cycles: 2195942 heartbeat IPC: 3.3143 cumulative IPC: 3.1877 (Simulation time: 0 hr 1 min 51 sec) 
select_counter is 593
Heartbeat CPU 0 instructions: 8000000 cycles: 2501897 heartbeat IPC: 3.26845 cumulative IPC: 3.19757 (Simulation time: 0 hr 2 min 7 sec) 
select_counter is 602
Heartbeat CPU 0 instructions: 9000000 cycles: 2835230 heartbeat IPC: 3 cumulative IPC: 3.17435 (Simulation time: 0 hr 2 min 22 sec) 
select_counter is 605
Heartbeat CPU 0 instructions: 10000002 cycles: 3168564 heartbeat IPC: 3 cumulative IPC: 3.156 (Simulation time: 0 hr 2 min 37 sec) 
select_counter is 606
Heartbeat CPU 0 instructions: 11000001 cycles: 3501897 heartbeat IPC: 3 cumulative IPC: 3.14116 (Simulation time: 0 hr 2 min 50 sec) 
select_counter is 606
Heartbeat CPU 0 instructions: 12000000 cycles: 3835230 heartbeat IPC: 3 cumulative IPC: 3.12889 (Simulation time: 0 hr 3 min 2 sec) 
select_counter is 605
Heartbeat CPU 0 instructions: 13000000 cycles: 4159530 heartbeat IPC: 3.08356 cumulative IPC: 3.12535 (Simulation time: 0 hr 3 min 17 sec) 
select_counter is 586
Heartbeat CPU 0 instructions: 14000002 cycles: 4471102 heartbeat IPC: 3.20954 cumulative IPC: 3.13122 (Simulation time: 0 hr 3 min 34 sec) 
select_counter is 550
Heartbeat CPU 0 instructions: 15000000 cycles: 4782674 heartbeat IPC: 3.20952 cumulative IPC: 3.13632 (Simulation time: 0 hr 3 min 50 sec) 
select_counter is 546
Heartbeat CPU 0 instructions: 16000000 cycles: 5094247 heartbeat IPC: 3.20952 cumulative IPC: 3.1408 (Simulation time: 0 hr 4 min 5 sec) 
select_counter is 535
Heartbeat CPU 0 instructions: 17000000 cycles: 5405820 heartbeat IPC: 3.20952 cumulative IPC: 3.14476 (Simulation time: 0 hr 4 min 21 sec) 
select_counter is 539
Heartbeat CPU 0 instructions: 18000001 cycles: 5725379 heartbeat IPC: 3.12932 cumulative IPC: 3.1439 (Simulation time: 0 hr 4 min 36 sec) 
select_counter is 533
Heartbeat CPU 0 instructions: 19000000 cycles: 6058712 heartbeat IPC: 3 cumulative IPC: 3.13598 (Simulation time: 0 hr 4 min 50 sec) 
select_counter is 533
Heartbeat CPU 0 instructions: 20000000 cycles: 6392046 heartbeat IPC: 2.99999 cumulative IPC: 3.12889 (Simulation time: 0 hr 5 min 4 sec) 
select_counter is 273
Heartbeat CPU 0 instructions: 21000001 cycles: 6725379 heartbeat IPC: 3.00001 cumulative IPC: 3.1225 (Simulation time: 0 hr 5 min 16 sec) 
select_counter is 971
Heartbeat CPU 0 instructions: 22000000 cycles: 7058712 heartbeat IPC: 3 cumulative IPC: 3.11672 (Simulation time: 0 hr 5 min 32 sec) 
select_counter is 972
Heartbeat CPU 0 instructions: 23000001 cycles: 7377935 heartbeat IPC: 3.13261 cumulative IPC: 3.1174 (Simulation time: 0 hr 5 min 46 sec) 
select_counter is 954
Heartbeat CPU 0 instructions: 24000000 cycles: 7689508 heartbeat IPC: 3.20952 cumulative IPC: 3.12114 (Simulation time: 0 hr 5 min 59 sec) 
select_counter is 950
Heartbeat CPU 0 instructions: 25000002 cycles: 8001081 heartbeat IPC: 3.20953 cumulative IPC: 3.12458 (Simulation time: 0 hr 6 min 12 sec) 
select_counter is 962
Heartbeat CPU 0 instructions: 26000000 cycles: 8312653 heartbeat IPC: 3.20952 cumulative IPC: 3.12776 (Simulation time: 0 hr 6 min 25 sec) 
select_counter is 977
Heartbeat CPU 0 instructions: 27000003 cycles: 8624226 heartbeat IPC: 3.20953 cumulative IPC: 3.13072 (Simulation time: 0 hr 6 min 41 sec) 
select_counter is 962
Heartbeat CPU 0 instructions: 28000000 cycles: 8948866 heartbeat IPC: 3.08033 cumulative IPC: 3.12889 (Simulation time: 0 hr 6 min 58 sec) 
select_counter is 941
Heartbeat CPU 0 instructions: 29000000 cycles: 9282199 heartbeat IPC: 3 cumulative IPC: 3.12426 (Simulation time: 0 hr 7 min 14 sec) 
select_counter is 942
Heartbeat CPU 0 instructions: 30000001 cycles: 9615533 heartbeat IPC: 3 cumulative IPC: 3.11995 (Simulation time: 0 hr 7 min 29 sec) 
select_counter is 947
Heartbeat CPU 0 instructions: 31000000 cycles: 9948866 heartbeat IPC: 3 cumulative IPC: 3.11593 (Simulation time: 0 hr 7 min 44 sec) 
select_counter is 977
Heartbeat CPU 0 instructions: 32000000 cycles: 10282200 heartbeat IPC: 2.99999 cumulative IPC: 3.11217 (Simulation time: 0 hr 8 min 1 sec) 
select_counter is 987
Heartbeat CPU 0 instructions: 33000003 cycles: 10587669 heartbeat IPC: 3.27366 cumulative IPC: 3.11683 (Simulation time: 0 hr 8 min 17 sec) 
select_counter is 972
Heartbeat CPU 0 instructions: 34000002 cycles: 10889391 heartbeat IPC: 3.31431 cumulative IPC: 3.12231 (Simulation time: 0 hr 8 min 34 sec) 
select_counter is 953
Heartbeat CPU 0 instructions: 35000002 cycles: 11191114 heartbeat IPC: 3.3143 cumulative IPC: 3.12748 (Simulation time: 0 hr 8 min 50 sec) 
select_counter is 933
Heartbeat CPU 0 instructions: 36000000 cycles: 11492840 heartbeat IPC: 3.31426 cumulative IPC: 3.13239 (Simulation time: 0 hr 9 min 5 sec) 
select_counter is 923
Heartbeat CPU 0 instructions: 37000002 cycles: 11794564 heartbeat IPC: 3.31429 cumulative IPC: 3.13704 (Simulation time: 0 hr 9 min 20 sec) 
select_counter is 914
Heartbeat CPU 0 instructions: 38000003 cycles: 12117424 heartbeat IPC: 3.09732 cumulative IPC: 3.13598 (Simulation time: 0 hr 9 min 36 sec) 
select_counter is 915
Heartbeat CPU 0 instructions: 39000002 cycles: 12450757 heartbeat IPC: 3 cumulative IPC: 3.13234 (Simulation time: 0 hr 9 min 51 sec) 
select_counter is 914
Heartbeat CPU 0 instructions: 40000000 cycles: 12784090 heartbeat IPC: 3 cumulative IPC: 3.12889 (Simulation time: 0 hr 10 min 8 sec) 
select_counter is 395
Heartbeat CPU 0 instructions: 41000000 cycles: 13117423 heartbeat IPC: 3 cumulative IPC: 3.12561 (Simulation time: 0 hr 10 min 23 sec) 
select_counter is 326
Heartbeat CPU 0 instructions: 42000001 cycles: 13450757 heartbeat IPC: 3 cumulative IPC: 3.1225 (Simulation time: 0 hr 10 min 40 sec) 
select_counter is 325
Heartbeat CPU 0 instructions: 43000003 cycles: 13754059 heartbeat IPC: 3.29705 cumulative IPC: 3.12635 (Simulation time: 0 hr 10 min 55 sec) 
select_counter is 297
Heartbeat CPU 0 instructions: 44000000 cycles: 14055784 heartbeat IPC: 3.31427 cumulative IPC: 3.13038 (Simulation time: 0 hr 11 min 13 sec) 
select_counter is 280
Heartbeat CPU 0 instructions: 45000000 cycles: 14357508 heartbeat IPC: 3.31429 cumulative IPC: 3.13425 (Simulation time: 0 hr 11 min 28 sec) 
select_counter is 288
Heartbeat CPU 0 instructions: 46000002 cycles: 14659231 heartbeat IPC: 3.3143 cumulative IPC: 3.13795 (Simulation time: 0 hr 11 min 44 sec) 
select_counter is 299
Heartbeat CPU 0 instructions: 47000002 cycles: 14960955 heartbeat IPC: 3.31429 cumulative IPC: 3.14151 (Simulation time: 0 hr 12 min 0 sec) 
select_counter is 264
Heartbeat CPU 0 instructions: 48000000 cycles: 15285991 heartbeat IPC: 3.07658 cumulative IPC: 3.14013 (Simulation time: 0 hr 12 min 16 sec) 
select_counter is 259
Heartbeat CPU 0 instructions: 49000002 cycles: 15619325 heartbeat IPC: 3 cumulative IPC: 3.13714 (Simulation time: 0 hr 12 min 33 sec) 
select_counter is 258
Heartbeat CPU 0 instructions: 50000001 cycles: 15952658 heartbeat IPC: 3 cumulative IPC: 3.13427 (Simulation time: 0 hr 12 min 52 sec) 
select_counter is 266

Warmup complete CPU 0 instructions: 50000001 cycles: 15952658 (Simulation time: 0 hr 12 min 52 sec) 

Heartbeat CPU 0 instructions: 51000000 cycles: 17472628 heartbeat IPC: 0.657907 cumulative IPC: 0.657907 (Simulation time: 0 hr 13 min 18 sec) 
select_counter is 300
Heartbeat CPU 0 instructions: 52000000 cycles: 18991747 heartbeat IPC: 0.658276 cumulative IPC: 0.658092 (Simulation time: 0 hr 13 min 49 sec) 
select_counter is 303
Heartbeat CPU 0 instructions: 53000002 cycles: 20511451 heartbeat IPC: 0.658024 cumulative IPC: 0.658069 (Simulation time: 0 hr 14 min 16 sec) 
select_counter is 303
Heartbeat CPU 0 instructions: 54000001 cycles: 22030591 heartbeat IPC: 0.658267 cumulative IPC: 0.658118 (Simulation time: 0 hr 14 min 41 sec) 
select_counter is 303
Heartbeat CPU 0 instructions: 55000000 cycles: 23550243 heartbeat IPC: 0.658045 cumulative IPC: 0.658104 (Simulation time: 0 hr 15 min 14 sec) 
select_counter is 303
Heartbeat CPU 0 instructions: 56000000 cycles: 25069712 heartbeat IPC: 0.658125 cumulative IPC: 0.658107 (Simulation time: 0 hr 15 min 39 sec) 
select_counter is 303
Heartbeat CPU 0 instructions: 57000000 cycles: 26582907 heartbeat IPC: 0.660853 cumulative IPC: 0.658498 (Simulation time: 0 hr 16 min 5 sec) 
select_counter is 304
Heartbeat CPU 0 instructions: 58000002 cycles: 28102378 heartbeat IPC: 0.658125 cumulative IPC: 0.658451 (Simulation time: 0 hr 16 min 30 sec) 
select_counter is 304
Heartbeat CPU 0 instructions: 59000001 cycles: 29582369 heartbeat IPC: 0.675679 cumulative IPC: 0.660322 (Simulation time: 0 hr 16 min 56 sec) 
select_counter is 163
Heartbeat CPU 0 instructions: 60000000 cycles: 30960624 heartbeat IPC: 0.725554 cumulative IPC: 0.666313 (Simulation time: 0 hr 17 min 22 sec) 
select_counter is 851
Heartbeat CPU 0 instructions: 61000003 cycles: 32480244 heartbeat IPC: 0.658061 cumulative IPC: 0.665554 (Simulation time: 0 hr 17 min 49 sec) 
select_counter is 851
Heartbeat CPU 0 instructions: 62000002 cycles: 33999716 heartbeat IPC: 0.658123 cumulative IPC: 0.664928 (Simulation time: 0 hr 18 min 16 sec) 
select_counter is 851
Heartbeat CPU 0 instructions: 63000001 cycles: 35519260 heartbeat IPC: 0.658091 cumulative IPC: 0.664397 (Simulation time: 0 hr 18 min 42 sec) 
select_counter is 850
Heartbeat CPU 0 instructions: 64000000 cycles: 37038724 heartbeat IPC: 0.658126 cumulative IPC: 0.663945 (Simulation time: 0 hr 19 min 7 sec) 
select_counter is 850
Heartbeat CPU 0 instructions: 65000001 cycles: 38558212 heartbeat IPC: 0.658117 cumulative IPC: 0.663554 (Simulation time: 0 hr 19 min 31 sec) 
select_counter is 850
Heartbeat CPU 0 instructions: 66000000 cycles: 40078141 heartbeat IPC: 0.657925 cumulative IPC: 0.663199 (Simulation time: 0 hr 19 min 56 sec) 
select_counter is 867
Heartbeat CPU 0 instructions: 67000001 cycles: 41574906 heartbeat IPC: 0.668108 cumulative IPC: 0.663486 (Simulation time: 0 hr 20 min 22 sec) 
select_counter is 913
Heartbeat CPU 0 instructions: 68000000 cycles: 43067029 heartbeat IPC: 0.670185 cumulative IPC: 0.663855 (Simulation time: 0 hr 20 min 51 sec) 
select_counter is 913
Heartbeat CPU 0 instructions: 69000002 cycles: 44533462 heartbeat IPC: 0.681928 cumulative IPC: 0.664782 (Simulation time: 0 hr 21 min 16 sec) 
select_counter is 890
Heartbeat CPU 0 instructions: 70000001 cycles: 45997435 heartbeat IPC: 0.683072 cumulative IPC: 0.665673 (Simulation time: 0 hr 21 min 43 sec) 
select_counter is 683
Heartbeat CPU 0 instructions: 71000003 cycles: 47549370 heartbeat IPC: 0.644358 cumulative IPC: 0.664626 (Simulation time: 0 hr 22 min 8 sec) 
select_counter is 682
Heartbeat CPU 0 instructions: 72000000 cycles: 49723750 heartbeat IPC: 0.4599 cumulative IPC: 0.651445 (Simulation time: 0 hr 22 min 30 sec) 
select_counter is 657
Heartbeat CPU 0 instructions: 73000000 cycles: 51910780 heartbeat IPC: 0.457241 cumulative IPC: 0.639633 (Simulation time: 0 hr 22 min 52 sec) 
select_counter is 646
Heartbeat CPU 0 instructions: 74000000 cycles: 54078386 heartbeat IPC: 0.461338 cumulative IPC: 0.629496 (Simulation time: 0 hr 23 min 17 sec) 
select_counter is 629
Heartbeat CPU 0 instructions: 75000000 cycles: 56254390 heartbeat IPC: 0.459558 cumulative IPC: 0.620321 (Simulation time: 0 hr 23 min 39 sec) 
select_counter is 622
Heartbeat CPU 0 instructions: 76000000 cycles: 58442285 heartbeat IPC: 0.45706 cumulative IPC: 0.611914 (Simulation time: 0 hr 24 min 0 sec) 
select_counter is 610
Heartbeat CPU 0 instructions: 77000001 cycles: 60037077 heartbeat IPC: 0.627042 cumulative IPC: 0.612461 (Simulation time: 0 hr 24 min 25 sec) 
select_counter is 612
Heartbeat CPU 0 instructions: 78000000 cycles: 61541158 heartbeat IPC: 0.664857 cumulative IPC: 0.61419 (Simulation time: 0 hr 24 min 49 sec) 
select_counter is 610
Heartbeat CPU 0 instructions: 79000001 cycles: 62791338 heartbeat IPC: 0.799886 cumulative IPC: 0.619146 (Simulation time: 0 hr 25 min 14 sec) 
select_counter is 276
Heartbeat CPU 0 instructions: 80000000 cycles: 64296743 heartbeat IPC: 0.664272 cumulative IPC: 0.620552 (Simulation time: 0 hr 25 min 43 sec) 
select_counter is 275
Heartbeat CPU 0 instructions: 81000002 cycles: 65897227 heartbeat IPC: 0.624812 cumulative IPC: 0.620688 (Simulation time: 0 hr 26 min 9 sec) 
select_counter is 273
Heartbeat CPU 0 instructions: 82000003 cycles: 68150577 heartbeat IPC: 0.443784 cumulative IPC: 0.613051 (Simulation time: 0 hr 26 min 31 sec) 
select_counter is 260
Heartbeat CPU 0 instructions: 83000000 cycles: 70437055 heartbeat IPC: 0.437353 cumulative IPC: 0.605678 (Simulation time: 0 hr 26 min 55 sec) 
select_counter is 269
Heartbeat CPU 0 instructions: 84000000 cycles: 72720660 heartbeat IPC: 0.437904 cumulative IPC: 0.598929 (Simulation time: 0 hr 27 min 17 sec) 
select_counter is 295
Heartbeat CPU 0 instructions: 85000002 cycles: 75015143 heartbeat IPC: 0.435829 cumulative IPC: 0.592593 (Simulation time: 0 hr 27 min 38 sec) 
select_counter is 322
Heartbeat CPU 0 instructions: 86000002 cycles: 77315602 heartbeat IPC: 0.434696 cumulative IPC: 0.586673 (Simulation time: 0 hr 28 min 1 sec) 
select_counter is 320
Heartbeat CPU 0 instructions: 87000002 cycles: 78969034 heartbeat IPC: 0.604803 cumulative IPC: 0.587149 (Simulation time: 0 hr 28 min 28 sec) 
select_counter is 318
Heartbeat CPU 0 instructions: 88000000 cycles: 80541640 heartbeat IPC: 0.635886 cumulative IPC: 0.588336 (Simulation time: 0 hr 28 min 55 sec) 
select_counter is 318
Heartbeat CPU 0 instructions: 89000000 cycles: 82101721 heartbeat IPC: 0.640992 cumulative IPC: 0.589577 (Simulation time: 0 hr 29 min 23 sec) 
select_counter is 853
Heartbeat CPU 0 instructions: 90000000 cycles: 84005698 heartbeat IPC: 0.525216 cumulative IPC: 0.587777 (Simulation time: 0 hr 29 min 51 sec) 
select_counter is 910
Heartbeat CPU 0 instructions: 91000001 cycles: 86775180 heartbeat IPC: 0.361079 cumulative IPC: 0.578912 (Simulation time: 0 hr 30 min 15 sec) 
select_counter is 1022
Heartbeat CPU 0 instructions: 92000000 cycles: 89604371 heartbeat IPC: 0.353458 cumulative IPC: 0.570251 (Simulation time: 0 hr 30 min 39 sec) 
select_counter is 1021
Heartbeat CPU 0 instructions: 93000001 cycles: 92516523 heartbeat IPC: 0.343389 cumulative IPC: 0.561623 (Simulation time: 0 hr 31 min 5 sec) 
select_counter is 1022
Heartbeat CPU 0 instructions: 94000001 cycles: 95215530 heartbeat IPC: 0.370507 cumulative IPC: 0.555115 (Simulation time: 0 hr 31 min 32 sec) 
select_counter is 1020
Heartbeat CPU 0 instructions: 95000000 cycles: 96787464 heartbeat IPC: 0.636158 cumulative IPC: 0.556691 (Simulation time: 0 hr 31 min 59 sec) 
select_counter is 1019
Heartbeat CPU 0 instructions: 96000000 cycles: 98359862 heartbeat IPC: 0.635971 cumulative IPC: 0.558204 (Simulation time: 0 hr 32 min 29 sec) 
select_counter is 648
Heartbeat CPU 0 instructions: 97000002 cycles: 99931910 heartbeat IPC: 0.636114 cumulative IPC: 0.559662 (Simulation time: 0 hr 32 min 57 sec) 
select_counter is 647
Heartbeat CPU 0 instructions: 98000001 cycles: 102074313 heartbeat IPC: 0.466765 cumulative IPC: 0.557351 (Simulation time: 0 hr 33 min 21 sec) 
select_counter is 635
Heartbeat CPU 0 instructions: 99000003 cycles: 104806117 heartbeat IPC: 0.366059 cumulative IPC: 0.55147 (Simulation time: 0 hr 33 min 43 sec) 
select_counter is 641
Heartbeat CPU 0 instructions: 100000000 cycles: 107535090 heartbeat IPC: 0.366437 cumulative IPC: 0.545956 (Simulation time: 0 hr 34 min 5 sec) 
select_counter is 668
Heartbeat CPU 0 instructions: 101000000 cycles: 110252630 heartbeat IPC: 0.36798 cumulative IPC: 0.540827 (Simulation time: 0 hr 34 min 31 sec) 
select_counter is 699
Heartbeat CPU 0 instructions: 102000000 cycles: 112513590 heartbeat IPC: 0.44229 cumulative IPC: 0.53852 (Simulation time: 0 hr 34 min 57 sec) 
select_counter is 691
Heartbeat CPU 0 instructions: 103000002 cycles: 113984455 heartbeat IPC: 0.679873 cumulative IPC: 0.540641 (Simulation time: 0 hr 35 min 23 sec) 
select_counter is 691
Heartbeat CPU 0 instructions: 104000000 cycles: 115455391 heartbeat IPC: 0.679838 cumulative IPC: 0.542699 (Simulation time: 0 hr 35 min 47 sec) 
select_counter is 692
Heartbeat CPU 0 instructions: 105000000 cycles: 116978588 heartbeat IPC: 0.656514 cumulative IPC: 0.544415 (Simulation time: 0 hr 36 min 13 sec) 
select_counter is 301
Heartbeat CPU 0 instructions: 106000003 cycles: 118450384 heartbeat IPC: 0.679444 cumulative IPC: 0.546354 (Simulation time: 0 hr 36 min 40 sec) 
select_counter is 205
Heartbeat CPU 0 instructions: 107000000 cycles: 120630774 heartbeat IPC: 0.458632 cumulative IPC: 0.544526 (Simulation time: 0 hr 37 min 3 sec) 
select_counter is 252
Heartbeat CPU 0 instructions: 108000000 cycles: 123170072 heartbeat IPC: 0.39381 cumulative IPC: 0.540957 (Simulation time: 0 hr 37 min 24 sec) 
select_counter is 412
Heartbeat CPU 0 instructions: 109000002 cycles: 125609959 heartbeat IPC: 0.409856 cumulative IPC: 0.53804 (Simulation time: 0 hr 37 min 43 sec) 
select_counter is 751
Heartbeat CPU 0 instructions: 110000002 cycles: 127963769 heartbeat IPC: 0.424843 cumulative IPC: 0.535661 (Simulation time: 0 hr 38 min 6 sec) 
select_counter is 1022
Heartbeat CPU 0 instructions: 111000001 cycles: 130278570 heartbeat IPC: 0.432002 cumulative IPC: 0.533562 (Simulation time: 0 hr 38 min 27 sec) 
select_counter is 1023
Heartbeat CPU 0 instructions: 112000000 cycles: 132111019 heartbeat IPC: 0.545717 cumulative IPC: 0.533754 (Simulation time: 0 hr 38 min 53 sec) 
select_counter is 1018
Heartbeat CPU 0 instructions: 113000002 cycles: 133611846 heartbeat IPC: 0.666301 cumulative IPC: 0.535445 (Simulation time: 0 hr 39 min 18 sec) 
select_counter is 1019
Heartbeat CPU 0 instructions: 114000001 cycles: 135085048 heartbeat IPC: 0.678793 cumulative IPC: 0.537217 (Simulation time: 0 hr 39 min 43 sec) 
select_counter is 753
Heartbeat CPU 0 instructions: 115000000 cycles: 136581552 heartbeat IPC: 0.668223 cumulative IPC: 0.538843 (Simulation time: 0 hr 40 min 9 sec) 
select_counter is 690
Heartbeat CPU 0 instructions: 116000000 cycles: 138082416 heartbeat IPC: 0.666283 cumulative IPC: 0.540409 (Simulation time: 0 hr 40 min 36 sec) 
select_counter is 691
Heartbeat CPU 0 instructions: 117000000 cycles: 140627154 heartbeat IPC: 0.392968 cumulative IPC: 0.537399 (Simulation time: 0 hr 40 min 56 sec) 
select_counter is 662
Heartbeat CPU 0 instructions: 118000001 cycles: 143306590 heartbeat IPC: 0.373213 cumulative IPC: 0.533945 (Simulation time: 0 hr 41 min 19 sec) 
select_counter is 693
Heartbeat CPU 0 instructions: 119000001 cycles: 145977611 heartbeat IPC: 0.374389 cumulative IPC: 0.530667 (Simulation time: 0 hr 41 min 41 sec) 
select_counter is 730
Heartbeat CPU 0 instructions: 120000000 cycles: 148642942 heartbeat IPC: 0.375188 cumulative IPC: 0.527544 (Simulation time: 0 hr 42 min 3 sec) 
select_counter is 770
Heartbeat CPU 0 instructions: 121000000 cycles: 151322042 heartbeat IPC: 0.37326 cumulative IPC: 0.524491 (Simulation time: 0 hr 42 min 23 sec) 
select_counter is 782
Heartbeat CPU 0 instructions: 122000000 cycles: 152999152 heartbeat IPC: 0.596264 cumulative IPC: 0.525369 (Simulation time: 0 hr 42 min 46 sec) 
select_counter is 695
Heartbeat CPU 0 instructions: 123000001 cycles: 154465699 heartbeat IPC: 0.681875 cumulative IPC: 0.527026 (Simulation time: 0 hr 43 min 12 sec) 
select_counter is 695
Heartbeat CPU 0 instructions: 124000000 cycles: 155934259 heartbeat IPC: 0.680938 cumulative IPC: 0.528641 (Simulation time: 0 hr 43 min 41 sec) 
select_counter is 623
Heartbeat CPU 0 instructions: 125000002 cycles: 157451438 heartbeat IPC: 0.659119 cumulative IPC: 0.53004 (Simulation time: 0 hr 44 min 6 sec) 
select_counter is 208
Heartbeat CPU 0 instructions: 126000001 cycles: 158990574 heartbeat IPC: 0.649715 cumulative IPC: 0.531328 (Simulation time: 0 hr 44 min 29 sec) 
select_counter is 221
Heartbeat CPU 0 instructions: 127000000 cycles: 161262836 heartbeat IPC: 0.44009 cumulative IPC: 0.529901 (Simulation time: 0 hr 44 min 49 sec) 
select_counter is 337
Heartbeat CPU 0 instructions: 128000000 cycles: 163497823 heartbeat IPC: 0.44743 cumulative IPC: 0.528652 (Simulation time: 0 hr 45 min 9 sec) 
select_counter is 548
Heartbeat CPU 0 instructions: 129000002 cycles: 165627766 heartbeat IPC: 0.469497 cumulative IPC: 0.52781 (Simulation time: 0 hr 45 min 33 sec) 
select_counter is 926
Heartbeat CPU 0 instructions: 130000003 cycles: 167747010 heartbeat IPC: 0.471867 cumulative IPC: 0.527029 (Simulation time: 0 hr 45 min 53 sec) 
select_counter is 1022
Heartbeat CPU 0 instructions: 131000001 cycles: 169848178 heartbeat IPC: 0.475925 cumulative IPC: 0.526331 (Simulation time: 0 hr 46 min 14 sec) 
select_counter is 1022
Heartbeat CPU 0 instructions: 132000000 cycles: 171384865 heartbeat IPC: 0.65075 cumulative IPC: 0.527561 (Simulation time: 0 hr 46 min 41 sec) 
select_counter is 1020
Heartbeat CPU 0 instructions: 133000001 cycles: 172847090 heartbeat IPC: 0.68389 cumulative IPC: 0.529018 (Simulation time: 0 hr 47 min 6 sec) 
select_counter is 1014
Heartbeat CPU 0 instructions: 134000000 cycles: 174305632 heartbeat IPC: 0.685615 cumulative IPC: 0.530461 (Simulation time: 0 hr 47 min 31 sec) 
select_counter is 690
Heartbeat CPU 0 instructions: 135000001 cycles: 175767455 heartbeat IPC: 0.684078 cumulative IPC: 0.531866 (Simulation time: 0 hr 47 min 58 sec) 
select_counter is 690
Heartbeat CPU 0 instructions: 136000000 cycles: 177354478 heartbeat IPC: 0.63011 cumulative IPC: 0.532832 (Simulation time: 0 hr 48 min 23 sec) 
select_counter is 688
Heartbeat CPU 0 instructions: 137000001 cycles: 179535093 heartbeat IPC: 0.458587 cumulative IPC: 0.531842 (Simulation time: 0 hr 48 min 45 sec) 
select_counter is 667
Heartbeat CPU 0 instructions: 138000001 cycles: 181725792 heartbeat IPC: 0.456475 cumulative IPC: 0.530846 (Simulation time: 0 hr 49 min 5 sec) 
select_counter is 682
Heartbeat CPU 0 instructions: 139000000 cycles: 183911583 heartbeat IPC: 0.4575 cumulative IPC: 0.529891 (Simulation time: 0 hr 49 min 27 sec) 
select_counter is 714
Heartbeat CPU 0 instructions: 140000000 cycles: 186095159 heartbeat IPC: 0.457964 cumulative IPC: 0.528968 (Simulation time: 0 hr 49 min 50 sec) 
select_counter is 744
Heartbeat CPU 0 instructions: 141000000 cycles: 188289514 heartbeat IPC: 0.455715 cumulative IPC: 0.528036 (Simulation time: 0 hr 50 min 13 sec) 
select_counter is 748
Heartbeat CPU 0 instructions: 142000002 cycles: 189776089 heartbeat IPC: 0.672689 cumulative IPC: 0.529273 (Simulation time: 0 hr 50 min 38 sec) 
select_counter is 702
Heartbeat CPU 0 instructions: 143000001 cycles: 191204495 heartbeat IPC: 0.70008 cumulative IPC: 0.530665 (Simulation time: 0 hr 51 min 4 sec) 
select_counter is 703
Heartbeat CPU 0 instructions: 144000000 cycles: 192625806 heartbeat IPC: 0.703575 cumulative IPC: 0.532056 (Simulation time: 0 hr 51 min 29 sec) 
select_counter is 551
Heartbeat CPU 0 instructions: 145000003 cycles: 194084766 heartbeat IPC: 0.685422 cumulative IPC: 0.533312 (Simulation time: 0 hr 51 min 56 sec) 
select_counter is 216
Heartbeat CPU 0 instructions: 146000002 cycles: 195513055 heartbeat IPC: 0.700138 cumulative IPC: 0.534639 (Simulation time: 0 hr 52 min 20 sec) 
select_counter is 241
Heartbeat CPU 0 instructions: 147000001 cycles: 196943318 heartbeat IPC: 0.699171 cumulative IPC: 0.535939 (Simulation time: 0 hr 52 min 44 sec) 
select_counter is 307
Heartbeat CPU 0 instructions: 148000000 cycles: 198375089 heartbeat IPC: 0.698435 cumulative IPC: 0.537215 (Simulation time: 0 hr 53 min 8 sec) 
select_counter is 433
Heartbeat CPU 0 instructions: 149000001 cycles: 199806839 heartbeat IPC: 0.698447 cumulative IPC: 0.53847 (Simulation time: 0 hr 53 min 31 sec) 
select_counter is 634
Heartbeat CPU 0 instructions: 150000000 cycles: 201238768 heartbeat IPC: 0.698358 cumulative IPC: 0.539706 (Simulation time: 0 hr 53 min 57 sec) 
select_counter is 842
Finished CPU 0 instructions: 100000002 cycles: 185286111 cummulative IPC: 0.539706 (Simulation time: 0 hr 53 min 57 sec) 

ChampSim completed all CPUs

Region of Interest Statistics

CPU 0 cummulative IPC: 0.539706 instructions: 100000002 cycles: 185286111
LLC TOTAL     ACCESS:    3739906  HIT:     206836  MISS:    3533070
LLC LOAD      ACCESS:     679666  HIT:      27519  MISS:     652147
LLC RFO       ACCESS:         20  HIT:         19  MISS:          1
LLC PREFETCH  ACCESS:    2116473  HIT:      99249  MISS:    2017224
LLC WRITEBACK ACCESS:     943747  HIT:      80049  MISS:     863698
Ship samples: 
3, 59, 84, 119, 152, 178, 193, 230, 270, 312, 332, 376, 414, 430, 456, 485, 521, 551, 604, 618, 643, 702, 705, 763, 796, 809, 845, 869, 920, 935, 961, 1010, 1042, 1084, 1098, 1132, 1154, 1211, 1230, 1248, 1292, 1329, 1354, 1407, 1418, 1442, 1491, 1526, 1550, 1588, 1626, 1638, 1674, 1727, 1753, 1762, 1802, 1855, 1867, 1910, 1926, 1953, 1996, 2047, 
Lime duel samples: 
0, 42, 64, 105, 138, 161, 208, 234, 261, 315, 346, 363, 406, 440, 450, 494, 530, 549, 594, 625, 669, 699, 717, 739, 797, 821, 839, 864, 901, 947, 960, 1004, 1034, 1081, 1102, 1127, 1166, 1194, 1219, 1271, 1290, 1322, 1370, 1399, 1410, 1447, 1484, 1524, 1541, 1587, 1624, 1632, 1692, 1698, 1752, 1760, 1797, 1844, 1876, 1919, 1941, 1976, 2009, 2040, 
Lime samples: 
0, 105, 208, 315, 406, 494, 594, 699, 797, 864, 960, 1081, 1166, 1271, 1370, 1447, 1541, 1632, 1752, 1844, 1941, 
Insertion Distribution: 
	LOAD 188 0 0 0 0 0 12174 206739 
	RFO 0 0 0 0 0 0 0 0 
	PREF 0 2248 0 0 0 0 19359 984628 
	WRITEBACK 0 0 0 0 0 0 0 360360 
Total Prefetch Downgrades: 5931
