
*** ChampSim Multicore Out-of-Order Simulator ***

Warmup Instructions: 50000000
Simulation Instructions: 100000000
Configuration: 2
Number of CPUs: 1
LLC sets: 2048
LLC ways: 16
Off-chip DRAM Channels: 1 Width: 64-bit Data Rate: 1600 MT/s

CPU 0 runs /datasets/cs240c-wi22-a00-public/data/Assignment2-gz/calculix_3812B.trace.gz
CPU 0 L1D next line prefetcher
CPU 0 L2C IP-based stride prefetcher
Heartbeat CPU 0 instructions: 1000001 cycles: 478688 heartbeat IPC: 2.08905 cumulative IPC: 2.08905 (Simulation time: 0 hr 0 min 28 sec) 
select_counter is 283
Heartbeat CPU 0 instructions: 2000002 cycles: 956482 heartbeat IPC: 2.09295 cumulative IPC: 2.091 (Simulation time: 0 hr 0 min 53 sec) 
select_counter is 162
Heartbeat CPU 0 instructions: 3000002 cycles: 1434998 heartbeat IPC: 2.08979 cumulative IPC: 2.0906 (Simulation time: 0 hr 1 min 19 sec) 
select_counter is 147
Heartbeat CPU 0 instructions: 4000000 cycles: 1907481 heartbeat IPC: 2.11647 cumulative IPC: 2.09701 (Simulation time: 0 hr 1 min 42 sec) 
select_counter is 147
Heartbeat CPU 0 instructions: 5000000 cycles: 2356263 heartbeat IPC: 2.22825 cumulative IPC: 2.122 (Simulation time: 0 hr 2 min 5 sec) 
select_counter is 754
Heartbeat CPU 0 instructions: 6000003 cycles: 2761642 heartbeat IPC: 2.46683 cumulative IPC: 2.17262 (Simulation time: 0 hr 2 min 23 sec) 
select_counter is 739
Heartbeat CPU 0 instructions: 7000002 cycles: 3154749 heartbeat IPC: 2.54383 cumulative IPC: 2.21888 (Simulation time: 0 hr 2 min 40 sec) 
select_counter is 720
Heartbeat CPU 0 instructions: 8000000 cycles: 3547888 heartbeat IPC: 2.54362 cumulative IPC: 2.25486 (Simulation time: 0 hr 2 min 57 sec) 
select_counter is 710
Heartbeat CPU 0 instructions: 9000000 cycles: 3940874 heartbeat IPC: 2.54462 cumulative IPC: 2.28376 (Simulation time: 0 hr 3 min 13 sec) 
select_counter is 701
Heartbeat CPU 0 instructions: 10000003 cycles: 4333970 heartbeat IPC: 2.54392 cumulative IPC: 2.30735 (Simulation time: 0 hr 3 min 31 sec) 
select_counter is 679
Heartbeat CPU 0 instructions: 11000000 cycles: 4726918 heartbeat IPC: 2.54486 cumulative IPC: 2.3271 (Simulation time: 0 hr 3 min 47 sec) 
select_counter is 666
Heartbeat CPU 0 instructions: 12000000 cycles: 5120105 heartbeat IPC: 2.54332 cumulative IPC: 2.3437 (Simulation time: 0 hr 4 min 5 sec) 
select_counter is 666
Heartbeat CPU 0 instructions: 13000003 cycles: 5513192 heartbeat IPC: 2.54397 cumulative IPC: 2.35798 (Simulation time: 0 hr 4 min 20 sec) 
select_counter is 667
Heartbeat CPU 0 instructions: 14000001 cycles: 5942091 heartbeat IPC: 2.33155 cumulative IPC: 2.35607 (Simulation time: 0 hr 4 min 43 sec) 
select_counter is 650
Heartbeat CPU 0 instructions: 15000000 cycles: 6335316 heartbeat IPC: 2.54307 cumulative IPC: 2.36768 (Simulation time: 0 hr 4 min 58 sec) 
select_counter is 480
Heartbeat CPU 0 instructions: 16000000 cycles: 6728517 heartbeat IPC: 2.54323 cumulative IPC: 2.37794 (Simulation time: 0 hr 5 min 14 sec) 
select_counter is 261
Heartbeat CPU 0 instructions: 17000002 cycles: 7121695 heartbeat IPC: 2.54338 cumulative IPC: 2.38707 (Simulation time: 0 hr 5 min 29 sec) 
select_counter is 59
Heartbeat CPU 0 instructions: 18000001 cycles: 7515010 heartbeat IPC: 2.54249 cumulative IPC: 2.39521 (Simulation time: 0 hr 5 min 46 sec) 
select_counter is 938
Heartbeat CPU 0 instructions: 19000001 cycles: 7908227 heartbeat IPC: 2.54313 cumulative IPC: 2.40256 (Simulation time: 0 hr 6 min 4 sec) 
select_counter is 780
Heartbeat CPU 0 instructions: 20000000 cycles: 8301226 heartbeat IPC: 2.54453 cumulative IPC: 2.40928 (Simulation time: 0 hr 6 min 22 sec) 
select_counter is 650
Heartbeat CPU 0 instructions: 21000000 cycles: 8694450 heartbeat IPC: 2.54308 cumulative IPC: 2.41533 (Simulation time: 0 hr 6 min 42 sec) 
select_counter is 466
Heartbeat CPU 0 instructions: 22000003 cycles: 9087703 heartbeat IPC: 2.5429 cumulative IPC: 2.42085 (Simulation time: 0 hr 6 min 59 sec) 
select_counter is 277
Heartbeat CPU 0 instructions: 23000002 cycles: 9480977 heartbeat IPC: 2.54275 cumulative IPC: 2.42591 (Simulation time: 0 hr 7 min 18 sec) 
select_counter is 91
Heartbeat CPU 0 instructions: 24000000 cycles: 9874235 heartbeat IPC: 2.54285 cumulative IPC: 2.43057 (Simulation time: 0 hr 7 min 35 sec) 
select_counter is 917
Heartbeat CPU 0 instructions: 25000003 cycles: 10262705 heartbeat IPC: 2.57421 cumulative IPC: 2.43601 (Simulation time: 0 hr 7 min 53 sec) 
select_counter is 842
Heartbeat CPU 0 instructions: 26000003 cycles: 10649317 heartbeat IPC: 2.58657 cumulative IPC: 2.44147 (Simulation time: 0 hr 8 min 15 sec) 
select_counter is 837
Heartbeat CPU 0 instructions: 27000000 cycles: 11035415 heartbeat IPC: 2.59001 cumulative IPC: 2.44667 (Simulation time: 0 hr 8 min 35 sec) 
select_counter is 824
Heartbeat CPU 0 instructions: 28000000 cycles: 11422739 heartbeat IPC: 2.58182 cumulative IPC: 2.45125 (Simulation time: 0 hr 8 min 57 sec) 
select_counter is 821
Heartbeat CPU 0 instructions: 29000003 cycles: 11815294 heartbeat IPC: 2.54742 cumulative IPC: 2.45445 (Simulation time: 0 hr 9 min 18 sec) 
select_counter is 822
Heartbeat CPU 0 instructions: 30000001 cycles: 12202082 heartbeat IPC: 2.58539 cumulative IPC: 2.4586 (Simulation time: 0 hr 9 min 37 sec) 
select_counter is 817
Heartbeat CPU 0 instructions: 31000001 cycles: 12567496 heartbeat IPC: 2.73662 cumulative IPC: 2.46668 (Simulation time: 0 hr 10 min 1 sec) 
select_counter is 821
Heartbeat CPU 0 instructions: 32000000 cycles: 13033817 heartbeat IPC: 2.14444 cumulative IPC: 2.45515 (Simulation time: 0 hr 10 min 30 sec) 
select_counter is 814
Heartbeat CPU 0 instructions: 33000003 cycles: 13513398 heartbeat IPC: 2.08516 cumulative IPC: 2.44202 (Simulation time: 0 hr 10 min 58 sec) 
select_counter is 804
Heartbeat CPU 0 instructions: 34000000 cycles: 13993148 heartbeat IPC: 2.08441 cumulative IPC: 2.42976 (Simulation time: 0 hr 11 min 24 sec) 
select_counter is 796
Heartbeat CPU 0 instructions: 35000000 cycles: 14471839 heartbeat IPC: 2.08903 cumulative IPC: 2.41849 (Simulation time: 0 hr 11 min 51 sec) 
select_counter is 792
Heartbeat CPU 0 instructions: 36000000 cycles: 14948707 heartbeat IPC: 2.09702 cumulative IPC: 2.40824 (Simulation time: 0 hr 12 min 18 sec) 
select_counter is 792
Heartbeat CPU 0 instructions: 37000003 cycles: 15427158 heartbeat IPC: 2.09008 cumulative IPC: 2.39837 (Simulation time: 0 hr 12 min 45 sec) 
select_counter is 792
Heartbeat CPU 0 instructions: 38000003 cycles: 15900963 heartbeat IPC: 2.11057 cumulative IPC: 2.38979 (Simulation time: 0 hr 13 min 8 sec) 
select_counter is 792
Heartbeat CPU 0 instructions: 39000001 cycles: 16324304 heartbeat IPC: 2.36216 cumulative IPC: 2.38908 (Simulation time: 0 hr 13 min 31 sec) 
select_counter is 976
Heartbeat CPU 0 instructions: 40000000 cycles: 16759395 heartbeat IPC: 2.29837 cumulative IPC: 2.38672 (Simulation time: 0 hr 13 min 54 sec) 
select_counter is 1005
Heartbeat CPU 0 instructions: 41000002 cycles: 17202682 heartbeat IPC: 2.25588 cumulative IPC: 2.38335 (Simulation time: 0 hr 14 min 19 sec) 
select_counter is 1015
Heartbeat CPU 0 instructions: 42000003 cycles: 17578901 heartbeat IPC: 2.65803 cumulative IPC: 2.38923 (Simulation time: 0 hr 14 min 40 sec) 
select_counter is 1011
Heartbeat CPU 0 instructions: 43000000 cycles: 17974065 heartbeat IPC: 2.53059 cumulative IPC: 2.39234 (Simulation time: 0 hr 15 min 1 sec) 
select_counter is 1010
Heartbeat CPU 0 instructions: 44000000 cycles: 18451852 heartbeat IPC: 2.09298 cumulative IPC: 2.38458 (Simulation time: 0 hr 15 min 24 sec) 
select_counter is 1010
Heartbeat CPU 0 instructions: 45000002 cycles: 18927191 heartbeat IPC: 2.10377 cumulative IPC: 2.37753 (Simulation time: 0 hr 15 min 54 sec) 
select_counter is 1010
Heartbeat CPU 0 instructions: 46000002 cycles: 19405093 heartbeat IPC: 2.09248 cumulative IPC: 2.37051 (Simulation time: 0 hr 16 min 21 sec) 
select_counter is 1010
Heartbeat CPU 0 instructions: 47000002 cycles: 19841086 heartbeat IPC: 2.29361 cumulative IPC: 2.36882 (Simulation time: 0 hr 16 min 40 sec) 
select_counter is 1023
Heartbeat CPU 0 instructions: 48000000 cycles: 20234998 heartbeat IPC: 2.53863 cumulative IPC: 2.37213 (Simulation time: 0 hr 16 min 56 sec) 
select_counter is 1023
Heartbeat CPU 0 instructions: 49000001 cycles: 20628484 heartbeat IPC: 2.54139 cumulative IPC: 2.37536 (Simulation time: 0 hr 17 min 12 sec) 
select_counter is 1023
Heartbeat CPU 0 instructions: 50000000 cycles: 21023593 heartbeat IPC: 2.53094 cumulative IPC: 2.37828 (Simulation time: 0 hr 17 min 27 sec) 
select_counter is 1023

Warmup complete CPU 0 instructions: 50000004 cycles: 21023594 (Simulation time: 0 hr 17 min 27 sec) 

Heartbeat CPU 0 instructions: 51000000 cycles: 21606961 heartbeat IPC: 1.71418 cumulative IPC: 1.71418 (Simulation time: 0 hr 17 min 47 sec) 
select_counter is 1023
Heartbeat CPU 0 instructions: 52000000 cycles: 22158487 heartbeat IPC: 1.81315 cumulative IPC: 1.76228 (Simulation time: 0 hr 18 min 10 sec) 
select_counter is 1021
Heartbeat CPU 0 instructions: 53000000 cycles: 22633175 heartbeat IPC: 2.10665 cumulative IPC: 1.86384 (Simulation time: 0 hr 18 min 31 sec) 
select_counter is 1023
Heartbeat CPU 0 instructions: 54000003 cycles: 23103967 heartbeat IPC: 2.12409 cumulative IPC: 1.92273 (Simulation time: 0 hr 18 min 51 sec) 
select_counter is 1023
Heartbeat CPU 0 instructions: 55000001 cycles: 23575564 heartbeat IPC: 2.12045 cumulative IPC: 1.95927 (Simulation time: 0 hr 19 min 10 sec) 
select_counter is 1022
Heartbeat CPU 0 instructions: 56000000 cycles: 24046562 heartbeat IPC: 2.12315 cumulative IPC: 1.9848 (Simulation time: 0 hr 19 min 31 sec) 
select_counter is 1023
Heartbeat CPU 0 instructions: 57000003 cycles: 24518913 heartbeat IPC: 2.11708 cumulative IPC: 2.00268 (Simulation time: 0 hr 19 min 51 sec) 
select_counter is 1023
Heartbeat CPU 0 instructions: 58000002 cycles: 25002121 heartbeat IPC: 2.0695 cumulative IPC: 2.01079 (Simulation time: 0 hr 20 min 14 sec) 
select_counter is 1017
Heartbeat CPU 0 instructions: 59000001 cycles: 25570366 heartbeat IPC: 1.7598 cumulative IPC: 1.97943 (Simulation time: 0 hr 20 min 35 sec) 
select_counter is 975
Heartbeat CPU 0 instructions: 60000000 cycles: 26106367 heartbeat IPC: 1.86567 cumulative IPC: 1.96743 (Simulation time: 0 hr 20 min 57 sec) 
select_counter is 931
Heartbeat CPU 0 instructions: 61000003 cycles: 26653426 heartbeat IPC: 1.82796 cumulative IPC: 1.95388 (Simulation time: 0 hr 21 min 20 sec) 
select_counter is 876
Heartbeat CPU 0 instructions: 62000002 cycles: 27196650 heartbeat IPC: 1.84086 cumulative IPC: 1.94393 (Simulation time: 0 hr 21 min 41 sec) 
select_counter is 824
Heartbeat CPU 0 instructions: 63000001 cycles: 27746182 heartbeat IPC: 1.81973 cumulative IPC: 1.93378 (Simulation time: 0 hr 22 min 1 sec) 
select_counter is 749
Heartbeat CPU 0 instructions: 64000000 cycles: 28291268 heartbeat IPC: 1.83457 cumulative IPC: 1.92634 (Simulation time: 0 hr 22 min 21 sec) 
select_counter is 690
Heartbeat CPU 0 instructions: 65000000 cycles: 28976099 heartbeat IPC: 1.46021 cumulative IPC: 1.8862 (Simulation time: 0 hr 22 min 45 sec) 
select_counter is 662
Heartbeat CPU 0 instructions: 66000002 cycles: 29522747 heartbeat IPC: 1.82933 cumulative IPC: 1.88254 (Simulation time: 0 hr 23 min 6 sec) 
select_counter is 625
Heartbeat CPU 0 instructions: 67000002 cycles: 30017513 heartbeat IPC: 2.02116 cumulative IPC: 1.89017 (Simulation time: 0 hr 23 min 25 sec) 
select_counter is 579
Heartbeat CPU 0 instructions: 68000000 cycles: 30499386 heartbeat IPC: 2.07523 cumulative IPC: 1.89958 (Simulation time: 0 hr 23 min 44 sec) 
select_counter is 541
Heartbeat CPU 0 instructions: 69000001 cycles: 31027130 heartbeat IPC: 1.89486 cumulative IPC: 1.89933 (Simulation time: 0 hr 24 min 4 sec) 
select_counter is 484
Heartbeat CPU 0 instructions: 70000000 cycles: 31509955 heartbeat IPC: 2.07114 cumulative IPC: 1.90724 (Simulation time: 0 hr 24 min 25 sec) 
select_counter is 403
Heartbeat CPU 0 instructions: 71000000 cycles: 31994730 heartbeat IPC: 2.06281 cumulative IPC: 1.91411 (Simulation time: 0 hr 24 min 44 sec) 
select_counter is 327
Heartbeat CPU 0 instructions: 72000000 cycles: 32499308 heartbeat IPC: 1.98185 cumulative IPC: 1.91709 (Simulation time: 0 hr 25 min 4 sec) 
select_counter is 283
Heartbeat CPU 0 instructions: 73000001 cycles: 33061852 heartbeat IPC: 1.77764 cumulative IPC: 1.91058 (Simulation time: 0 hr 25 min 23 sec) 
select_counter is 269
Heartbeat CPU 0 instructions: 74000002 cycles: 33690919 heartbeat IPC: 1.58966 cumulative IPC: 1.89464 (Simulation time: 0 hr 25 min 43 sec) 
select_counter is 256
Heartbeat CPU 0 instructions: 75000000 cycles: 34230787 heartbeat IPC: 1.8523 cumulative IPC: 1.89291 (Simulation time: 0 hr 26 min 4 sec) 
select_counter is 250
Heartbeat CPU 0 instructions: 76000000 cycles: 34961105 heartbeat IPC: 1.36927 cumulative IPC: 1.86547 (Simulation time: 0 hr 26 min 29 sec) 
select_counter is 265
Heartbeat CPU 0 instructions: 77000000 cycles: 35682068 heartbeat IPC: 1.38703 cumulative IPC: 1.84194 (Simulation time: 0 hr 26 min 54 sec) 
select_counter is 265
Heartbeat CPU 0 instructions: 78000003 cycles: 36400649 heartbeat IPC: 1.39164 cumulative IPC: 1.82089 (Simulation time: 0 hr 27 min 20 sec) 
select_counter is 265
Heartbeat CPU 0 instructions: 79000000 cycles: 37111550 heartbeat IPC: 1.40666 cumulative IPC: 1.80259 (Simulation time: 0 hr 27 min 44 sec) 
select_counter is 265
Heartbeat CPU 0 instructions: 80000000 cycles: 37796632 heartbeat IPC: 1.45968 cumulative IPC: 1.78858 (Simulation time: 0 hr 28 min 9 sec) 
select_counter is 265
Heartbeat CPU 0 instructions: 81000001 cycles: 38460964 heartbeat IPC: 1.50527 cumulative IPC: 1.77779 (Simulation time: 0 hr 28 min 37 sec) 
select_counter is 265
Heartbeat CPU 0 instructions: 82000002 cycles: 39103922 heartbeat IPC: 1.55531 cumulative IPC: 1.76988 (Simulation time: 0 hr 28 min 59 sec) 
select_counter is 265
Heartbeat CPU 0 instructions: 83000002 cycles: 39920024 heartbeat IPC: 1.22534 cumulative IPC: 1.74636 (Simulation time: 0 hr 29 min 25 sec) 
select_counter is 589
Heartbeat CPU 0 instructions: 84000000 cycles: 40553406 heartbeat IPC: 1.57882 cumulative IPC: 1.74093 (Simulation time: 0 hr 29 min 46 sec) 
select_counter is 704
Heartbeat CPU 0 instructions: 85000000 cycles: 41076417 heartbeat IPC: 1.91201 cumulative IPC: 1.74539 (Simulation time: 0 hr 30 min 5 sec) 
select_counter is 870
Heartbeat CPU 0 instructions: 86000001 cycles: 41589616 heartbeat IPC: 1.94856 cumulative IPC: 1.75046 (Simulation time: 0 hr 30 min 24 sec) 
select_counter is 1018
Heartbeat CPU 0 instructions: 87000002 cycles: 42101608 heartbeat IPC: 1.95316 cumulative IPC: 1.75538 (Simulation time: 0 hr 30 min 47 sec) 
select_counter is 1023
Heartbeat CPU 0 instructions: 88000000 cycles: 42609180 heartbeat IPC: 1.97016 cumulative IPC: 1.76043 (Simulation time: 0 hr 31 min 8 sec) 
select_counter is 1023
Heartbeat CPU 0 instructions: 89000003 cycles: 43112665 heartbeat IPC: 1.98616 cumulative IPC: 1.76558 (Simulation time: 0 hr 31 min 27 sec) 
select_counter is 1023
Heartbeat CPU 0 instructions: 90000003 cycles: 43622538 heartbeat IPC: 1.96127 cumulative IPC: 1.76999 (Simulation time: 0 hr 31 min 48 sec) 
select_counter is 1023
Heartbeat CPU 0 instructions: 91000003 cycles: 44141110 heartbeat IPC: 1.92837 cumulative IPC: 1.77355 (Simulation time: 0 hr 32 min 16 sec) 
select_counter is 1022
Heartbeat CPU 0 instructions: 92000000 cycles: 44608205 heartbeat IPC: 2.14089 cumulative IPC: 1.78082 (Simulation time: 0 hr 32 min 39 sec) 
select_counter is 1022
Heartbeat CPU 0 instructions: 93000000 cycles: 45061223 heartbeat IPC: 2.20742 cumulative IPC: 1.78886 (Simulation time: 0 hr 32 min 58 sec) 
select_counter is 1022
Heartbeat CPU 0 instructions: 94000003 cycles: 45512521 heartbeat IPC: 2.21584 cumulative IPC: 1.79673 (Simulation time: 0 hr 33 min 18 sec) 
select_counter is 1022
Heartbeat CPU 0 instructions: 95000001 cycles: 46115886 heartbeat IPC: 1.65737 cumulative IPC: 1.79338 (Simulation time: 0 hr 33 min 41 sec) 
select_counter is 1021
Heartbeat CPU 0 instructions: 96000000 cycles: 46674445 heartbeat IPC: 1.79032 cumulative IPC: 1.79331 (Simulation time: 0 hr 34 min 3 sec) 
select_counter is 1023
Heartbeat CPU 0 instructions: 97000000 cycles: 47179470 heartbeat IPC: 1.9801 cumulative IPC: 1.79692 (Simulation time: 0 hr 34 min 24 sec) 
select_counter is 1022
Heartbeat CPU 0 instructions: 98000003 cycles: 47681583 heartbeat IPC: 1.99159 cumulative IPC: 1.80059 (Simulation time: 0 hr 34 min 42 sec) 
select_counter is 1015
Heartbeat CPU 0 instructions: 99000000 cycles: 48181950 heartbeat IPC: 1.99853 cumulative IPC: 1.80423 (Simulation time: 0 hr 35 min 4 sec) 
select_counter is 1009
Heartbeat CPU 0 instructions: 100000000 cycles: 48685398 heartbeat IPC: 1.9863 cumulative IPC: 1.80755 (Simulation time: 0 hr 35 min 23 sec) 
select_counter is 1006
Heartbeat CPU 0 instructions: 101000001 cycles: 49184588 heartbeat IPC: 2.00325 cumulative IPC: 1.81102 (Simulation time: 0 hr 35 min 44 sec) 
select_counter is 1010
Heartbeat CPU 0 instructions: 102000002 cycles: 49740280 heartbeat IPC: 1.79956 cumulative IPC: 1.81079 (Simulation time: 0 hr 36 min 5 sec) 
select_counter is 950
Heartbeat CPU 0 instructions: 103000000 cycles: 50295617 heartbeat IPC: 1.8007 cumulative IPC: 1.8106 (Simulation time: 0 hr 36 min 25 sec) 
select_counter is 866
Heartbeat CPU 0 instructions: 104000000 cycles: 50851485 heartbeat IPC: 1.79899 cumulative IPC: 1.81039 (Simulation time: 0 hr 36 min 47 sec) 
select_counter is 779
Heartbeat CPU 0 instructions: 105000000 cycles: 51414381 heartbeat IPC: 1.77653 cumulative IPC: 1.80976 (Simulation time: 0 hr 37 min 8 sec) 
select_counter is 682
Heartbeat CPU 0 instructions: 106000003 cycles: 51973345 heartbeat IPC: 1.78903 cumulative IPC: 1.80938 (Simulation time: 0 hr 37 min 29 sec) 
select_counter is 598
Heartbeat CPU 0 instructions: 107000000 cycles: 52539340 heartbeat IPC: 1.76679 cumulative IPC: 1.80862 (Simulation time: 0 hr 37 min 52 sec) 
select_counter is 507
Heartbeat CPU 0 instructions: 108000000 cycles: 53161380 heartbeat IPC: 1.60761 cumulative IPC: 1.80473 (Simulation time: 0 hr 38 min 17 sec) 
select_counter is 442
Heartbeat CPU 0 instructions: 109000002 cycles: 53812218 heartbeat IPC: 1.53648 cumulative IPC: 1.7994 (Simulation time: 0 hr 38 min 39 sec) 
select_counter is 426
Heartbeat CPU 0 instructions: 110000003 cycles: 54296566 heartbeat IPC: 2.06463 cumulative IPC: 1.80327 (Simulation time: 0 hr 38 min 58 sec) 
select_counter is 385
Heartbeat CPU 0 instructions: 111000001 cycles: 54775078 heartbeat IPC: 2.08981 cumulative IPC: 1.80733 (Simulation time: 0 hr 39 min 17 sec) 
select_counter is 347
Heartbeat CPU 0 instructions: 112000000 cycles: 55275488 heartbeat IPC: 1.99836 cumulative IPC: 1.81012 (Simulation time: 0 hr 39 min 37 sec) 
select_counter is 294
Heartbeat CPU 0 instructions: 113000003 cycles: 55769904 heartbeat IPC: 2.02259 cumulative IPC: 1.81314 (Simulation time: 0 hr 39 min 57 sec) 
select_counter is 251
Heartbeat CPU 0 instructions: 114000003 cycles: 56247327 heartbeat IPC: 2.09458 cumulative IPC: 1.81696 (Simulation time: 0 hr 40 min 15 sec) 
select_counter is 215
Heartbeat CPU 0 instructions: 115000002 cycles: 56721895 heartbeat IPC: 2.10718 cumulative IPC: 1.82081 (Simulation time: 0 hr 40 min 37 sec) 
select_counter is 182
Heartbeat CPU 0 instructions: 116000000 cycles: 57226802 heartbeat IPC: 1.98056 cumulative IPC: 1.82304 (Simulation time: 0 hr 40 min 56 sec) 
select_counter is 175
Heartbeat CPU 0 instructions: 117000000 cycles: 57775437 heartbeat IPC: 1.82271 cumulative IPC: 1.82304 (Simulation time: 0 hr 41 min 16 sec) 
select_counter is 176
Heartbeat CPU 0 instructions: 118000001 cycles: 58391007 heartbeat IPC: 1.62451 cumulative IPC: 1.81977 (Simulation time: 0 hr 41 min 38 sec) 
select_counter is 168
Heartbeat CPU 0 instructions: 119000003 cycles: 59106995 heartbeat IPC: 1.39667 cumulative IPC: 1.81181 (Simulation time: 0 hr 42 min 2 sec) 
select_counter is 168
Heartbeat CPU 0 instructions: 120000000 cycles: 59823978 heartbeat IPC: 1.39473 cumulative IPC: 1.80411 (Simulation time: 0 hr 42 min 29 sec) 
select_counter is 168
Heartbeat CPU 0 instructions: 121000001 cycles: 60538963 heartbeat IPC: 1.39863 cumulative IPC: 1.79677 (Simulation time: 0 hr 42 min 53 sec) 
select_counter is 168
Heartbeat CPU 0 instructions: 122000002 cycles: 61244782 heartbeat IPC: 1.4168 cumulative IPC: 1.7901 (Simulation time: 0 hr 43 min 18 sec) 
select_counter is 168
Heartbeat CPU 0 instructions: 123000002 cycles: 61927228 heartbeat IPC: 1.46532 cumulative IPC: 1.78468 (Simulation time: 0 hr 43 min 44 sec) 
select_counter is 168
Heartbeat CPU 0 instructions: 124000000 cycles: 62590731 heartbeat IPC: 1.50715 cumulative IPC: 1.78025 (Simulation time: 0 hr 44 min 9 sec) 
select_counter is 168
Heartbeat CPU 0 instructions: 125000002 cycles: 63238694 heartbeat IPC: 1.5433 cumulative IPC: 1.77662 (Simulation time: 0 hr 44 min 32 sec) 
select_counter is 168
Heartbeat CPU 0 instructions: 126000001 cycles: 64224337 heartbeat IPC: 1.01457 cumulative IPC: 1.75923 (Simulation time: 0 hr 44 min 59 sec) 
select_counter is 436
Heartbeat CPU 0 instructions: 127000003 cycles: 64875054 heartbeat IPC: 1.53677 cumulative IPC: 1.75593 (Simulation time: 0 hr 45 min 20 sec) 
select_counter is 615
Heartbeat CPU 0 instructions: 128000000 cycles: 65411323 heartbeat IPC: 1.86473 cumulative IPC: 1.75724 (Simulation time: 0 hr 45 min 43 sec) 
select_counter is 758
Heartbeat CPU 0 instructions: 129000002 cycles: 65937560 heartbeat IPC: 1.90029 cumulative IPC: 1.75892 (Simulation time: 0 hr 46 min 9 sec) 
select_counter is 900
Heartbeat CPU 0 instructions: 130000001 cycles: 66466278 heartbeat IPC: 1.89137 cumulative IPC: 1.76046 (Simulation time: 0 hr 46 min 30 sec) 
select_counter is 1023
Heartbeat CPU 0 instructions: 131000000 cycles: 66995240 heartbeat IPC: 1.89049 cumulative IPC: 1.76196 (Simulation time: 0 hr 46 min 50 sec) 
select_counter is 1023
Heartbeat CPU 0 instructions: 132000000 cycles: 67529421 heartbeat IPC: 1.87202 cumulative IPC: 1.76322 (Simulation time: 0 hr 47 min 10 sec) 
select_counter is 1023
Heartbeat CPU 0 instructions: 133000000 cycles: 68062247 heartbeat IPC: 1.87679 cumulative IPC: 1.76451 (Simulation time: 0 hr 47 min 35 sec) 
select_counter is 1022
Heartbeat CPU 0 instructions: 134000000 cycles: 68613645 heartbeat IPC: 1.81357 cumulative IPC: 1.76507 (Simulation time: 0 hr 47 min 55 sec) 
select_counter is 1023
Heartbeat CPU 0 instructions: 135000000 cycles: 69150118 heartbeat IPC: 1.86403 cumulative IPC: 1.76618 (Simulation time: 0 hr 48 min 18 sec) 
select_counter is 1023
Heartbeat CPU 0 instructions: 136000000 cycles: 69680104 heartbeat IPC: 1.88684 cumulative IPC: 1.76749 (Simulation time: 0 hr 48 min 38 sec) 
select_counter is 1021
Heartbeat CPU 0 instructions: 137000002 cycles: 70216287 heartbeat IPC: 1.86504 cumulative IPC: 1.76856 (Simulation time: 0 hr 49 min 0 sec) 
select_counter is 1023
Heartbeat CPU 0 instructions: 138000002 cycles: 70755893 heartbeat IPC: 1.8532 cumulative IPC: 1.76947 (Simulation time: 0 hr 49 min 19 sec) 
select_counter is 1023
Heartbeat CPU 0 instructions: 139000001 cycles: 71297929 heartbeat IPC: 1.84489 cumulative IPC: 1.77029 (Simulation time: 0 hr 49 min 40 sec) 
select_counter is 1023
Heartbeat CPU 0 instructions: 140000000 cycles: 71832434 heartbeat IPC: 1.87089 cumulative IPC: 1.77135 (Simulation time: 0 hr 49 min 59 sec) 
select_counter is 1023
Heartbeat CPU 0 instructions: 141000000 cycles: 72364997 heartbeat IPC: 1.87771 cumulative IPC: 1.77245 (Simulation time: 0 hr 50 min 19 sec) 
select_counter is 1023
Heartbeat CPU 0 instructions: 142000003 cycles: 72862796 heartbeat IPC: 2.00885 cumulative IPC: 1.77472 (Simulation time: 0 hr 50 min 38 sec) 
select_counter is 1014
Heartbeat CPU 0 instructions: 143000002 cycles: 73320126 heartbeat IPC: 2.1866 cumulative IPC: 1.77832 (Simulation time: 0 hr 50 min 56 sec) 
select_counter is 1010
Heartbeat CPU 0 instructions: 144000000 cycles: 73777069 heartbeat IPC: 2.18845 cumulative IPC: 1.78187 (Simulation time: 0 hr 51 min 13 sec) 
select_counter is 1009
Heartbeat CPU 0 instructions: 145000001 cycles: 74419416 heartbeat IPC: 1.55679 cumulative IPC: 1.77917 (Simulation time: 0 hr 51 min 36 sec) 
select_counter is 998
Heartbeat CPU 0 instructions: 146000003 cycles: 75016385 heartbeat IPC: 1.67513 cumulative IPC: 1.77802 (Simulation time: 0 hr 51 min 56 sec) 
select_counter is 902
Heartbeat CPU 0 instructions: 147000000 cycles: 75571172 heartbeat IPC: 1.80249 cumulative IPC: 1.77826 (Simulation time: 0 hr 52 min 15 sec) 
select_counter is 801
Heartbeat CPU 0 instructions: 148000000 cycles: 76113042 heartbeat IPC: 1.84546 cumulative IPC: 1.77892 (Simulation time: 0 hr 52 min 34 sec) 
select_counter is 719
Heartbeat CPU 0 instructions: 149000002 cycles: 76665152 heartbeat IPC: 1.81124 cumulative IPC: 1.77925 (Simulation time: 0 hr 52 min 54 sec) 
select_counter is 606
Heartbeat CPU 0 instructions: 150000003 cycles: 77224667 heartbeat IPC: 1.78726 cumulative IPC: 1.77933 (Simulation time: 0 hr 53 min 13 sec) 
select_counter is 490
Finished CPU 0 instructions: 100000003 cycles: 56201074 cummulative IPC: 1.77933 (Simulation time: 0 hr 53 min 13 sec) 

ChampSim completed all CPUs

Region of Interest Statistics

CPU 0 cummulative IPC: 1.77933 instructions: 100000003 cycles: 56201074
LLC TOTAL     ACCESS:    1256024  HIT:     969442  MISS:     286582
LLC LOAD      ACCESS:     149471  HIT:     144885  MISS:       4586
LLC RFO       ACCESS:      37524  HIT:      12873  MISS:      24651
LLC PREFETCH  ACCESS:     776701  HIT:     534019  MISS:     242682
LLC WRITEBACK ACCESS:     292328  HIT:     277665  MISS:      14663
Ship samples: 
4, 56, 74, 106, 145, 174, 222, 237, 271, 296, 321, 365, 415, 422, 476, 481, 521, 559, 586, 632, 648, 687, 718, 761, 782, 829, 852, 876, 924, 944, 963, 1021, 1042, 1075, 1095, 1134, 1164, 1210, 1219, 1270, 1286, 1313, 1374, 1402, 1437, 1442, 1488, 1505, 1537, 1571, 1611, 1657, 1677, 1708, 1738, 1767, 1823, 1852, 1871, 1899, 1928, 1979, 2012, 2037, 
Lime duel samples: 
10, 40, 95, 126, 139, 167, 200, 226, 278, 302, 345, 353, 412, 433, 477, 496, 517, 544, 583, 634, 657, 673, 714, 742, 796, 819, 847, 874, 915, 946, 984, 1009, 1036, 1068, 1116, 1131, 1167, 1213, 1242, 1267, 1297, 1331, 1370, 1389, 1439, 1458, 1487, 1518, 1564, 1597, 1613, 1651, 1673, 1716, 1728, 1790, 1822, 1825, 1868, 1910, 1932, 1966, 2008, 2044, 
Lime samples: 
10, 126, 200, 302, 412, 496, 583, 673, 796, 874, 984, 1068, 1167, 1267, 1370, 1458, 1564, 1651, 1728, 1825, 1932, 
Insertion Distribution: 
	LOAD 845 0 0 0 0 0 1094 205 
	RFO 2876 0 0 0 0 0 13793 13267 
	PREF 0 3057 0 0 0 0 7428 38634 
	WRITEBACK 0 0 0 0 0 0 0 13827 
Total Prefetch Downgrades: 2195
