Initialize SIGNATURE TABLE
ST_SET: 1
ST_WAY: 256
ST_TAG_BIT: 16
ST_TAG_MASK: ffff

Initialize PATTERN TABLE
PT_SET: 512
PT_WAY: 4
SIG_DELTA_BIT: 7
C_SIG_BIT: 4
C_DELTA_BIT: 4

Initialize PREFETCH FILTER
FILTER_SET: 1024

*** ChampSim Multicore Out-of-Order Simulator ***

Warmup Instructions: 50000000
Simulation Instructions: 50000000
Number of CPUs: 1
LLC sets: 2048
LLC ways: 16
Off-chip DRAM Size: 4096 MB Channels: 1 Width: 64-bit Data Rate: 3200 MT/s

CPU 0 runs /Users/gandhardeshpande/Desktop/CSE240C/HW1/ChampSim/ipc1_public/client_005.champsimtrace.xz
CPU 0 L1D next line prefetcher
Heartbeat CPU 0 instructions: 10000001 cycles: 3292049 heartbeat IPC: 3.03762 cumulative IPC: 3.03762 (Simulation time: 0 hr 0 min 25 sec) 
Heartbeat CPU 0 instructions: 20000002 cycles: 6700072 heartbeat IPC: 2.93425 cumulative IPC: 2.98504 (Simulation time: 0 hr 0 min 52 sec) 
Heartbeat CPU 0 instructions: 30000001 cycles: 10393376 heartbeat IPC: 2.7076 cumulative IPC: 2.88645 (Simulation time: 0 hr 1 min 24 sec) 
Heartbeat CPU 0 instructions: 40000000 cycles: 14071299 heartbeat IPC: 2.71893 cumulative IPC: 2.84267 (Simulation time: 0 hr 1 min 55 sec) 
Heartbeat CPU 0 instructions: 50000001 cycles: 17345245 heartbeat IPC: 3.05442 cumulative IPC: 2.88263 (Simulation time: 0 hr 2 min 24 sec) 

Warmup complete CPU 0 instructions: 50000001 cycles: 17345245 (Simulation time: 0 hr 2 min 24 sec) 

Heartbeat CPU 0 instructions: 60000002 cycles: 24964659 heartbeat IPC: 1.31244 cumulative IPC: 1.31244 (Simulation time: 0 hr 2 min 52 sec) 
Heartbeat CPU 0 instructions: 70000003 cycles: 32238589 heartbeat IPC: 1.37477 cumulative IPC: 1.34288 (Simulation time: 0 hr 3 min 21 sec) 
Heartbeat CPU 0 instructions: 80000001 cycles: 39104735 heartbeat IPC: 1.45642 cumulative IPC: 1.37871 (Simulation time: 0 hr 3 min 55 sec) 
Heartbeat CPU 0 instructions: 90000002 cycles: 48617878 heartbeat IPC: 1.05118 cumulative IPC: 1.27907 (Simulation time: 0 hr 4 min 30 sec) 
Heartbeat CPU 0 instructions: 100000002 cycles: 56159960 heartbeat IPC: 1.32589 cumulative IPC: 1.28817 (Simulation time: 0 hr 4 min 59 sec) 
Finished CPU 0 instructions: 50000001 cycles: 38814715 cumulative IPC: 1.28817 (Simulation time: 0 hr 4 min 59 sec) 

ChampSim completed all CPUs

Region of Interest Statistics

CPU 0 cumulative IPC: 1.28817 instructions: 50000001 cycles: 38814715
L1D TOTAL     ACCESS:   19597498  HIT:   19061827  MISS:     535671
L1D LOAD      ACCESS:    6629956  HIT:    6458086  MISS:     171870
L1D RFO       ACCESS:    6788912  HIT:    6604195  MISS:     184717
L1D PREFETCH  ACCESS:    6178630  HIT:    5999546  MISS:     179084
L1D WRITEBACK ACCESS:          0  HIT:          0  MISS:          0
L1D PREFETCH  REQUESTED:    6653768  ISSUED:    6285182  USEFUL:      59079  USELESS:     119894
L1D AVERAGE MISS LATENCY: 94.956 cycles
L1I TOTAL     ACCESS:   11439199  HIT:    9794981  MISS:    1644218
L1I LOAD      ACCESS:    9325925  HIT:    9208978  MISS:     116947
L1I RFO       ACCESS:          0  HIT:          0  MISS:          0
L1I PREFETCH  ACCESS:    2113274  HIT:     586003  MISS:    1527271
L1I WRITEBACK ACCESS:          0  HIT:          0  MISS:          0
L1I PREFETCH  REQUESTED:    2355427  ISSUED:    2355427  USEFUL:     813260  USELESS:     713925
L1I AVERAGE MISS LATENCY: 17.8031 cycles
L2C TOTAL     ACCESS:    3005618  HIT:    2623631  MISS:     381987
L2C LOAD      ACCESS:     225074  HIT:     138969  MISS:      86105
L2C RFO       ACCESS:     180963  HIT:      31242  MISS:     149721
L2C PREFETCH  ACCESS:    2346536  HIT:    2201441  MISS:     145095
L2C WRITEBACK ACCESS:     253045  HIT:     251979  MISS:       1066
L2C PREFETCH  REQUESTED:    1304228  ISSUED:    1303997  USEFUL:      10882  USELESS:     132041
L2C AVERAGE MISS LATENCY: 131.186 cycles
LLC TOTAL     ACCESS:     870994  HIT:     578259  MISS:     292735
LLC LOAD      ACCESS:      86086  HIT:      42681  MISS:      43405
LLC RFO       ACCESS:     149716  HIT:      15192  MISS:     134524
LLC PREFETCH  ACCESS:     435631  HIT:     321631  MISS:     114000
LLC WRITEBACK ACCESS:     199561  HIT:     198755  MISS:        806
LLC PREFETCH  REQUESTED:          0  ISSUED:          0  USEFUL:      21697  USELESS:      88601
LLC AVERAGE MISS LATENCY: 169.179 cycles
Major fault: 0 Minor fault: 6084
CPU 0 L1D next line prefetcher final stats

DRAM Statistics
 CHANNEL 0
 RQ ROW_BUFFER_HIT:      95103  ROW_BUFFER_MISS:     196824
 DBUS_CONGESTED:     231389
 WQ ROW_BUFFER_HIT:      53140  ROW_BUFFER_MISS:     128704  FULL:          0

 AVG_CONGESTED_CYCLE: 6

CPU 0 Branch Prediction Accuracy: 97.8666% MPKI: 3.9013 Average ROB Occupancy at Mispredict: 91.0032

Branch types
NOT_BRANCH: 40856330 81.7127%
BRANCH_DIRECT_JUMP: 484667 0.969334%
BRANCH_INDIRECT: 85086 0.170172%
BRANCH_CONDITIONAL: 6230887 12.4618%
BRANCH_DIRECT_CALL: 1028917 2.05783%
BRANCH_INDIRECT_CALL: 141825 0.28365%
BRANCH_RETURN: 1171986 2.34397%
BRANCH_OTHER: 0 0%

