Initialize SIGNATURE TABLE
ST_SET: 1
ST_WAY: 256
ST_TAG_BIT: 16
ST_TAG_MASK: ffff

Initialize PATTERN TABLE
PT_SET: 512
PT_WAY: 4
SIG_DELTA_BIT: 7
C_SIG_BIT: 4
C_DELTA_BIT: 4

Initialize PREFETCH FILTER
FILTER_SET: 1024

*** ChampSim Multicore Out-of-Order Simulator ***

Warmup Instructions: 50000000
Simulation Instructions: 50000000
Number of CPUs: 1
LLC sets: 2048
LLC ways: 16
Off-chip DRAM Size: 4096 MB Channels: 1 Width: 64-bit Data Rate: 3200 MT/s

CPU 0 runs /Users/gandhardeshpande/Desktop/CSE240C/HW1/ChampSim/ipc1_public/client_003.champsimtrace.xz
CPU 0 L1D next line prefetcher
Heartbeat CPU 0 instructions: 10000000 cycles: 3478621 heartbeat IPC: 2.8747 cumulative IPC: 2.8747 (Simulation time: 0 hr 0 min 30 sec) 
Heartbeat CPU 0 instructions: 20000002 cycles: 6933309 heartbeat IPC: 2.89462 cumulative IPC: 2.88463 (Simulation time: 0 hr 0 min 59 sec) 
Heartbeat CPU 0 instructions: 30000003 cycles: 10494488 heartbeat IPC: 2.80806 cumulative IPC: 2.85864 (Simulation time: 0 hr 1 min 28 sec) 
Heartbeat CPU 0 instructions: 40000001 cycles: 14111034 heartbeat IPC: 2.76507 cumulative IPC: 2.83466 (Simulation time: 0 hr 1 min 58 sec) 
Heartbeat CPU 0 instructions: 50000003 cycles: 17656338 heartbeat IPC: 2.82063 cumulative IPC: 2.83184 (Simulation time: 0 hr 2 min 26 sec) 

Warmup complete CPU 0 instructions: 50000003 cycles: 17656338 (Simulation time: 0 hr 2 min 26 sec) 

Heartbeat CPU 0 instructions: 60000002 cycles: 23899987 heartbeat IPC: 1.60163 cumulative IPC: 1.60163 (Simulation time: 0 hr 2 min 55 sec) 
Heartbeat CPU 0 instructions: 70000001 cycles: 29944187 heartbeat IPC: 1.65448 cumulative IPC: 1.62762 (Simulation time: 0 hr 3 min 25 sec) 
Heartbeat CPU 0 instructions: 80000001 cycles: 36824209 heartbeat IPC: 1.45348 cumulative IPC: 1.56512 (Simulation time: 0 hr 3 min 54 sec) 
Heartbeat CPU 0 instructions: 90000000 cycles: 45842452 heartbeat IPC: 1.10886 cumulative IPC: 1.41914 (Simulation time: 0 hr 4 min 10 sec) 
Heartbeat CPU 0 instructions: 100000003 cycles: 56648933 heartbeat IPC: 0.925371 cumulative IPC: 1.28229 (Simulation time: 0 hr 4 min 25 sec) 
Finished CPU 0 instructions: 50000000 cycles: 38992595 cumulative IPC: 1.28229 (Simulation time: 0 hr 4 min 25 sec) 

ChampSim completed all CPUs

Region of Interest Statistics

CPU 0 cumulative IPC: 1.28229 instructions: 50000000 cycles: 38992595
L1D TOTAL     ACCESS:   17635059  HIT:   17139122  MISS:     495937
L1D LOAD      ACCESS:    6035003  HIT:    5909035  MISS:     125968
L1D RFO       ACCESS:    5950290  HIT:    5715851  MISS:     234439
L1D PREFETCH  ACCESS:    5649766  HIT:    5514236  MISS:     135530
L1D WRITEBACK ACCESS:          0  HIT:          0  MISS:          0
L1D PREFETCH  REQUESTED:    6076607  ISSUED:    5935937  USEFUL:      67670  USELESS:      67908
L1D AVERAGE MISS LATENCY: 121.472 cycles
L1I TOTAL     ACCESS:   11067654  HIT:    9820424  MISS:    1247230
L1I LOAD      ACCESS:    9459511  HIT:    9372144  MISS:      87367
L1I RFO       ACCESS:          0  HIT:          0  MISS:          0
L1I PREFETCH  ACCESS:    1608143  HIT:     448280  MISS:    1159863
L1I WRITEBACK ACCESS:          0  HIT:          0  MISS:          0
L1I PREFETCH  REQUESTED:    1791103  ISSUED:    1791103  USEFUL:     582907  USELESS:     576966
L1I AVERAGE MISS LATENCY: 17.6279 cycles
L2C TOTAL     ACCESS:    2460460  HIT:    2067131  MISS:     393329
L2C LOAD      ACCESS:     141360  HIT:      96772  MISS:      44588
L2C RFO       ACCESS:     232341  HIT:      25817  MISS:     206524
L2C PREFETCH  ACCESS:    1817478  HIT:    1676523  MISS:     140955
L2C WRITEBACK ACCESS:     269281  HIT:     268019  MISS:       1262
L2C PREFETCH  REQUESTED:    1145677  ISSUED:    1145479  USEFUL:       8792  USELESS:     132530
L2C AVERAGE MISS LATENCY: 166.182 cycles
LLC TOTAL     ACCESS:     955233  HIT:     672321  MISS:     282912
LLC LOAD      ACCESS:      44498  HIT:      30192  MISS:      14306
LLC RFO       ACCESS:     206518  HIT:      35190  MISS:     171328
LLC PREFETCH  ACCESS:     479806  HIT:     382887  MISS:      96919
LLC WRITEBACK ACCESS:     224411  HIT:     224052  MISS:        359
LLC PREFETCH  REQUESTED:          0  ISSUED:          0  USEFUL:       9437  USELESS:      87823
LLC AVERAGE MISS LATENCY: 228.608 cycles
Major fault: 0 Minor fault: 5042
CPU 0 L1D next line prefetcher final stats

DRAM Statistics
 CHANNEL 0
 RQ ROW_BUFFER_HIT:     100157  ROW_BUFFER_MISS:     182391
 DBUS_CONGESTED:     252967
 WQ ROW_BUFFER_HIT:      60652  ROW_BUFFER_MISS:     116976  FULL:          0

 AVG_CONGESTED_CYCLE: 6

CPU 0 Branch Prediction Accuracy: 98.6631% MPKI: 2.66884 Average ROB Occupancy at Mispredict: 79.0269

Branch types
NOT_BRANCH: 40018786 80.0376%
BRANCH_DIRECT_JUMP: 370861 0.741722%
BRANCH_INDIRECT: 83253 0.166506%
BRANCH_CONDITIONAL: 7877437 15.7549%
BRANCH_DIRECT_CALL: 722316 1.44463%
BRANCH_INDIRECT_CALL: 101901 0.203802%
BRANCH_RETURN: 825355 1.65071%
BRANCH_OTHER: 0 0%

