Initialize SIGNATURE TABLE
ST_SET: 1
ST_WAY: 256
ST_TAG_BIT: 16
ST_TAG_MASK: ffff

Initialize PATTERN TABLE
PT_SET: 512
PT_WAY: 4
SIG_DELTA_BIT: 7
C_SIG_BIT: 4
C_DELTA_BIT: 4

Initialize PREFETCH FILTER
FILTER_SET: 1024

*** ChampSim Multicore Out-of-Order Simulator ***

Warmup Instructions: 50000000
Simulation Instructions: 50000000
Number of CPUs: 1
LLC sets: 2048
LLC ways: 16
Off-chip DRAM Size: 4096 MB Channels: 1 Width: 64-bit Data Rate: 3200 MT/s

CPU 0 runs /Users/gandhardeshpande/Desktop/CSE240C/HW1/ChampSim/ipc1_public/server_023.champsimtrace.xz
CPU 0 L1D next line prefetcher
Heartbeat CPU 0 instructions: 10000000 cycles: 3501693 heartbeat IPC: 2.85576 cumulative IPC: 2.85576 (Simulation time: 0 hr 0 min 26 sec) 
Heartbeat CPU 0 instructions: 20000000 cycles: 7001630 heartbeat IPC: 2.85719 cumulative IPC: 2.85648 (Simulation time: 0 hr 0 min 51 sec) 
Heartbeat CPU 0 instructions: 30000001 cycles: 10494647 heartbeat IPC: 2.86285 cumulative IPC: 2.8586 (Simulation time: 0 hr 1 min 17 sec) 
Heartbeat CPU 0 instructions: 40000003 cycles: 13993112 heartbeat IPC: 2.8584 cumulative IPC: 2.85855 (Simulation time: 0 hr 1 min 43 sec) 
Heartbeat CPU 0 instructions: 50000001 cycles: 17494185 heartbeat IPC: 2.85627 cumulative IPC: 2.85809 (Simulation time: 0 hr 2 min 9 sec) 

Warmup complete CPU 0 instructions: 50000001 cycles: 17494185 (Simulation time: 0 hr 2 min 9 sec) 

Heartbeat CPU 0 instructions: 60000002 cycles: 24243520 heartbeat IPC: 1.48163 cumulative IPC: 1.48163 (Simulation time: 0 hr 2 min 36 sec) 
Heartbeat CPU 0 instructions: 70000002 cycles: 31208373 heartbeat IPC: 1.43578 cumulative IPC: 1.45834 (Simulation time: 0 hr 3 min 2 sec) 
Heartbeat CPU 0 instructions: 80000000 cycles: 38084570 heartbeat IPC: 1.45429 cumulative IPC: 1.45699 (Simulation time: 0 hr 3 min 29 sec) 
Heartbeat CPU 0 instructions: 90000000 cycles: 44983843 heartbeat IPC: 1.44943 cumulative IPC: 1.45509 (Simulation time: 0 hr 3 min 53 sec) 
Heartbeat CPU 0 instructions: 100000001 cycles: 51833257 heartbeat IPC: 1.45998 cumulative IPC: 1.45607 (Simulation time: 0 hr 4 min 20 sec) 
Finished CPU 0 instructions: 50000000 cycles: 34339072 cumulative IPC: 1.45607 (Simulation time: 0 hr 4 min 20 sec) 

ChampSim completed all CPUs

Region of Interest Statistics

CPU 0 cumulative IPC: 1.45607 instructions: 50000000 cycles: 34339072
L1D TOTAL     ACCESS:   19407489  HIT:   17940791  MISS:    1466698
L1D LOAD      ACCESS:    6871164  HIT:    6210752  MISS:     660412
L1D RFO       ACCESS:    5985191  HIT:    5723636  MISS:     261555
L1D PREFETCH  ACCESS:    6551134  HIT:    6006403  MISS:     544731
L1D WRITEBACK ACCESS:          0  HIT:          0  MISS:          0
L1D PREFETCH  REQUESTED:    6920376  ISSUED:    6801353  USEFUL:     130415  USELESS:     414324
L1D AVERAGE MISS LATENCY: 24.4018 cycles
L1I TOTAL     ACCESS:   13448546  HIT:    9980209  MISS:    3468337
L1I LOAD      ACCESS:    9386278  HIT:    9168744  MISS:     217534
L1I RFO       ACCESS:          0  HIT:          0  MISS:          0
L1I PREFETCH  ACCESS:    4062268  HIT:     811465  MISS:    3250803
L1I WRITEBACK ACCESS:          0  HIT:          0  MISS:          0
L1I PREFETCH  REQUESTED:    4574875  ISSUED:    4574875  USEFUL:    2293579  USELESS:     957129
L1I AVERAGE MISS LATENCY: 16.7009 cycles
L2C TOTAL     ACCESS:    6638282  HIT:    5995658  MISS:     642624
L2C LOAD      ACCESS:     686257  HIT:     556102  MISS:     130155
L2C RFO       ACCESS:     259419  HIT:     176429  MISS:      82990
L2C PREFETCH  ACCESS:    5193370  HIT:    4766936  MISS:     426434
L2C WRITEBACK ACCESS:     499236  HIT:     496191  MISS:       3045
L2C PREFETCH  REQUESTED:    3426574  ISSUED:    3424097  USEFUL:      16613  USELESS:     409582
L2C AVERAGE MISS LATENCY: 41.1759 cycles
LLC TOTAL     ACCESS:    1743425  HIT:    1694864  MISS:      48561
LLC LOAD      ACCESS:     129960  HIT:     123809  MISS:       6151
LLC RFO       ACCESS:      82979  HIT:      64993  MISS:      17986
LLC PREFETCH  ACCESS:    1392190  HIT:    1367969  MISS:      24221
LLC WRITEBACK ACCESS:     138296  HIT:     138093  MISS:        203
LLC PREFETCH  REQUESTED:          0  ISSUED:          0  USEFUL:       2129  USELESS:      21628
LLC AVERAGE MISS LATENCY: 182.841 cycles
Major fault: 0 Minor fault: 2766
CPU 0 L1D next line prefetcher final stats

DRAM Statistics
 CHANNEL 0
 RQ ROW_BUFFER_HIT:      14784  ROW_BUFFER_MISS:      33568
 DBUS_CONGESTED:      30441
 WQ ROW_BUFFER_HIT:       2563  ROW_BUFFER_MISS:      18982  FULL:          0

 AVG_CONGESTED_CYCLE: 6

CPU 0 Branch Prediction Accuracy: 99.6798% MPKI: 0.58608 Average ROB Occupancy at Mispredict: 141.583

Branch types
NOT_BRANCH: 40848323 81.6966%
BRANCH_DIRECT_JUMP: 548373 1.09675%
BRANCH_INDIRECT: 189802 0.379604%
BRANCH_CONDITIONAL: 6372772 12.7455%
BRANCH_DIRECT_CALL: 862207 1.72441%
BRANCH_INDIRECT_CALL: 158149 0.316298%
BRANCH_RETURN: 1020345 2.04069%
BRANCH_OTHER: 0 0%

