Initialize SIGNATURE TABLE
ST_SET: 1
ST_WAY: 256
ST_TAG_BIT: 16
ST_TAG_MASK: ffff

Initialize PATTERN TABLE
PT_SET: 512
PT_WAY: 4
SIG_DELTA_BIT: 7
C_SIG_BIT: 4
C_DELTA_BIT: 4

Initialize PREFETCH FILTER
FILTER_SET: 1024

*** ChampSim Multicore Out-of-Order Simulator ***

Warmup Instructions: 50000000
Simulation Instructions: 50000000
Number of CPUs: 1
LLC sets: 2048
LLC ways: 16
Off-chip DRAM Size: 4096 MB Channels: 1 Width: 64-bit Data Rate: 3200 MT/s

CPU 0 runs /Users/gandhardeshpande/Desktop/CSE240C/HW1/ChampSim/ipc1_public/server_038.champsimtrace.xz
CPU 0 L1D next line prefetcher
Heartbeat CPU 0 instructions: 10000001 cycles: 3324425 heartbeat IPC: 3.00804 cumulative IPC: 3.00804 (Simulation time: 0 hr 0 min 26 sec) 
Heartbeat CPU 0 instructions: 20000003 cycles: 6651778 heartbeat IPC: 3.00539 cumulative IPC: 3.00672 (Simulation time: 0 hr 0 min 53 sec) 
Heartbeat CPU 0 instructions: 30000003 cycles: 9975136 heartbeat IPC: 3.009 cumulative IPC: 3.00748 (Simulation time: 0 hr 1 min 20 sec) 
Heartbeat CPU 0 instructions: 40000001 cycles: 13303200 heartbeat IPC: 3.00475 cumulative IPC: 3.0068 (Simulation time: 0 hr 1 min 47 sec) 
Heartbeat CPU 0 instructions: 50000001 cycles: 16629418 heartbeat IPC: 3.00642 cumulative IPC: 3.00672 (Simulation time: 0 hr 2 min 14 sec) 

Warmup complete CPU 0 instructions: 50000001 cycles: 16629418 (Simulation time: 0 hr 2 min 14 sec) 

Heartbeat CPU 0 instructions: 60000002 cycles: 23063707 heartbeat IPC: 1.55417 cumulative IPC: 1.55417 (Simulation time: 0 hr 2 min 42 sec) 
Heartbeat CPU 0 instructions: 70000001 cycles: 29451467 heartbeat IPC: 1.56549 cumulative IPC: 1.55981 (Simulation time: 0 hr 3 min 11 sec) 
Heartbeat CPU 0 instructions: 80000000 cycles: 35830090 heartbeat IPC: 1.56774 cumulative IPC: 1.56245 (Simulation time: 0 hr 3 min 39 sec) 
Heartbeat CPU 0 instructions: 90000001 cycles: 42245317 heartbeat IPC: 1.55879 cumulative IPC: 1.56153 (Simulation time: 0 hr 4 min 7 sec) 
*** Reached end of trace for Core: 0 Repeating trace: /Users/gandhardeshpande/Desktop/CSE240C/HW1/ChampSim/ipc1_public/server_038.champsimtrace.xz
Heartbeat CPU 0 instructions: 100000002 cycles: 48672773 heartbeat IPC: 1.55583 cumulative IPC: 1.56039 (Simulation time: 0 hr 4 min 35 sec) 
Finished CPU 0 instructions: 50000001 cycles: 32043355 cumulative IPC: 1.56039 (Simulation time: 0 hr 4 min 35 sec) 

ChampSim completed all CPUs

Region of Interest Statistics

CPU 0 cumulative IPC: 1.56039 instructions: 50000001 cycles: 32043355
L1D TOTAL     ACCESS:   18706157  HIT:   17723788  MISS:     982369
L1D LOAD      ACCESS:    6367012  HIT:    5874260  MISS:     492752
L1D RFO       ACCESS:    6210712  HIT:    6146304  MISS:      64408
L1D PREFETCH  ACCESS:    6128433  HIT:    5703224  MISS:     425209
L1D WRITEBACK ACCESS:          0  HIT:          0  MISS:          0
L1D PREFETCH  REQUESTED:    6403263  ISSUED:    6250743  USEFUL:     118476  USELESS:     306736
L1D AVERAGE MISS LATENCY: 29.3393 cycles
L1I TOTAL     ACCESS:   15540014  HIT:   10522480  MISS:    5017534
L1I LOAD      ACCESS:    9384835  HIT:    9099040  MISS:     285795
L1I RFO       ACCESS:          0  HIT:          0  MISS:          0
L1I PREFETCH  ACCESS:    6155179  HIT:    1423440  MISS:    4731739
L1I WRITEBACK ACCESS:          0  HIT:          0  MISS:          0
L1I PREFETCH  REQUESTED:    6923979  ISSUED:    6923979  USEFUL:    3869202  USELESS:     862556
L1I AVERAGE MISS LATENCY: 14.3387 cycles
L2C TOTAL     ACCESS:    8641689  HIT:    8334504  MISS:     307185
L2C LOAD      ACCESS:     597095  HIT:     458236  MISS:     138859
L2C RFO       ACCESS:      64103  HIT:      37263  MISS:      26840
L2C PREFETCH  ACCESS:    7688806  HIT:    7548498  MISS:     140308
L2C WRITEBACK ACCESS:     291685  HIT:     290507  MISS:       1178
L2C PREFETCH  REQUESTED:    5509477  ISSUED:    5489607  USEFUL:       5948  USELESS:     134305
L2C AVERAGE MISS LATENCY: 46.5867 cycles
LLC TOTAL     ACCESS:    1656995  HIT:    1601035  MISS:      55960
LLC LOAD      ACCESS:     138858  HIT:     125936  MISS:      12922
LLC RFO       ACCESS:      26840  HIT:      21050  MISS:       5790
LLC PREFETCH  ACCESS:    1350925  HIT:    1314213  MISS:      36712
LLC WRITEBACK ACCESS:     140372  HIT:     139836  MISS:        536
LLC PREFETCH  REQUESTED:          0  ISSUED:          0  USEFUL:       2193  USELESS:      32144
LLC AVERAGE MISS LATENCY: 168.174 cycles
Major fault: 0 Minor fault: 5526
CPU 0 L1D next line prefetcher final stats

DRAM Statistics
 CHANNEL 0
 RQ ROW_BUFFER_HIT:       7540  ROW_BUFFER_MISS:      47883
 DBUS_CONGESTED:      21998
 WQ ROW_BUFFER_HIT:       1332  ROW_BUFFER_MISS:      12031  FULL:          0

 AVG_CONGESTED_CYCLE: 5

CPU 0 Branch Prediction Accuracy: 99.9279% MPKI: 0.12968 Average ROB Occupancy at Mispredict: 237.49

Branch types
NOT_BRANCH: 41006327 82.0127%
BRANCH_DIRECT_JUMP: 541914 1.08383%
BRANCH_INDIRECT: 59690 0.11938%
BRANCH_CONDITIONAL: 5915848 11.8317%
BRANCH_DIRECT_CALL: 1003589 2.00718%
BRANCH_INDIRECT_CALL: 234499 0.468998%
BRANCH_RETURN: 1238071 2.47614%
BRANCH_OTHER: 0 0%

