Initialize SIGNATURE TABLE
ST_SET: 1
ST_WAY: 256
ST_TAG_BIT: 16
ST_TAG_MASK: ffff

Initialize PATTERN TABLE
PT_SET: 512
PT_WAY: 4
SIG_DELTA_BIT: 7
C_SIG_BIT: 4
C_DELTA_BIT: 4

Initialize PREFETCH FILTER
FILTER_SET: 1024

*** ChampSim Multicore Out-of-Order Simulator ***

Warmup Instructions: 50000000
Simulation Instructions: 50000000
Number of CPUs: 1
LLC sets: 2048
LLC ways: 16
Off-chip DRAM Size: 4096 MB Channels: 1 Width: 64-bit Data Rate: 3200 MT/s

CPU 0 runs /Users/gandhardeshpande/Desktop/CSE240C/HW1/ChampSim/ipc1_public/spec_perlbench_001.champsimtrace.xz
CPU 0 L1D next line prefetcher
Heartbeat CPU 0 instructions: 10000000 cycles: 3276286 heartbeat IPC: 3.05224 cumulative IPC: 3.05224 (Simulation time: 0 hr 0 min 24 sec) 
Heartbeat CPU 0 instructions: 20000000 cycles: 6541494 heartbeat IPC: 3.06259 cumulative IPC: 3.05741 (Simulation time: 0 hr 0 min 53 sec) 
Heartbeat CPU 0 instructions: 30000002 cycles: 9858669 heartbeat IPC: 3.01461 cumulative IPC: 3.04301 (Simulation time: 0 hr 1 min 24 sec) 
Heartbeat CPU 0 instructions: 40000002 cycles: 13114266 heartbeat IPC: 3.07163 cumulative IPC: 3.05011 (Simulation time: 0 hr 1 min 57 sec) 
Heartbeat CPU 0 instructions: 50000001 cycles: 16388358 heartbeat IPC: 3.05428 cumulative IPC: 3.05095 (Simulation time: 0 hr 2 min 27 sec) 

Warmup complete CPU 0 instructions: 50000001 cycles: 16388358 (Simulation time: 0 hr 2 min 27 sec) 

Heartbeat CPU 0 instructions: 60000001 cycles: 24687964 heartbeat IPC: 1.20488 cumulative IPC: 1.20488 (Simulation time: 0 hr 2 min 57 sec) 
Heartbeat CPU 0 instructions: 70000003 cycles: 32781116 heartbeat IPC: 1.23561 cumulative IPC: 1.22005 (Simulation time: 0 hr 3 min 29 sec) 
Heartbeat CPU 0 instructions: 80000000 cycles: 41193896 heartbeat IPC: 1.18867 cumulative IPC: 1.20941 (Simulation time: 0 hr 4 min 0 sec) 
Heartbeat CPU 0 instructions: 90000000 cycles: 46949311 heartbeat IPC: 1.73749 cumulative IPC: 1.30886 (Simulation time: 0 hr 4 min 31 sec) 
Heartbeat CPU 0 instructions: 100000002 cycles: 52845578 heartbeat IPC: 1.69599 cumulative IPC: 1.37147 (Simulation time: 0 hr 5 min 1 sec) 
Finished CPU 0 instructions: 50000001 cycles: 36457220 cumulative IPC: 1.37147 (Simulation time: 0 hr 5 min 1 sec) 

ChampSim completed all CPUs

Region of Interest Statistics

CPU 0 cumulative IPC: 1.37147 instructions: 50000001 cycles: 36457220
L1D TOTAL     ACCESS:   20697615  HIT:   20282531  MISS:     415084
L1D LOAD      ACCESS:    7178488  HIT:    6964848  MISS:     213640
L1D RFO       ACCESS:    6542105  HIT:    6523585  MISS:      18520
L1D PREFETCH  ACCESS:    6977022  HIT:    6794098  MISS:     182924
L1D WRITEBACK ACCESS:          0  HIT:          0  MISS:          0
L1D PREFETCH  REQUESTED:    7194119  ISSUED:    7078254  USEFUL:      55246  USELESS:     127673
L1D AVERAGE MISS LATENCY: 59.4569 cycles
L1I TOTAL     ACCESS:   10556571  HIT:    9483750  MISS:    1072821
L1I LOAD      ACCESS:    9156537  HIT:    9073939  MISS:      82598
L1I RFO       ACCESS:          0  HIT:          0  MISS:          0
L1I PREFETCH  ACCESS:    1400034  HIT:     409811  MISS:     990223
L1I WRITEBACK ACCESS:          0  HIT:          0  MISS:          0
L1I PREFETCH  REQUESTED:    1574134  ISSUED:    1574134  USEFUL:     488112  USELESS:     502129
L1I AVERAGE MISS LATENCY: 15.6571 cycles
L2C TOTAL     ACCESS:    2005189  HIT:    1838069  MISS:     167120
L2C LOAD      ACCESS:     244384  HIT:     165452  MISS:      78932
L2C RFO       ACCESS:      18282  HIT:      12835  MISS:       5447
L2C PREFETCH  ACCESS:    1663575  HIT:    1581210  MISS:      82365
L2C WRITEBACK ACCESS:      78948  HIT:      78572  MISS:        376
L2C PREFETCH  REQUESTED:    1007063  ISSUED:    1007045  USEFUL:       4826  USELESS:      77514
L2C AVERAGE MISS LATENCY: 122.191 cycles
LLC TOTAL     ACCESS:     409087  HIT:     269090  MISS:     139997
LLC LOAD      ACCESS:      78931  HIT:      28999  MISS:      49932
LLC RFO       ACCESS:       5447  HIT:       2395  MISS:       3052
LLC PREFETCH  ACCESS:     299285  HIT:     212766  MISS:      86519
LLC WRITEBACK ACCESS:      25424  HIT:      24930  MISS:        494
LLC PREFETCH  REQUESTED:          0  ISSUED:          0  USEFUL:      12070  USELESS:      74681
LLC AVERAGE MISS LATENCY: 159.798 cycles
Major fault: 0 Minor fault: 6364
CPU 0 L1D next line prefetcher final stats

DRAM Statistics
 CHANNEL 0
 RQ ROW_BUFFER_HIT:      32014  ROW_BUFFER_MISS:     107489
 DBUS_CONGESTED:      55966
 WQ ROW_BUFFER_HIT:       4355  ROW_BUFFER_MISS:      13024  FULL:          0

 AVG_CONGESTED_CYCLE: 4

CPU 0 Branch Prediction Accuracy: 98.7418% MPKI: 2.47758 Average ROB Occupancy at Mispredict: 79.9363

Branch types
NOT_BRANCH: 40154100 80.3082%
BRANCH_DIRECT_JUMP: 817094 1.63419%
BRANCH_INDIRECT: 303787 0.607574%
BRANCH_CONDITIONAL: 7492103 14.9842%
BRANCH_DIRECT_CALL: 471777 0.943554%
BRANCH_INDIRECT_CALL: 144546 0.289092%
BRANCH_RETURN: 616324 1.23265%
BRANCH_OTHER: 0 0%

