Initialize SIGNATURE TABLE
ST_SET: 1
ST_WAY: 256
ST_TAG_BIT: 16
ST_TAG_MASK: ffff

Initialize PATTERN TABLE
PT_SET: 512
PT_WAY: 4
SIG_DELTA_BIT: 7
C_SIG_BIT: 4
C_DELTA_BIT: 4

Initialize PREFETCH FILTER
FILTER_SET: 1024

*** ChampSim Multicore Out-of-Order Simulator ***

Warmup Instructions: 50000000
Simulation Instructions: 50000000
Number of CPUs: 1
LLC sets: 2048
LLC ways: 16
Off-chip DRAM Size: 4096 MB Channels: 1 Width: 64-bit Data Rate: 3200 MT/s

CPU 0 runs /Users/gandhardeshpande/Desktop/CSE240C/HW1/ChampSim/ipc1_public/server_025.champsimtrace.xz
CPU 0 L1I next line prefetcher
CPU 0 L1D next line prefetcher
Heartbeat CPU 0 instructions: 10000003 cycles: 3528122 heartbeat IPC: 2.83437 cumulative IPC: 2.83437 (Simulation time: 0 hr 0 min 15 sec) 
Heartbeat CPU 0 instructions: 20000000 cycles: 7063686 heartbeat IPC: 2.8284 cumulative IPC: 2.83138 (Simulation time: 0 hr 0 min 30 sec) 
Heartbeat CPU 0 instructions: 30000001 cycles: 10591531 heartbeat IPC: 2.83459 cumulative IPC: 2.83245 (Simulation time: 0 hr 0 min 45 sec) 
Heartbeat CPU 0 instructions: 40000003 cycles: 14125962 heartbeat IPC: 2.82931 cumulative IPC: 2.83167 (Simulation time: 0 hr 1 min 0 sec) 
Heartbeat CPU 0 instructions: 50000001 cycles: 17657064 heartbeat IPC: 2.83198 cumulative IPC: 2.83173 (Simulation time: 0 hr 1 min 15 sec) 

Warmup complete CPU 0 instructions: 50000001 cycles: 17657064 (Simulation time: 0 hr 1 min 15 sec) 

Heartbeat CPU 0 instructions: 60000002 cycles: 24544863 heartbeat IPC: 1.45184 cumulative IPC: 1.45184 (Simulation time: 0 hr 1 min 31 sec) 
Heartbeat CPU 0 instructions: 70000000 cycles: 31567689 heartbeat IPC: 1.42393 cumulative IPC: 1.43775 (Simulation time: 0 hr 1 min 46 sec) 
Heartbeat CPU 0 instructions: 80000002 cycles: 38490279 heartbeat IPC: 1.44455 cumulative IPC: 1.44001 (Simulation time: 0 hr 2 min 2 sec) 
Heartbeat CPU 0 instructions: 90000001 cycles: 45060821 heartbeat IPC: 1.52194 cumulative IPC: 1.45965 (Simulation time: 0 hr 2 min 17 sec) 
Heartbeat CPU 0 instructions: 100000003 cycles: 51313872 heartbeat IPC: 1.59922 cumulative IPC: 1.48558 (Simulation time: 0 hr 2 min 32 sec) 
Finished CPU 0 instructions: 50000002 cycles: 33656808 cumulative IPC: 1.48558 (Simulation time: 0 hr 2 min 32 sec) 

ChampSim completed all CPUs

Region of Interest Statistics

CPU 0 cumulative IPC: 1.48558 instructions: 50000002 cycles: 33656808
L1D TOTAL     ACCESS:   19993013  HIT:   18567698  MISS:    1425315
L1D LOAD      ACCESS:    6962273  HIT:    6342676  MISS:     619597
L1D RFO       ACCESS:    6382253  HIT:    6134387  MISS:     247866
L1D PREFETCH  ACCESS:    6648487  HIT:    6090635  MISS:     557852
L1D WRITEBACK ACCESS:          0  HIT:          0  MISS:          0
L1D PREFETCH  REQUESTED:    7003438  ISSUED:    6829074  USEFUL:     130586  USELESS:     427259
L1D AVERAGE MISS LATENCY: 24.0914 cycles
L1I TOTAL     ACCESS:   14105312  HIT:   10707217  MISS:    3398095
L1I LOAD      ACCESS:    9501719  HIT:    9406503  MISS:      95216
L1I RFO       ACCESS:          0  HIT:          0  MISS:          0
L1I PREFETCH  ACCESS:    4603593  HIT:    1300714  MISS:    3302879
L1I WRITEBACK ACCESS:          0  HIT:          0  MISS:          0
L1I PREFETCH  REQUESTED:    4805820  ISSUED:    4803561  USEFUL:    2431840  USELESS:     871031
L1I AVERAGE MISS LATENCY: 19.2603 cycles
L2C TOTAL     ACCESS:    6390217  HIT:    5549656  MISS:     840561
L2C LOAD      ACCESS:     624245  HIT:     488754  MISS:     135491
L2C RFO       ACCESS:     246552  HIT:     167594  MISS:      78958
L2C PREFETCH  ACCESS:    5022678  HIT:    4401414  MISS:     621264
L2C WRITEBACK ACCESS:     496742  HIT:     491894  MISS:       4848
L2C PREFETCH  REQUESTED:    5837004  ISSUED:    5824563  USEFUL:      12551  USELESS:     608346
L2C AVERAGE MISS LATENCY: 37.946 cycles
LLC TOTAL     ACCESS:    2457028  HIT:    2424201  MISS:      32827
LLC LOAD      ACCESS:     135385  HIT:     131979  MISS:       3406
LLC RFO       ACCESS:      78859  HIT:      68103  MISS:      10756
LLC PREFETCH  ACCESS:    2104449  HIT:    2085995  MISS:      18454
LLC WRITEBACK ACCESS:     138335  HIT:     138124  MISS:        211
LLC PREFETCH  REQUESTED:          0  ISSUED:          0  USEFUL:       1212  USELESS:      15629
LLC AVERAGE MISS LATENCY: 177.932 cycles
Major fault: 0 Minor fault: 2458
I-Shadow cache 408 bytes
Touched + WorthPF tables 24576 bytes 
MMA filter 174 bytes 
FNL filter 272 bytes 
TOTAL PREFETCHER STORAGE SIZE: 98134 bytes
CPU 0 L1I next line prefetcher final stats
CPU 0 L1D next line prefetcher final stats

DRAM Statistics
 CHANNEL 0
 RQ ROW_BUFFER_HIT:       9854  ROW_BUFFER_MISS:      22755
 DBUS_CONGESTED:      19962
 WQ ROW_BUFFER_HIT:       1493  ROW_BUFFER_MISS:      12356  FULL:          0

 AVG_CONGESTED_CYCLE: 6

CPU 0 Branch Prediction Accuracy: 99.8142% MPKI: 0.34676 Average ROB Occupancy at Mispredict: 201.226

Branch types
NOT_BRANCH: 40668888 81.3378%
BRANCH_DIRECT_JUMP: 531700 1.0634%
BRANCH_INDIRECT: 199025 0.39805%
BRANCH_CONDITIONAL: 6211491 12.423%
BRANCH_DIRECT_CALL: 1010911 2.02182%
BRANCH_INDIRECT_CALL: 183501 0.367002%
BRANCH_RETURN: 1194415 2.38883%
BRANCH_OTHER: 0 0%

