Initialize SIGNATURE TABLE
ST_SET: 1
ST_WAY: 256
ST_TAG_BIT: 16
ST_TAG_MASK: ffff

Initialize PATTERN TABLE
PT_SET: 512
PT_WAY: 4
SIG_DELTA_BIT: 7
C_SIG_BIT: 4
C_DELTA_BIT: 4

Initialize PREFETCH FILTER
FILTER_SET: 1024

*** ChampSim Multicore Out-of-Order Simulator ***

Warmup Instructions: 50000000
Simulation Instructions: 50000000
Number of CPUs: 1
LLC sets: 2048
LLC ways: 16
Off-chip DRAM Size: 4096 MB Channels: 1 Width: 64-bit Data Rate: 3200 MT/s

CPU 0 runs /Users/gandhardeshpande/Desktop/CSE240C/HW1/ChampSim/ipc1_public/spec_x264_001.champsimtrace.xz
CPU 0 L1I next line prefetcher
CPU 0 L1D next line prefetcher
Heartbeat CPU 0 instructions: 10000002 cycles: 3060340 heartbeat IPC: 3.26761 cumulative IPC: 3.26761 (Simulation time: 0 hr 0 min 10 sec) 
Heartbeat CPU 0 instructions: 20000002 cycles: 6110794 heartbeat IPC: 3.2782 cumulative IPC: 3.2729 (Simulation time: 0 hr 0 min 20 sec) 
Heartbeat CPU 0 instructions: 30000002 cycles: 9146695 heartbeat IPC: 3.29392 cumulative IPC: 3.27987 (Simulation time: 0 hr 0 min 30 sec) 
Heartbeat CPU 0 instructions: 40000000 cycles: 12191715 heartbeat IPC: 3.28405 cumulative IPC: 3.28092 (Simulation time: 0 hr 0 min 40 sec) 
Heartbeat CPU 0 instructions: 50000000 cycles: 15235178 heartbeat IPC: 3.28573 cumulative IPC: 3.28188 (Simulation time: 0 hr 0 min 49 sec) 

Warmup complete CPU 0 instructions: 50000004 cycles: 15235179 (Simulation time: 0 hr 0 min 49 sec) 

Heartbeat CPU 0 instructions: 60000002 cycles: 21164433 heartbeat IPC: 1.68655 cumulative IPC: 1.68655 (Simulation time: 0 hr 0 min 55 sec) 
Heartbeat CPU 0 instructions: 70000000 cycles: 27075473 heartbeat IPC: 1.69175 cumulative IPC: 1.68915 (Simulation time: 0 hr 1 min 0 sec) 
Heartbeat CPU 0 instructions: 80000003 cycles: 33130509 heartbeat IPC: 1.65152 cumulative IPC: 1.67641 (Simulation time: 0 hr 1 min 5 sec) 
Heartbeat CPU 0 instructions: 90000002 cycles: 39164017 heartbeat IPC: 1.65741 cumulative IPC: 1.67162 (Simulation time: 0 hr 1 min 10 sec) 
Heartbeat CPU 0 instructions: 100000002 cycles: 45060621 heartbeat IPC: 1.69589 cumulative IPC: 1.67642 (Simulation time: 0 hr 1 min 15 sec) 
Finished CPU 0 instructions: 50000002 cycles: 29825443 cumulative IPC: 1.67642 (Simulation time: 0 hr 1 min 15 sec) 

ChampSim completed all CPUs

Region of Interest Statistics

CPU 0 cumulative IPC: 1.67642 instructions: 50000002 cycles: 29825443
L1D TOTAL     ACCESS:   12960853  HIT:   12799739  MISS:     161114
L1D LOAD      ACCESS:    5092807  HIT:    5037611  MISS:      55196
L1D RFO       ACCESS:    2882718  HIT:    2848476  MISS:      34242
L1D PREFETCH  ACCESS:    4985328  HIT:    4913652  MISS:      71676
L1D WRITEBACK ACCESS:          0  HIT:          0  MISS:          0
L1D PREFETCH  REQUESTED:    5109364  ISSUED:    5042646  USEFUL:      25783  USELESS:      45702
L1D AVERAGE MISS LATENCY: 39.3723 cycles
L1I TOTAL     ACCESS:    8557437  HIT:    8197463  MISS:     359974
L1I LOAD      ACCESS:    8038029  HIT:    8034248  MISS:       3781
L1I RFO       ACCESS:          0  HIT:          0  MISS:          0
L1I PREFETCH  ACCESS:     519408  HIT:     163215  MISS:     356193
L1I WRITEBACK ACCESS:          0  HIT:          0  MISS:          0
L1I PREFETCH  REQUESTED:     527640  ISSUED:     527640  USEFUL:     291488  USELESS:      64745
L1I AVERAGE MISS LATENCY: 14.8524 cycles
L2C TOTAL     ACCESS:     741371  HIT:     702120  MISS:      39251
L2C LOAD      ACCESS:      57623  HIT:      52132  MISS:       5491
L2C RFO       ACCESS:      33994  HIT:      21944  MISS:      12050
L2C PREFETCH  ACCESS:     606682  HIT:     585050  MISS:      21632
L2C WRITEBACK ACCESS:      43072  HIT:      42994  MISS:         78
L2C PREFETCH  REQUESTED:     587669  ISSUED:     585840  USEFUL:       8978  USELESS:      12864
L2C AVERAGE MISS LATENCY: 100.918 cycles
LLC TOTAL     ACCESS:     145094  HIT:     116041  MISS:      29053
LLC LOAD      ACCESS:       5489  HIT:       3363  MISS:       2126
LLC RFO       ACCESS:      12050  HIT:        449  MISS:      11601
LLC PREFETCH  ACCESS:     114015  HIT:      98784  MISS:      15231
LLC WRITEBACK ACCESS:      13540  HIT:      13445  MISS:         95
LLC PREFETCH  REQUESTED:          0  ISSUED:          0  USEFUL:       1748  USELESS:      14049
LLC AVERAGE MISS LATENCY: 162.267 cycles
Major fault: 0 Minor fault: 1284
I-Shadow cache 408 bytes
Touched + WorthPF tables 24576 bytes 
MMA filter 174 bytes 
FNL filter 272 bytes 
TOTAL PREFETCHER STORAGE SIZE: 98134 bytes
CPU 0 L1I next line prefetcher final stats
CPU 0 L1D next line prefetcher final stats

DRAM Statistics
 CHANNEL 0
 RQ ROW_BUFFER_HIT:       9938  ROW_BUFFER_MISS:      19020
 DBUS_CONGESTED:      12565
 WQ ROW_BUFFER_HIT:       2952  ROW_BUFFER_MISS:       9728  FULL:          0

 AVG_CONGESTED_CYCLE: 6

CPU 0 Branch Prediction Accuracy: 97.1633% MPKI: 1.73704 Average ROB Occupancy at Mispredict: 42.9249

Branch types
NOT_BRANCH: 46937921 93.8758%
BRANCH_DIRECT_JUMP: 170816 0.341632%
BRANCH_INDIRECT: 0 0%
BRANCH_CONDITIONAL: 2532774 5.06555%
BRANCH_DIRECT_CALL: 114227 0.228454%
BRANCH_INDIRECT_CALL: 64863 0.129726%
BRANCH_RETURN: 179089 0.358178%
BRANCH_OTHER: 0 0%

