Initialize SIGNATURE TABLE
ST_SET: 1
ST_WAY: 256
ST_TAG_BIT: 16
ST_TAG_MASK: ffff

Initialize PATTERN TABLE
PT_SET: 512
PT_WAY: 4
SIG_DELTA_BIT: 7
C_SIG_BIT: 4
C_DELTA_BIT: 4

Initialize PREFETCH FILTER
FILTER_SET: 1024

*** ChampSim Multicore Out-of-Order Simulator ***

Warmup Instructions: 50000000
Simulation Instructions: 50000000
Number of CPUs: 1
LLC sets: 2048
LLC ways: 16
Off-chip DRAM Size: 4096 MB Channels: 1 Width: 64-bit Data Rate: 3200 MT/s

CPU 0 runs /Users/gandhardeshpande/Desktop/CSE240C/HW1/ChampSim/ipc1_public/server_012.champsimtrace.xz
CPU 0 L1I next line prefetcher
CPU 0 L1D next line prefetcher
Heartbeat CPU 0 instructions: 10000002 cycles: 3192009 heartbeat IPC: 3.13282 cumulative IPC: 3.13282 (Simulation time: 0 hr 0 min 14 sec) 
Heartbeat CPU 0 instructions: 20000002 cycles: 6386959 heartbeat IPC: 3.12994 cumulative IPC: 3.13138 (Simulation time: 0 hr 0 min 27 sec) 
Heartbeat CPU 0 instructions: 30000001 cycles: 9583113 heartbeat IPC: 3.12876 cumulative IPC: 3.13051 (Simulation time: 0 hr 0 min 41 sec) 
Heartbeat CPU 0 instructions: 40000000 cycles: 12784886 heartbeat IPC: 3.12327 cumulative IPC: 3.12869 (Simulation time: 0 hr 0 min 54 sec) 
Heartbeat CPU 0 instructions: 50000003 cycles: 15978969 heartbeat IPC: 3.13079 cumulative IPC: 3.12911 (Simulation time: 0 hr 1 min 8 sec) 

Warmup complete CPU 0 instructions: 50000003 cycles: 15978969 (Simulation time: 0 hr 1 min 8 sec) 

Heartbeat CPU 0 instructions: 60000002 cycles: 23094044 heartbeat IPC: 1.40547 cumulative IPC: 1.40547 (Simulation time: 0 hr 1 min 20 sec) 
Heartbeat CPU 0 instructions: 70000000 cycles: 30207561 heartbeat IPC: 1.40577 cumulative IPC: 1.40562 (Simulation time: 0 hr 1 min 32 sec) 
Heartbeat CPU 0 instructions: 80000003 cycles: 37348604 heartbeat IPC: 1.40036 cumulative IPC: 1.40386 (Simulation time: 0 hr 1 min 44 sec) 
Heartbeat CPU 0 instructions: 90000003 cycles: 44724987 heartbeat IPC: 1.35568 cumulative IPC: 1.3915 (Simulation time: 0 hr 1 min 57 sec) 
Heartbeat CPU 0 instructions: 100000002 cycles: 51992898 heartbeat IPC: 1.37591 cumulative IPC: 1.38835 (Simulation time: 0 hr 2 min 9 sec) 
Finished CPU 0 instructions: 50000001 cycles: 36013930 cumulative IPC: 1.38835 (Simulation time: 0 hr 2 min 9 sec) 

ChampSim completed all CPUs

Region of Interest Statistics

CPU 0 cumulative IPC: 1.38835 instructions: 50000001 cycles: 36013930
L1D TOTAL     ACCESS:   17310889  HIT:   16268086  MISS:    1042803
L1D LOAD      ACCESS:    6296990  HIT:    5808465  MISS:     488525
L1D RFO       ACCESS:    4960485  HIT:    4878693  MISS:      81792
L1D PREFETCH  ACCESS:    6053414  HIT:    5580928  MISS:     472486
L1D WRITEBACK ACCESS:          0  HIT:          0  MISS:          0
L1D PREFETCH  REQUESTED:    6331183  ISSUED:    6231823  USEFUL:     131937  USELESS:     340570
L1D AVERAGE MISS LATENCY: 40.5276 cycles
L1I TOTAL     ACCESS:   11539279  HIT:    9632831  MISS:    1906448
L1I LOAD      ACCESS:    8713717  HIT:    8576216  MISS:     137501
L1I RFO       ACCESS:          0  HIT:          0  MISS:          0
L1I PREFETCH  ACCESS:    2825562  HIT:    1056615  MISS:    1768947
L1I WRITEBACK ACCESS:          0  HIT:          0  MISS:          0
L1I PREFETCH  REQUESTED:    2987793  ISSUED:    2987624  USEFUL:    1280655  USELESS:     488298
L1I AVERAGE MISS LATENCY: 29.483 cycles
L2C TOTAL     ACCESS:    3686312  HIT:    2382248  MISS:    1304064
L2C LOAD      ACCESS:     500019  HIT:     244918  MISS:     255101
L2C RFO       ACCESS:      80648  HIT:      31711  MISS:      48937
L2C PREFETCH  ACCESS:    2830174  HIT:    1831534  MISS:     998640
L2C WRITEBACK ACCESS:     275471  HIT:     274085  MISS:       1386
L2C PREFETCH  REQUESTED:    3062134  ISSUED:    3060208  USEFUL:      26054  USELESS:     972648
L2C AVERAGE MISS LATENCY: 46.1976 cycles
LLC TOTAL     ACCESS:    2348088  HIT:    2207958  MISS:     140130
LLC LOAD      ACCESS:     254988  HIT:     235980  MISS:      19008
LLC RFO       ACCESS:      48928  HIT:      39033  MISS:       9895
LLC PREFETCH  ACCESS:    1879005  HIT:    1768001  MISS:     111004
LLC WRITEBACK ACCESS:     165167  HIT:     164944  MISS:        223
LLC PREFETCH  REQUESTED:          0  ISSUED:          0  USEFUL:       9758  USELESS:     101393
LLC AVERAGE MISS LATENCY: 172.075 cycles
Major fault: 0 Minor fault: 5599
I-Shadow cache 408 bytes
Touched + WorthPF tables 24576 bytes 
MMA filter 174 bytes 
FNL filter 272 bytes 
TOTAL PREFETCHER STORAGE SIZE: 98134 bytes
CPU 0 L1I next line prefetcher final stats
CPU 0 L1D next line prefetcher final stats

DRAM Statistics
 CHANNEL 0
 RQ ROW_BUFFER_HIT:      20730  ROW_BUFFER_MISS:     119168
 DBUS_CONGESTED:      62454
 WQ ROW_BUFFER_HIT:      10935  ROW_BUFFER_MISS:      48593  FULL:          0

 AVG_CONGESTED_CYCLE: 5

CPU 0 Branch Prediction Accuracy: 99.4607% MPKI: 1.00288 Average ROB Occupancy at Mispredict: 123.387

Branch types
NOT_BRANCH: 40701161 81.4023%
BRANCH_DIRECT_JUMP: 469810 0.93962%
BRANCH_INDIRECT: 153732 0.307464%
BRANCH_CONDITIONAL: 6944091 13.8882%
BRANCH_DIRECT_CALL: 679880 1.35976%
BRANCH_INDIRECT_CALL: 168745 0.33749%
BRANCH_RETURN: 882493 1.76499%
BRANCH_OTHER: 0 0%

