Initialize SIGNATURE TABLE
ST_SET: 1
ST_WAY: 256
ST_TAG_BIT: 16
ST_TAG_MASK: ffff

Initialize PATTERN TABLE
PT_SET: 512
PT_WAY: 4
SIG_DELTA_BIT: 7
C_SIG_BIT: 4
C_DELTA_BIT: 4

Initialize PREFETCH FILTER
FILTER_SET: 1024

*** ChampSim Multicore Out-of-Order Simulator ***

Warmup Instructions: 50000000
Simulation Instructions: 50000000
Number of CPUs: 1
LLC sets: 2048
LLC ways: 16
Off-chip DRAM Size: 4096 MB Channels: 1 Width: 64-bit Data Rate: 3200 MT/s

CPU 0 runs /Users/gandhardeshpande/Desktop/CSE240C/HW1/ChampSim/ipc1_public/server_011.champsimtrace.xz
CPU 0 L1I next line prefetcher
CPU 0 L1D next line prefetcher
Heartbeat CPU 0 instructions: 10000002 cycles: 3201598 heartbeat IPC: 3.12344 cumulative IPC: 3.12344 (Simulation time: 0 hr 0 min 14 sec) 
Heartbeat CPU 0 instructions: 20000001 cycles: 6408172 heartbeat IPC: 3.11859 cumulative IPC: 3.12102 (Simulation time: 0 hr 0 min 27 sec) 
Heartbeat CPU 0 instructions: 30000001 cycles: 9659391 heartbeat IPC: 3.07577 cumulative IPC: 3.10579 (Simulation time: 0 hr 0 min 41 sec) 
Heartbeat CPU 0 instructions: 40000003 cycles: 12857581 heartbeat IPC: 3.12677 cumulative IPC: 3.11101 (Simulation time: 0 hr 0 min 54 sec) 
Heartbeat CPU 0 instructions: 50000000 cycles: 16062439 heartbeat IPC: 3.12026 cumulative IPC: 3.11285 (Simulation time: 0 hr 1 min 8 sec) 

Warmup complete CPU 0 instructions: 50000004 cycles: 16062440 (Simulation time: 0 hr 1 min 8 sec) 

Heartbeat CPU 0 instructions: 60000002 cycles: 23514664 heartbeat IPC: 1.34188 cumulative IPC: 1.34188 (Simulation time: 0 hr 1 min 21 sec) 
Heartbeat CPU 0 instructions: 70000001 cycles: 31408376 heartbeat IPC: 1.26683 cumulative IPC: 1.30328 (Simulation time: 0 hr 1 min 33 sec) 
Heartbeat CPU 0 instructions: 80000003 cycles: 40092505 heartbeat IPC: 1.15153 cumulative IPC: 1.24844 (Simulation time: 0 hr 1 min 43 sec) 
Heartbeat CPU 0 instructions: 90000001 cycles: 47666988 heartbeat IPC: 1.32022 cumulative IPC: 1.26564 (Simulation time: 0 hr 1 min 55 sec) 
Heartbeat CPU 0 instructions: 100000000 cycles: 55104498 heartbeat IPC: 1.34454 cumulative IPC: 1.28067 (Simulation time: 0 hr 2 min 7 sec) 
Finished CPU 0 instructions: 50000003 cycles: 39042070 cumulative IPC: 1.28067 (Simulation time: 0 hr 2 min 7 sec) 

ChampSim completed all CPUs

Region of Interest Statistics

CPU 0 cumulative IPC: 1.28067 instructions: 50000003 cycles: 39042070
L1D TOTAL     ACCESS:   18177789  HIT:   17146666  MISS:    1031123
L1D LOAD      ACCESS:    6791558  HIT:    6309710  MISS:     481848
L1D RFO       ACCESS:    4834510  HIT:    4752524  MISS:      81986
L1D PREFETCH  ACCESS:    6551721  HIT:    6084432  MISS:     467289
L1D WRITEBACK ACCESS:          0  HIT:          0  MISS:          0
L1D PREFETCH  REQUESTED:    6828624  ISSUED:    6736228  USEFUL:     137014  USELESS:     330270
L1D AVERAGE MISS LATENCY: 41.2231 cycles
L1I TOTAL     ACCESS:   11843468  HIT:   10067230  MISS:    1776238
L1I LOAD      ACCESS:    8864763  HIT:    8718262  MISS:     146501
L1I RFO       ACCESS:          0  HIT:          0  MISS:          0
L1I PREFETCH  ACCESS:    2978705  HIT:    1348968  MISS:    1629737
L1I WRITEBACK ACCESS:          0  HIT:          0  MISS:          0
L1I PREFETCH  REQUESTED:    3123627  ISSUED:    3123376  USEFUL:    1149173  USELESS:     480511
L1I AVERAGE MISS LATENCY: 31.0375 cycles
L2C TOTAL     ACCESS:    3565302  HIT:    2406857  MISS:    1158445
L2C LOAD      ACCESS:     518195  HIT:     285149  MISS:     233046
L2C RFO       ACCESS:      80172  HIT:      34902  MISS:      45270
L2C PREFETCH  ACCESS:    2698832  HIT:    1819891  MISS:     878941
L2C WRITEBACK ACCESS:     268103  HIT:     266915  MISS:       1188
L2C PREFETCH  REQUESTED:    2997219  ISSUED:    2995116  USEFUL:      27806  USELESS:     851286
L2C AVERAGE MISS LATENCY: 52.585 cycles
LLC TOTAL     ACCESS:    2126775  HIT:    1943605  MISS:     183170
LLC LOAD      ACCESS:     232945  HIT:     205472  MISS:      27473
LLC RFO       ACCESS:      45261  HIT:      31991  MISS:      13270
LLC PREFETCH  ACCESS:    1697033  HIT:    1554985  MISS:     142048
LLC WRITEBACK ACCESS:     151536  HIT:     151157  MISS:        379
LLC PREFETCH  REQUESTED:          0  ISSUED:          0  USEFUL:      14307  USELESS:     125370
LLC AVERAGE MISS LATENCY: 179.063 cycles
Major fault: 0 Minor fault: 6976
I-Shadow cache 408 bytes
Touched + WorthPF tables 24576 bytes 
MMA filter 174 bytes 
FNL filter 272 bytes 
TOTAL PREFETCHER STORAGE SIZE: 98134 bytes
CPU 0 L1I next line prefetcher final stats
CPU 0 L1D next line prefetcher final stats

DRAM Statistics
 CHANNEL 0
 RQ ROW_BUFFER_HIT:      33878  ROW_BUFFER_MISS:     148896
 DBUS_CONGESTED:      84508
 WQ ROW_BUFFER_HIT:      12205  ROW_BUFFER_MISS:      49370  FULL:          0

 AVG_CONGESTED_CYCLE: 5

CPU 0 Branch Prediction Accuracy: 97.5565% MPKI: 4.59006 Average ROB Occupancy at Mispredict: 62.3438

Branch types
NOT_BRANCH: 40607199 81.2144%
BRANCH_DIRECT_JUMP: 451601 0.903202%
BRANCH_INDIRECT: 151580 0.30316%
BRANCH_CONDITIONAL: 7041635 14.0833%
BRANCH_DIRECT_CALL: 647827 1.29565%
BRANCH_INDIRECT_CALL: 211373 0.422746%
BRANCH_RETURN: 888439 1.77688%
BRANCH_OTHER: 0 0%

