Initialize SIGNATURE TABLE
ST_SET: 1
ST_WAY: 256
ST_TAG_BIT: 16
ST_TAG_MASK: ffff

Initialize PATTERN TABLE
PT_SET: 512
PT_WAY: 4
SIG_DELTA_BIT: 7
C_SIG_BIT: 4
C_DELTA_BIT: 4

Initialize PREFETCH FILTER
FILTER_SET: 1024

*** ChampSim Multicore Out-of-Order Simulator ***

Warmup Instructions: 50000000
Simulation Instructions: 50000000
Number of CPUs: 1
LLC sets: 2048
LLC ways: 16
Off-chip DRAM Size: 4096 MB Channels: 1 Width: 64-bit Data Rate: 3200 MT/s

CPU 0 runs /Users/gandhardeshpande/Desktop/CSE240C/HW1/ChampSim/ipc1_public/server_036.champsimtrace.xz
L1I Barca has been initializedCPU 0 L1D next line prefetcher
Heartbeat CPU 0 instructions: 10000000 cycles: 3459083 heartbeat IPC: 2.89094 cumulative IPC: 2.89094 (Simulation time: 0 hr 0 min 16 sec) 
Heartbeat CPU 0 instructions: 20000000 cycles: 6925015 heartbeat IPC: 2.88523 cumulative IPC: 2.88808 (Simulation time: 0 hr 0 min 32 sec) 
Heartbeat CPU 0 instructions: 30000003 cycles: 10433268 heartbeat IPC: 2.85042 cumulative IPC: 2.87542 (Simulation time: 0 hr 0 min 48 sec) 
Heartbeat CPU 0 instructions: 40000000 cycles: 13895825 heartbeat IPC: 2.88804 cumulative IPC: 2.87856 (Simulation time: 0 hr 1 min 4 sec) 
Heartbeat CPU 0 instructions: 50000002 cycles: 17357598 heartbeat IPC: 2.88869 cumulative IPC: 2.88058 (Simulation time: 0 hr 1 min 20 sec) 

Warmup complete CPU 0 instructions: 50000002 cycles: 17357598 (Simulation time: 0 hr 1 min 20 sec) 

Heartbeat CPU 0 instructions: 60000002 cycles: 27627896 heartbeat IPC: 0.973682 cumulative IPC: 0.973682 (Simulation time: 0 hr 1 min 31 sec) 
Heartbeat CPU 0 instructions: 70000001 cycles: 37840000 heartbeat IPC: 0.97923 cumulative IPC: 0.976448 (Simulation time: 0 hr 1 min 42 sec) 
Heartbeat CPU 0 instructions: 80000000 cycles: 48069565 heartbeat IPC: 0.977559 cumulative IPC: 0.976818 (Simulation time: 0 hr 1 min 52 sec) 
Heartbeat CPU 0 instructions: 90000002 cycles: 58293553 heartbeat IPC: 0.978092 cumulative IPC: 0.977136 (Simulation time: 0 hr 2 min 3 sec) 
Heartbeat CPU 0 instructions: 100000001 cycles: 68516799 heartbeat IPC: 0.978163 cumulative IPC: 0.977341 (Simulation time: 0 hr 2 min 13 sec) 
Finished CPU 0 instructions: 50000003 cycles: 51159202 cumulative IPC: 0.977341 (Simulation time: 0 hr 2 min 13 sec) 

ChampSim completed all CPUs

Region of Interest Statistics

CPU 0 cumulative IPC: 0.977341 instructions: 50000003 cycles: 51159202
L1D TOTAL     ACCESS:   24074672  HIT:   24012193  MISS:      62479
L1D LOAD      ACCESS:    8387569  HIT:    8352547  MISS:      35022
L1D RFO       ACCESS:    7429587  HIT:    7422322  MISS:       7265
L1D PREFETCH  ACCESS:    8257516  HIT:    8237324  MISS:      20192
L1D WRITEBACK ACCESS:          0  HIT:          0  MISS:          0
L1D PREFETCH  REQUESTED:    8387875  ISSUED:    8286466  USEFUL:       5454  USELESS:      14739
L1D AVERAGE MISS LATENCY: 17.0225 cycles
L1I TOTAL     ACCESS:    9593170  HIT:    5741722  MISS:    3851448
L1I LOAD      ACCESS:    9043990  HIT:    5667218  MISS:    3376772
L1I RFO       ACCESS:          0  HIT:          0  MISS:          0
L1I PREFETCH  ACCESS:     549180  HIT:      74504  MISS:     474676
L1I WRITEBACK ACCESS:          0  HIT:          0  MISS:          0
L1I PREFETCH  REQUESTED:     764848  ISSUED:     764848  USEFUL:     451055  USELESS:      23621
L1I AVERAGE MISS LATENCY: 13.877 cycles
L2C TOTAL     ACCESS:    7103146  HIT:    7101091  MISS:       2055
L2C LOAD      ACCESS:    3346073  HIT:    3345257  MISS:        816
L2C RFO       ACCESS:       7261  HIT:       7211  MISS:         50
L2C PREFETCH  ACCESS:    3734172  HIT:    3732990  MISS:       1182
L2C WRITEBACK ACCESS:      15640  HIT:      15633  MISS:          7
L2C PREFETCH  REQUESTED:    5496674  ISSUED:    5496674  USEFUL:        123  USELESS:        742
L2C AVERAGE MISS LATENCY: 105.223 cycles
LLC TOTAL     ACCESS:    1250677  HIT:    1248124  MISS:       2553
LLC LOAD      ACCESS:        807  HIT:        319  MISS:        488
LLC RFO       ACCESS:         50  HIT:         21  MISS:         29
LLC PREFETCH  ACCESS:    1248997  HIT:    1246967  MISS:       2030
LLC WRITEBACK ACCESS:        823  HIT:        817  MISS:          6
LLC PREFETCH  REQUESTED:          0  ISSUED:          0  USEFUL:        179  USELESS:        687
LLC AVERAGE MISS LATENCY: 188.694 cycles
Major fault: 0 Minor fault: 1926
CPU 0 L1D next line prefetcher final stats

DRAM Statistics
 CHANNEL 0
 RQ ROW_BUFFER_HIT:        532  ROW_BUFFER_MISS:       2015
 DBUS_CONGESTED:       1363
 WQ ROW_BUFFER_HIT:        332  ROW_BUFFER_MISS:       1227  FULL:          0

 AVG_CONGESTED_CYCLE: 6

CPU 0 Branch Prediction Accuracy: 99.8717% MPKI: 0.21174 Average ROB Occupancy at Mispredict: 150.214

Branch types
NOT_BRANCH: 41748430 83.4969%
BRANCH_DIRECT_JUMP: 468563 0.937126%
BRANCH_INDIRECT: 0 0%
BRANCH_CONDITIONAL: 5599749 11.1995%
BRANCH_DIRECT_CALL: 885105 1.77021%
BRANCH_INDIRECT_CALL: 206338 0.412676%
BRANCH_RETURN: 1091467 2.18293%
BRANCH_OTHER: 0 0%

