Initialize SIGNATURE TABLE
ST_SET: 1
ST_WAY: 256
ST_TAG_BIT: 16
ST_TAG_MASK: ffff

Initialize PATTERN TABLE
PT_SET: 512
PT_WAY: 4
SIG_DELTA_BIT: 7
C_SIG_BIT: 4
C_DELTA_BIT: 4

Initialize PREFETCH FILTER
FILTER_SET: 1024

*** ChampSim Multicore Out-of-Order Simulator ***

Warmup Instructions: 50000000
Simulation Instructions: 50000000
Number of CPUs: 1
LLC sets: 2048
LLC ways: 16
Off-chip DRAM Size: 4096 MB Channels: 1 Width: 64-bit Data Rate: 3200 MT/s

CPU 0 runs /Users/gandhardeshpande/Desktop/CSE240C/HW1/ChampSim/ipc1_public/server_024.champsimtrace.xz
L1I Barca has been initializedCPU 0 L1D next line prefetcher
Heartbeat CPU 0 instructions: 10000000 cycles: 3504135 heartbeat IPC: 2.85377 cumulative IPC: 2.85377 (Simulation time: 0 hr 0 min 16 sec) 
Heartbeat CPU 0 instructions: 20000002 cycles: 7001883 heartbeat IPC: 2.85898 cumulative IPC: 2.85637 (Simulation time: 0 hr 0 min 32 sec) 
Heartbeat CPU 0 instructions: 30000000 cycles: 10510725 heartbeat IPC: 2.84994 cumulative IPC: 2.85423 (Simulation time: 0 hr 0 min 48 sec) 
Heartbeat CPU 0 instructions: 40000000 cycles: 14016534 heartbeat IPC: 2.85241 cumulative IPC: 2.85377 (Simulation time: 0 hr 1 min 4 sec) 
Heartbeat CPU 0 instructions: 50000001 cycles: 17511547 heartbeat IPC: 2.86122 cumulative IPC: 2.85526 (Simulation time: 0 hr 1 min 21 sec) 

Warmup complete CPU 0 instructions: 50000001 cycles: 17511547 (Simulation time: 0 hr 1 min 21 sec) 

Heartbeat CPU 0 instructions: 60000003 cycles: 27834745 heartbeat IPC: 0.968692 cumulative IPC: 0.968692 (Simulation time: 0 hr 1 min 34 sec) 
Heartbeat CPU 0 instructions: 70000003 cycles: 38217504 heartbeat IPC: 0.963135 cumulative IPC: 0.965906 (Simulation time: 0 hr 1 min 47 sec) 
*** Reached end of trace for Core: 0 Repeating trace: /Users/gandhardeshpande/Desktop/CSE240C/HW1/ChampSim/ipc1_public/server_024.champsimtrace.xz
Heartbeat CPU 0 instructions: 80000001 cycles: 48458336 heartbeat IPC: 0.976483 cumulative IPC: 0.969406 (Simulation time: 0 hr 2 min 0 sec) 
Heartbeat CPU 0 instructions: 90000000 cycles: 58864094 heartbeat IPC: 0.961006 cumulative IPC: 0.967292 (Simulation time: 0 hr 2 min 13 sec) 
Heartbeat CPU 0 instructions: 100000002 cycles: 69363739 heartbeat IPC: 0.952413 cumulative IPC: 0.964279 (Simulation time: 0 hr 2 min 26 sec) 
Finished CPU 0 instructions: 50000001 cycles: 51852192 cumulative IPC: 0.964279 (Simulation time: 0 hr 2 min 26 sec) 

ChampSim completed all CPUs

Region of Interest Statistics

CPU 0 cumulative IPC: 0.964279 instructions: 50000001 cycles: 51852192
L1D TOTAL     ACCESS:   22045130  HIT:   20525313  MISS:    1519817
L1D LOAD      ACCESS:    8067668  HIT:    7397216  MISS:     670452
L1D RFO       ACCESS:    6225263  HIT:    5952108  MISS:     273155
L1D PREFETCH  ACCESS:    7752199  HIT:    7175989  MISS:     576210
L1D WRITEBACK ACCESS:          0  HIT:          0  MISS:          0
L1D PREFETCH  REQUESTED:    8121970  ISSUED:    8011900  USEFUL:     147179  USELESS:     429034
L1D AVERAGE MISS LATENCY: 24.8307 cycles
L1I TOTAL     ACCESS:    9237597  HIT:    6729867  MISS:    2507730
L1I LOAD      ACCESS:    9155105  HIT:    6715569  MISS:    2439536
L1I RFO       ACCESS:          0  HIT:          0  MISS:          0
L1I PREFETCH  ACCESS:      82492  HIT:      14298  MISS:      68194
L1I WRITEBACK ACCESS:          0  HIT:          0  MISS:          0
L1I PREFETCH  REQUESTED:     114930  ISSUED:     114930  USEFUL:      56976  USELESS:      11218
L1I AVERAGE MISS LATENCY: 18.6412 cycles
L2C TOTAL     ACCESS:    6565630  HIT:    5847905  MISS:     717725
L2C LOAD      ACCESS:    3021570  HIT:    2533609  MISS:     487961
L2C RFO       ACCESS:     271280  HIT:     182807  MISS:      88473
L2C PREFETCH  ACCESS:    2752388  HIT:    2614771  MISS:     137617
L2C WRITEBACK ACCESS:     520392  HIT:     516718  MISS:       3674
L2C PREFETCH  REQUESTED:    4130685  ISSUED:    4129942  USEFUL:      11255  USELESS:     126480
L2C AVERAGE MISS LATENCY: 40.7495 cycles
LLC TOTAL     ACCESS:    2187379  HIT:    2135746  MISS:      51633
LLC LOAD      ACCESS:     487445  HIT:     480368  MISS:       7077
LLC RFO       ACCESS:      88473  HIT:      66275  MISS:      22198
LLC PREFETCH  ACCESS:    1467399  HIT:    1445367  MISS:      22032
LLC WRITEBACK ACCESS:     144062  HIT:     143736  MISS:        326
LLC PREFETCH  REQUESTED:          0  ISSUED:          0  USEFUL:       2433  USELESS:      20974
LLC AVERAGE MISS LATENCY: 194.032 cycles
Major fault: 0 Minor fault: 2362
CPU 0 L1D next line prefetcher final stats

DRAM Statistics
 CHANNEL 0
 RQ ROW_BUFFER_HIT:      17859  ROW_BUFFER_MISS:      33426
 DBUS_CONGESTED:      36905
 WQ ROW_BUFFER_HIT:       2593  ROW_BUFFER_MISS:      22175  FULL:          0

 AVG_CONGESTED_CYCLE: 6

CPU 0 Branch Prediction Accuracy: 99.7477% MPKI: 0.46156 Average ROB Occupancy at Mispredict: 94.8596

Branch types
NOT_BRANCH: 40853595 81.7072%
BRANCH_DIRECT_JUMP: 566814 1.13363%
BRANCH_INDIRECT: 197171 0.394342%
BRANCH_CONDITIONAL: 6308406 12.6168%
BRANCH_DIRECT_CALL: 876399 1.7528%
BRANCH_INDIRECT_CALL: 160491 0.320982%
BRANCH_RETURN: 1036885 2.07377%
BRANCH_OTHER: 0 0%

