Initialize SIGNATURE TABLE
ST_SET: 1
ST_WAY: 256
ST_TAG_BIT: 16
ST_TAG_MASK: ffff

Initialize PATTERN TABLE
PT_SET: 512
PT_WAY: 4
SIG_DELTA_BIT: 7
C_SIG_BIT: 4
C_DELTA_BIT: 4

Initialize PREFETCH FILTER
FILTER_SET: 1024

*** ChampSim Multicore Out-of-Order Simulator ***

Warmup Instructions: 50000000
Simulation Instructions: 50000000
Number of CPUs: 1
LLC sets: 2048
LLC ways: 16
Off-chip DRAM Size: 4096 MB Channels: 1 Width: 64-bit Data Rate: 3200 MT/s

CPU 0 runs /Users/gandhardeshpande/Desktop/CSE240C/HW1/ChampSim/ipc1_public/spec_gobmk_001.champsimtrace.xz
L1I Barca has been initializedCPU 0 L1D next line prefetcher
Heartbeat CPU 0 instructions: 10000003 cycles: 3507028 heartbeat IPC: 2.85142 cumulative IPC: 2.85142 (Simulation time: 0 hr 0 min 15 sec) 
Heartbeat CPU 0 instructions: 20000002 cycles: 6987353 heartbeat IPC: 2.87329 cumulative IPC: 2.86231 (Simulation time: 0 hr 0 min 29 sec) 
Heartbeat CPU 0 instructions: 30000002 cycles: 10505953 heartbeat IPC: 2.84204 cumulative IPC: 2.85552 (Simulation time: 0 hr 0 min 44 sec) 
Heartbeat CPU 0 instructions: 40000001 cycles: 14024786 heartbeat IPC: 2.84185 cumulative IPC: 2.85209 (Simulation time: 0 hr 0 min 58 sec) 
Heartbeat CPU 0 instructions: 50000001 cycles: 17564814 heartbeat IPC: 2.82484 cumulative IPC: 2.8466 (Simulation time: 0 hr 1 min 13 sec) 

Warmup complete CPU 0 instructions: 50000001 cycles: 17564814 (Simulation time: 0 hr 1 min 13 sec) 

Heartbeat CPU 0 instructions: 60000000 cycles: 26585963 heartbeat IPC: 1.10851 cumulative IPC: 1.10851 (Simulation time: 0 hr 1 min 25 sec) 
Heartbeat CPU 0 instructions: 70000002 cycles: 35291152 heartbeat IPC: 1.14874 cumulative IPC: 1.12826 (Simulation time: 0 hr 1 min 37 sec) 
Heartbeat CPU 0 instructions: 80000003 cycles: 44384342 heartbeat IPC: 1.09972 cumulative IPC: 1.11859 (Simulation time: 0 hr 1 min 49 sec) 
Heartbeat CPU 0 instructions: 90000001 cycles: 53145630 heartbeat IPC: 1.14138 cumulative IPC: 1.1242 (Simulation time: 0 hr 2 min 0 sec) 
Heartbeat CPU 0 instructions: 100000003 cycles: 62225743 heartbeat IPC: 1.10131 cumulative IPC: 1.11955 (Simulation time: 0 hr 2 min 12 sec) 
Finished CPU 0 instructions: 50000002 cycles: 44660929 cumulative IPC: 1.11955 (Simulation time: 0 hr 2 min 12 sec) 

ChampSim completed all CPUs

Region of Interest Statistics

CPU 0 cumulative IPC: 1.11955 instructions: 50000002 cycles: 44660929
L1D TOTAL     ACCESS:   18043730  HIT:   17664050  MISS:     379680
L1D LOAD      ACCESS:    7238918  HIT:    7103122  MISS:     135796
L1D RFO       ACCESS:    3705323  HIT:    3600870  MISS:     104453
L1D PREFETCH  ACCESS:    7099489  HIT:    6960058  MISS:     139431
L1D WRITEBACK ACCESS:          0  HIT:          0  MISS:          0
L1D PREFETCH  REQUESTED:    7243837  ISSUED:    7161048  USEFUL:      44652  USELESS:      94784
L1D AVERAGE MISS LATENCY: 32.6182 cycles
L1I TOTAL     ACCESS:    9303706  HIT:    8827005  MISS:     476701
L1I LOAD      ACCESS:    8935740  HIT:    8716924  MISS:     218816
L1I RFO       ACCESS:          0  HIT:          0  MISS:          0
L1I PREFETCH  ACCESS:     367966  HIT:     110081  MISS:     257885
L1I WRITEBACK ACCESS:          0  HIT:          0  MISS:          0
L1I PREFETCH  REQUESTED:     413018  ISSUED:     413018  USEFUL:     188433  USELESS:      69436
L1I AVERAGE MISS LATENCY: 15.0478 cycles
L2C TOTAL     ACCESS:    1332961  HIT:    1208321  MISS:     124640
L2C LOAD      ACCESS:     316914  HIT:     271389  MISS:      45525
L2C RFO       ACCESS:     104176  HIT:      71093  MISS:      33083
L2C PREFETCH  ACCESS:     772544  HIT:     726522  MISS:      46022
L2C WRITEBACK ACCESS:     139327  HIT:     139317  MISS:         10
L2C PREFETCH  REQUESTED:     594441  ISSUED:     594441  USEFUL:       3527  USELESS:      42710
L2C AVERAGE MISS LATENCY: 62.1159 cycles
LLC TOTAL     ACCESS:     259965  HIT:     226730  MISS:      33235
LLC LOAD      ACCESS:      45519  HIT:      37067  MISS:       8452
LLC RFO       ACCESS:      33083  HIT:      28232  MISS:       4851
LLC PREFETCH  ACCESS:     137707  HIT:     118056  MISS:      19651
LLC WRITEBACK ACCESS:      43656  HIT:      43375  MISS:        281
LLC PREFETCH  REQUESTED:          0  ISSUED:          0  USEFUL:       1521  USELESS:      16635
LLC AVERAGE MISS LATENCY: 179.771 cycles
Major fault: 0 Minor fault: 4156
CPU 0 L1D next line prefetcher final stats

DRAM Statistics
 CHANNEL 0
 RQ ROW_BUFFER_HIT:       3360  ROW_BUFFER_MISS:      29594
 DBUS_CONGESTED:      18832
 WQ ROW_BUFFER_HIT:       1106  ROW_BUFFER_MISS:      13532  FULL:          0

 AVG_CONGESTED_CYCLE: 4

CPU 0 Branch Prediction Accuracy: 94.7729% MPKI: 9.72684 Average ROB Occupancy at Mispredict: 52.5241

Branch types
NOT_BRANCH: 40695383 81.3908%
BRANCH_DIRECT_JUMP: 422107 0.844214%
BRANCH_INDIRECT: 65 0.00013%
BRANCH_CONDITIONAL: 8105005 16.21%
BRANCH_DIRECT_CALL: 374913 0.749826%
BRANCH_INDIRECT_CALL: 13657 0.027314%
BRANCH_RETURN: 388556 0.777112%
BRANCH_OTHER: 0 0%

