
*** ChampSim Multicore Out-of-Order Simulator ***

Warmup Instructions: 10000000
Simulation Instructions: 100000000
Configuration: 2
Number of CPUs: 1
LLC sets: 2048
LLC ways: 16
Off-chip DRAM Channels: 1 Width: 64-bit Data Rate: 1600 MT/s

CPU 0 runs /datasets/cs240c-wi22-a00-public/data/Assignment2-gz/GemsFDTD_716B.trace.gz
CPU 0 L1D next line prefetcher
CPU 0 L2C IP-based stride prefetcher
Initialize SRRIP state
Heartbeat CPU 0 instructions: 1000000 cycles: 415045 heartbeat IPC: 2.40938 cumulative IPC: 2.40938 (Simulation time: 0 hr 0 min 32 sec) 
Heartbeat CPU 0 instructions: 2000003 cycles: 829979 heartbeat IPC: 2.41003 cumulative IPC: 2.4097 (Simulation time: 0 hr 1 min 8 sec) 
Heartbeat CPU 0 instructions: 3000000 cycles: 1280233 heartbeat IPC: 2.22096 cumulative IPC: 2.34332 (Simulation time: 0 hr 1 min 41 sec) 
Heartbeat CPU 0 instructions: 4000000 cycles: 1737265 heartbeat IPC: 2.18803 cumulative IPC: 2.30247 (Simulation time: 0 hr 2 min 13 sec) 
Heartbeat CPU 0 instructions: 5000000 cycles: 2152246 heartbeat IPC: 2.40975 cumulative IPC: 2.32315 (Simulation time: 0 hr 2 min 56 sec) 
Heartbeat CPU 0 instructions: 6000000 cycles: 2567262 heartbeat IPC: 2.40955 cumulative IPC: 2.33712 (Simulation time: 0 hr 3 min 32 sec) 
Heartbeat CPU 0 instructions: 7000000 cycles: 2982265 heartbeat IPC: 2.40962 cumulative IPC: 2.34721 (Simulation time: 0 hr 4 min 11 sec) 
Heartbeat CPU 0 instructions: 8000000 cycles: 3395192 heartbeat IPC: 2.42174 cumulative IPC: 2.35627 (Simulation time: 0 hr 4 min 55 sec) 
Heartbeat CPU 0 instructions: 9000003 cycles: 3840366 heartbeat IPC: 2.24632 cumulative IPC: 2.34353 (Simulation time: 0 hr 5 min 35 sec) 
Heartbeat CPU 0 instructions: 10000002 cycles: 4355014 heartbeat IPC: 1.94307 cumulative IPC: 2.2962 (Simulation time: 0 hr 6 min 26 sec) 

Warmup complete CPU 0 instructions: 10000002 cycles: 4355014 (Simulation time: 0 hr 6 min 26 sec) 

Heartbeat CPU 0 instructions: 11000000 cycles: 7816291 heartbeat IPC: 0.28891 cumulative IPC: 0.28891 (Simulation time: 0 hr 7 min 32 sec) 
Heartbeat CPU 0 instructions: 12000000 cycles: 11279256 heartbeat IPC: 0.28877 cumulative IPC: 0.28884 (Simulation time: 0 hr 8 min 48 sec) 
Heartbeat CPU 0 instructions: 13000000 cycles: 14749951 heartbeat IPC: 0.288127 cumulative IPC: 0.288602 (Simulation time: 0 hr 9 min 54 sec) 
Heartbeat CPU 0 instructions: 14000000 cycles: 18376725 heartbeat IPC: 0.275727 cumulative IPC: 0.285272 (Simulation time: 0 hr 10 min 55 sec) 
Heartbeat CPU 0 instructions: 15000000 cycles: 22128020 heartbeat IPC: 0.266575 cumulative IPC: 0.281325 (Simulation time: 0 hr 11 min 57 sec) 
Heartbeat CPU 0 instructions: 16000000 cycles: 25883384 heartbeat IPC: 0.266286 cumulative IPC: 0.278702 (Simulation time: 0 hr 12 min 57 sec) 
Heartbeat CPU 0 instructions: 17000002 cycles: 29634947 heartbeat IPC: 0.266556 cumulative IPC: 0.276899 (Simulation time: 0 hr 13 min 58 sec) 
Heartbeat CPU 0 instructions: 18000003 cycles: 33374136 heartbeat IPC: 0.267438 cumulative IPC: 0.27568 (Simulation time: 0 hr 14 min 55 sec) 
Heartbeat CPU 0 instructions: 19000000 cycles: 37110743 heartbeat IPC: 0.267622 cumulative IPC: 0.274761 (Simulation time: 0 hr 15 min 54 sec) 
Heartbeat CPU 0 instructions: 20000000 cycles: 39871673 heartbeat IPC: 0.362197 cumulative IPC: 0.281558 (Simulation time: 0 hr 16 min 50 sec) 
Heartbeat CPU 0 instructions: 21000000 cycles: 42239724 heartbeat IPC: 0.422288 cumulative IPC: 0.290355 (Simulation time: 0 hr 17 min 46 sec) 
Heartbeat CPU 0 instructions: 22000000 cycles: 44530854 heartbeat IPC: 0.436466 cumulative IPC: 0.298687 (Simulation time: 0 hr 18 min 47 sec) 
Heartbeat CPU 0 instructions: 23000000 cycles: 46804013 heartbeat IPC: 0.439916 cumulative IPC: 0.30625 (Simulation time: 0 hr 19 min 49 sec) 
Heartbeat CPU 0 instructions: 24000000 cycles: 49106077 heartbeat IPC: 0.434393 cumulative IPC: 0.312842 (Simulation time: 0 hr 20 min 49 sec) 
Heartbeat CPU 0 instructions: 25000002 cycles: 51422936 heartbeat IPC: 0.43162 cumulative IPC: 0.318688 (Simulation time: 0 hr 21 min 51 sec) 
Heartbeat CPU 0 instructions: 26000002 cycles: 53402492 heartbeat IPC: 0.505164 cumulative IPC: 0.326215 (Simulation time: 0 hr 22 min 52 sec) 
Heartbeat CPU 0 instructions: 27000002 cycles: 55368202 heartbeat IPC: 0.508722 cumulative IPC: 0.333247 (Simulation time: 0 hr 23 min 51 sec) 
Heartbeat CPU 0 instructions: 28000000 cycles: 57212168 heartbeat IPC: 0.542308 cumulative IPC: 0.34054 (Simulation time: 0 hr 24 min 51 sec) 
Heartbeat CPU 0 instructions: 29000003 cycles: 59093374 heartbeat IPC: 0.531576 cumulative IPC: 0.347106 (Simulation time: 0 hr 25 min 49 sec) 
Heartbeat CPU 0 instructions: 30000002 cycles: 60994385 heartbeat IPC: 0.526035 cumulative IPC: 0.353111 (Simulation time: 0 hr 26 min 48 sec) 
Heartbeat CPU 0 instructions: 31000002 cycles: 62434069 heartbeat IPC: 0.694597 cumulative IPC: 0.361576 (Simulation time: 0 hr 27 min 43 sec) 
Heartbeat CPU 0 instructions: 32000000 cycles: 63847498 heartbeat IPC: 0.707498 cumulative IPC: 0.369795 (Simulation time: 0 hr 28 min 37 sec) 
Heartbeat CPU 0 instructions: 33000000 cycles: 65262062 heartbeat IPC: 0.706932 cumulative IPC: 0.377625 (Simulation time: 0 hr 29 min 35 sec) 
Heartbeat CPU 0 instructions: 34000001 cycles: 66674794 heartbeat IPC: 0.707849 cumulative IPC: 0.38511 (Simulation time: 0 hr 30 min 29 sec) 
Heartbeat CPU 0 instructions: 35000001 cycles: 68077498 heartbeat IPC: 0.712909 cumulative IPC: 0.392326 (Simulation time: 0 hr 31 min 27 sec) 
Heartbeat CPU 0 instructions: 36000000 cycles: 69554202 heartbeat IPC: 0.677183 cumulative IPC: 0.398778 (Simulation time: 0 hr 32 min 24 sec) 
Heartbeat CPU 0 instructions: 37000002 cycles: 71082761 heartbeat IPC: 0.654212 cumulative IPC: 0.404629 (Simulation time: 0 hr 33 min 19 sec) 
Heartbeat CPU 0 instructions: 38000002 cycles: 72512008 heartbeat IPC: 0.699669 cumulative IPC: 0.410816 (Simulation time: 0 hr 34 min 15 sec) 
Heartbeat CPU 0 instructions: 39000000 cycles: 73956643 heartbeat IPC: 0.692215 cumulative IPC: 0.416657 (Simulation time: 0 hr 35 min 10 sec) 
Heartbeat CPU 0 instructions: 40000000 cycles: 75393166 heartbeat IPC: 0.696125 cumulative IPC: 0.422308 (Simulation time: 0 hr 36 min 5 sec) 
Heartbeat CPU 0 instructions: 41000003 cycles: 76832619 heartbeat IPC: 0.69471 cumulative IPC: 0.427718 (Simulation time: 0 hr 37 min 2 sec) 
Heartbeat CPU 0 instructions: 42000000 cycles: 78259385 heartbeat IPC: 0.700884 cumulative IPC: 0.432992 (Simulation time: 0 hr 37 min 58 sec) 
Heartbeat CPU 0 instructions: 43000002 cycles: 81164976 heartbeat IPC: 0.344165 cumulative IPC: 0.429632 (Simulation time: 0 hr 39 min 1 sec) 
Heartbeat CPU 0 instructions: 44000000 cycles: 84618167 heartbeat IPC: 0.289587 cumulative IPC: 0.423607 (Simulation time: 0 hr 40 min 11 sec) 
Heartbeat CPU 0 instructions: 45000003 cycles: 88063778 heartbeat IPC: 0.290225 cumulative IPC: 0.418116 (Simulation time: 0 hr 41 min 21 sec) 
Heartbeat CPU 0 instructions: 46000000 cycles: 91511875 heartbeat IPC: 0.290014 cumulative IPC: 0.413048 (Simulation time: 0 hr 42 min 31 sec) 
Heartbeat CPU 0 instructions: 47000000 cycles: 94957198 heartbeat IPC: 0.290249 cumulative IPC: 0.408379 (Simulation time: 0 hr 43 min 42 sec) 
Heartbeat CPU 0 instructions: 48000000 cycles: 98602316 heartbeat IPC: 0.27434 cumulative IPC: 0.403195 (Simulation time: 0 hr 44 min 52 sec) 
Heartbeat CPU 0 instructions: 49000000 cycles: 102310747 heartbeat IPC: 0.269656 cumulative IPC: 0.398139 (Simulation time: 0 hr 46 min 7 sec) 
Heartbeat CPU 0 instructions: 50000001 cycles: 106029617 heartbeat IPC: 0.268899 cumulative IPC: 0.393412 (Simulation time: 0 hr 47 min 20 sec) 
Heartbeat CPU 0 instructions: 51000003 cycles: 109749036 heartbeat IPC: 0.26886 cumulative IPC: 0.389016 (Simulation time: 0 hr 48 min 32 sec) 
Heartbeat CPU 0 instructions: 52000000 cycles: 113458969 heartbeat IPC: 0.269546 cumulative IPC: 0.384954 (Simulation time: 0 hr 49 min 46 sec) 
Heartbeat CPU 0 instructions: 53000000 cycles: 117238089 heartbeat IPC: 0.264612 cumulative IPC: 0.380925 (Simulation time: 0 hr 50 min 58 sec) 
Heartbeat CPU 0 instructions: 54000001 cycles: 119113442 heartbeat IPC: 0.533233 cumulative IPC: 0.383414 (Simulation time: 0 hr 51 min 56 sec) 
Heartbeat CPU 0 instructions: 55000002 cycles: 120999257 heartbeat IPC: 0.530275 cumulative IPC: 0.385788 (Simulation time: 0 hr 52 min 54 sec) 
Heartbeat CPU 0 instructions: 56000000 cycles: 122930571 heartbeat IPC: 0.517781 cumulative IPC: 0.387938 (Simulation time: 0 hr 53 min 53 sec) 
Heartbeat CPU 0 instructions: 57000002 cycles: 124847180 heartbeat IPC: 0.521756 cumulative IPC: 0.390067 (Simulation time: 0 hr 54 min 53 sec) 
Heartbeat CPU 0 instructions: 58000001 cycles: 126693597 heartbeat IPC: 0.541589 cumulative IPC: 0.392354 (Simulation time: 0 hr 55 min 48 sec) 
Heartbeat CPU 0 instructions: 59000002 cycles: 128541017 heartbeat IPC: 0.541296 cumulative IPC: 0.394569 (Simulation time: 0 hr 56 min 47 sec) 
Heartbeat CPU 0 instructions: 60000000 cycles: 130159257 heartbeat IPC: 0.617954 cumulative IPC: 0.397443 (Simulation time: 0 hr 57 min 43 sec) 
Heartbeat CPU 0 instructions: 61000002 cycles: 131778841 heartbeat IPC: 0.617444 cumulative IPC: 0.400239 (Simulation time: 0 hr 58 min 36 sec) 
Heartbeat CPU 0 instructions: 62000000 cycles: 133408019 heartbeat IPC: 0.613805 cumulative IPC: 0.402935 (Simulation time: 0 hr 59 min 30 sec) 
Heartbeat CPU 0 instructions: 63000000 cycles: 135049394 heartbeat IPC: 0.609245 cumulative IPC: 0.405526 (Simulation time: 1 hr 0 min 25 sec) 
Heartbeat CPU 0 instructions: 64000000 cycles: 136683336 heartbeat IPC: 0.612017 cumulative IPC: 0.408076 (Simulation time: 1 hr 1 min 19 sec) 
Heartbeat CPU 0 instructions: 65000001 cycles: 138100201 heartbeat IPC: 0.705784 cumulative IPC: 0.41123 (Simulation time: 1 hr 2 min 11 sec) 
Heartbeat CPU 0 instructions: 66000003 cycles: 139516605 heartbeat IPC: 0.706015 cumulative IPC: 0.414319 (Simulation time: 1 hr 2 min 58 sec) 
Heartbeat CPU 0 instructions: 67000003 cycles: 140931633 heartbeat IPC: 0.7067 cumulative IPC: 0.417348 (Simulation time: 1 hr 3 min 44 sec) 
Heartbeat CPU 0 instructions: 68000000 cycles: 142341029 heartbeat IPC: 0.709522 cumulative IPC: 0.420332 (Simulation time: 1 hr 4 min 28 sec) 
Heartbeat CPU 0 instructions: 69000002 cycles: 143753337 heartbeat IPC: 0.708062 cumulative IPC: 0.423248 (Simulation time: 1 hr 5 min 8 sec) 
Heartbeat CPU 0 instructions: 70000000 cycles: 145325581 heartbeat IPC: 0.636032 cumulative IPC: 0.425621 (Simulation time: 1 hr 5 min 47 sec) 
Heartbeat CPU 0 instructions: 71000000 cycles: 146745568 heartbeat IPC: 0.704232 cumulative IPC: 0.428399 (Simulation time: 1 hr 6 min 25 sec) 
Heartbeat CPU 0 instructions: 72000000 cycles: 148167842 heartbeat IPC: 0.703099 cumulative IPC: 0.431116 (Simulation time: 1 hr 7 min 2 sec) 
Heartbeat CPU 0 instructions: 73000002 cycles: 149591070 heartbeat IPC: 0.70263 cumulative IPC: 0.433777 (Simulation time: 1 hr 7 min 37 sec) 
Heartbeat CPU 0 instructions: 74000000 cycles: 151022383 heartbeat IPC: 0.698658 cumulative IPC: 0.436362 (Simulation time: 1 hr 8 min 10 sec) 
Heartbeat CPU 0 instructions: 75000000 cycles: 152451158 heartbeat IPC: 0.6999 cumulative IPC: 0.438904 (Simulation time: 1 hr 8 min 45 sec) 
Heartbeat CPU 0 instructions: 76000000 cycles: 153876711 heartbeat IPC: 0.701482 cumulative IPC: 0.441408 (Simulation time: 1 hr 9 min 19 sec) 
Heartbeat CPU 0 instructions: 77000001 cycles: 157240306 heartbeat IPC: 0.297301 cumulative IPC: 0.438237 (Simulation time: 1 hr 10 min 3 sec) 
Heartbeat CPU 0 instructions: 78000000 cycles: 160740318 heartbeat IPC: 0.285713 cumulative IPC: 0.434823 (Simulation time: 1 hr 10 min 45 sec) 
Heartbeat CPU 0 instructions: 79000002 cycles: 164234922 heartbeat IPC: 0.286156 cumulative IPC: 0.431574 (Simulation time: 1 hr 11 min 22 sec) 
Heartbeat CPU 0 instructions: 80000000 cycles: 167736876 heartbeat IPC: 0.285554 cumulative IPC: 0.428444 (Simulation time: 1 hr 11 min 56 sec) 
Heartbeat CPU 0 instructions: 81000000 cycles: 171234863 heartbeat IPC: 0.285879 cumulative IPC: 0.425456 (Simulation time: 1 hr 12 min 28 sec) 
Heartbeat CPU 0 instructions: 82000002 cycles: 174968837 heartbeat IPC: 0.267812 cumulative IPC: 0.422006 (Simulation time: 1 hr 12 min 55 sec) 
Heartbeat CPU 0 instructions: 83000002 cycles: 178703182 heartbeat IPC: 0.267785 cumulative IPC: 0.418702 (Simulation time: 1 hr 13 min 20 sec) 
Heartbeat CPU 0 instructions: 84000000 cycles: 182450816 heartbeat IPC: 0.266834 cumulative IPC: 0.415507 (Simulation time: 1 hr 13 min 43 sec) 
Heartbeat CPU 0 instructions: 85000000 cycles: 186196010 heartbeat IPC: 0.267009 cumulative IPC: 0.412448 (Simulation time: 1 hr 14 min 6 sec) 
Heartbeat CPU 0 instructions: 86000000 cycles: 189949007 heartbeat IPC: 0.266454 cumulative IPC: 0.409496 (Simulation time: 1 hr 14 min 29 sec) 
Heartbeat CPU 0 instructions: 87000000 cycles: 193338980 heartbeat IPC: 0.294988 cumulative IPC: 0.407442 (Simulation time: 1 hr 14 min 50 sec) 
Heartbeat CPU 0 instructions: 88000000 cycles: 195050732 heartbeat IPC: 0.584197 cumulative IPC: 0.409029 (Simulation time: 1 hr 15 min 6 sec) 
Heartbeat CPU 0 instructions: 89000001 cycles: 196732251 heartbeat IPC: 0.594701 cumulative IPC: 0.410651 (Simulation time: 1 hr 15 min 22 sec) 
Heartbeat CPU 0 instructions: 90000001 cycles: 198421570 heartbeat IPC: 0.591955 cumulative IPC: 0.41223 (Simulation time: 1 hr 15 min 37 sec) 
Heartbeat CPU 0 instructions: 91000001 cycles: 200113876 heartbeat IPC: 0.59091 cumulative IPC: 0.413774 (Simulation time: 1 hr 15 min 50 sec) 
Heartbeat CPU 0 instructions: 92000000 cycles: 201801006 heartbeat IPC: 0.592722 cumulative IPC: 0.415303 (Simulation time: 1 hr 16 min 4 sec) 
Heartbeat CPU 0 instructions: 93000002 cycles: 203480577 heartbeat IPC: 0.595391 cumulative IPC: 0.416822 (Simulation time: 1 hr 16 min 16 sec) 
Heartbeat CPU 0 instructions: 94000001 cycles: 204981326 heartbeat IPC: 0.666333 cumulative IPC: 0.418689 (Simulation time: 1 hr 16 min 27 sec) 
Heartbeat CPU 0 instructions: 95000000 cycles: 206478692 heartbeat IPC: 0.667839 cumulative IPC: 0.420535 (Simulation time: 1 hr 16 min 37 sec) 
Heartbeat CPU 0 instructions: 96000000 cycles: 207974026 heartbeat IPC: 0.668747 cumulative IPC: 0.422357 (Simulation time: 1 hr 16 min 45 sec) 
Heartbeat CPU 0 instructions: 97000001 cycles: 209470076 heartbeat IPC: 0.668428 cumulative IPC: 0.424152 (Simulation time: 1 hr 16 min 53 sec) 
Heartbeat CPU 0 instructions: 98000000 cycles: 211062467 heartbeat IPC: 0.627986 cumulative IPC: 0.425722 (Simulation time: 1 hr 17 min 1 sec) 
Heartbeat CPU 0 instructions: 99000001 cycles: 212499713 heartbeat IPC: 0.695776 cumulative IPC: 0.427587 (Simulation time: 1 hr 17 min 8 sec) 
Heartbeat CPU 0 instructions: 100000000 cycles: 213935125 heartbeat IPC: 0.696663 cumulative IPC: 0.42943 (Simulation time: 1 hr 17 min 15 sec) 
Heartbeat CPU 0 instructions: 101000002 cycles: 215364915 heartbeat IPC: 0.699405 cumulative IPC: 0.431259 (Simulation time: 1 hr 17 min 21 sec) 
Heartbeat CPU 0 instructions: 102000003 cycles: 216797894 heartbeat IPC: 0.697848 cumulative IPC: 0.433058 (Simulation time: 1 hr 17 min 27 sec) 
Heartbeat CPU 0 instructions: 103000001 cycles: 218227131 heartbeat IPC: 0.699673 cumulative IPC: 0.434839 (Simulation time: 1 hr 17 min 34 sec) 
Heartbeat CPU 0 instructions: 104000000 cycles: 219807453 heartbeat IPC: 0.632782 cumulative IPC: 0.436291 (Simulation time: 1 hr 17 min 40 sec) 
Heartbeat CPU 0 instructions: 105000003 cycles: 221253627 heartbeat IPC: 0.691482 cumulative IPC: 0.437993 (Simulation time: 1 hr 17 min 47 sec) 
Heartbeat CPU 0 instructions: 106000001 cycles: 222700660 heartbeat IPC: 0.691068 cumulative IPC: 0.43967 (Simulation time: 1 hr 17 min 53 sec) 
Heartbeat CPU 0 instructions: 107000001 cycles: 224155803 heartbeat IPC: 0.687218 cumulative IPC: 0.441309 (Simulation time: 1 hr 18 min 0 sec) 
Heartbeat CPU 0 instructions: 108000000 cycles: 225599210 heartbeat IPC: 0.692805 cumulative IPC: 0.442949 (Simulation time: 1 hr 18 min 6 sec) 
Heartbeat CPU 0 instructions: 109000000 cycles: 227038007 heartbeat IPC: 0.695025 cumulative IPC: 0.444578 (Simulation time: 1 hr 18 min 13 sec) 
Heartbeat CPU 0 instructions: 110000002 cycles: 228780646 heartbeat IPC: 0.573843 cumulative IPC: 0.445582 (Simulation time: 1 hr 18 min 20 sec) 
Finished CPU 0 instructions: 100000000 cycles: 224425632 cummulative IPC: 0.445582 (Simulation time: 1 hr 18 min 20 sec) 

ChampSim completed all CPUs

Region of Interest Statistics

CPU 0 cummulative IPC: 0.445582 instructions: 100000000 cycles: 224425632
LLC TOTAL     ACCESS:   13009442  HIT:   10685977  MISS:    2323465
LLC LOAD      ACCESS:    5289551  HIT:    4384273  MISS:     905278
LLC RFO       ACCESS:          0  HIT:          0  MISS:          0
LLC PREFETCH  ACCESS:    6806891  HIT:    5392015  MISS:    1414876
LLC WRITEBACK ACCESS:     913000  HIT:     909689  MISS:       3311
Insertion Distribution: 
	LOAD 105956 0 59265 782281 
	RFO 4 0 14499 0 
	PREF 0 572833 123258 789445 
	WRITEBACK 0 0 0 4871 
Total Prefetch Downgrades: 554674
