
*** ChampSim Multicore Out-of-Order Simulator ***

Warmup Instructions: 10000000
Simulation Instructions: 100000000
Configuration: 2
Number of CPUs: 1
LLC sets: 2048
LLC ways: 16
Off-chip DRAM Channels: 1 Width: 64-bit Data Rate: 1600 MT/s

CPU 0 runs /datasets/cs240c-wi22-a00-public/data/Assignment2-gz/libquantum_964B.trace.gz
CPU 0 L1D next line prefetcher
CPU 0 L2C IP-based stride prefetcher
Initialize SRRIP state
Heartbeat CPU 0 instructions: 1000002 cycles: 333341 heartbeat IPC: 2.99994 cumulative IPC: 2.99994 (Simulation time: 0 hr 0 min 19 sec) 
Heartbeat CPU 0 instructions: 2000001 cycles: 666674 heartbeat IPC: 3 cumulative IPC: 2.99997 (Simulation time: 0 hr 0 min 39 sec) 
Heartbeat CPU 0 instructions: 3000000 cycles: 1000007 heartbeat IPC: 3 cumulative IPC: 2.99998 (Simulation time: 0 hr 1 min 0 sec) 
Heartbeat CPU 0 instructions: 4000000 cycles: 1333341 heartbeat IPC: 2.99999 cumulative IPC: 2.99998 (Simulation time: 0 hr 1 min 18 sec) 
Heartbeat CPU 0 instructions: 5000000 cycles: 1666674 heartbeat IPC: 3 cumulative IPC: 2.99999 (Simulation time: 0 hr 1 min 36 sec) 
Heartbeat CPU 0 instructions: 6000002 cycles: 2000008 heartbeat IPC: 3 cumulative IPC: 2.99999 (Simulation time: 0 hr 1 min 54 sec) 
Heartbeat CPU 0 instructions: 7000001 cycles: 2331518 heartbeat IPC: 3.0165 cumulative IPC: 3.00234 (Simulation time: 0 hr 2 min 15 sec) 
Heartbeat CPU 0 instructions: 8000000 cycles: 2662240 heartbeat IPC: 3.02368 cumulative IPC: 3.00499 (Simulation time: 0 hr 2 min 37 sec) 
Heartbeat CPU 0 instructions: 9000001 cycles: 2992962 heartbeat IPC: 3.02369 cumulative IPC: 3.00705 (Simulation time: 0 hr 2 min 58 sec) 
Heartbeat CPU 0 instructions: 10000001 cycles: 3323684 heartbeat IPC: 3.02369 cumulative IPC: 3.00871 (Simulation time: 0 hr 3 min 15 sec) 

Warmup complete CPU 0 instructions: 10000001 cycles: 3323684 (Simulation time: 0 hr 3 min 15 sec) 

Heartbeat CPU 0 instructions: 11000000 cycles: 5047734 heartbeat IPC: 0.580029 cumulative IPC: 0.580029 (Simulation time: 0 hr 3 min 45 sec) 
Heartbeat CPU 0 instructions: 12000000 cycles: 6783785 heartbeat IPC: 0.57602 cumulative IPC: 0.578018 (Simulation time: 0 hr 4 min 17 sec) 
Heartbeat CPU 0 instructions: 13000001 cycles: 8513574 heartbeat IPC: 0.578106 cumulative IPC: 0.578047 (Simulation time: 0 hr 4 min 44 sec) 
Heartbeat CPU 0 instructions: 14000000 cycles: 10250805 heartbeat IPC: 0.575628 cumulative IPC: 0.57744 (Simulation time: 0 hr 5 min 13 sec) 
Heartbeat CPU 0 instructions: 15000003 cycles: 12000027 heartbeat IPC: 0.571684 cumulative IPC: 0.57628 (Simulation time: 0 hr 5 min 44 sec) 
Heartbeat CPU 0 instructions: 16000000 cycles: 13737011 heartbeat IPC: 0.575709 cumulative IPC: 0.576185 (Simulation time: 0 hr 6 min 12 sec) 
Heartbeat CPU 0 instructions: 17000000 cycles: 15487335 heartbeat IPC: 0.571323 cumulative IPC: 0.575485 (Simulation time: 0 hr 6 min 41 sec) 
Heartbeat CPU 0 instructions: 18000003 cycles: 17224696 heartbeat IPC: 0.575587 cumulative IPC: 0.575498 (Simulation time: 0 hr 7 min 14 sec) 
Heartbeat CPU 0 instructions: 19000002 cycles: 18971851 heartbeat IPC: 0.572358 cumulative IPC: 0.575147 (Simulation time: 0 hr 7 min 43 sec) 
Heartbeat CPU 0 instructions: 20000000 cycles: 20545825 heartbeat IPC: 0.635333 cumulative IPC: 0.580648 (Simulation time: 0 hr 8 min 15 sec) 
Heartbeat CPU 0 instructions: 21000003 cycles: 22286372 heartbeat IPC: 0.574534 cumulative IPC: 0.580087 (Simulation time: 0 hr 8 min 47 sec) 
Heartbeat CPU 0 instructions: 22000002 cycles: 24029010 heartbeat IPC: 0.573842 cumulative IPC: 0.579561 (Simulation time: 0 hr 9 min 18 sec) 
Heartbeat CPU 0 instructions: 23000000 cycles: 25769600 heartbeat IPC: 0.574517 cumulative IPC: 0.57917 (Simulation time: 0 hr 9 min 47 sec) 
Heartbeat CPU 0 instructions: 24000000 cycles: 27522903 heartbeat IPC: 0.570352 cumulative IPC: 0.578531 (Simulation time: 0 hr 10 min 15 sec) 
Heartbeat CPU 0 instructions: 25000000 cycles: 29264295 heartbeat IPC: 0.574253 cumulative IPC: 0.578244 (Simulation time: 0 hr 10 min 43 sec) 
Heartbeat CPU 0 instructions: 26000002 cycles: 31149123 heartbeat IPC: 0.530553 cumulative IPC: 0.575013 (Simulation time: 0 hr 11 min 16 sec) 
Heartbeat CPU 0 instructions: 27000002 cycles: 33510728 heartbeat IPC: 0.423441 cumulative IPC: 0.563156 (Simulation time: 0 hr 11 min 55 sec) 
Heartbeat CPU 0 instructions: 28000000 cycles: 35863210 heartbeat IPC: 0.425082 cumulative IPC: 0.553173 (Simulation time: 0 hr 12 min 32 sec) 
Heartbeat CPU 0 instructions: 29000002 cycles: 38223015 heartbeat IPC: 0.423765 cumulative IPC: 0.544423 (Simulation time: 0 hr 13 min 13 sec) 
Heartbeat CPU 0 instructions: 30000002 cycles: 40581527 heartbeat IPC: 0.423996 cumulative IPC: 0.5368 (Simulation time: 0 hr 14 min 0 sec) 
Heartbeat CPU 0 instructions: 31000002 cycles: 42944998 heartbeat IPC: 0.423107 cumulative IPC: 0.530018 (Simulation time: 0 hr 14 min 38 sec) 
Heartbeat CPU 0 instructions: 32000000 cycles: 45298228 heartbeat IPC: 0.424947 cumulative IPC: 0.524127 (Simulation time: 0 hr 15 min 18 sec) 
Heartbeat CPU 0 instructions: 33000002 cycles: 47581925 heartbeat IPC: 0.437887 cumulative IPC: 0.519677 (Simulation time: 0 hr 15 min 56 sec) 
Heartbeat CPU 0 instructions: 34000002 cycles: 49938066 heartbeat IPC: 0.424423 cumulative IPC: 0.514863 (Simulation time: 0 hr 16 min 36 sec) 
Heartbeat CPU 0 instructions: 35000002 cycles: 52298088 heartbeat IPC: 0.423725 cumulative IPC: 0.510471 (Simulation time: 0 hr 17 min 15 sec) 
Heartbeat CPU 0 instructions: 36000000 cycles: 54456697 heartbeat IPC: 0.46326 cumulative IPC: 0.508478 (Simulation time: 0 hr 18 min 2 sec) 
Heartbeat CPU 0 instructions: 37000001 cycles: 55929676 heartbeat IPC: 0.678897 cumulative IPC: 0.51325 (Simulation time: 0 hr 18 min 43 sec) 
Heartbeat CPU 0 instructions: 38000000 cycles: 57466948 heartbeat IPC: 0.650502 cumulative IPC: 0.517146 (Simulation time: 0 hr 19 min 22 sec) 
Heartbeat CPU 0 instructions: 39000003 cycles: 58933114 heartbeat IPC: 0.682053 cumulative IPC: 0.521494 (Simulation time: 0 hr 20 min 0 sec) 
Heartbeat CPU 0 instructions: 40000000 cycles: 60398208 heartbeat IPC: 0.682548 cumulative IPC: 0.525629 (Simulation time: 0 hr 20 min 41 sec) 
Heartbeat CPU 0 instructions: 41000001 cycles: 61864591 heartbeat IPC: 0.681951 cumulative IPC: 0.529544 (Simulation time: 0 hr 21 min 19 sec) 
Heartbeat CPU 0 instructions: 42000000 cycles: 63329263 heartbeat IPC: 0.682746 cumulative IPC: 0.533284 (Simulation time: 0 hr 21 min 57 sec) 
Heartbeat CPU 0 instructions: 43000001 cycles: 64802350 heartbeat IPC: 0.678847 cumulative IPC: 0.536772 (Simulation time: 0 hr 22 min 35 sec) 
Heartbeat CPU 0 instructions: 44000000 cycles: 66268433 heartbeat IPC: 0.682089 cumulative IPC: 0.540156 (Simulation time: 0 hr 23 min 12 sec) 
Heartbeat CPU 0 instructions: 45000002 cycles: 67734540 heartbeat IPC: 0.68208 cumulative IPC: 0.543387 (Simulation time: 0 hr 23 min 50 sec) 
Heartbeat CPU 0 instructions: 46000001 cycles: 69200721 heartbeat IPC: 0.682043 cumulative IPC: 0.546473 (Simulation time: 0 hr 24 min 26 sec) 
Heartbeat CPU 0 instructions: 47000000 cycles: 70666811 heartbeat IPC: 0.682086 cumulative IPC: 0.549425 (Simulation time: 0 hr 25 min 4 sec) 
Heartbeat CPU 0 instructions: 48000000 cycles: 72132975 heartbeat IPC: 0.682052 cumulative IPC: 0.552251 (Simulation time: 0 hr 25 min 43 sec) 
Heartbeat CPU 0 instructions: 49000002 cycles: 73599313 heartbeat IPC: 0.681972 cumulative IPC: 0.554958 (Simulation time: 0 hr 26 min 21 sec) 
Heartbeat CPU 0 instructions: 50000001 cycles: 75070279 heartbeat IPC: 0.679825 cumulative IPC: 0.557518 (Simulation time: 0 hr 26 min 58 sec) 
Heartbeat CPU 0 instructions: 51000000 cycles: 76536369 heartbeat IPC: 0.682086 cumulative IPC: 0.560012 (Simulation time: 0 hr 27 min 36 sec) 
Heartbeat CPU 0 instructions: 52000000 cycles: 78002634 heartbeat IPC: 0.682005 cumulative IPC: 0.562407 (Simulation time: 0 hr 28 min 15 sec) 
Heartbeat CPU 0 instructions: 53000000 cycles: 79468840 heartbeat IPC: 0.682032 cumulative IPC: 0.564711 (Simulation time: 0 hr 28 min 58 sec) 
Heartbeat CPU 0 instructions: 54000002 cycles: 80934926 heartbeat IPC: 0.68209 cumulative IPC: 0.566928 (Simulation time: 0 hr 29 min 36 sec) 
Heartbeat CPU 0 instructions: 55000002 cycles: 82426985 heartbeat IPC: 0.670215 cumulative IPC: 0.568876 (Simulation time: 0 hr 30 min 14 sec) 
Heartbeat CPU 0 instructions: 56000000 cycles: 83830651 heartbeat IPC: 0.712419 cumulative IPC: 0.571379 (Simulation time: 0 hr 30 min 45 sec) 
Heartbeat CPU 0 instructions: 57000001 cycles: 85622790 heartbeat IPC: 0.557993 cumulative IPC: 0.571088 (Simulation time: 0 hr 31 min 21 sec) 
Heartbeat CPU 0 instructions: 58000000 cycles: 87378658 heartbeat IPC: 0.569518 cumulative IPC: 0.571055 (Simulation time: 0 hr 31 min 53 sec) 
Heartbeat CPU 0 instructions: 59000003 cycles: 89130310 heartbeat IPC: 0.570891 cumulative IPC: 0.571051 (Simulation time: 0 hr 32 min 28 sec) 
Heartbeat CPU 0 instructions: 60000000 cycles: 90879799 heartbeat IPC: 0.571594 cumulative IPC: 0.571062 (Simulation time: 0 hr 33 min 2 sec) 
Heartbeat CPU 0 instructions: 61000002 cycles: 92631255 heartbeat IPC: 0.570955 cumulative IPC: 0.57106 (Simulation time: 0 hr 33 min 35 sec) 
Heartbeat CPU 0 instructions: 62000001 cycles: 94379167 heartbeat IPC: 0.572111 cumulative IPC: 0.57108 (Simulation time: 0 hr 34 min 8 sec) 
Heartbeat CPU 0 instructions: 63000001 cycles: 96122695 heartbeat IPC: 0.57355 cumulative IPC: 0.571127 (Simulation time: 0 hr 34 min 40 sec) 
Heartbeat CPU 0 instructions: 64000000 cycles: 97876596 heartbeat IPC: 0.570157 cumulative IPC: 0.571109 (Simulation time: 0 hr 35 min 16 sec) 
Heartbeat CPU 0 instructions: 65000002 cycles: 99625894 heartbeat IPC: 0.571659 cumulative IPC: 0.571119 (Simulation time: 0 hr 35 min 54 sec) 
Heartbeat CPU 0 instructions: 66000002 cycles: 101373602 heartbeat IPC: 0.572178 cumulative IPC: 0.571138 (Simulation time: 0 hr 36 min 28 sec) 
Heartbeat CPU 0 instructions: 67000000 cycles: 103123583 heartbeat IPC: 0.571434 cumulative IPC: 0.571143 (Simulation time: 0 hr 37 min 4 sec) 
Heartbeat CPU 0 instructions: 68000000 cycles: 104875717 heartbeat IPC: 0.570733 cumulative IPC: 0.571136 (Simulation time: 0 hr 37 min 39 sec) 
Heartbeat CPU 0 instructions: 69000000 cycles: 106625089 heartbeat IPC: 0.571634 cumulative IPC: 0.571144 (Simulation time: 0 hr 38 min 17 sec) 
Heartbeat CPU 0 instructions: 70000002 cycles: 108373970 heartbeat IPC: 0.571795 cumulative IPC: 0.571155 (Simulation time: 0 hr 38 min 51 sec) 
Heartbeat CPU 0 instructions: 71000001 cycles: 110124515 heartbeat IPC: 0.57125 cumulative IPC: 0.571157 (Simulation time: 0 hr 39 min 23 sec) 
Heartbeat CPU 0 instructions: 72000000 cycles: 111873929 heartbeat IPC: 0.571619 cumulative IPC: 0.571164 (Simulation time: 0 hr 39 min 59 sec) 
Heartbeat CPU 0 instructions: 73000000 cycles: 113624722 heartbeat IPC: 0.57117 cumulative IPC: 0.571164 (Simulation time: 0 hr 40 min 36 sec) 
Heartbeat CPU 0 instructions: 74000000 cycles: 115455944 heartbeat IPC: 0.546083 cumulative IPC: 0.570755 (Simulation time: 0 hr 41 min 11 sec) 
Heartbeat CPU 0 instructions: 75000000 cycles: 117660351 heartbeat IPC: 0.453637 cumulative IPC: 0.568497 (Simulation time: 0 hr 41 min 56 sec) 
Heartbeat CPU 0 instructions: 76000000 cycles: 120003966 heartbeat IPC: 0.426691 cumulative IPC: 0.565648 (Simulation time: 0 hr 42 min 45 sec) 
Heartbeat CPU 0 instructions: 77000000 cycles: 122372034 heartbeat IPC: 0.422285 cumulative IPC: 0.562797 (Simulation time: 0 hr 43 min 35 sec) 
Heartbeat CPU 0 instructions: 78000000 cycles: 124738210 heartbeat IPC: 0.422623 cumulative IPC: 0.560065 (Simulation time: 0 hr 44 min 20 sec) 
Heartbeat CPU 0 instructions: 79000000 cycles: 127068786 heartbeat IPC: 0.429078 cumulative IPC: 0.557598 (Simulation time: 0 hr 45 min 5 sec) 
Heartbeat CPU 0 instructions: 80000000 cycles: 129416632 heartbeat IPC: 0.425922 cumulative IPC: 0.555146 (Simulation time: 0 hr 45 min 54 sec) 
Heartbeat CPU 0 instructions: 81000000 cycles: 131752198 heartbeat IPC: 0.428162 cumulative IPC: 0.552837 (Simulation time: 0 hr 46 min 38 sec) 
Heartbeat CPU 0 instructions: 82000000 cycles: 134105613 heartbeat IPC: 0.424914 cumulative IPC: 0.550535 (Simulation time: 0 hr 47 min 25 sec) 
Heartbeat CPU 0 instructions: 83000000 cycles: 136452184 heartbeat IPC: 0.426154 cumulative IPC: 0.548342 (Simulation time: 0 hr 48 min 17 sec) 
Heartbeat CPU 0 instructions: 84000000 cycles: 138804309 heartbeat IPC: 0.425147 cumulative IPC: 0.546204 (Simulation time: 0 hr 49 min 4 sec) 
Heartbeat CPU 0 instructions: 85000001 cycles: 140472527 heartbeat IPC: 0.599443 cumulative IPC: 0.546851 (Simulation time: 0 hr 49 min 46 sec) 
Heartbeat CPU 0 instructions: 86000000 cycles: 141986198 heartbeat IPC: 0.660645 cumulative IPC: 0.548093 (Simulation time: 0 hr 50 min 24 sec) 
Heartbeat CPU 0 instructions: 87000003 cycles: 143481935 heartbeat IPC: 0.668569 cumulative IPC: 0.549379 (Simulation time: 0 hr 51 min 4 sec) 
Heartbeat CPU 0 instructions: 88000000 cycles: 144991818 heartbeat IPC: 0.662301 cumulative IPC: 0.550583 (Simulation time: 0 hr 51 min 46 sec) 
Heartbeat CPU 0 instructions: 89000001 cycles: 146501081 heartbeat IPC: 0.662576 cumulative IPC: 0.551763 (Simulation time: 0 hr 52 min 25 sec) 
Heartbeat CPU 0 instructions: 90000000 cycles: 148008428 heartbeat IPC: 0.663417 cumulative IPC: 0.552926 (Simulation time: 0 hr 53 min 2 sec) 
Heartbeat CPU 0 instructions: 91000001 cycles: 149513171 heartbeat IPC: 0.664566 cumulative IPC: 0.554075 (Simulation time: 0 hr 53 min 39 sec) 
Heartbeat CPU 0 instructions: 92000000 cycles: 151020287 heartbeat IPC: 0.663518 cumulative IPC: 0.555192 (Simulation time: 0 hr 54 min 16 sec) 
Heartbeat CPU 0 instructions: 93000002 cycles: 152530441 heartbeat IPC: 0.662185 cumulative IPC: 0.556275 (Simulation time: 0 hr 54 min 55 sec) 
Heartbeat CPU 0 instructions: 94000001 cycles: 154040361 heartbeat IPC: 0.662286 cumulative IPC: 0.557337 (Simulation time: 0 hr 55 min 31 sec) 
Heartbeat CPU 0 instructions: 95000000 cycles: 155550285 heartbeat IPC: 0.662284 cumulative IPC: 0.558378 (Simulation time: 0 hr 56 min 7 sec) 
Heartbeat CPU 0 instructions: 96000000 cycles: 157060279 heartbeat IPC: 0.662254 cumulative IPC: 0.559398 (Simulation time: 0 hr 56 min 42 sec) 
Heartbeat CPU 0 instructions: 97000002 cycles: 158570324 heartbeat IPC: 0.662233 cumulative IPC: 0.560399 (Simulation time: 0 hr 57 min 18 sec) 
Heartbeat CPU 0 instructions: 98000001 cycles: 160078650 heartbeat IPC: 0.662986 cumulative IPC: 0.561386 (Simulation time: 0 hr 57 min 51 sec) 
Heartbeat CPU 0 instructions: 99000000 cycles: 161588644 heartbeat IPC: 0.662254 cumulative IPC: 0.562348 (Simulation time: 0 hr 58 min 23 sec) 
Heartbeat CPU 0 instructions: 100000000 cycles: 163098565 heartbeat IPC: 0.662286 cumulative IPC: 0.563293 (Simulation time: 0 hr 58 min 57 sec) 
Heartbeat CPU 0 instructions: 101000000 cycles: 164608610 heartbeat IPC: 0.662232 cumulative IPC: 0.564219 (Simulation time: 0 hr 59 min 29 sec) 
Heartbeat CPU 0 instructions: 102000002 cycles: 166118533 heartbeat IPC: 0.662287 cumulative IPC: 0.565128 (Simulation time: 1 hr 0 min 2 sec) 
Heartbeat CPU 0 instructions: 103000001 cycles: 167628361 heartbeat IPC: 0.662326 cumulative IPC: 0.566022 (Simulation time: 1 hr 0 min 37 sec) 
Heartbeat CPU 0 instructions: 104000000 cycles: 169454952 heartbeat IPC: 0.547467 cumulative IPC: 0.565818 (Simulation time: 1 hr 1 min 14 sec) 
Heartbeat CPU 0 instructions: 105000000 cycles: 171791427 heartbeat IPC: 0.427995 cumulative IPC: 0.563906 (Simulation time: 1 hr 1 min 54 sec) 
Heartbeat CPU 0 instructions: 106000000 cycles: 174151695 heartbeat IPC: 0.423681 cumulative IPC: 0.561969 (Simulation time: 1 hr 2 min 31 sec) 
Heartbeat CPU 0 instructions: 107000000 cycles: 176508127 heartbeat IPC: 0.42437 cumulative IPC: 0.560097 (Simulation time: 1 hr 3 min 7 sec) 
Heartbeat CPU 0 instructions: 108000000 cycles: 178864693 heartbeat IPC: 0.424346 cumulative IPC: 0.558274 (Simulation time: 1 hr 3 min 43 sec) 
Heartbeat CPU 0 instructions: 109000000 cycles: 181212924 heartbeat IPC: 0.425852 cumulative IPC: 0.556526 (Simulation time: 1 hr 4 min 19 sec) 
Heartbeat CPU 0 instructions: 110000000 cycles: 183545405 heartbeat IPC: 0.428728 cumulative IPC: 0.554872 (Simulation time: 1 hr 4 min 51 sec) 
Finished CPU 0 instructions: 100000003 cycles: 180221722 cummulative IPC: 0.554872 (Simulation time: 1 hr 4 min 51 sec) 

ChampSim completed all CPUs

Region of Interest Statistics

CPU 0 cummulative IPC: 0.554872 instructions: 100000003 cycles: 180221722
LLC TOTAL     ACCESS:    4917133  HIT:     277344  MISS:    4639789
LLC LOAD      ACCESS:    1163822  HIT:      45329  MISS:    1118493
LLC RFO       ACCESS:         24  HIT:         19  MISS:          5
LLC PREFETCH  ACCESS:    2226589  HIT:      99193  MISS:    2127396
LLC WRITEBACK ACCESS:    1526698  HIT:     132803  MISS:    1393895
Insertion Distribution: 
	LOAD 16448 0 56183 1050210 
	RFO 0 0 9 0 
	PREF 0 7811 53896 2338339 
	WRITEBACK 0 0 0 1406599 
Total Prefetch Downgrades: 12307
