
*** ChampSim Multicore Out-of-Order Simulator ***

Warmup Instructions: 10000000
Simulation Instructions: 100000000
Configuration: 2
Number of CPUs: 1
LLC sets: 2048
LLC ways: 16
Off-chip DRAM Channels: 1 Width: 64-bit Data Rate: 1600 MT/s

CPU 0 runs /datasets/cs240c-wi22-a00-public/data/Assignment2-gz/bzip2_183B.trace.gz
CPU 0 L1D next line prefetcher
CPU 0 L2C IP-based stride prefetcher
Initialize SRRIP state
Heartbeat CPU 0 instructions: 1000000 cycles: 447972 heartbeat IPC: 2.23228 cumulative IPC: 2.23228 (Simulation time: 0 hr 0 min 31 sec) 
Heartbeat CPU 0 instructions: 2000001 cycles: 951246 heartbeat IPC: 1.98699 cumulative IPC: 2.10251 (Simulation time: 0 hr 1 min 4 sec) 
Heartbeat CPU 0 instructions: 3000001 cycles: 1457933 heartbeat IPC: 1.97361 cumulative IPC: 2.05771 (Simulation time: 0 hr 1 min 43 sec) 
Heartbeat CPU 0 instructions: 4000000 cycles: 1928626 heartbeat IPC: 2.12452 cumulative IPC: 2.07402 (Simulation time: 0 hr 2 min 18 sec) 
Heartbeat CPU 0 instructions: 5000000 cycles: 2425933 heartbeat IPC: 2.01083 cumulative IPC: 2.06106 (Simulation time: 0 hr 2 min 56 sec) 
Heartbeat CPU 0 instructions: 6000001 cycles: 2887533 heartbeat IPC: 2.16638 cumulative IPC: 2.0779 (Simulation time: 0 hr 3 min 30 sec) 
Heartbeat CPU 0 instructions: 7000002 cycles: 3343396 heartbeat IPC: 2.19364 cumulative IPC: 2.09368 (Simulation time: 0 hr 4 min 3 sec) 
Heartbeat CPU 0 instructions: 8000000 cycles: 3812995 heartbeat IPC: 2.12947 cumulative IPC: 2.09809 (Simulation time: 0 hr 4 min 34 sec) 
Heartbeat CPU 0 instructions: 9000003 cycles: 4278251 heartbeat IPC: 2.14936 cumulative IPC: 2.10366 (Simulation time: 0 hr 5 min 6 sec) 
Heartbeat CPU 0 instructions: 10000000 cycles: 4746596 heartbeat IPC: 2.13517 cumulative IPC: 2.10677 (Simulation time: 0 hr 5 min 39 sec) 

Warmup complete CPU 0 instructions: 10000001 cycles: 4746597 (Simulation time: 0 hr 5 min 39 sec) 

Heartbeat CPU 0 instructions: 11000000 cycles: 6256381 heartbeat IPC: 0.662346 cumulative IPC: 0.662346 (Simulation time: 0 hr 6 min 9 sec) 
Heartbeat CPU 0 instructions: 12000000 cycles: 7714396 heartbeat IPC: 0.685864 cumulative IPC: 0.6739 (Simulation time: 0 hr 6 min 38 sec) 
Heartbeat CPU 0 instructions: 13000000 cycles: 8943245 heartbeat IPC: 0.81377 cumulative IPC: 0.714856 (Simulation time: 0 hr 7 min 10 sec) 
Heartbeat CPU 0 instructions: 14000003 cycles: 9992597 heartbeat IPC: 0.952972 cumulative IPC: 0.762486 (Simulation time: 0 hr 7 min 45 sec) 
Heartbeat CPU 0 instructions: 15000000 cycles: 11385251 heartbeat IPC: 0.718051 cumulative IPC: 0.753165 (Simulation time: 0 hr 8 min 17 sec) 
Heartbeat CPU 0 instructions: 16000000 cycles: 12363099 heartbeat IPC: 1.02265 cumulative IPC: 0.787763 (Simulation time: 0 hr 8 min 45 sec) 
Heartbeat CPU 0 instructions: 17000003 cycles: 13262296 heartbeat IPC: 1.11211 cumulative IPC: 0.822011 (Simulation time: 0 hr 9 min 16 sec) 
Heartbeat CPU 0 instructions: 18000001 cycles: 14182639 heartbeat IPC: 1.08655 cumulative IPC: 0.847813 (Simulation time: 0 hr 9 min 49 sec) 
Heartbeat CPU 0 instructions: 19000002 cycles: 15130497 heartbeat IPC: 1.05501 cumulative IPC: 0.866726 (Simulation time: 0 hr 10 min 21 sec) 
Heartbeat CPU 0 instructions: 20000000 cycles: 16334236 heartbeat IPC: 0.830743 cumulative IPC: 0.862988 (Simulation time: 0 hr 10 min 49 sec) 
Heartbeat CPU 0 instructions: 21000000 cycles: 17833593 heartbeat IPC: 0.666953 cumulative IPC: 0.840529 (Simulation time: 0 hr 11 min 22 sec) 
Heartbeat CPU 0 instructions: 22000000 cycles: 19245744 heartbeat IPC: 0.70814 cumulative IPC: 0.827635 (Simulation time: 0 hr 11 min 53 sec) 
Heartbeat CPU 0 instructions: 23000000 cycles: 20381561 heartbeat IPC: 0.880424 cumulative IPC: 0.83147 (Simulation time: 0 hr 12 min 28 sec) 
Heartbeat CPU 0 instructions: 24000000 cycles: 21639505 heartbeat IPC: 0.794948 cumulative IPC: 0.82875 (Simulation time: 0 hr 12 min 58 sec) 
Heartbeat CPU 0 instructions: 25000001 cycles: 22981989 heartbeat IPC: 0.744889 cumulative IPC: 0.822576 (Simulation time: 0 hr 13 min 27 sec) 
Heartbeat CPU 0 instructions: 26000002 cycles: 23960901 heartbeat IPC: 1.02154 cumulative IPC: 0.832713 (Simulation time: 0 hr 13 min 56 sec) 
Heartbeat CPU 0 instructions: 27000000 cycles: 24963551 heartbeat IPC: 0.997355 cumulative IPC: 0.840878 (Simulation time: 0 hr 14 min 26 sec) 
Heartbeat CPU 0 instructions: 28000000 cycles: 26243252 heartbeat IPC: 0.781433 cumulative IPC: 0.83734 (Simulation time: 0 hr 15 min 1 sec) 
Heartbeat CPU 0 instructions: 29000003 cycles: 27314475 heartbeat IPC: 0.933515 cumulative IPC: 0.841905 (Simulation time: 0 hr 15 min 34 sec) 
Heartbeat CPU 0 instructions: 30000000 cycles: 28633991 heartbeat IPC: 0.757851 cumulative IPC: 0.837262 (Simulation time: 0 hr 16 min 2 sec) 
Heartbeat CPU 0 instructions: 31000000 cycles: 29933225 heartbeat IPC: 0.769684 cumulative IPC: 0.833776 (Simulation time: 0 hr 16 min 33 sec) 
Heartbeat CPU 0 instructions: 32000000 cycles: 31551153 heartbeat IPC: 0.618074 cumulative IPC: 0.820756 (Simulation time: 0 hr 17 min 3 sec) 
Heartbeat CPU 0 instructions: 33000000 cycles: 32614788 heartbeat IPC: 0.940172 cumulative IPC: 0.825314 (Simulation time: 0 hr 17 min 36 sec) 
Heartbeat CPU 0 instructions: 34000001 cycles: 33622133 heartbeat IPC: 0.99271 cumulative IPC: 0.831153 (Simulation time: 0 hr 18 min 10 sec) 
Heartbeat CPU 0 instructions: 35000003 cycles: 34638845 heartbeat IPC: 0.983565 cumulative IPC: 0.836337 (Simulation time: 0 hr 18 min 42 sec) 
Heartbeat CPU 0 instructions: 36000000 cycles: 35647717 heartbeat IPC: 0.991203 cumulative IPC: 0.841393 (Simulation time: 0 hr 19 min 16 sec) 
Heartbeat CPU 0 instructions: 37000003 cycles: 36891368 heartbeat IPC: 0.804087 cumulative IPC: 0.83995 (Simulation time: 0 hr 19 min 50 sec) 
Heartbeat CPU 0 instructions: 38000001 cycles: 38409963 heartbeat IPC: 0.658502 cumulative IPC: 0.831765 (Simulation time: 0 hr 20 min 25 sec) 
Heartbeat CPU 0 instructions: 39000002 cycles: 39527719 heartbeat IPC: 0.894651 cumulative IPC: 0.833786 (Simulation time: 0 hr 20 min 58 sec) 
Heartbeat CPU 0 instructions: 40000000 cycles: 40562743 heartbeat IPC: 0.966159 cumulative IPC: 0.837611 (Simulation time: 0 hr 21 min 34 sec) 
Heartbeat CPU 0 instructions: 41000002 cycles: 42033135 heartbeat IPC: 0.680092 cumulative IPC: 0.831399 (Simulation time: 0 hr 22 min 10 sec) 
Heartbeat CPU 0 instructions: 42000000 cycles: 43316645 heartbeat IPC: 0.779112 cumulative IPC: 0.829659 (Simulation time: 0 hr 22 min 41 sec) 
Heartbeat CPU 0 instructions: 43000001 cycles: 44462764 heartbeat IPC: 0.872511 cumulative IPC: 0.830896 (Simulation time: 0 hr 23 min 17 sec) 
Heartbeat CPU 0 instructions: 44000000 cycles: 45612339 heartbeat IPC: 0.869886 cumulative IPC: 0.831993 (Simulation time: 0 hr 23 min 51 sec) 
Heartbeat CPU 0 instructions: 45000000 cycles: 46679131 heartbeat IPC: 0.93739 cumulative IPC: 0.834674 (Simulation time: 0 hr 24 min 28 sec) 
Heartbeat CPU 0 instructions: 46000000 cycles: 47795409 heartbeat IPC: 0.895834 cumulative IPC: 0.83626 (Simulation time: 0 hr 25 min 4 sec) 
Heartbeat CPU 0 instructions: 47000003 cycles: 48799249 heartbeat IPC: 0.996178 cumulative IPC: 0.839904 (Simulation time: 0 hr 25 min 38 sec) 
Heartbeat CPU 0 instructions: 48000000 cycles: 50371818 heartbeat IPC: 0.6359 cumulative IPC: 0.832873 (Simulation time: 0 hr 26 min 12 sec) 
Heartbeat CPU 0 instructions: 49000003 cycles: 51973955 heartbeat IPC: 0.624168 cumulative IPC: 0.825793 (Simulation time: 0 hr 26 min 46 sec) 
Heartbeat CPU 0 instructions: 50000000 cycles: 53101502 heartbeat IPC: 0.886878 cumulative IPC: 0.827217 (Simulation time: 0 hr 27 min 23 sec) 
Heartbeat CPU 0 instructions: 51000000 cycles: 54130684 heartbeat IPC: 0.971645 cumulative IPC: 0.830227 (Simulation time: 0 hr 27 min 56 sec) 
Heartbeat CPU 0 instructions: 52000000 cycles: 55148232 heartbeat IPC: 0.982755 cumulative IPC: 0.833306 (Simulation time: 0 hr 28 min 30 sec) 
Heartbeat CPU 0 instructions: 53000001 cycles: 56119011 heartbeat IPC: 1.0301 cumulative IPC: 0.837025 (Simulation time: 0 hr 29 min 7 sec) 
Heartbeat CPU 0 instructions: 54000001 cycles: 57128915 heartbeat IPC: 0.990193 cumulative IPC: 0.839978 (Simulation time: 0 hr 29 min 40 sec) 
Heartbeat CPU 0 instructions: 55000001 cycles: 58353802 heartbeat IPC: 0.816402 cumulative IPC: 0.839439 (Simulation time: 0 hr 30 min 15 sec) 
Heartbeat CPU 0 instructions: 56000000 cycles: 59544194 heartbeat IPC: 0.840059 cumulative IPC: 0.839453 (Simulation time: 0 hr 30 min 52 sec) 
Heartbeat CPU 0 instructions: 57000003 cycles: 60927887 heartbeat IPC: 0.722706 cumulative IPC: 0.836577 (Simulation time: 0 hr 31 min 25 sec) 
Heartbeat CPU 0 instructions: 58000001 cycles: 62507736 heartbeat IPC: 0.632971 cumulative IPC: 0.831009 (Simulation time: 0 hr 31 min 57 sec) 
Heartbeat CPU 0 instructions: 59000003 cycles: 63818789 heartbeat IPC: 0.762747 cumulative IPC: 0.829494 (Simulation time: 0 hr 32 min 32 sec) 
Heartbeat CPU 0 instructions: 60000000 cycles: 65399752 heartbeat IPC: 0.632524 cumulative IPC: 0.824359 (Simulation time: 0 hr 33 min 5 sec) 
Heartbeat CPU 0 instructions: 61000003 cycles: 67121671 heartbeat IPC: 0.580749 cumulative IPC: 0.817634 (Simulation time: 0 hr 33 min 39 sec) 
Heartbeat CPU 0 instructions: 62000002 cycles: 68667054 heartbeat IPC: 0.647088 cumulative IPC: 0.813511 (Simulation time: 0 hr 34 min 14 sec) 
Heartbeat CPU 0 instructions: 63000003 cycles: 70052800 heartbeat IPC: 0.721634 cumulative IPC: 0.811562 (Simulation time: 0 hr 34 min 51 sec) 
Heartbeat CPU 0 instructions: 64000000 cycles: 71624613 heartbeat IPC: 0.636206 cumulative IPC: 0.80744 (Simulation time: 0 hr 35 min 23 sec) 
Heartbeat CPU 0 instructions: 65000003 cycles: 72883125 heartbeat IPC: 0.794592 cumulative IPC: 0.807203 (Simulation time: 0 hr 35 min 56 sec) 
Heartbeat CPU 0 instructions: 66000000 cycles: 74209751 heartbeat IPC: 0.75379 cumulative IPC: 0.806183 (Simulation time: 0 hr 36 min 31 sec) 
Heartbeat CPU 0 instructions: 67000000 cycles: 75153091 heartbeat IPC: 1.06006 cumulative IPC: 0.809584 (Simulation time: 0 hr 37 min 6 sec) 
Heartbeat CPU 0 instructions: 68000000 cycles: 76556674 heartbeat IPC: 0.712462 cumulative IPC: 0.807686 (Simulation time: 0 hr 37 min 39 sec) 
Heartbeat CPU 0 instructions: 69000000 cycles: 78130734 heartbeat IPC: 0.6353 cumulative IPC: 0.803988 (Simulation time: 0 hr 38 min 12 sec) 
Heartbeat CPU 0 instructions: 70000002 cycles: 79600224 heartbeat IPC: 0.68051 cumulative IPC: 0.801564 (Simulation time: 0 hr 38 min 46 sec) 
Heartbeat CPU 0 instructions: 71000000 cycles: 81166087 heartbeat IPC: 0.638624 cumulative IPC: 0.798226 (Simulation time: 0 hr 39 min 19 sec) 
Heartbeat CPU 0 instructions: 72000000 cycles: 82537696 heartbeat IPC: 0.729071 cumulative IPC: 0.797006 (Simulation time: 0 hr 39 min 53 sec) 
Heartbeat CPU 0 instructions: 73000001 cycles: 83825519 heartbeat IPC: 0.776505 cumulative IPC: 0.796672 (Simulation time: 0 hr 40 min 25 sec) 
Heartbeat CPU 0 instructions: 74000000 cycles: 84978360 heartbeat IPC: 0.867421 cumulative IPC: 0.797689 (Simulation time: 0 hr 41 min 2 sec) 
Heartbeat CPU 0 instructions: 75000001 cycles: 86394031 heartbeat IPC: 0.70638 cumulative IPC: 0.796106 (Simulation time: 0 hr 41 min 34 sec) 
Heartbeat CPU 0 instructions: 76000000 cycles: 87533268 heartbeat IPC: 0.87778 cumulative IPC: 0.79723 (Simulation time: 0 hr 42 min 8 sec) 
Heartbeat CPU 0 instructions: 77000003 cycles: 88708256 heartbeat IPC: 0.851075 cumulative IPC: 0.797983 (Simulation time: 0 hr 42 min 41 sec) 
Heartbeat CPU 0 instructions: 78000000 cycles: 90039939 heartbeat IPC: 0.750927 cumulative IPC: 0.797249 (Simulation time: 0 hr 43 min 14 sec) 
Heartbeat CPU 0 instructions: 79000000 cycles: 91382637 heartbeat IPC: 0.744769 cumulative IPC: 0.796435 (Simulation time: 0 hr 43 min 50 sec) 
Heartbeat CPU 0 instructions: 80000000 cycles: 92771838 heartbeat IPC: 0.719838 cumulative IPC: 0.795226 (Simulation time: 0 hr 44 min 22 sec) 
Heartbeat CPU 0 instructions: 81000000 cycles: 94461932 heartbeat IPC: 0.591683 cumulative IPC: 0.791392 (Simulation time: 0 hr 44 min 53 sec) 
Heartbeat CPU 0 instructions: 82000002 cycles: 96007674 heartbeat IPC: 0.64694 cumulative IPC: 0.788945 (Simulation time: 0 hr 45 min 27 sec) 
Heartbeat CPU 0 instructions: 83000000 cycles: 97167851 heartbeat IPC: 0.861936 cumulative IPC: 0.789862 (Simulation time: 0 hr 46 min 5 sec) 
Heartbeat CPU 0 instructions: 84000000 cycles: 98122583 heartbeat IPC: 1.04741 cumulative IPC: 0.792495 (Simulation time: 0 hr 46 min 38 sec) 
Heartbeat CPU 0 instructions: 85000002 cycles: 99169784 heartbeat IPC: 0.954928 cumulative IPC: 0.794296 (Simulation time: 0 hr 47 min 13 sec) 
Heartbeat CPU 0 instructions: 86000002 cycles: 100145380 heartbeat IPC: 1.02501 cumulative IPC: 0.796656 (Simulation time: 0 hr 47 min 46 sec) 
Heartbeat CPU 0 instructions: 87000001 cycles: 101146526 heartbeat IPC: 0.998854 cumulative IPC: 0.798756 (Simulation time: 0 hr 48 min 22 sec) 
Heartbeat CPU 0 instructions: 88000000 cycles: 102439405 heartbeat IPC: 0.773467 cumulative IPC: 0.798421 (Simulation time: 0 hr 48 min 56 sec) 
Heartbeat CPU 0 instructions: 89000000 cycles: 103941633 heartbeat IPC: 0.665678 cumulative IPC: 0.796411 (Simulation time: 0 hr 49 min 34 sec) 
Heartbeat CPU 0 instructions: 90000002 cycles: 105429984 heartbeat IPC: 0.671886 cumulative IPC: 0.79457 (Simulation time: 0 hr 50 min 12 sec) 
Heartbeat CPU 0 instructions: 91000000 cycles: 107127532 heartbeat IPC: 0.589084 cumulative IPC: 0.791163 (Simulation time: 0 hr 50 min 47 sec) 
Heartbeat CPU 0 instructions: 92000000 cycles: 108621056 heartbeat IPC: 0.669557 cumulative IPC: 0.789414 (Simulation time: 0 hr 51 min 21 sec) 
Heartbeat CPU 0 instructions: 93000001 cycles: 109882576 heartbeat IPC: 0.792695 cumulative IPC: 0.789454 (Simulation time: 0 hr 52 min 1 sec) 
Heartbeat CPU 0 instructions: 94000000 cycles: 111624647 heartbeat IPC: 0.574029 cumulative IPC: 0.785942 (Simulation time: 0 hr 52 min 34 sec) 
Heartbeat CPU 0 instructions: 95000002 cycles: 113233334 heartbeat IPC: 0.621626 cumulative IPC: 0.783506 (Simulation time: 0 hr 53 min 7 sec) 
Heartbeat CPU 0 instructions: 96000000 cycles: 114838026 heartbeat IPC: 0.623171 cumulative IPC: 0.781169 (Simulation time: 0 hr 53 min 39 sec) 
Heartbeat CPU 0 instructions: 97000000 cycles: 116238606 heartbeat IPC: 0.71399 cumulative IPC: 0.780325 (Simulation time: 0 hr 54 min 13 sec) 
Heartbeat CPU 0 instructions: 98000000 cycles: 117520441 heartbeat IPC: 0.780132 cumulative IPC: 0.780323 (Simulation time: 0 hr 54 min 47 sec) 
Heartbeat CPU 0 instructions: 99000003 cycles: 118648039 heartbeat IPC: 0.886844 cumulative IPC: 0.781377 (Simulation time: 0 hr 55 min 23 sec) 
Heartbeat CPU 0 instructions: 100000000 cycles: 120125418 heartbeat IPC: 0.676872 cumulative IPC: 0.780039 (Simulation time: 0 hr 55 min 54 sec) 
Heartbeat CPU 0 instructions: 101000000 cycles: 121635146 heartbeat IPC: 0.662371 cumulative IPC: 0.778519 (Simulation time: 0 hr 56 min 26 sec) 
Heartbeat CPU 0 instructions: 102000001 cycles: 123329289 heartbeat IPC: 0.59027 cumulative IPC: 0.77583 (Simulation time: 0 hr 56 min 58 sec) 
Heartbeat CPU 0 instructions: 103000002 cycles: 124644402 heartbeat IPC: 0.760392 cumulative IPC: 0.775661 (Simulation time: 0 hr 57 min 35 sec) 
Heartbeat CPU 0 instructions: 104000000 cycles: 126349569 heartbeat IPC: 0.586452 cumulative IPC: 0.773007 (Simulation time: 0 hr 58 min 5 sec) 
Heartbeat CPU 0 instructions: 105000002 cycles: 127332033 heartbeat IPC: 1.01785 cumulative IPC: 0.77497 (Simulation time: 0 hr 58 min 37 sec) 
Heartbeat CPU 0 instructions: 106000000 cycles: 128869027 heartbeat IPC: 0.650619 cumulative IPC: 0.77343 (Simulation time: 0 hr 59 min 9 sec) 
Heartbeat CPU 0 instructions: 107000002 cycles: 130430757 heartbeat IPC: 0.640317 cumulative IPC: 0.771776 (Simulation time: 0 hr 59 min 40 sec) 
Heartbeat CPU 0 instructions: 108000000 cycles: 131750154 heartbeat IPC: 0.757921 cumulative IPC: 0.771632 (Simulation time: 1 hr 0 min 16 sec) 
Heartbeat CPU 0 instructions: 109000002 cycles: 133452118 heartbeat IPC: 0.587558 cumulative IPC: 0.769198 (Simulation time: 1 hr 0 min 48 sec) 
Heartbeat CPU 0 instructions: 110000000 cycles: 134688509 heartbeat IPC: 0.808804 cumulative IPC: 0.769575 (Simulation time: 1 hr 1 min 20 sec) 
Finished CPU 0 instructions: 100000003 cycles: 129941913 cummulative IPC: 0.769575 (Simulation time: 1 hr 1 min 20 sec) 

ChampSim completed all CPUs

Region of Interest Statistics

CPU 0 cummulative IPC: 0.769575 instructions: 100000003 cycles: 129941913
LLC TOTAL     ACCESS:    1571593  HIT:    1429436  MISS:     142157
LLC LOAD      ACCESS:     429763  HIT:     406401  MISS:      23362
LLC RFO       ACCESS:     294162  HIT:     232603  MISS:      61559
LLC PREFETCH  ACCESS:     521699  HIT:     470343  MISS:      51356
LLC WRITEBACK ACCESS:     325969  HIT:     320089  MISS:       5880
Insertion Distribution: 
	LOAD 21778 0 11108 383 
	RFO 40647 0 21916 11693 
	PREF 0 12499 35350 17338 
	WRITEBACK 0 0 0 6682 
Total Prefetch Downgrades: 20791
