
*** ChampSim Multicore Out-of-Order Simulator ***

Warmup Instructions: 10000000
Simulation Instructions: 100000000
Configuration: 2
Number of CPUs: 1
LLC sets: 2048
LLC ways: 16
Off-chip DRAM Channels: 1 Width: 64-bit Data Rate: 1600 MT/s

CPU 0 runs /datasets/cs240c-wi22-a00-public/data/Assignment2-gz/astar_313B.trace.gz
CPU 0 L1D next line prefetcher
CPU 0 L2C IP-based stride prefetcher
Initialize SRRIP state
Heartbeat CPU 0 instructions: 1000001 cycles: 675679 heartbeat IPC: 1.47999 cumulative IPC: 1.47999 (Simulation time: 0 hr 0 min 48 sec) 
Heartbeat CPU 0 instructions: 2000003 cycles: 1263014 heartbeat IPC: 1.70261 cumulative IPC: 1.58352 (Simulation time: 0 hr 1 min 29 sec) 
Heartbeat CPU 0 instructions: 3000003 cycles: 1937326 heartbeat IPC: 1.48299 cumulative IPC: 1.54853 (Simulation time: 0 hr 2 min 18 sec) 
Heartbeat CPU 0 instructions: 4000000 cycles: 2611090 heartbeat IPC: 1.48419 cumulative IPC: 1.53193 (Simulation time: 0 hr 3 min 2 sec) 
Heartbeat CPU 0 instructions: 5000002 cycles: 3285739 heartbeat IPC: 1.48226 cumulative IPC: 1.52173 (Simulation time: 0 hr 3 min 42 sec) 
Heartbeat CPU 0 instructions: 6000001 cycles: 3871812 heartbeat IPC: 1.70627 cumulative IPC: 1.54966 (Simulation time: 0 hr 4 min 23 sec) 
Heartbeat CPU 0 instructions: 7000001 cycles: 4440226 heartbeat IPC: 1.75928 cumulative IPC: 1.5765 (Simulation time: 0 hr 5 min 3 sec) 
Heartbeat CPU 0 instructions: 8000000 cycles: 4991922 heartbeat IPC: 1.81259 cumulative IPC: 1.60259 (Simulation time: 0 hr 5 min 47 sec) 
Heartbeat CPU 0 instructions: 9000001 cycles: 5553307 heartbeat IPC: 1.78131 cumulative IPC: 1.62066 (Simulation time: 0 hr 6 min 31 sec) 
Heartbeat CPU 0 instructions: 10000002 cycles: 6228544 heartbeat IPC: 1.48096 cumulative IPC: 1.60551 (Simulation time: 0 hr 7 min 14 sec) 

Warmup complete CPU 0 instructions: 10000002 cycles: 6228544 (Simulation time: 0 hr 7 min 14 sec) 

Heartbeat CPU 0 instructions: 11000000 cycles: 13313982 heartbeat IPC: 0.141134 cumulative IPC: 0.141134 (Simulation time: 0 hr 8 min 3 sec) 
Heartbeat CPU 0 instructions: 12000000 cycles: 20863382 heartbeat IPC: 0.132461 cumulative IPC: 0.13666 (Simulation time: 0 hr 8 min 47 sec) 
Heartbeat CPU 0 instructions: 13000003 cycles: 29536151 heartbeat IPC: 0.115304 cumulative IPC: 0.128713 (Simulation time: 0 hr 9 min 35 sec) 
Heartbeat CPU 0 instructions: 14000002 cycles: 36038057 heartbeat IPC: 0.153801 cumulative IPC: 0.134185 (Simulation time: 0 hr 10 min 20 sec) 
Heartbeat CPU 0 instructions: 15000000 cycles: 42946470 heartbeat IPC: 0.144751 cumulative IPC: 0.136173 (Simulation time: 0 hr 11 min 5 sec) 
Heartbeat CPU 0 instructions: 16000000 cycles: 49640255 heartbeat IPC: 0.149392 cumulative IPC: 0.138212 (Simulation time: 0 hr 11 min 50 sec) 
Heartbeat CPU 0 instructions: 17000001 cycles: 56237280 heartbeat IPC: 0.151584 cumulative IPC: 0.139976 (Simulation time: 0 hr 12 min 36 sec) 
Heartbeat CPU 0 instructions: 18000000 cycles: 65516271 heartbeat IPC: 0.10777 cumulative IPC: 0.134935 (Simulation time: 0 hr 13 min 36 sec) 
Heartbeat CPU 0 instructions: 19000000 cycles: 71817239 heartbeat IPC: 0.158706 cumulative IPC: 0.137219 (Simulation time: 0 hr 14 min 19 sec) 
Heartbeat CPU 0 instructions: 20000000 cycles: 78606035 heartbeat IPC: 0.147302 cumulative IPC: 0.138164 (Simulation time: 0 hr 15 min 1 sec) 
Heartbeat CPU 0 instructions: 21000003 cycles: 87714280 heartbeat IPC: 0.109791 cumulative IPC: 0.134993 (Simulation time: 0 hr 15 min 47 sec) 
Heartbeat CPU 0 instructions: 22000002 cycles: 94650645 heartbeat IPC: 0.144168 cumulative IPC: 0.135713 (Simulation time: 0 hr 16 min 31 sec) 
Heartbeat CPU 0 instructions: 23000002 cycles: 100776976 heartbeat IPC: 0.16323 cumulative IPC: 0.137496 (Simulation time: 0 hr 17 min 16 sec) 
Heartbeat CPU 0 instructions: 24000000 cycles: 107719470 heartbeat IPC: 0.14404 cumulative IPC: 0.137943 (Simulation time: 0 hr 18 min 7 sec) 
Heartbeat CPU 0 instructions: 25000001 cycles: 116177841 heartbeat IPC: 0.118226 cumulative IPC: 0.136427 (Simulation time: 0 hr 19 min 3 sec) 
Heartbeat CPU 0 instructions: 26000002 cycles: 123100051 heartbeat IPC: 0.144463 cumulative IPC: 0.136902 (Simulation time: 0 hr 19 min 53 sec) 
Heartbeat CPU 0 instructions: 27000003 cycles: 132692227 heartbeat IPC: 0.104252 cumulative IPC: 0.134426 (Simulation time: 0 hr 20 min 52 sec) 
Heartbeat CPU 0 instructions: 28000000 cycles: 138958668 heartbeat IPC: 0.15958 cumulative IPC: 0.135614 (Simulation time: 0 hr 21 min 37 sec) 
Heartbeat CPU 0 instructions: 29000001 cycles: 147664677 heartbeat IPC: 0.114863 cumulative IPC: 0.134336 (Simulation time: 0 hr 22 min 36 sec) 
Heartbeat CPU 0 instructions: 30000001 cycles: 153527165 heartbeat IPC: 0.170576 cumulative IPC: 0.135779 (Simulation time: 0 hr 23 min 25 sec) 
Heartbeat CPU 0 instructions: 31000002 cycles: 159903465 heartbeat IPC: 0.156831 cumulative IPC: 0.136652 (Simulation time: 0 hr 24 min 14 sec) 
Heartbeat CPU 0 instructions: 32000000 cycles: 166207964 heartbeat IPC: 0.158617 cumulative IPC: 0.137518 (Simulation time: 0 hr 25 min 3 sec) 
Heartbeat CPU 0 instructions: 33000000 cycles: 172367363 heartbeat IPC: 0.162354 cumulative IPC: 0.138438 (Simulation time: 0 hr 25 min 53 sec) 
Heartbeat CPU 0 instructions: 34000000 cycles: 181287469 heartbeat IPC: 0.112106 cumulative IPC: 0.137097 (Simulation time: 0 hr 26 min 51 sec) 
Heartbeat CPU 0 instructions: 35000000 cycles: 187441707 heartbeat IPC: 0.16249 cumulative IPC: 0.137959 (Simulation time: 0 hr 27 min 38 sec) 
Heartbeat CPU 0 instructions: 36000000 cycles: 193864950 heartbeat IPC: 0.155685 cumulative IPC: 0.138566 (Simulation time: 0 hr 28 min 27 sec) 
Heartbeat CPU 0 instructions: 37000002 cycles: 202630547 heartbeat IPC: 0.114083 cumulative IPC: 0.137473 (Simulation time: 0 hr 29 min 23 sec) 
Heartbeat CPU 0 instructions: 38000000 cycles: 208289245 heartbeat IPC: 0.176719 cumulative IPC: 0.138572 (Simulation time: 0 hr 30 min 11 sec) 
Heartbeat CPU 0 instructions: 39000001 cycles: 217191852 heartbeat IPC: 0.112327 cumulative IPC: 0.137465 (Simulation time: 0 hr 31 min 16 sec) 
Heartbeat CPU 0 instructions: 40000000 cycles: 226091171 heartbeat IPC: 0.112368 cumulative IPC: 0.136449 (Simulation time: 0 hr 32 min 14 sec) 
Heartbeat CPU 0 instructions: 41000001 cycles: 232353213 heartbeat IPC: 0.159692 cumulative IPC: 0.137093 (Simulation time: 0 hr 33 min 5 sec) 
Heartbeat CPU 0 instructions: 42000003 cycles: 239539511 heartbeat IPC: 0.139154 cumulative IPC: 0.137156 (Simulation time: 0 hr 33 min 57 sec) 
Heartbeat CPU 0 instructions: 43000001 cycles: 249089596 heartbeat IPC: 0.104711 cumulative IPC: 0.13588 (Simulation time: 0 hr 34 min 54 sec) 
Heartbeat CPU 0 instructions: 44000000 cycles: 255082312 heartbeat IPC: 0.166869 cumulative IPC: 0.136626 (Simulation time: 0 hr 35 min 43 sec) 
Heartbeat CPU 0 instructions: 45000000 cycles: 261640288 heartbeat IPC: 0.152486 cumulative IPC: 0.137034 (Simulation time: 0 hr 36 min 32 sec) 
Heartbeat CPU 0 instructions: 46000002 cycles: 268126345 heartbeat IPC: 0.154177 cumulative IPC: 0.137458 (Simulation time: 0 hr 37 min 21 sec) 
Heartbeat CPU 0 instructions: 47000000 cycles: 274548516 heartbeat IPC: 0.15571 cumulative IPC: 0.137895 (Simulation time: 0 hr 38 min 10 sec) 
Heartbeat CPU 0 instructions: 48000000 cycles: 283255346 heartbeat IPC: 0.114852 cumulative IPC: 0.137171 (Simulation time: 0 hr 39 min 7 sec) 
Heartbeat CPU 0 instructions: 49000000 cycles: 288862060 heartbeat IPC: 0.178358 cumulative IPC: 0.137988 (Simulation time: 0 hr 39 min 59 sec) 
Heartbeat CPU 0 instructions: 50000000 cycles: 294882493 heartbeat IPC: 0.166101 cumulative IPC: 0.138574 (Simulation time: 0 hr 40 min 47 sec) 
Heartbeat CPU 0 instructions: 51000000 cycles: 301631223 heartbeat IPC: 0.148176 cumulative IPC: 0.138794 (Simulation time: 0 hr 41 min 38 sec) 
Heartbeat CPU 0 instructions: 52000000 cycles: 310115369 heartbeat IPC: 0.117867 cumulative IPC: 0.138209 (Simulation time: 0 hr 42 min 36 sec) 
Heartbeat CPU 0 instructions: 53000000 cycles: 316640024 heartbeat IPC: 0.153265 cumulative IPC: 0.138526 (Simulation time: 0 hr 43 min 23 sec) 
Heartbeat CPU 0 instructions: 54000000 cycles: 324334472 heartbeat IPC: 0.129964 cumulative IPC: 0.138319 (Simulation time: 0 hr 44 min 18 sec) 
Heartbeat CPU 0 instructions: 55000001 cycles: 332545318 heartbeat IPC: 0.12179 cumulative IPC: 0.137903 (Simulation time: 0 hr 45 min 11 sec) 
Heartbeat CPU 0 instructions: 56000000 cycles: 342481007 heartbeat IPC: 0.100647 cumulative IPC: 0.136802 (Simulation time: 0 hr 46 min 14 sec) 
Heartbeat CPU 0 instructions: 57000000 cycles: 348590687 heartbeat IPC: 0.163675 cumulative IPC: 0.137282 (Simulation time: 0 hr 47 min 1 sec) 
Heartbeat CPU 0 instructions: 58000001 cycles: 354974915 heartbeat IPC: 0.156636 cumulative IPC: 0.137636 (Simulation time: 0 hr 47 min 48 sec) 
Heartbeat CPU 0 instructions: 59000002 cycles: 363359480 heartbeat IPC: 0.119267 cumulative IPC: 0.137205 (Simulation time: 0 hr 48 min 42 sec) 
Heartbeat CPU 0 instructions: 60000000 cycles: 370759218 heartbeat IPC: 0.13514 cumulative IPC: 0.137163 (Simulation time: 0 hr 49 min 35 sec) 
Heartbeat CPU 0 instructions: 61000000 cycles: 376998442 heartbeat IPC: 0.160276 cumulative IPC: 0.137552 (Simulation time: 0 hr 50 min 22 sec) 
Heartbeat CPU 0 instructions: 62000001 cycles: 383654122 heartbeat IPC: 0.150248 cumulative IPC: 0.137776 (Simulation time: 0 hr 51 min 14 sec) 
Heartbeat CPU 0 instructions: 63000000 cycles: 390695404 heartbeat IPC: 0.142019 cumulative IPC: 0.137853 (Simulation time: 0 hr 52 min 3 sec) 
Heartbeat CPU 0 instructions: 64000000 cycles: 399887079 heartbeat IPC: 0.108794 cumulative IPC: 0.137175 (Simulation time: 0 hr 52 min 57 sec) 
Heartbeat CPU 0 instructions: 65000000 cycles: 406597845 heartbeat IPC: 0.149014 cumulative IPC: 0.137373 (Simulation time: 0 hr 53 min 45 sec) 
Heartbeat CPU 0 instructions: 66000001 cycles: 413291681 heartbeat IPC: 0.149391 cumulative IPC: 0.137571 (Simulation time: 0 hr 54 min 35 sec) 
Heartbeat CPU 0 instructions: 67000000 cycles: 420682704 heartbeat IPC: 0.135299 cumulative IPC: 0.13753 (Simulation time: 0 hr 55 min 21 sec) 
Heartbeat CPU 0 instructions: 68000000 cycles: 428248951 heartbeat IPC: 0.132166 cumulative IPC: 0.137434 (Simulation time: 0 hr 56 min 11 sec) 
Heartbeat CPU 0 instructions: 69000000 cycles: 440187164 heartbeat IPC: 0.0837646 cumulative IPC: 0.135958 (Simulation time: 0 hr 57 min 13 sec) 
Heartbeat CPU 0 instructions: 70000000 cycles: 446516572 heartbeat IPC: 0.157993 cumulative IPC: 0.136274 (Simulation time: 0 hr 57 min 58 sec) 
Heartbeat CPU 0 instructions: 71000002 cycles: 453457164 heartbeat IPC: 0.14408 cumulative IPC: 0.136396 (Simulation time: 0 hr 58 min 39 sec) 
Heartbeat CPU 0 instructions: 72000000 cycles: 460882116 heartbeat IPC: 0.134681 cumulative IPC: 0.136368 (Simulation time: 0 hr 59 min 23 sec) 
Heartbeat CPU 0 instructions: 73000003 cycles: 468377221 heartbeat IPC: 0.133421 cumulative IPC: 0.13632 (Simulation time: 1 hr 0 min 5 sec) 
Heartbeat CPU 0 instructions: 74000001 cycles: 477531993 heartbeat IPC: 0.109232 cumulative IPC: 0.135794 (Simulation time: 1 hr 0 min 49 sec) 
Heartbeat CPU 0 instructions: 75000000 cycles: 484558020 heartbeat IPC: 0.142328 cumulative IPC: 0.13589 (Simulation time: 1 hr 1 min 36 sec) 
Heartbeat CPU 0 instructions: 76000000 cycles: 490573485 heartbeat IPC: 0.166238 cumulative IPC: 0.136267 (Simulation time: 1 hr 2 min 14 sec) 
Heartbeat CPU 0 instructions: 77000000 cycles: 496769176 heartbeat IPC: 0.161402 cumulative IPC: 0.136584 (Simulation time: 1 hr 2 min 53 sec) 
Heartbeat CPU 0 instructions: 78000001 cycles: 502847264 heartbeat IPC: 0.164526 cumulative IPC: 0.136926 (Simulation time: 1 hr 3 min 31 sec) 
Heartbeat CPU 0 instructions: 79000000 cycles: 511791863 heartbeat IPC: 0.111799 cumulative IPC: 0.136481 (Simulation time: 1 hr 4 min 15 sec) 
Heartbeat CPU 0 instructions: 80000000 cycles: 517736005 heartbeat IPC: 0.168233 cumulative IPC: 0.13685 (Simulation time: 1 hr 4 min 50 sec) 
Heartbeat CPU 0 instructions: 81000001 cycles: 524894149 heartbeat IPC: 0.139701 cumulative IPC: 0.13689 (Simulation time: 1 hr 5 min 24 sec) 
Heartbeat CPU 0 instructions: 82000001 cycles: 531832529 heartbeat IPC: 0.144126 cumulative IPC: 0.136985 (Simulation time: 1 hr 5 min 59 sec) 
Heartbeat CPU 0 instructions: 83000002 cycles: 537581633 heartbeat IPC: 0.17394 cumulative IPC: 0.137385 (Simulation time: 1 hr 6 min 30 sec) 
Heartbeat CPU 0 instructions: 84000000 cycles: 543834757 heartbeat IPC: 0.15992 cumulative IPC: 0.137647 (Simulation time: 1 hr 7 min 0 sec) 
Heartbeat CPU 0 instructions: 85000000 cycles: 550704910 heartbeat IPC: 0.145557 cumulative IPC: 0.137747 (Simulation time: 1 hr 7 min 30 sec) 
Heartbeat CPU 0 instructions: 86000001 cycles: 558960031 heartbeat IPC: 0.121137 cumulative IPC: 0.137499 (Simulation time: 1 hr 8 min 3 sec) 
Heartbeat CPU 0 instructions: 87000000 cycles: 564503386 heartbeat IPC: 0.180396 cumulative IPC: 0.137925 (Simulation time: 1 hr 8 min 31 sec) 
Heartbeat CPU 0 instructions: 88000000 cycles: 570483826 heartbeat IPC: 0.167212 cumulative IPC: 0.138235 (Simulation time: 1 hr 9 min 1 sec) 
Heartbeat CPU 0 instructions: 89000002 cycles: 576649060 heartbeat IPC: 0.1622 cumulative IPC: 0.138494 (Simulation time: 1 hr 9 min 30 sec) 
Heartbeat CPU 0 instructions: 90000002 cycles: 582732809 heartbeat IPC: 0.164372 cumulative IPC: 0.138767 (Simulation time: 1 hr 10 min 1 sec) 
Heartbeat CPU 0 instructions: 91000001 cycles: 591423641 heartbeat IPC: 0.115064 cumulative IPC: 0.138415 (Simulation time: 1 hr 10 min 34 sec) 
Heartbeat CPU 0 instructions: 92000000 cycles: 597785655 heartbeat IPC: 0.157183 cumulative IPC: 0.138617 (Simulation time: 1 hr 11 min 0 sec) 
Heartbeat CPU 0 instructions: 93000003 cycles: 604960342 heartbeat IPC: 0.139379 cumulative IPC: 0.138626 (Simulation time: 1 hr 11 min 28 sec) 
Heartbeat CPU 0 instructions: 94000000 cycles: 612729529 heartbeat IPC: 0.128713 cumulative IPC: 0.138499 (Simulation time: 1 hr 11 min 52 sec) 
Heartbeat CPU 0 instructions: 95000000 cycles: 619391119 heartbeat IPC: 0.150114 cumulative IPC: 0.138626 (Simulation time: 1 hr 12 min 16 sec) 
Heartbeat CPU 0 instructions: 96000000 cycles: 628154518 heartbeat IPC: 0.114111 cumulative IPC: 0.13828 (Simulation time: 1 hr 12 min 41 sec) 
Heartbeat CPU 0 instructions: 97000000 cycles: 634576336 heartbeat IPC: 0.155719 cumulative IPC: 0.138458 (Simulation time: 1 hr 12 min 59 sec) 
Heartbeat CPU 0 instructions: 98000003 cycles: 642372532 heartbeat IPC: 0.128268 cumulative IPC: 0.138333 (Simulation time: 1 hr 13 min 17 sec) 
Heartbeat CPU 0 instructions: 99000001 cycles: 650442596 heartbeat IPC: 0.123915 cumulative IPC: 0.138153 (Simulation time: 1 hr 13 min 34 sec) 
Heartbeat CPU 0 instructions: 100000000 cycles: 657705811 heartbeat IPC: 0.13768 cumulative IPC: 0.138148 (Simulation time: 1 hr 13 min 51 sec) 
Heartbeat CPU 0 instructions: 101000000 cycles: 666779125 heartbeat IPC: 0.110213 cumulative IPC: 0.137764 (Simulation time: 1 hr 14 min 10 sec) 
Heartbeat CPU 0 instructions: 102000001 cycles: 672715863 heartbeat IPC: 0.168443 cumulative IPC: 0.138037 (Simulation time: 1 hr 14 min 25 sec) 
Heartbeat CPU 0 instructions: 103000000 cycles: 678959273 heartbeat IPC: 0.160169 cumulative IPC: 0.138243 (Simulation time: 1 hr 14 min 40 sec) 
Heartbeat CPU 0 instructions: 104000000 cycles: 685175135 heartbeat IPC: 0.160879 cumulative IPC: 0.13845 (Simulation time: 1 hr 14 min 56 sec) 
Heartbeat CPU 0 instructions: 105000000 cycles: 691119087 heartbeat IPC: 0.168238 cumulative IPC: 0.138708 (Simulation time: 1 hr 15 min 9 sec) 
Heartbeat CPU 0 instructions: 106000000 cycles: 700263328 heartbeat IPC: 0.109358 cumulative IPC: 0.138322 (Simulation time: 1 hr 15 min 26 sec) 
Heartbeat CPU 0 instructions: 107000002 cycles: 706877437 heartbeat IPC: 0.151192 cumulative IPC: 0.138443 (Simulation time: 1 hr 15 min 38 sec) 
Heartbeat CPU 0 instructions: 108000000 cycles: 716025390 heartbeat IPC: 0.109314 cumulative IPC: 0.138068 (Simulation time: 1 hr 15 min 51 sec) 
Heartbeat CPU 0 instructions: 109000003 cycles: 722568656 heartbeat IPC: 0.152829 cumulative IPC: 0.138203 (Simulation time: 1 hr 16 min 3 sec) 
Heartbeat CPU 0 instructions: 110000003 cycles: 729110255 heartbeat IPC: 0.152868 cumulative IPC: 0.138335 (Simulation time: 1 hr 16 min 15 sec) 
Finished CPU 0 instructions: 100000001 cycles: 722881711 cummulative IPC: 0.138335 (Simulation time: 1 hr 16 min 15 sec) 

ChampSim completed all CPUs

Region of Interest Statistics

CPU 0 cummulative IPC: 0.138335 instructions: 100000001 cycles: 722881711
LLC TOTAL     ACCESS:    8754439  HIT:    2698018  MISS:    6056421
LLC LOAD      ACCESS:    1890323  HIT:     508251  MISS:    1382072
LLC RFO       ACCESS:    1828616  HIT:     315696  MISS:    1512920
LLC PREFETCH  ACCESS:    2272711  HIT:     202346  MISS:    2070365
LLC WRITEBACK ACCESS:    2762789  HIT:    1671725  MISS:    1091064
Insertion Distribution: 
	LOAD 506780 0 458010 525933 
	RFO 398764 0 178904 1209155 
	PREF 0 123874 288202 1874737 
	WRITEBACK 0 0 0 1335658 
Total Prefetch Downgrades: 124008
