
*** ChampSim Multicore Out-of-Order Simulator ***

Warmup Instructions: 10000000
Simulation Instructions: 100000000
Configuration: 2
Number of CPUs: 1
LLC sets: 2048
LLC ways: 16
Off-chip DRAM Channels: 1 Width: 64-bit Data Rate: 1600 MT/s

CPU 0 runs /datasets/cs240c-wi22-a00-public/data/Assignment2-gz/cactusADM_1039B.trace.gz
CPU 0 L1D next line prefetcher
CPU 0 L2C IP-based stride prefetcher
Initialize SRRIP state
Heartbeat CPU 0 instructions: 1000000 cycles: 595518 heartbeat IPC: 1.67921 cumulative IPC: 1.67921 (Simulation time: 0 hr 0 min 39 sec) 
Heartbeat CPU 0 instructions: 2000002 cycles: 1190937 heartbeat IPC: 1.67949 cumulative IPC: 1.67935 (Simulation time: 0 hr 1 min 21 sec) 
Heartbeat CPU 0 instructions: 3000003 cycles: 1786622 heartbeat IPC: 1.67874 cumulative IPC: 1.67915 (Simulation time: 0 hr 2 min 6 sec) 
Heartbeat CPU 0 instructions: 4000000 cycles: 2382046 heartbeat IPC: 1.67947 cumulative IPC: 1.67923 (Simulation time: 0 hr 2 min 51 sec) 
Heartbeat CPU 0 instructions: 5000001 cycles: 2977457 heartbeat IPC: 1.67951 cumulative IPC: 1.67929 (Simulation time: 0 hr 3 min 36 sec) 
Heartbeat CPU 0 instructions: 6000002 cycles: 3572930 heartbeat IPC: 1.67934 cumulative IPC: 1.67929 (Simulation time: 0 hr 4 min 17 sec) 
Heartbeat CPU 0 instructions: 7000000 cycles: 4168306 heartbeat IPC: 1.67961 cumulative IPC: 1.67934 (Simulation time: 0 hr 4 min 55 sec) 
Heartbeat CPU 0 instructions: 8000000 cycles: 4763681 heartbeat IPC: 1.67961 cumulative IPC: 1.67937 (Simulation time: 0 hr 5 min 33 sec) 
Heartbeat CPU 0 instructions: 9000002 cycles: 5359336 heartbeat IPC: 1.67883 cumulative IPC: 1.67931 (Simulation time: 0 hr 6 min 9 sec) 
Heartbeat CPU 0 instructions: 10000003 cycles: 5974113 heartbeat IPC: 1.62661 cumulative IPC: 1.67389 (Simulation time: 0 hr 6 min 53 sec) 

Warmup complete CPU 0 instructions: 10000003 cycles: 5974113 (Simulation time: 0 hr 6 min 53 sec) 

Heartbeat CPU 0 instructions: 11000003 cycles: 12129466 heartbeat IPC: 0.16246 cumulative IPC: 0.16246 (Simulation time: 0 hr 7 min 44 sec) 
Heartbeat CPU 0 instructions: 12000000 cycles: 13871568 heartbeat IPC: 0.574017 cumulative IPC: 0.253246 (Simulation time: 0 hr 8 min 26 sec) 
Heartbeat CPU 0 instructions: 13000002 cycles: 15538981 heartbeat IPC: 0.599733 cumulative IPC: 0.313648 (Simulation time: 0 hr 9 min 15 sec) 
Heartbeat CPU 0 instructions: 14000001 cycles: 17247012 heartbeat IPC: 0.585469 cumulative IPC: 0.354833 (Simulation time: 0 hr 9 min 57 sec) 
Heartbeat CPU 0 instructions: 15000002 cycles: 18990799 heartbeat IPC: 0.573465 cumulative IPC: 0.384122 (Simulation time: 0 hr 10 min 41 sec) 
Heartbeat CPU 0 instructions: 16000000 cycles: 20737511 heartbeat IPC: 0.572503 cumulative IPC: 0.40641 (Simulation time: 0 hr 11 min 32 sec) 
Heartbeat CPU 0 instructions: 17000003 cycles: 22461839 heartbeat IPC: 0.579938 cumulative IPC: 0.424558 (Simulation time: 0 hr 12 min 20 sec) 
Heartbeat CPU 0 instructions: 18000002 cycles: 24116330 heartbeat IPC: 0.604415 cumulative IPC: 0.44096 (Simulation time: 0 hr 13 min 9 sec) 
Heartbeat CPU 0 instructions: 19000003 cycles: 25853062 heartbeat IPC: 0.575795 cumulative IPC: 0.45274 (Simulation time: 0 hr 13 min 53 sec) 
Heartbeat CPU 0 instructions: 20000000 cycles: 27596873 heartbeat IPC: 0.573455 cumulative IPC: 0.462476 (Simulation time: 0 hr 14 min 34 sec) 
Heartbeat CPU 0 instructions: 21000002 cycles: 29340480 heartbeat IPC: 0.573525 cumulative IPC: 0.470762 (Simulation time: 0 hr 15 min 17 sec) 
Heartbeat CPU 0 instructions: 22000003 cycles: 31031553 heartbeat IPC: 0.591341 cumulative IPC: 0.4789 (Simulation time: 0 hr 15 min 57 sec) 
Heartbeat CPU 0 instructions: 23000001 cycles: 32716277 heartbeat IPC: 0.593568 cumulative IPC: 0.486124 (Simulation time: 0 hr 16 min 44 sec) 
Heartbeat CPU 0 instructions: 24000000 cycles: 39390366 heartbeat IPC: 0.149833 cumulative IPC: 0.418958 (Simulation time: 0 hr 17 min 38 sec) 
Heartbeat CPU 0 instructions: 25000002 cycles: 41129460 heartbeat IPC: 0.575013 cumulative IPC: 0.426678 (Simulation time: 0 hr 18 min 32 sec) 
Heartbeat CPU 0 instructions: 26000002 cycles: 42855899 heartbeat IPC: 0.579227 cumulative IPC: 0.433818 (Simulation time: 0 hr 19 min 24 sec) 
Heartbeat CPU 0 instructions: 27000002 cycles: 44522750 heartbeat IPC: 0.599934 cumulative IPC: 0.441001 (Simulation time: 0 hr 20 min 13 sec) 
Heartbeat CPU 0 instructions: 28000000 cycles: 46254732 heartbeat IPC: 0.577372 cumulative IPC: 0.446865 (Simulation time: 0 hr 21 min 4 sec) 
Heartbeat CPU 0 instructions: 29000000 cycles: 47997600 heartbeat IPC: 0.573767 cumulative IPC: 0.452128 (Simulation time: 0 hr 21 min 52 sec) 
Heartbeat CPU 0 instructions: 30000003 cycles: 49737552 heartbeat IPC: 0.57473 cumulative IPC: 0.457002 (Simulation time: 0 hr 22 min 40 sec) 
Heartbeat CPU 0 instructions: 31000001 cycles: 51435611 heartbeat IPC: 0.588907 cumulative IPC: 0.461929 (Simulation time: 0 hr 23 min 29 sec) 
Heartbeat CPU 0 instructions: 32000000 cycles: 53112661 heartbeat IPC: 0.596285 cumulative IPC: 0.466709 (Simulation time: 0 hr 24 min 18 sec) 
Heartbeat CPU 0 instructions: 33000001 cycles: 54851859 heartbeat IPC: 0.574978 cumulative IPC: 0.470562 (Simulation time: 0 hr 25 min 6 sec) 
Heartbeat CPU 0 instructions: 34000000 cycles: 56592913 heartbeat IPC: 0.574364 cumulative IPC: 0.474132 (Simulation time: 0 hr 25 min 53 sec) 
Heartbeat CPU 0 instructions: 35000001 cycles: 58329207 heartbeat IPC: 0.57594 cumulative IPC: 0.477508 (Simulation time: 0 hr 26 min 43 sec) 
Heartbeat CPU 0 instructions: 36000000 cycles: 59993847 heartbeat IPC: 0.60073 cumulative IPC: 0.481306 (Simulation time: 0 hr 27 min 33 sec) 
Heartbeat CPU 0 instructions: 37000002 cycles: 66604488 heartbeat IPC: 0.151272 cumulative IPC: 0.445321 (Simulation time: 0 hr 28 min 32 sec) 
Heartbeat CPU 0 instructions: 38000001 cycles: 68345222 heartbeat IPC: 0.57447 cumulative IPC: 0.448926 (Simulation time: 0 hr 29 min 21 sec) 
Heartbeat CPU 0 instructions: 39000002 cycles: 70088844 heartbeat IPC: 0.573519 cumulative IPC: 0.452314 (Simulation time: 0 hr 30 min 12 sec) 
Heartbeat CPU 0 instructions: 40000000 cycles: 71787895 heartbeat IPC: 0.588563 cumulative IPC: 0.455832 (Simulation time: 0 hr 31 min 0 sec) 
Heartbeat CPU 0 instructions: 41000003 cycles: 73461576 heartbeat IPC: 0.597487 cumulative IPC: 0.459345 (Simulation time: 0 hr 31 min 48 sec) 
Heartbeat CPU 0 instructions: 42000000 cycles: 75200372 heartbeat IPC: 0.575109 cumulative IPC: 0.462252 (Simulation time: 0 hr 32 min 39 sec) 
Heartbeat CPU 0 instructions: 43000000 cycles: 76943353 heartbeat IPC: 0.57373 cumulative IPC: 0.46499 (Simulation time: 0 hr 33 min 26 sec) 
Heartbeat CPU 0 instructions: 44000000 cycles: 78682860 heartbeat IPC: 0.574876 cumulative IPC: 0.467619 (Simulation time: 0 hr 34 min 14 sec) 
Heartbeat CPU 0 instructions: 45000000 cycles: 80353460 heartbeat IPC: 0.598587 cumulative IPC: 0.470561 (Simulation time: 0 hr 35 min 4 sec) 
Heartbeat CPU 0 instructions: 46000003 cycles: 82060502 heartbeat IPC: 0.58581 cumulative IPC: 0.473146 (Simulation time: 0 hr 35 min 54 sec) 
Heartbeat CPU 0 instructions: 47000001 cycles: 83802697 heartbeat IPC: 0.573987 cumulative IPC: 0.475404 (Simulation time: 0 hr 36 min 43 sec) 
Heartbeat CPU 0 instructions: 48000000 cycles: 85543452 heartbeat IPC: 0.574463 cumulative IPC: 0.477571 (Simulation time: 0 hr 37 min 33 sec) 
Heartbeat CPU 0 instructions: 49000001 cycles: 87269248 heartbeat IPC: 0.579443 cumulative IPC: 0.479733 (Simulation time: 0 hr 38 min 21 sec) 
Heartbeat CPU 0 instructions: 50000000 cycles: 93924645 heartbeat IPC: 0.150254 cumulative IPC: 0.454801 (Simulation time: 0 hr 39 min 19 sec) 
Heartbeat CPU 0 instructions: 51000003 cycles: 95689409 heartbeat IPC: 0.56665 cumulative IPC: 0.457001 (Simulation time: 0 hr 40 min 8 sec) 
Heartbeat CPU 0 instructions: 52000000 cycles: 97461665 heartbeat IPC: 0.564251 cumulative IPC: 0.459079 (Simulation time: 0 hr 40 min 56 sec) 
Heartbeat CPU 0 instructions: 53000003 cycles: 99234587 heartbeat IPC: 0.564042 cumulative IPC: 0.461074 (Simulation time: 0 hr 41 min 47 sec) 
Heartbeat CPU 0 instructions: 54000002 cycles: 100951968 heartbeat IPC: 0.582281 cumulative IPC: 0.463266 (Simulation time: 0 hr 42 min 39 sec) 
Heartbeat CPU 0 instructions: 55000001 cycles: 102679287 heartbeat IPC: 0.578931 cumulative IPC: 0.465332 (Simulation time: 0 hr 43 min 29 sec) 
Heartbeat CPU 0 instructions: 56000000 cycles: 104450841 heartbeat IPC: 0.564476 cumulative IPC: 0.467115 (Simulation time: 0 hr 44 min 17 sec) 
Heartbeat CPU 0 instructions: 57000000 cycles: 106226666 heartbeat IPC: 0.563119 cumulative IPC: 0.468816 (Simulation time: 0 hr 45 min 8 sec) 
Heartbeat CPU 0 instructions: 58000000 cycles: 107993252 heartbeat IPC: 0.566064 cumulative IPC: 0.4705 (Simulation time: 0 hr 46 min 10 sec) 
Heartbeat CPU 0 instructions: 59000002 cycles: 109682215 heartbeat IPC: 0.59208 cumulative IPC: 0.47248 (Simulation time: 0 hr 47 min 18 sec) 
Heartbeat CPU 0 instructions: 60000000 cycles: 111443083 heartbeat IPC: 0.567901 cumulative IPC: 0.474073 (Simulation time: 0 hr 48 min 29 sec) 
Heartbeat CPU 0 instructions: 61000001 cycles: 113217940 heartbeat IPC: 0.563426 cumulative IPC: 0.475552 (Simulation time: 0 hr 49 min 42 sec) 
Heartbeat CPU 0 instructions: 62000000 cycles: 114991832 heartbeat IPC: 0.563732 cumulative IPC: 0.476987 (Simulation time: 0 hr 50 min 51 sec) 
Heartbeat CPU 0 instructions: 63000001 cycles: 121203011 heartbeat IPC: 0.161 cumulative IPC: 0.459954 (Simulation time: 0 hr 52 min 9 sec) 
Heartbeat CPU 0 instructions: 64000000 cycles: 123472685 heartbeat IPC: 0.440591 cumulative IPC: 0.45958 (Simulation time: 0 hr 53 min 11 sec) 
Heartbeat CPU 0 instructions: 65000002 cycles: 125244296 heartbeat IPC: 0.564459 cumulative IPC: 0.461138 (Simulation time: 0 hr 54 min 8 sec) 
Heartbeat CPU 0 instructions: 66000001 cycles: 127017309 heartbeat IPC: 0.564011 cumulative IPC: 0.462645 (Simulation time: 0 hr 55 min 4 sec) 
Heartbeat CPU 0 instructions: 67000003 cycles: 128784862 heartbeat IPC: 0.565755 cumulative IPC: 0.464129 (Simulation time: 0 hr 56 min 4 sec) 
Heartbeat CPU 0 instructions: 68000000 cycles: 130512702 heartbeat IPC: 0.578756 cumulative IPC: 0.465719 (Simulation time: 0 hr 57 min 9 sec) 
Heartbeat CPU 0 instructions: 69000003 cycles: 132291069 heartbeat IPC: 0.562315 cumulative IPC: 0.467079 (Simulation time: 0 hr 58 min 9 sec) 
Heartbeat CPU 0 instructions: 70000002 cycles: 134064176 heartbeat IPC: 0.563981 cumulative IPC: 0.46842 (Simulation time: 0 hr 59 min 8 sec) 
Heartbeat CPU 0 instructions: 71000000 cycles: 135837402 heartbeat IPC: 0.563943 cumulative IPC: 0.469725 (Simulation time: 1 hr 0 min 7 sec) 
Heartbeat CPU 0 instructions: 72000000 cycles: 137584996 heartbeat IPC: 0.572215 cumulative IPC: 0.471086 (Simulation time: 1 hr 0 min 50 sec) 
Heartbeat CPU 0 instructions: 73000001 cycles: 139285732 heartbeat IPC: 0.587981 cumulative IPC: 0.472577 (Simulation time: 1 hr 1 min 32 sec) 
Heartbeat CPU 0 instructions: 74000003 cycles: 141053848 heartbeat IPC: 0.565575 cumulative IPC: 0.473794 (Simulation time: 1 hr 2 min 16 sec) 
Heartbeat CPU 0 instructions: 75000002 cycles: 142828249 heartbeat IPC: 0.56357 cumulative IPC: 0.474958 (Simulation time: 1 hr 2 min 58 sec) 
Heartbeat CPU 0 instructions: 76000000 cycles: 148102803 heartbeat IPC: 0.189589 cumulative IPC: 0.464368 (Simulation time: 1 hr 3 min 40 sec) 
Heartbeat CPU 0 instructions: 77000001 cycles: 151271182 heartbeat IPC: 0.315619 cumulative IPC: 0.461124 (Simulation time: 1 hr 4 min 22 sec) 
Heartbeat CPU 0 instructions: 78000000 cycles: 153021367 heartbeat IPC: 0.571368 cumulative IPC: 0.462436 (Simulation time: 1 hr 4 min 57 sec) 
Heartbeat CPU 0 instructions: 79000002 cycles: 154790911 heartbeat IPC: 0.565118 cumulative IPC: 0.463657 (Simulation time: 1 hr 5 min 29 sec) 
Heartbeat CPU 0 instructions: 80000000 cycles: 156562657 heartbeat IPC: 0.564414 cumulative IPC: 0.464843 (Simulation time: 1 hr 6 min 1 sec) 
Heartbeat CPU 0 instructions: 81000002 cycles: 158312608 heartbeat IPC: 0.571446 cumulative IPC: 0.466067 (Simulation time: 1 hr 6 min 31 sec) 
Heartbeat CPU 0 instructions: 82000002 cycles: 160008685 heartbeat IPC: 0.589596 cumulative IPC: 0.467428 (Simulation time: 1 hr 7 min 3 sec) 
Heartbeat CPU 0 instructions: 83000003 cycles: 161778435 heartbeat IPC: 0.565052 cumulative IPC: 0.468536 (Simulation time: 1 hr 7 min 32 sec) 
Heartbeat CPU 0 instructions: 84000000 cycles: 163550406 heartbeat IPC: 0.564342 cumulative IPC: 0.469614 (Simulation time: 1 hr 8 min 0 sec) 
Heartbeat CPU 0 instructions: 85000002 cycles: 165322491 heartbeat IPC: 0.564308 cumulative IPC: 0.470667 (Simulation time: 1 hr 8 min 28 sec) 
Heartbeat CPU 0 instructions: 86000003 cycles: 167038040 heartbeat IPC: 0.582904 cumulative IPC: 0.471862 (Simulation time: 1 hr 8 min 56 sec) 
Heartbeat CPU 0 instructions: 87000000 cycles: 168780632 heartbeat IPC: 0.573856 cumulative IPC: 0.472954 (Simulation time: 1 hr 9 min 25 sec) 
Heartbeat CPU 0 instructions: 88000000 cycles: 170551157 heartbeat IPC: 0.564804 cumulative IPC: 0.473942 (Simulation time: 1 hr 9 min 53 sec) 
Heartbeat CPU 0 instructions: 89000001 cycles: 174884941 heartbeat IPC: 0.230745 cumulative IPC: 0.467702 (Simulation time: 1 hr 10 min 22 sec) 
Heartbeat CPU 0 instructions: 90000002 cycles: 179011649 heartbeat IPC: 0.242324 cumulative IPC: 0.462327 (Simulation time: 1 hr 10 min 52 sec) 
Heartbeat CPU 0 instructions: 91000000 cycles: 180706199 heartbeat IPC: 0.590126 cumulative IPC: 0.463567 (Simulation time: 1 hr 11 min 17 sec) 
Heartbeat CPU 0 instructions: 92000000 cycles: 182469682 heartbeat IPC: 0.56706 cumulative IPC: 0.464601 (Simulation time: 1 hr 11 min 41 sec) 
Heartbeat CPU 0 instructions: 93000001 cycles: 184242081 heartbeat IPC: 0.564208 cumulative IPC: 0.465591 (Simulation time: 1 hr 12 min 3 sec) 
Heartbeat CPU 0 instructions: 94000003 cycles: 186018069 heartbeat IPC: 0.563068 cumulative IPC: 0.466553 (Simulation time: 1 hr 12 min 24 sec) 
Heartbeat CPU 0 instructions: 95000001 cycles: 187739975 heartbeat IPC: 0.580751 cumulative IPC: 0.467635 (Simulation time: 1 hr 12 min 43 sec) 
Heartbeat CPU 0 instructions: 96000000 cycles: 189462626 heartbeat IPC: 0.5805 cumulative IPC: 0.468694 (Simulation time: 1 hr 13 min 1 sec) 
Heartbeat CPU 0 instructions: 97000002 cycles: 191232540 heartbeat IPC: 0.565 cumulative IPC: 0.469614 (Simulation time: 1 hr 13 min 17 sec) 
Heartbeat CPU 0 instructions: 98000000 cycles: 193006366 heartbeat IPC: 0.563752 cumulative IPC: 0.470507 (Simulation time: 1 hr 13 min 33 sec) 
Heartbeat CPU 0 instructions: 99000002 cycles: 194775035 heartbeat IPC: 0.565398 cumulative IPC: 0.471396 (Simulation time: 1 hr 13 min 48 sec) 
Heartbeat CPU 0 instructions: 100000000 cycles: 196465808 heartbeat IPC: 0.591444 cumulative IPC: 0.472462 (Simulation time: 1 hr 14 min 3 sec) 
Heartbeat CPU 0 instructions: 101000002 cycles: 198220781 heartbeat IPC: 0.56981 cumulative IPC: 0.47335 (Simulation time: 1 hr 14 min 18 sec) 
Heartbeat CPU 0 instructions: 102000000 cycles: 201565906 heartbeat IPC: 0.298942 cumulative IPC: 0.470367 (Simulation time: 1 hr 14 min 34 sec) 
Heartbeat CPU 0 instructions: 103000002 cycles: 206688034 heartbeat IPC: 0.195232 cumulative IPC: 0.463346 (Simulation time: 1 hr 14 min 50 sec) 
Heartbeat CPU 0 instructions: 104000000 cycles: 208414669 heartbeat IPC: 0.57916 cumulative IPC: 0.464334 (Simulation time: 1 hr 15 min 3 sec) 
Heartbeat CPU 0 instructions: 105000002 cycles: 210130719 heartbeat IPC: 0.582735 cumulative IPC: 0.465329 (Simulation time: 1 hr 15 min 16 sec) 
Heartbeat CPU 0 instructions: 106000001 cycles: 211904773 heartbeat IPC: 0.56368 cumulative IPC: 0.466176 (Simulation time: 1 hr 15 min 28 sec) 
Heartbeat CPU 0 instructions: 107000003 cycles: 213675737 heartbeat IPC: 0.564665 cumulative IPC: 0.467016 (Simulation time: 1 hr 15 min 39 sec) 
Heartbeat CPU 0 instructions: 108000000 cycles: 215444184 heartbeat IPC: 0.565466 cumulative IPC: 0.467847 (Simulation time: 1 hr 15 min 51 sec) 
Heartbeat CPU 0 instructions: 109000003 cycles: 217142655 heartbeat IPC: 0.588767 cumulative IPC: 0.46882 (Simulation time: 1 hr 16 min 1 sec) 
Heartbeat CPU 0 instructions: 110000002 cycles: 218894005 heartbeat IPC: 0.570988 cumulative IPC: 0.46966 (Simulation time: 1 hr 16 min 12 sec) 
Finished CPU 0 instructions: 100000003 cycles: 212919893 cummulative IPC: 0.46966 (Simulation time: 1 hr 16 min 12 sec) 

ChampSim completed all CPUs

Region of Interest Statistics

CPU 0 cummulative IPC: 0.46966 instructions: 100000003 cycles: 212919893
LLC TOTAL     ACCESS:    1168970  HIT:     336383  MISS:     832587
LLC LOAD      ACCESS:      25456  HIT:       2252  MISS:      23204
LLC RFO       ACCESS:     265309  HIT:      73679  MISS:     191630
LLC PREFETCH  ACCESS:     610859  HIT:     142193  MISS:     468666
LLC WRITEBACK ACCESS:     267346  HIT:     118259  MISS:     149087
Insertion Distribution: 
	LOAD 0 0 13849 10516 
	RFO 6494 0 31944 164464 
	PREF 0 39147 76908 401577 
	WRITEBACK 0 0 0 150795 
Total Prefetch Downgrades: 45598
