
*** ChampSim Multicore Out-of-Order Simulator ***

Warmup Instructions: 10000000
Simulation Instructions: 100000000
Configuration: 2
Number of CPUs: 1
LLC sets: 2048
LLC ways: 16
Off-chip DRAM Channels: 1 Width: 64-bit Data Rate: 1600 MT/s

CPU 0 runs /datasets/cs240c-wi22-a00-public/data/Assignment2-gz/gcc_13B.trace.gz
CPU 0 L1D next line prefetcher
CPU 0 L2C IP-based stride prefetcher
Initialize SRRIP state
Heartbeat CPU 0 instructions: 1000000 cycles: 633310 heartbeat IPC: 1.57901 cumulative IPC: 1.57901 (Simulation time: 0 hr 0 min 37 sec) 
Heartbeat CPU 0 instructions: 2000001 cycles: 1243581 heartbeat IPC: 1.63862 cumulative IPC: 1.60826 (Simulation time: 0 hr 1 min 11 sec) 
Heartbeat CPU 0 instructions: 3000001 cycles: 1717471 heartbeat IPC: 2.11019 cumulative IPC: 1.74676 (Simulation time: 0 hr 1 min 44 sec) 
Heartbeat CPU 0 instructions: 4000000 cycles: 2191055 heartbeat IPC: 2.11156 cumulative IPC: 1.8256 (Simulation time: 0 hr 2 min 20 sec) 
Heartbeat CPU 0 instructions: 5000002 cycles: 2665152 heartbeat IPC: 2.10928 cumulative IPC: 1.87607 (Simulation time: 0 hr 2 min 53 sec) 
Heartbeat CPU 0 instructions: 6000002 cycles: 3139003 heartbeat IPC: 2.11037 cumulative IPC: 1.91144 (Simulation time: 0 hr 3 min 25 sec) 
Heartbeat CPU 0 instructions: 7000001 cycles: 3614368 heartbeat IPC: 2.10364 cumulative IPC: 1.93672 (Simulation time: 0 hr 3 min 58 sec) 
Heartbeat CPU 0 instructions: 8000000 cycles: 4090877 heartbeat IPC: 2.09859 cumulative IPC: 1.95557 (Simulation time: 0 hr 4 min 29 sec) 
Heartbeat CPU 0 instructions: 9000001 cycles: 4831895 heartbeat IPC: 1.3495 cumulative IPC: 1.86262 (Simulation time: 0 hr 5 min 4 sec) 
Heartbeat CPU 0 instructions: 10000001 cycles: 5536261 heartbeat IPC: 1.41972 cumulative IPC: 1.80627 (Simulation time: 0 hr 5 min 46 sec) 

Warmup complete CPU 0 instructions: 10000001 cycles: 5536261 (Simulation time: 0 hr 5 min 46 sec) 

Heartbeat CPU 0 instructions: 11000000 cycles: 12468905 heartbeat IPC: 0.144245 cumulative IPC: 0.144245 (Simulation time: 0 hr 6 min 44 sec) 
Heartbeat CPU 0 instructions: 12000000 cycles: 18751550 heartbeat IPC: 0.159169 cumulative IPC: 0.15134 (Simulation time: 0 hr 7 min 42 sec) 
Heartbeat CPU 0 instructions: 13000000 cycles: 24744876 heartbeat IPC: 0.166852 cumulative IPC: 0.15618 (Simulation time: 0 hr 8 min 35 sec) 
Heartbeat CPU 0 instructions: 14000000 cycles: 30319144 heartbeat IPC: 0.179396 cumulative IPC: 0.161402 (Simulation time: 0 hr 9 min 25 sec) 
Heartbeat CPU 0 instructions: 15000000 cycles: 32953195 heartbeat IPC: 0.379643 cumulative IPC: 0.182369 (Simulation time: 0 hr 10 min 8 sec) 
Heartbeat CPU 0 instructions: 16000000 cycles: 35094394 heartbeat IPC: 0.467028 cumulative IPC: 0.20299 (Simulation time: 0 hr 10 min 46 sec) 
Heartbeat CPU 0 instructions: 17000000 cycles: 37282504 heartbeat IPC: 0.457015 cumulative IPC: 0.220499 (Simulation time: 0 hr 11 min 23 sec) 
Heartbeat CPU 0 instructions: 18000000 cycles: 39456022 heartbeat IPC: 0.460084 cumulative IPC: 0.235851 (Simulation time: 0 hr 12 min 2 sec) 
Heartbeat CPU 0 instructions: 19000002 cycles: 41692144 heartbeat IPC: 0.447204 cumulative IPC: 0.248922 (Simulation time: 0 hr 12 min 39 sec) 
Heartbeat CPU 0 instructions: 20000000 cycles: 43931548 heartbeat IPC: 0.446546 cumulative IPC: 0.260449 (Simulation time: 0 hr 13 min 19 sec) 
Heartbeat CPU 0 instructions: 21000000 cycles: 46343138 heartbeat IPC: 0.414664 cumulative IPC: 0.269562 (Simulation time: 0 hr 14 min 0 sec) 
Heartbeat CPU 0 instructions: 22000001 cycles: 50557587 heartbeat IPC: 0.237279 cumulative IPC: 0.26654 (Simulation time: 0 hr 14 min 52 sec) 
Heartbeat CPU 0 instructions: 23000002 cycles: 57770948 heartbeat IPC: 0.138632 cumulative IPC: 0.248877 (Simulation time: 0 hr 15 min 46 sec) 
Heartbeat CPU 0 instructions: 24000000 cycles: 64792291 heartbeat IPC: 0.142423 cumulative IPC: 0.236263 (Simulation time: 0 hr 16 min 41 sec) 
Heartbeat CPU 0 instructions: 25000000 cycles: 71254635 heartbeat IPC: 0.154743 cumulative IPC: 0.228247 (Simulation time: 0 hr 17 min 35 sec) 
Heartbeat CPU 0 instructions: 26000001 cycles: 77208185 heartbeat IPC: 0.167967 cumulative IPC: 0.223239 (Simulation time: 0 hr 18 min 38 sec) 
Heartbeat CPU 0 instructions: 27000000 cycles: 82697022 heartbeat IPC: 0.182188 cumulative IPC: 0.220319 (Simulation time: 0 hr 19 min 45 sec) 
Heartbeat CPU 0 instructions: 28000000 cycles: 85525059 heartbeat IPC: 0.353602 cumulative IPC: 0.225031 (Simulation time: 0 hr 20 min 42 sec) 
Heartbeat CPU 0 instructions: 29000000 cycles: 87755453 heartbeat IPC: 0.448351 cumulative IPC: 0.23109 (Simulation time: 0 hr 21 min 28 sec) 
Heartbeat CPU 0 instructions: 30000001 cycles: 89997131 heartbeat IPC: 0.446095 cumulative IPC: 0.236796 (Simulation time: 0 hr 22 min 14 sec) 
Heartbeat CPU 0 instructions: 31000000 cycles: 92221161 heartbeat IPC: 0.449634 cumulative IPC: 0.242257 (Simulation time: 0 hr 23 min 2 sec) 
Heartbeat CPU 0 instructions: 32000000 cycles: 94441767 heartbeat IPC: 0.450328 cumulative IPC: 0.247454 (Simulation time: 0 hr 23 min 53 sec) 
Heartbeat CPU 0 instructions: 33000000 cycles: 96657804 heartbeat IPC: 0.451256 cumulative IPC: 0.25241 (Simulation time: 0 hr 24 min 41 sec) 
Heartbeat CPU 0 instructions: 34000000 cycles: 99518807 heartbeat IPC: 0.349528 cumulative IPC: 0.255367 (Simulation time: 0 hr 25 min 31 sec) 
Heartbeat CPU 0 instructions: 35000000 cycles: 113756474 heartbeat IPC: 0.0702362 cumulative IPC: 0.23101 (Simulation time: 0 hr 27 min 39 sec) 
Heartbeat CPU 0 instructions: 36000000 cycles: 117560579 heartbeat IPC: 0.262874 cumulative IPC: 0.232092 (Simulation time: 0 hr 28 min 27 sec) 
Heartbeat CPU 0 instructions: 37000003 cycles: 121349243 heartbeat IPC: 0.263946 cumulative IPC: 0.233135 (Simulation time: 0 hr 29 min 10 sec) 
Heartbeat CPU 0 instructions: 38000000 cycles: 125158569 heartbeat IPC: 0.262513 cumulative IPC: 0.23407 (Simulation time: 0 hr 29 min 57 sec) 
Heartbeat CPU 0 instructions: 39000000 cycles: 128891663 heartbeat IPC: 0.267874 cumulative IPC: 0.235093 (Simulation time: 0 hr 30 min 44 sec) 
Heartbeat CPU 0 instructions: 40000000 cycles: 132540989 heartbeat IPC: 0.274023 cumulative IPC: 0.236212 (Simulation time: 0 hr 31 min 32 sec) 
Heartbeat CPU 0 instructions: 41000000 cycles: 136170240 heartbeat IPC: 0.275539 cumulative IPC: 0.237304 (Simulation time: 0 hr 32 min 17 sec) 
Heartbeat CPU 0 instructions: 42000000 cycles: 139824077 heartbeat IPC: 0.273685 cumulative IPC: 0.238294 (Simulation time: 0 hr 33 min 2 sec) 
Heartbeat CPU 0 instructions: 43000002 cycles: 143485596 heartbeat IPC: 0.273111 cumulative IPC: 0.239218 (Simulation time: 0 hr 33 min 47 sec) 
Heartbeat CPU 0 instructions: 44000000 cycles: 147144473 heartbeat IPC: 0.273307 cumulative IPC: 0.240099 (Simulation time: 0 hr 34 min 34 sec) 
Heartbeat CPU 0 instructions: 45000001 cycles: 150768493 heartbeat IPC: 0.275937 cumulative IPC: 0.240993 (Simulation time: 0 hr 35 min 22 sec) 
Heartbeat CPU 0 instructions: 46000001 cycles: 154370682 heartbeat IPC: 0.277609 cumulative IPC: 0.24188 (Simulation time: 0 hr 36 min 8 sec) 
Heartbeat CPU 0 instructions: 47000001 cycles: 157960771 heartbeat IPC: 0.278545 cumulative IPC: 0.242743 (Simulation time: 0 hr 36 min 57 sec) 
Heartbeat CPU 0 instructions: 48000000 cycles: 161524728 heartbeat IPC: 0.280587 cumulative IPC: 0.243608 (Simulation time: 0 hr 37 min 43 sec) 
Heartbeat CPU 0 instructions: 49000000 cycles: 165106453 heartbeat IPC: 0.279195 cumulative IPC: 0.244407 (Simulation time: 0 hr 38 min 30 sec) 
Heartbeat CPU 0 instructions: 50000003 cycles: 168685858 heartbeat IPC: 0.279377 cumulative IPC: 0.245174 (Simulation time: 0 hr 39 min 14 sec) 
Heartbeat CPU 0 instructions: 51000001 cycles: 172264959 heartbeat IPC: 0.279399 cumulative IPC: 0.245908 (Simulation time: 0 hr 40 min 1 sec) 
Heartbeat CPU 0 instructions: 52000000 cycles: 175829037 heartbeat IPC: 0.280577 cumulative IPC: 0.246634 (Simulation time: 0 hr 40 min 48 sec) 
Heartbeat CPU 0 instructions: 53000001 cycles: 179409795 heartbeat IPC: 0.279271 cumulative IPC: 0.247306 (Simulation time: 0 hr 41 min 36 sec) 
Heartbeat CPU 0 instructions: 54000000 cycles: 182983563 heartbeat IPC: 0.279816 cumulative IPC: 0.247961 (Simulation time: 0 hr 42 min 20 sec) 
Heartbeat CPU 0 instructions: 55000000 cycles: 186566794 heartbeat IPC: 0.279078 cumulative IPC: 0.248577 (Simulation time: 0 hr 43 min 6 sec) 
Heartbeat CPU 0 instructions: 56000000 cycles: 190139237 heartbeat IPC: 0.27992 cumulative IPC: 0.249183 (Simulation time: 0 hr 43 min 55 sec) 
Heartbeat CPU 0 instructions: 57000002 cycles: 193679204 heartbeat IPC: 0.282489 cumulative IPC: 0.24981 (Simulation time: 0 hr 44 min 41 sec) 
Heartbeat CPU 0 instructions: 58000001 cycles: 197225227 heartbeat IPC: 0.282006 cumulative IPC: 0.250406 (Simulation time: 0 hr 45 min 31 sec) 
Heartbeat CPU 0 instructions: 59000003 cycles: 200742943 heartbeat IPC: 0.284276 cumulative IPC: 0.251016 (Simulation time: 0 hr 46 min 19 sec) 
Heartbeat CPU 0 instructions: 60000000 cycles: 204258353 heartbeat IPC: 0.284461 cumulative IPC: 0.251608 (Simulation time: 0 hr 47 min 4 sec) 
Heartbeat CPU 0 instructions: 61000000 cycles: 207769004 heartbeat IPC: 0.284847 cumulative IPC: 0.252185 (Simulation time: 0 hr 47 min 51 sec) 
Heartbeat CPU 0 instructions: 62000003 cycles: 211276620 heartbeat IPC: 0.285095 cumulative IPC: 0.252746 (Simulation time: 0 hr 48 min 39 sec) 
Heartbeat CPU 0 instructions: 63000001 cycles: 214786173 heartbeat IPC: 0.284936 cumulative IPC: 0.253286 (Simulation time: 0 hr 49 min 25 sec) 
Heartbeat CPU 0 instructions: 64000000 cycles: 218315662 heartbeat IPC: 0.283327 cumulative IPC: 0.253784 (Simulation time: 0 hr 50 min 9 sec) 
Heartbeat CPU 0 instructions: 65000000 cycles: 221884714 heartbeat IPC: 0.280186 cumulative IPC: 0.25422 (Simulation time: 0 hr 50 min 58 sec) 
Heartbeat CPU 0 instructions: 66000000 cycles: 225431961 heartbeat IPC: 0.281909 cumulative IPC: 0.254666 (Simulation time: 0 hr 51 min 44 sec) 
Heartbeat CPU 0 instructions: 67000001 cycles: 229069559 heartbeat IPC: 0.274907 cumulative IPC: 0.254996 (Simulation time: 0 hr 52 min 37 sec) 
Heartbeat CPU 0 instructions: 68000000 cycles: 232833061 heartbeat IPC: 0.26571 cumulative IPC: 0.255173 (Simulation time: 0 hr 53 min 29 sec) 
Heartbeat CPU 0 instructions: 69000003 cycles: 236615568 heartbeat IPC: 0.264376 cumulative IPC: 0.255324 (Simulation time: 0 hr 54 min 19 sec) 
Heartbeat CPU 0 instructions: 70000000 cycles: 240439855 heartbeat IPC: 0.261486 cumulative IPC: 0.255424 (Simulation time: 0 hr 55 min 11 sec) 
Heartbeat CPU 0 instructions: 71000002 cycles: 244057512 heartbeat IPC: 0.276423 cumulative IPC: 0.255742 (Simulation time: 0 hr 55 min 56 sec) 
Heartbeat CPU 0 instructions: 72000000 cycles: 247656045 heartbeat IPC: 0.27789 cumulative IPC: 0.256072 (Simulation time: 0 hr 56 min 44 sec) 
Heartbeat CPU 0 instructions: 73000003 cycles: 251252872 heartbeat IPC: 0.278024 cumulative IPC: 0.256393 (Simulation time: 0 hr 57 min 30 sec) 
Heartbeat CPU 0 instructions: 74000000 cycles: 254867333 heartbeat IPC: 0.276666 cumulative IPC: 0.256687 (Simulation time: 0 hr 58 min 12 sec) 
Heartbeat CPU 0 instructions: 75000000 cycles: 258479301 heartbeat IPC: 0.276857 cumulative IPC: 0.256975 (Simulation time: 0 hr 58 min 57 sec) 
Heartbeat CPU 0 instructions: 76000000 cycles: 262114118 heartbeat IPC: 0.275117 cumulative IPC: 0.257232 (Simulation time: 0 hr 59 min 40 sec) 
Heartbeat CPU 0 instructions: 77000000 cycles: 265718515 heartbeat IPC: 0.277439 cumulative IPC: 0.257512 (Simulation time: 1 hr 0 min 21 sec) 
Heartbeat CPU 0 instructions: 78000003 cycles: 269270153 heartbeat IPC: 0.281561 cumulative IPC: 0.257836 (Simulation time: 1 hr 1 min 4 sec) 
Heartbeat CPU 0 instructions: 79000000 cycles: 272848243 heartbeat IPC: 0.279478 cumulative IPC: 0.258125 (Simulation time: 1 hr 1 min 47 sec) 
Heartbeat CPU 0 instructions: 80000000 cycles: 276394858 heartbeat IPC: 0.281959 cumulative IPC: 0.258437 (Simulation time: 1 hr 2 min 28 sec) 
Heartbeat CPU 0 instructions: 81000001 cycles: 279928489 heartbeat IPC: 0.282995 cumulative IPC: 0.258754 (Simulation time: 1 hr 3 min 10 sec) 
Heartbeat CPU 0 instructions: 82000000 cycles: 283466321 heartbeat IPC: 0.282659 cumulative IPC: 0.259058 (Simulation time: 1 hr 3 min 49 sec) 
Heartbeat CPU 0 instructions: 83000003 cycles: 287024044 heartbeat IPC: 0.28108 cumulative IPC: 0.259336 (Simulation time: 1 hr 4 min 30 sec) 
Heartbeat CPU 0 instructions: 84000000 cycles: 290564180 heartbeat IPC: 0.282474 cumulative IPC: 0.259624 (Simulation time: 1 hr 5 min 6 sec) 
Heartbeat CPU 0 instructions: 85000000 cycles: 294098267 heartbeat IPC: 0.282959 cumulative IPC: 0.259909 (Simulation time: 1 hr 5 min 40 sec) 
Heartbeat CPU 0 instructions: 86000001 cycles: 297642081 heartbeat IPC: 0.282182 cumulative IPC: 0.26018 (Simulation time: 1 hr 6 min 12 sec) 
Heartbeat CPU 0 instructions: 87000001 cycles: 301193128 heartbeat IPC: 0.281607 cumulative IPC: 0.260437 (Simulation time: 1 hr 6 min 44 sec) 
Heartbeat CPU 0 instructions: 88000000 cycles: 304733314 heartbeat IPC: 0.282471 cumulative IPC: 0.260698 (Simulation time: 1 hr 7 min 15 sec) 
Heartbeat CPU 0 instructions: 89000003 cycles: 308271800 heartbeat IPC: 0.282608 cumulative IPC: 0.260954 (Simulation time: 1 hr 7 min 43 sec) 
Heartbeat CPU 0 instructions: 90000000 cycles: 311811515 heartbeat IPC: 0.282508 cumulative IPC: 0.261203 (Simulation time: 1 hr 8 min 12 sec) 
Heartbeat CPU 0 instructions: 91000000 cycles: 315340352 heartbeat IPC: 0.283379 cumulative IPC: 0.261456 (Simulation time: 1 hr 8 min 42 sec) 
Heartbeat CPU 0 instructions: 92000000 cycles: 318852764 heartbeat IPC: 0.284705 cumulative IPC: 0.261716 (Simulation time: 1 hr 9 min 15 sec) 
Heartbeat CPU 0 instructions: 93000001 cycles: 322368971 heartbeat IPC: 0.284398 cumulative IPC: 0.261968 (Simulation time: 1 hr 9 min 45 sec) 
Heartbeat CPU 0 instructions: 94000003 cycles: 325874069 heartbeat IPC: 0.285299 cumulative IPC: 0.262223 (Simulation time: 1 hr 10 min 13 sec) 
Heartbeat CPU 0 instructions: 95000002 cycles: 329387616 heartbeat IPC: 0.284612 cumulative IPC: 0.262466 (Simulation time: 1 hr 10 min 42 sec) 
Heartbeat CPU 0 instructions: 96000000 cycles: 332883254 heartbeat IPC: 0.28607 cumulative IPC: 0.262718 (Simulation time: 1 hr 11 min 10 sec) 
Heartbeat CPU 0 instructions: 97000000 cycles: 336375325 heartbeat IPC: 0.286363 cumulative IPC: 0.262968 (Simulation time: 1 hr 11 min 36 sec) 
Heartbeat CPU 0 instructions: 98000000 cycles: 339860464 heartbeat IPC: 0.286933 cumulative IPC: 0.263218 (Simulation time: 1 hr 12 min 0 sec) 
Heartbeat CPU 0 instructions: 99000000 cycles: 343365943 heartbeat IPC: 0.285268 cumulative IPC: 0.263446 (Simulation time: 1 hr 12 min 23 sec) 
Heartbeat CPU 0 instructions: 100000000 cycles: 346901070 heartbeat IPC: 0.282875 cumulative IPC: 0.263648 (Simulation time: 1 hr 12 min 44 sec) 
Heartbeat CPU 0 instructions: 101000003 cycles: 350410238 heartbeat IPC: 0.284969 cumulative IPC: 0.263865 (Simulation time: 1 hr 13 min 2 sec) 
Heartbeat CPU 0 instructions: 102000000 cycles: 353887373 heartbeat IPC: 0.287592 cumulative IPC: 0.264101 (Simulation time: 1 hr 13 min 19 sec) 
Heartbeat CPU 0 instructions: 103000002 cycles: 358106620 heartbeat IPC: 0.23701 cumulative IPC: 0.263777 (Simulation time: 1 hr 13 min 35 sec) 
Heartbeat CPU 0 instructions: 104000000 cycles: 362231058 heartbeat IPC: 0.242457 cumulative IPC: 0.263531 (Simulation time: 1 hr 13 min 52 sec) 
Heartbeat CPU 0 instructions: 105000000 cycles: 366138684 heartbeat IPC: 0.25591 cumulative IPC: 0.263448 (Simulation time: 1 hr 14 min 8 sec) 
Heartbeat CPU 0 instructions: 106000002 cycles: 370002922 heartbeat IPC: 0.258784 cumulative IPC: 0.263399 (Simulation time: 1 hr 14 min 23 sec) 
Heartbeat CPU 0 instructions: 107000001 cycles: 373926097 heartbeat IPC: 0.254895 cumulative IPC: 0.263308 (Simulation time: 1 hr 14 min 38 sec) 
Heartbeat CPU 0 instructions: 108000000 cycles: 377738499 heartbeat IPC: 0.262302 cumulative IPC: 0.263298 (Simulation time: 1 hr 14 min 53 sec) 
Heartbeat CPU 0 instructions: 109000000 cycles: 381466928 heartbeat IPC: 0.268209 cumulative IPC: 0.263346 (Simulation time: 1 hr 15 min 6 sec) 
Heartbeat CPU 0 instructions: 110000002 cycles: 385165316 heartbeat IPC: 0.270389 cumulative IPC: 0.263415 (Simulation time: 1 hr 15 min 20 sec) 
Finished CPU 0 instructions: 100000001 cycles: 379629055 cummulative IPC: 0.263415 (Simulation time: 1 hr 15 min 20 sec) 

ChampSim completed all CPUs

Region of Interest Statistics

CPU 0 cummulative IPC: 0.263415 instructions: 100000001 cycles: 379629055
LLC TOTAL     ACCESS:    2541130  HIT:     359980  MISS:    2181150
LLC LOAD      ACCESS:     647436  HIT:      69403  MISS:     578033
LLC RFO       ACCESS:     277812  HIT:      33055  MISS:     244757
LLC PREFETCH  ACCESS:    1132174  HIT:      89429  MISS:    1042745
LLC WRITEBACK ACCESS:     483708  HIT:     168093  MISS:     315615
Insertion Distribution: 
	LOAD 10875 0 90909 577043 
	RFO 23176 0 56625 288618 
	PREF 0 13112 161828 1134416 
	WRITEBACK 0 0 0 469453 
Total Prefetch Downgrades: 14742
