
*** ChampSim Multicore Out-of-Order Simulator ***

Warmup Instructions: 10000000
Simulation Instructions: 100000000
Configuration: 2
Number of CPUs: 1
LLC sets: 2048
LLC ways: 16
Off-chip DRAM Channels: 1 Width: 64-bit Data Rate: 1600 MT/s

CPU 0 runs /datasets/cs240c-wi22-a00-public/data/Assignment2-gz/soplex_66B.trace.gz
CPU 0 L1D next line prefetcher
CPU 0 L2C IP-based stride prefetcher
Initialize SRRIP state
Heartbeat CPU 0 instructions: 1000003 cycles: 415052 heartbeat IPC: 2.40934 cumulative IPC: 2.40934 (Simulation time: 0 hr 0 min 31 sec) 
Heartbeat CPU 0 instructions: 2000003 cycles: 837388 heartbeat IPC: 2.36778 cumulative IPC: 2.38838 (Simulation time: 0 hr 1 min 0 sec) 
Heartbeat CPU 0 instructions: 3000003 cycles: 1242401 heartbeat IPC: 2.46906 cumulative IPC: 2.41468 (Simulation time: 0 hr 1 min 30 sec) 
Heartbeat CPU 0 instructions: 4000000 cycles: 1626512 heartbeat IPC: 2.60341 cumulative IPC: 2.45925 (Simulation time: 0 hr 1 min 57 sec) 
Heartbeat CPU 0 instructions: 5000000 cycles: 2041194 heartbeat IPC: 2.41149 cumulative IPC: 2.44955 (Simulation time: 0 hr 2 min 25 sec) 
Heartbeat CPU 0 instructions: 6000000 cycles: 2514765 heartbeat IPC: 2.11162 cumulative IPC: 2.38591 (Simulation time: 0 hr 2 min 54 sec) 
Heartbeat CPU 0 instructions: 7000002 cycles: 2886905 heartbeat IPC: 2.68717 cumulative IPC: 2.42474 (Simulation time: 0 hr 3 min 23 sec) 
Heartbeat CPU 0 instructions: 8000000 cycles: 3312448 heartbeat IPC: 2.34993 cumulative IPC: 2.41513 (Simulation time: 0 hr 3 min 54 sec) 
Heartbeat CPU 0 instructions: 9000001 cycles: 3751038 heartbeat IPC: 2.28004 cumulative IPC: 2.39934 (Simulation time: 0 hr 4 min 23 sec) 
Heartbeat CPU 0 instructions: 10000002 cycles: 4163201 heartbeat IPC: 2.42623 cumulative IPC: 2.402 (Simulation time: 0 hr 4 min 53 sec) 

Warmup complete CPU 0 instructions: 10000002 cycles: 4163201 (Simulation time: 0 hr 4 min 53 sec) 

Heartbeat CPU 0 instructions: 11000001 cycles: 7297929 heartbeat IPC: 0.319007 cumulative IPC: 0.319007 (Simulation time: 0 hr 5 min 30 sec) 
Heartbeat CPU 0 instructions: 12000000 cycles: 8605043 heartbeat IPC: 0.765043 cumulative IPC: 0.450263 (Simulation time: 0 hr 5 min 55 sec) 
Heartbeat CPU 0 instructions: 13000001 cycles: 11168487 heartbeat IPC: 0.390101 cumulative IPC: 0.428248 (Simulation time: 0 hr 6 min 27 sec) 
Heartbeat CPU 0 instructions: 14000002 cycles: 13635192 heartbeat IPC: 0.4054 cumulative IPC: 0.422298 (Simulation time: 0 hr 7 min 1 sec) 
Heartbeat CPU 0 instructions: 15000002 cycles: 16058455 heartbeat IPC: 0.412667 cumulative IPC: 0.420336 (Simulation time: 0 hr 7 min 30 sec) 
Heartbeat CPU 0 instructions: 16000000 cycles: 18948645 heartbeat IPC: 0.345997 cumulative IPC: 0.405804 (Simulation time: 0 hr 8 min 10 sec) 
Heartbeat CPU 0 instructions: 17000001 cycles: 21289321 heartbeat IPC: 0.427227 cumulative IPC: 0.408732 (Simulation time: 0 hr 8 min 54 sec) 
Heartbeat CPU 0 instructions: 18000000 cycles: 23223892 heartbeat IPC: 0.51691 cumulative IPC: 0.419712 (Simulation time: 0 hr 9 min 29 sec) 
Heartbeat CPU 0 instructions: 19000002 cycles: 26569488 heartbeat IPC: 0.298901 cumulative IPC: 0.401673 (Simulation time: 0 hr 10 min 15 sec) 
Heartbeat CPU 0 instructions: 20000000 cycles: 27832563 heartbeat IPC: 0.791717 cumulative IPC: 0.422487 (Simulation time: 0 hr 10 min 43 sec) 
Heartbeat CPU 0 instructions: 21000000 cycles: 29991116 heartbeat IPC: 0.463273 cumulative IPC: 0.425896 (Simulation time: 0 hr 11 min 15 sec) 
Heartbeat CPU 0 instructions: 22000000 cycles: 32727320 heartbeat IPC: 0.36547 cumulative IPC: 0.420107 (Simulation time: 0 hr 11 min 53 sec) 
Heartbeat CPU 0 instructions: 23000000 cycles: 35137237 heartbeat IPC: 0.414952 cumulative IPC: 0.419706 (Simulation time: 0 hr 12 min 22 sec) 
Heartbeat CPU 0 instructions: 24000000 cycles: 37635555 heartbeat IPC: 0.400269 cumulative IPC: 0.418256 (Simulation time: 0 hr 12 min 53 sec) 
Heartbeat CPU 0 instructions: 25000003 cycles: 40073574 heartbeat IPC: 0.41017 cumulative IPC: 0.417707 (Simulation time: 0 hr 13 min 37 sec) 
Heartbeat CPU 0 instructions: 26000001 cycles: 42223414 heartbeat IPC: 0.46515 cumulative IPC: 0.420386 (Simulation time: 0 hr 14 min 14 sec) 
Heartbeat CPU 0 instructions: 27000002 cycles: 45541208 heartbeat IPC: 0.301405 cumulative IPC: 0.410846 (Simulation time: 0 hr 14 min 55 sec) 
Heartbeat CPU 0 instructions: 28000000 cycles: 46878059 heartbeat IPC: 0.748025 cumulative IPC: 0.421399 (Simulation time: 0 hr 15 min 20 sec) 
Heartbeat CPU 0 instructions: 29000002 cycles: 48698717 heartbeat IPC: 0.549253 cumulative IPC: 0.426626 (Simulation time: 0 hr 15 min 48 sec) 
Heartbeat CPU 0 instructions: 30000000 cycles: 51590671 heartbeat IPC: 0.345786 cumulative IPC: 0.421696 (Simulation time: 0 hr 16 min 24 sec) 
Heartbeat CPU 0 instructions: 31000001 cycles: 54064754 heartbeat IPC: 0.404191 cumulative IPC: 0.420829 (Simulation time: 0 hr 16 min 54 sec) 
Heartbeat CPU 0 instructions: 32000000 cycles: 56502006 heartbeat IPC: 0.410298 cumulative IPC: 0.420338 (Simulation time: 0 hr 17 min 24 sec) 
Heartbeat CPU 0 instructions: 33000001 cycles: 59812221 heartbeat IPC: 0.302095 cumulative IPC: 0.413305 (Simulation time: 0 hr 18 min 13 sec) 
Heartbeat CPU 0 instructions: 34000003 cycles: 61756013 heartbeat IPC: 0.514459 cumulative IPC: 0.416719 (Simulation time: 0 hr 18 min 54 sec) 
Heartbeat CPU 0 instructions: 35000003 cycles: 64682194 heartbeat IPC: 0.341742 cumulative IPC: 0.413093 (Simulation time: 0 hr 19 min 35 sec) 
Heartbeat CPU 0 instructions: 36000000 cycles: 66013493 heartbeat IPC: 0.751144 cumulative IPC: 0.42037 (Simulation time: 0 hr 20 min 4 sec) 
Heartbeat CPU 0 instructions: 37000000 cycles: 68577067 heartbeat IPC: 0.39008 cumulative IPC: 0.419164 (Simulation time: 0 hr 20 min 43 sec) 
Heartbeat CPU 0 instructions: 38000001 cycles: 71039815 heartbeat IPC: 0.406051 cumulative IPC: 0.418681 (Simulation time: 0 hr 21 min 21 sec) 
Heartbeat CPU 0 instructions: 39000003 cycles: 73464196 heartbeat IPC: 0.412477 cumulative IPC: 0.418464 (Simulation time: 0 hr 21 min 55 sec) 
Heartbeat CPU 0 instructions: 40000000 cycles: 76276403 heartbeat IPC: 0.355592 cumulative IPC: 0.416013 (Simulation time: 0 hr 22 min 34 sec) 
Heartbeat CPU 0 instructions: 41000001 cycles: 78476893 heartbeat IPC: 0.454445 cumulative IPC: 0.417151 (Simulation time: 0 hr 23 min 17 sec) 
Heartbeat CPU 0 instructions: 42000003 cycles: 80416015 heartbeat IPC: 0.515698 cumulative IPC: 0.419657 (Simulation time: 0 hr 23 min 58 sec) 
Heartbeat CPU 0 instructions: 43000000 cycles: 83718882 heartbeat IPC: 0.302766 cumulative IPC: 0.414804 (Simulation time: 0 hr 24 min 42 sec) 
Heartbeat CPU 0 instructions: 44000000 cycles: 85005757 heartbeat IPC: 0.777076 cumulative IPC: 0.420571 (Simulation time: 0 hr 25 min 8 sec) 
Heartbeat CPU 0 instructions: 45000003 cycles: 87180719 heartbeat IPC: 0.45978 cumulative IPC: 0.421598 (Simulation time: 0 hr 25 min 44 sec) 
Heartbeat CPU 0 instructions: 46000003 cycles: 89900412 heartbeat IPC: 0.367689 cumulative IPC: 0.419888 (Simulation time: 0 hr 26 min 22 sec) 
Heartbeat CPU 0 instructions: 47000001 cycles: 92316338 heartbeat IPC: 0.413919 cumulative IPC: 0.419724 (Simulation time: 0 hr 26 min 55 sec) 
Heartbeat CPU 0 instructions: 48000000 cycles: 94812348 heartbeat IPC: 0.400639 cumulative IPC: 0.419199 (Simulation time: 0 hr 27 min 31 sec) 
Heartbeat CPU 0 instructions: 49000000 cycles: 98318664 heartbeat IPC: 0.2852 cumulative IPC: 0.414209 (Simulation time: 0 hr 28 min 32 sec) 
Heartbeat CPU 0 instructions: 50000003 cycles: 103752323 heartbeat IPC: 0.184039 cumulative IPC: 0.40165 (Simulation time: 0 hr 29 min 29 sec) 
Heartbeat CPU 0 instructions: 51000002 cycles: 106141858 heartbeat IPC: 0.418491 cumulative IPC: 0.402045 (Simulation time: 0 hr 30 min 24 sec) 
Heartbeat CPU 0 instructions: 52000000 cycles: 109833435 heartbeat IPC: 0.270886 cumulative IPC: 0.397463 (Simulation time: 0 hr 31 min 14 sec) 
Heartbeat CPU 0 instructions: 53000003 cycles: 112494447 heartbeat IPC: 0.375798 cumulative IPC: 0.396931 (Simulation time: 0 hr 32 min 0 sec) 
Heartbeat CPU 0 instructions: 54000000 cycles: 114965582 heartbeat IPC: 0.404671 cumulative IPC: 0.397103 (Simulation time: 0 hr 32 min 47 sec) 
Heartbeat CPU 0 instructions: 55000002 cycles: 118487474 heartbeat IPC: 0.283939 cumulative IPC: 0.393617 (Simulation time: 0 hr 33 min 33 sec) 
Heartbeat CPU 0 instructions: 56000000 cycles: 121805493 heartbeat IPC: 0.301384 cumulative IPC: 0.391016 (Simulation time: 0 hr 34 min 23 sec) 
Heartbeat CPU 0 instructions: 57000003 cycles: 124329563 heartbeat IPC: 0.396187 cumulative IPC: 0.391124 (Simulation time: 0 hr 35 min 4 sec) 
Heartbeat CPU 0 instructions: 58000002 cycles: 126513520 heartbeat IPC: 0.457884 cumulative IPC: 0.392316 (Simulation time: 0 hr 35 min 48 sec) 
Heartbeat CPU 0 instructions: 59000002 cycles: 128057539 heartbeat IPC: 0.64766 cumulative IPC: 0.395498 (Simulation time: 0 hr 36 min 29 sec) 
Heartbeat CPU 0 instructions: 60000000 cycles: 129358121 heartbeat IPC: 0.768885 cumulative IPC: 0.399377 (Simulation time: 0 hr 37 min 7 sec) 
Heartbeat CPU 0 instructions: 61000002 cycles: 132200088 heartbeat IPC: 0.35187 cumulative IPC: 0.398323 (Simulation time: 0 hr 37 min 51 sec) 
Heartbeat CPU 0 instructions: 62000000 cycles: 134776415 heartbeat IPC: 0.388149 cumulative IPC: 0.398122 (Simulation time: 0 hr 38 min 38 sec) 
Heartbeat CPU 0 instructions: 63000002 cycles: 136691797 heartbeat IPC: 0.52209 cumulative IPC: 0.399914 (Simulation time: 0 hr 39 min 21 sec) 
Heartbeat CPU 0 instructions: 64000000 cycles: 139116536 heartbeat IPC: 0.412415 cumulative IPC: 0.400138 (Simulation time: 0 hr 40 min 0 sec) 
Heartbeat CPU 0 instructions: 65000000 cycles: 142601014 heartbeat IPC: 0.286987 cumulative IPC: 0.39729 (Simulation time: 0 hr 40 min 49 sec) 
Heartbeat CPU 0 instructions: 66000001 cycles: 143888325 heartbeat IPC: 0.776814 cumulative IPC: 0.400787 (Simulation time: 0 hr 41 min 18 sec) 
Heartbeat CPU 0 instructions: 67000000 cycles: 145174742 heartbeat IPC: 0.777352 cumulative IPC: 0.404222 (Simulation time: 0 hr 41 min 47 sec) 
Heartbeat CPU 0 instructions: 68000000 cycles: 148420182 heartbeat IPC: 0.308125 cumulative IPC: 0.40206 (Simulation time: 0 hr 42 min 33 sec) 
Heartbeat CPU 0 instructions: 69000000 cycles: 150990118 heartbeat IPC: 0.389115 cumulative IPC: 0.401834 (Simulation time: 0 hr 43 min 9 sec) 
Heartbeat CPU 0 instructions: 70000003 cycles: 153381623 heartbeat IPC: 0.418148 cumulative IPC: 0.402095 (Simulation time: 0 hr 43 min 42 sec) 
Heartbeat CPU 0 instructions: 71000000 cycles: 155838777 heartbeat IPC: 0.406974 cumulative IPC: 0.402174 (Simulation time: 0 hr 44 min 28 sec) 
Heartbeat CPU 0 instructions: 72000000 cycles: 158508219 heartbeat IPC: 0.37461 cumulative IPC: 0.401697 (Simulation time: 0 hr 45 min 10 sec) 
Heartbeat CPU 0 instructions: 73000001 cycles: 161283333 heartbeat IPC: 0.360346 cumulative IPC: 0.400967 (Simulation time: 0 hr 45 min 59 sec) 
Heartbeat CPU 0 instructions: 74000000 cycles: 163248587 heartbeat IPC: 0.50884 cumulative IPC: 0.4023 (Simulation time: 0 hr 46 min 32 sec) 
Heartbeat CPU 0 instructions: 75000002 cycles: 164572874 heartbeat IPC: 0.755125 cumulative IPC: 0.405212 (Simulation time: 0 hr 47 min 0 sec) 
Heartbeat CPU 0 instructions: 76000000 cycles: 167702046 heartbeat IPC: 0.319573 cumulative IPC: 0.403574 (Simulation time: 0 hr 47 min 43 sec) 
Heartbeat CPU 0 instructions: 77000000 cycles: 170129930 heartbeat IPC: 0.411881 cumulative IPC: 0.403695 (Simulation time: 0 hr 48 min 17 sec) 
Heartbeat CPU 0 instructions: 78000003 cycles: 172546973 heartbeat IPC: 0.41373 cumulative IPC: 0.403839 (Simulation time: 0 hr 48 min 50 sec) 
Heartbeat CPU 0 instructions: 79000001 cycles: 175631645 heartbeat IPC: 0.324183 cumulative IPC: 0.402406 (Simulation time: 0 hr 49 min 40 sec) 
Heartbeat CPU 0 instructions: 80000000 cycles: 178161787 heartbeat IPC: 0.395234 cumulative IPC: 0.402302 (Simulation time: 0 hr 50 min 22 sec) 
Heartbeat CPU 0 instructions: 81000003 cycles: 181145209 heartbeat IPC: 0.335187 cumulative IPC: 0.401171 (Simulation time: 0 hr 51 min 12 sec) 
Heartbeat CPU 0 instructions: 82000000 cycles: 182879751 heartbeat IPC: 0.576519 cumulative IPC: 0.402873 (Simulation time: 0 hr 51 min 42 sec) 
Heartbeat CPU 0 instructions: 83000001 cycles: 184204031 heartbeat IPC: 0.755128 cumulative IPC: 0.405464 (Simulation time: 0 hr 52 min 12 sec) 
Heartbeat CPU 0 instructions: 84000000 cycles: 187383722 heartbeat IPC: 0.314496 cumulative IPC: 0.403885 (Simulation time: 0 hr 52 min 55 sec) 
Heartbeat CPU 0 instructions: 85000000 cycles: 189775162 heartbeat IPC: 0.418158 cumulative IPC: 0.404069 (Simulation time: 0 hr 53 min 27 sec) 
Heartbeat CPU 0 instructions: 86000000 cycles: 192237534 heartbeat IPC: 0.406112 cumulative IPC: 0.404096 (Simulation time: 0 hr 54 min 0 sec) 
Heartbeat CPU 0 instructions: 87000000 cycles: 195140682 heartbeat IPC: 0.344454 cumulative IPC: 0.403189 (Simulation time: 0 hr 54 min 49 sec) 
Heartbeat CPU 0 instructions: 88000000 cycles: 197363688 heartbeat IPC: 0.449841 cumulative IPC: 0.403726 (Simulation time: 0 hr 55 min 26 sec) 
Heartbeat CPU 0 instructions: 89000001 cycles: 200656917 heartbeat IPC: 0.303654 cumulative IPC: 0.402048 (Simulation time: 0 hr 56 min 11 sec) 
Heartbeat CPU 0 instructions: 90000002 cycles: 201994511 heartbeat IPC: 0.747612 cumulative IPC: 0.404385 (Simulation time: 0 hr 56 min 38 sec) 
Heartbeat CPU 0 instructions: 91000000 cycles: 203392978 heartbeat IPC: 0.715067 cumulative IPC: 0.406566 (Simulation time: 0 hr 57 min 5 sec) 
Heartbeat CPU 0 instructions: 92000000 cycles: 206518729 heartbeat IPC: 0.319923 cumulative IPC: 0.405227 (Simulation time: 0 hr 57 min 44 sec) 
Heartbeat CPU 0 instructions: 93000000 cycles: 209064784 heartbeat IPC: 0.392764 cumulative IPC: 0.405073 (Simulation time: 0 hr 58 min 15 sec) 
Heartbeat CPU 0 instructions: 94000001 cycles: 211467148 heartbeat IPC: 0.416257 cumulative IPC: 0.405202 (Simulation time: 0 hr 58 min 45 sec) 
Heartbeat CPU 0 instructions: 95000003 cycles: 214687187 heartbeat IPC: 0.310556 cumulative IPC: 0.403754 (Simulation time: 0 hr 59 min 28 sec) 
Heartbeat CPU 0 instructions: 96000000 cycles: 216587064 heartbeat IPC: 0.526348 cumulative IPC: 0.404851 (Simulation time: 1 hr 0 min 2 sec) 
Heartbeat CPU 0 instructions: 97000003 cycles: 219733853 heartbeat IPC: 0.317785 cumulative IPC: 0.40358 (Simulation time: 1 hr 0 min 42 sec) 
Heartbeat CPU 0 instructions: 98000003 cycles: 221015854 heartbeat IPC: 0.780031 cumulative IPC: 0.405805 (Simulation time: 1 hr 1 min 6 sec) 
Heartbeat CPU 0 instructions: 99000000 cycles: 223342686 heartbeat IPC: 0.429768 cumulative IPC: 0.40606 (Simulation time: 1 hr 1 min 36 sec) 
Heartbeat CPU 0 instructions: 100000000 cycles: 225960465 heartbeat IPC: 0.382003 cumulative IPC: 0.405776 (Simulation time: 1 hr 2 min 8 sec) 
Heartbeat CPU 0 instructions: 101000001 cycles: 228405818 heartbeat IPC: 0.408939 cumulative IPC: 0.40581 (Simulation time: 1 hr 2 min 36 sec) 
Heartbeat CPU 0 instructions: 102000002 cycles: 231019493 heartbeat IPC: 0.382603 cumulative IPC: 0.405543 (Simulation time: 1 hr 3 min 4 sec) 
Heartbeat CPU 0 instructions: 103000002 cycles: 234217125 heartbeat IPC: 0.312731 cumulative IPC: 0.404253 (Simulation time: 1 hr 3 min 40 sec) 
Heartbeat CPU 0 instructions: 104000000 cycles: 236450461 heartbeat IPC: 0.44776 cumulative IPC: 0.404671 (Simulation time: 1 hr 4 min 16 sec) 
Heartbeat CPU 0 instructions: 105000000 cycles: 238840249 heartbeat IPC: 0.418447 cumulative IPC: 0.404812 (Simulation time: 1 hr 4 min 43 sec) 
Heartbeat CPU 0 instructions: 106000001 cycles: 240124217 heartbeat IPC: 0.778836 cumulative IPC: 0.406847 (Simulation time: 1 hr 5 min 5 sec) 
Heartbeat CPU 0 instructions: 107000001 cycles: 243080694 heartbeat IPC: 0.33824 cumulative IPC: 0.405998 (Simulation time: 1 hr 5 min 35 sec) 
Heartbeat CPU 0 instructions: 108000000 cycles: 245336548 heartbeat IPC: 0.443291 cumulative IPC: 0.406347 (Simulation time: 1 hr 5 min 57 sec) 
Heartbeat CPU 0 instructions: 109000003 cycles: 247811772 heartbeat IPC: 0.404005 cumulative IPC: 0.406323 (Simulation time: 1 hr 6 min 20 sec) 
Heartbeat CPU 0 instructions: 110000001 cycles: 250771108 heartbeat IPC: 0.337913 cumulative IPC: 0.405502 (Simulation time: 1 hr 6 min 51 sec) 
Finished CPU 0 instructions: 100000003 cycles: 246607908 cummulative IPC: 0.405502 (Simulation time: 1 hr 6 min 51 sec) 

ChampSim completed all CPUs

Region of Interest Statistics

CPU 0 cummulative IPC: 0.405502 instructions: 100000003 cycles: 246607908
LLC TOTAL     ACCESS:    6595677  HIT:    3319726  MISS:    3275951
LLC LOAD      ACCESS:    1694863  HIT:     780253  MISS:     914610
LLC RFO       ACCESS:     658482  HIT:     236334  MISS:     422148
LLC PREFETCH  ACCESS:    2681685  HIT:    1105667  MISS:    1576018
LLC WRITEBACK ACCESS:    1560647  HIT:    1197472  MISS:     363175
Insertion Distribution: 
	LOAD 168703 0 201541 620296 
	RFO 135104 0 188691 157145 
	PREF 0 48821 397280 1327250 
	WRITEBACK 0 0 0 385916 
Total Prefetch Downgrades: 89407
