
*** ChampSim Multicore Out-of-Order Simulator ***

Warmup Instructions: 10000000
Simulation Instructions: 100000000
Configuration: 2
Number of CPUs: 1
LLC sets: 2048
LLC ways: 16
Off-chip DRAM Channels: 1 Width: 64-bit Data Rate: 1600 MT/s

CPU 0 runs /datasets/cs240c-wi22-a00-public/data/Assignment2-gz/sphinx3_1339B.trace.gz
CPU 0 L1D next line prefetcher
CPU 0 L2C IP-based stride prefetcher
Initialize SRRIP state
Heartbeat CPU 0 instructions: 1000000 cycles: 339022 heartbeat IPC: 2.94966 cumulative IPC: 2.94966 (Simulation time: 0 hr 0 min 28 sec) 
Heartbeat CPU 0 instructions: 2000001 cycles: 693417 heartbeat IPC: 2.82171 cumulative IPC: 2.88427 (Simulation time: 0 hr 0 min 53 sec) 
Heartbeat CPU 0 instructions: 3000000 cycles: 1084463 heartbeat IPC: 2.55724 cumulative IPC: 2.76635 (Simulation time: 0 hr 1 min 28 sec) 
Heartbeat CPU 0 instructions: 4000000 cycles: 1529987 heartbeat IPC: 2.24455 cumulative IPC: 2.6144 (Simulation time: 0 hr 2 min 0 sec) 
Heartbeat CPU 0 instructions: 5000003 cycles: 1869000 heartbeat IPC: 2.94975 cumulative IPC: 2.67523 (Simulation time: 0 hr 2 min 30 sec) 
Heartbeat CPU 0 instructions: 6000002 cycles: 2253252 heartbeat IPC: 2.60246 cumulative IPC: 2.66282 (Simulation time: 0 hr 3 min 6 sec) 
Heartbeat CPU 0 instructions: 7000001 cycles: 2717012 heartbeat IPC: 2.15629 cumulative IPC: 2.57636 (Simulation time: 0 hr 3 min 34 sec) 
Heartbeat CPU 0 instructions: 8000000 cycles: 3055883 heartbeat IPC: 2.95097 cumulative IPC: 2.6179 (Simulation time: 0 hr 4 min 0 sec) 
Heartbeat CPU 0 instructions: 9000003 cycles: 3412474 heartbeat IPC: 2.80434 cumulative IPC: 2.63738 (Simulation time: 0 hr 4 min 26 sec) 
Heartbeat CPU 0 instructions: 10000001 cycles: 3799222 heartbeat IPC: 2.58566 cumulative IPC: 2.63212 (Simulation time: 0 hr 4 min 56 sec) 

Warmup complete CPU 0 instructions: 10000001 cycles: 3799222 (Simulation time: 0 hr 4 min 56 sec) 

Heartbeat CPU 0 instructions: 11000001 cycles: 4706429 heartbeat IPC: 1.10228 cumulative IPC: 1.10228 (Simulation time: 0 hr 5 min 29 sec) 
Heartbeat CPU 0 instructions: 12000000 cycles: 5543675 heartbeat IPC: 1.19439 cumulative IPC: 1.14649 (Simulation time: 0 hr 6 min 3 sec) 
Heartbeat CPU 0 instructions: 13000000 cycles: 6744313 heartbeat IPC: 0.832891 cumulative IPC: 1.01864 (Simulation time: 0 hr 6 min 34 sec) 
Heartbeat CPU 0 instructions: 14000000 cycles: 7605853 heartbeat IPC: 1.16071 cumulative IPC: 1.0508 (Simulation time: 0 hr 7 min 5 sec) 
Heartbeat CPU 0 instructions: 15000001 cycles: 8488543 heartbeat IPC: 1.1329 cumulative IPC: 1.06625 (Simulation time: 0 hr 7 min 43 sec) 
Heartbeat CPU 0 instructions: 16000000 cycles: 9491150 heartbeat IPC: 0.997399 cumulative IPC: 1.05412 (Simulation time: 0 hr 8 min 22 sec) 
Heartbeat CPU 0 instructions: 17000001 cycles: 10814679 heartbeat IPC: 0.755557 cumulative IPC: 0.997797 (Simulation time: 0 hr 9 min 3 sec) 
Heartbeat CPU 0 instructions: 18000003 cycles: 11873105 heartbeat IPC: 0.944801 cumulative IPC: 0.990849 (Simulation time: 0 hr 9 min 40 sec) 
Heartbeat CPU 0 instructions: 19000002 cycles: 12728039 heartbeat IPC: 1.16968 cumulative IPC: 1.00797 (Simulation time: 0 hr 10 min 14 sec) 
Heartbeat CPU 0 instructions: 20000000 cycles: 13601016 heartbeat IPC: 1.1455 cumulative IPC: 1.02022 (Simulation time: 0 hr 10 min 50 sec) 
Heartbeat CPU 0 instructions: 21000000 cycles: 14738626 heartbeat IPC: 0.879036 cumulative IPC: 1.00554 (Simulation time: 0 hr 11 min 25 sec) 
Heartbeat CPU 0 instructions: 22000000 cycles: 15710980 heartbeat IPC: 1.02843 cumulative IPC: 1.00741 (Simulation time: 0 hr 11 min 56 sec) 
Heartbeat CPU 0 instructions: 23000003 cycles: 16601917 heartbeat IPC: 1.12242 cumulative IPC: 1.01541 (Simulation time: 0 hr 12 min 30 sec) 
Heartbeat CPU 0 instructions: 24000000 cycles: 17527513 heartbeat IPC: 1.08038 cumulative IPC: 1.01979 (Simulation time: 0 hr 13 min 0 sec) 
Heartbeat CPU 0 instructions: 25000001 cycles: 18433572 heartbeat IPC: 1.10368 cumulative IPC: 1.02499 (Simulation time: 0 hr 13 min 29 sec) 
Heartbeat CPU 0 instructions: 26000003 cycles: 19294280 heartbeat IPC: 1.16184 cumulative IPC: 1.03259 (Simulation time: 0 hr 13 min 59 sec) 
Heartbeat CPU 0 instructions: 27000000 cycles: 20138087 heartbeat IPC: 1.1851 cumulative IPC: 1.04046 (Simulation time: 0 hr 14 min 36 sec) 
Heartbeat CPU 0 instructions: 28000000 cycles: 21060089 heartbeat IPC: 1.0846 cumulative IPC: 1.04282 (Simulation time: 0 hr 15 min 12 sec) 
Heartbeat CPU 0 instructions: 29000003 cycles: 21914989 heartbeat IPC: 1.16973 cumulative IPC: 1.04881 (Simulation time: 0 hr 15 min 46 sec) 
Heartbeat CPU 0 instructions: 30000003 cycles: 22749986 heartbeat IPC: 1.19761 cumulative IPC: 1.05537 (Simulation time: 0 hr 16 min 19 sec) 
Heartbeat CPU 0 instructions: 31000002 cycles: 23637924 heartbeat IPC: 1.1262 cumulative IPC: 1.05854 (Simulation time: 0 hr 16 min 51 sec) 
Heartbeat CPU 0 instructions: 32000000 cycles: 24526724 heartbeat IPC: 1.12511 cumulative IPC: 1.06139 (Simulation time: 0 hr 17 min 25 sec) 
Heartbeat CPU 0 instructions: 33000001 cycles: 25367656 heartbeat IPC: 1.18916 cumulative IPC: 1.06637 (Simulation time: 0 hr 18 min 2 sec) 
Heartbeat CPU 0 instructions: 34000001 cycles: 26729045 heartbeat IPC: 0.734544 cumulative IPC: 1.04667 (Simulation time: 0 hr 18 min 40 sec) 
Heartbeat CPU 0 instructions: 35000002 cycles: 27628727 heartbeat IPC: 1.1115 cumulative IPC: 1.04912 (Simulation time: 0 hr 19 min 17 sec) 
Heartbeat CPU 0 instructions: 36000000 cycles: 28522004 heartbeat IPC: 1.11947 cumulative IPC: 1.05166 (Simulation time: 0 hr 19 min 53 sec) 
Heartbeat CPU 0 instructions: 37000003 cycles: 29518923 heartbeat IPC: 1.00309 cumulative IPC: 1.04978 (Simulation time: 0 hr 20 min 31 sec) 
Heartbeat CPU 0 instructions: 38000000 cycles: 30672332 heartbeat IPC: 0.866993 cumulative IPC: 1.04193 (Simulation time: 0 hr 21 min 8 sec) 
Heartbeat CPU 0 instructions: 39000003 cycles: 31569800 heartbeat IPC: 1.11425 cumulative IPC: 1.04427 (Simulation time: 0 hr 21 min 46 sec) 
Heartbeat CPU 0 instructions: 40000000 cycles: 32438951 heartbeat IPC: 1.15054 cumulative IPC: 1.0475 (Simulation time: 0 hr 22 min 25 sec) 
Heartbeat CPU 0 instructions: 41000000 cycles: 33669234 heartbeat IPC: 0.812821 cumulative IPC: 1.03783 (Simulation time: 0 hr 23 min 4 sec) 
Heartbeat CPU 0 instructions: 42000002 cycles: 34537406 heartbeat IPC: 1.15185 cumulative IPC: 1.04105 (Simulation time: 0 hr 23 min 38 sec) 
Heartbeat CPU 0 instructions: 43000001 cycles: 35428262 heartbeat IPC: 1.12251 cumulative IPC: 1.04334 (Simulation time: 0 hr 24 min 16 sec) 
Heartbeat CPU 0 instructions: 44000000 cycles: 36481140 heartbeat IPC: 0.949777 cumulative IPC: 1.04033 (Simulation time: 0 hr 24 min 55 sec) 
Heartbeat CPU 0 instructions: 45000002 cycles: 37474063 heartbeat IPC: 1.00713 cumulative IPC: 1.03935 (Simulation time: 0 hr 25 min 31 sec) 
Heartbeat CPU 0 instructions: 46000003 cycles: 38341083 heartbeat IPC: 1.15338 cumulative IPC: 1.04221 (Simulation time: 0 hr 26 min 8 sec) 
Heartbeat CPU 0 instructions: 47000000 cycles: 39207713 heartbeat IPC: 1.15389 cumulative IPC: 1.04495 (Simulation time: 0 hr 26 min 45 sec) 
Heartbeat CPU 0 instructions: 48000000 cycles: 40172137 heartbeat IPC: 1.03689 cumulative IPC: 1.04473 (Simulation time: 0 hr 27 min 22 sec) 
Heartbeat CPU 0 instructions: 49000000 cycles: 41050989 heartbeat IPC: 1.13785 cumulative IPC: 1.04693 (Simulation time: 0 hr 28 min 0 sec) 
Heartbeat CPU 0 instructions: 50000000 cycles: 41905787 heartbeat IPC: 1.16987 cumulative IPC: 1.04969 (Simulation time: 0 hr 28 min 37 sec) 
Heartbeat CPU 0 instructions: 51000003 cycles: 43096662 heartbeat IPC: 0.839721 cumulative IPC: 1.04333 (Simulation time: 0 hr 29 min 15 sec) 
Heartbeat CPU 0 instructions: 52000000 cycles: 43936903 heartbeat IPC: 1.19013 cumulative IPC: 1.0464 (Simulation time: 0 hr 29 min 53 sec) 
Heartbeat CPU 0 instructions: 53000002 cycles: 44819232 heartbeat IPC: 1.13337 cumulative IPC: 1.04827 (Simulation time: 0 hr 30 min 30 sec) 
Heartbeat CPU 0 instructions: 54000003 cycles: 45977548 heartbeat IPC: 0.863323 cumulative IPC: 1.04319 (Simulation time: 0 hr 31 min 11 sec) 
Heartbeat CPU 0 instructions: 55000001 cycles: 46863832 heartbeat IPC: 1.1283 cumulative IPC: 1.04494 (Simulation time: 0 hr 31 min 46 sec) 
Heartbeat CPU 0 instructions: 56000000 cycles: 47754097 heartbeat IPC: 1.12326 cumulative IPC: 1.04653 (Simulation time: 0 hr 32 min 23 sec) 
Heartbeat CPU 0 instructions: 57000000 cycles: 48739423 heartbeat IPC: 1.01489 cumulative IPC: 1.04583 (Simulation time: 0 hr 33 min 0 sec) 
Heartbeat CPU 0 instructions: 58000000 cycles: 49815711 heartbeat IPC: 0.929119 cumulative IPC: 1.0431 (Simulation time: 0 hr 33 min 37 sec) 
Heartbeat CPU 0 instructions: 59000001 cycles: 50692623 heartbeat IPC: 1.14037 cumulative IPC: 1.04492 (Simulation time: 0 hr 34 min 15 sec) 
Heartbeat CPU 0 instructions: 60000000 cycles: 51557277 heartbeat IPC: 1.15653 cumulative IPC: 1.04694 (Simulation time: 0 hr 34 min 54 sec) 
Heartbeat CPU 0 instructions: 61000000 cycles: 52903178 heartbeat IPC: 0.742997 cumulative IPC: 1.03861 (Simulation time: 0 hr 35 min 34 sec) 
Heartbeat CPU 0 instructions: 62000002 cycles: 54046049 heartbeat IPC: 0.874991 cumulative IPC: 1.03489 (Simulation time: 0 hr 36 min 11 sec) 
Heartbeat CPU 0 instructions: 63000003 cycles: 54870178 heartbeat IPC: 1.2134 cumulative IPC: 1.03777 (Simulation time: 0 hr 36 min 47 sec) 
Heartbeat CPU 0 instructions: 64000000 cycles: 55758828 heartbeat IPC: 1.1253 cumulative IPC: 1.03927 (Simulation time: 0 hr 37 min 25 sec) 
Heartbeat CPU 0 instructions: 65000000 cycles: 56850699 heartbeat IPC: 0.915859 cumulative IPC: 1.03673 (Simulation time: 0 hr 38 min 3 sec) 
Heartbeat CPU 0 instructions: 66000001 cycles: 57813087 heartbeat IPC: 1.03908 cumulative IPC: 1.03677 (Simulation time: 0 hr 38 min 41 sec) 
Heartbeat CPU 0 instructions: 67000000 cycles: 58690573 heartbeat IPC: 1.13962 cumulative IPC: 1.03841 (Simulation time: 0 hr 39 min 20 sec) 
Heartbeat CPU 0 instructions: 68000000 cycles: 59604651 heartbeat IPC: 1.094 cumulative IPC: 1.03933 (Simulation time: 0 hr 39 min 58 sec) 
Heartbeat CPU 0 instructions: 69000003 cycles: 60726901 heartbeat IPC: 0.89107 cumulative IPC: 1.0364 (Simulation time: 0 hr 40 min 36 sec) 
Heartbeat CPU 0 instructions: 70000001 cycles: 61617461 heartbeat IPC: 1.12289 cumulative IPC: 1.03773 (Simulation time: 0 hr 41 min 14 sec) 
Heartbeat CPU 0 instructions: 71000001 cycles: 62486648 heartbeat IPC: 1.1505 cumulative IPC: 1.0394 (Simulation time: 0 hr 41 min 50 sec) 
Heartbeat CPU 0 instructions: 72000000 cycles: 63702131 heartbeat IPC: 0.822717 cumulative IPC: 1.03501 (Simulation time: 0 hr 42 min 27 sec) 
Heartbeat CPU 0 instructions: 73000001 cycles: 64543685 heartbeat IPC: 1.18828 cumulative IPC: 1.03713 (Simulation time: 0 hr 43 min 3 sec) 
Heartbeat CPU 0 instructions: 74000001 cycles: 65430861 heartbeat IPC: 1.12717 cumulative IPC: 1.03843 (Simulation time: 0 hr 43 min 41 sec) 
Heartbeat CPU 0 instructions: 75000003 cycles: 66520483 heartbeat IPC: 0.917751 cumulative IPC: 1.03633 (Simulation time: 0 hr 44 min 22 sec) 
Heartbeat CPU 0 instructions: 76000000 cycles: 67431265 heartbeat IPC: 1.09795 cumulative IPC: 1.03721 (Simulation time: 0 hr 44 min 58 sec) 
Heartbeat CPU 0 instructions: 77000002 cycles: 68318848 heartbeat IPC: 1.12666 cumulative IPC: 1.03844 (Simulation time: 0 hr 45 min 35 sec) 
Heartbeat CPU 0 instructions: 78000002 cycles: 69255297 heartbeat IPC: 1.06786 cumulative IPC: 1.03886 (Simulation time: 0 hr 46 min 11 sec) 
Heartbeat CPU 0 instructions: 79000001 cycles: 70298813 heartbeat IPC: 0.958298 cumulative IPC: 1.0376 (Simulation time: 0 hr 46 min 45 sec) 
Heartbeat CPU 0 instructions: 80000000 cycles: 71185146 heartbeat IPC: 1.12824 cumulative IPC: 1.03879 (Simulation time: 0 hr 47 min 22 sec) 
Heartbeat CPU 0 instructions: 81000001 cycles: 72055550 heartbeat IPC: 1.14889 cumulative IPC: 1.0402 (Simulation time: 0 hr 47 min 57 sec) 
Heartbeat CPU 0 instructions: 82000000 cycles: 73204249 heartbeat IPC: 0.870549 cumulative IPC: 1.03739 (Simulation time: 0 hr 48 min 35 sec) 
Heartbeat CPU 0 instructions: 83000001 cycles: 74058287 heartbeat IPC: 1.17091 cumulative IPC: 1.03901 (Simulation time: 0 hr 49 min 11 sec) 
Heartbeat CPU 0 instructions: 84000000 cycles: 74940398 heartbeat IPC: 1.13364 cumulative IPC: 1.04019 (Simulation time: 0 hr 49 min 47 sec) 
Heartbeat CPU 0 instructions: 85000002 cycles: 76063419 heartbeat IPC: 0.890457 cumulative IPC: 1.03786 (Simulation time: 0 hr 50 min 25 sec) 
Heartbeat CPU 0 instructions: 86000003 cycles: 76940652 heartbeat IPC: 1.13995 cumulative IPC: 1.03908 (Simulation time: 0 hr 51 min 1 sec) 
Heartbeat CPU 0 instructions: 87000001 cycles: 77836173 heartbeat IPC: 1.11667 cumulative IPC: 1.04002 (Simulation time: 0 hr 51 min 38 sec) 
Heartbeat CPU 0 instructions: 88000000 cycles: 78852183 heartbeat IPC: 0.984241 cumulative IPC: 1.03927 (Simulation time: 0 hr 52 min 15 sec) 
Heartbeat CPU 0 instructions: 89000000 cycles: 79841964 heartbeat IPC: 1.01032 cumulative IPC: 1.03889 (Simulation time: 0 hr 52 min 50 sec) 
Heartbeat CPU 0 instructions: 90000000 cycles: 80715950 heartbeat IPC: 1.14418 cumulative IPC: 1.04009 (Simulation time: 0 hr 53 min 29 sec) 
Heartbeat CPU 0 instructions: 91000000 cycles: 81589110 heartbeat IPC: 1.14527 cumulative IPC: 1.04127 (Simulation time: 0 hr 54 min 5 sec) 
Heartbeat CPU 0 instructions: 92000000 cycles: 82739645 heartbeat IPC: 0.869161 cumulative IPC: 1.03876 (Simulation time: 0 hr 54 min 43 sec) 
Heartbeat CPU 0 instructions: 93000001 cycles: 83611064 heartbeat IPC: 1.14755 cumulative IPC: 1.03995 (Simulation time: 0 hr 55 min 15 sec) 
Heartbeat CPU 0 instructions: 94000000 cycles: 84485471 heartbeat IPC: 1.14363 cumulative IPC: 1.04107 (Simulation time: 0 hr 55 min 47 sec) 
Heartbeat CPU 0 instructions: 95000002 cycles: 85679369 heartbeat IPC: 0.837594 cumulative IPC: 1.0381 (Simulation time: 0 hr 56 min 20 sec) 
Heartbeat CPU 0 instructions: 96000000 cycles: 86525859 heartbeat IPC: 1.18135 cumulative IPC: 1.03957 (Simulation time: 0 hr 56 min 53 sec) 
Heartbeat CPU 0 instructions: 97000002 cycles: 87413402 heartbeat IPC: 1.12671 cumulative IPC: 1.04049 (Simulation time: 0 hr 57 min 28 sec) 
Heartbeat CPU 0 instructions: 98000000 cycles: 88505545 heartbeat IPC: 0.915629 cumulative IPC: 1.03888 (Simulation time: 0 hr 57 min 59 sec) 
Heartbeat CPU 0 instructions: 99000003 cycles: 89579779 heartbeat IPC: 0.930899 cumulative IPC: 1.03753 (Simulation time: 0 hr 58 min 30 sec) 
Heartbeat CPU 0 instructions: 100000000 cycles: 90464212 heartbeat IPC: 1.13066 cumulative IPC: 1.03848 (Simulation time: 0 hr 59 min 2 sec) 
Heartbeat CPU 0 instructions: 101000000 cycles: 91342192 heartbeat IPC: 1.13898 cumulative IPC: 1.03949 (Simulation time: 0 hr 59 min 35 sec) 
Heartbeat CPU 0 instructions: 102000001 cycles: 92790688 heartbeat IPC: 0.690372 cumulative IPC: 1.03381 (Simulation time: 1 hr 0 min 9 sec) 
Heartbeat CPU 0 instructions: 103000000 cycles: 94054964 heartbeat IPC: 0.790966 cumulative IPC: 1.03041 (Simulation time: 1 hr 0 min 45 sec) 
Heartbeat CPU 0 instructions: 104000000 cycles: 94984640 heartbeat IPC: 1.07564 cumulative IPC: 1.03087 (Simulation time: 1 hr 1 min 18 sec) 
Heartbeat CPU 0 instructions: 105000003 cycles: 95872714 heartbeat IPC: 1.12604 cumulative IPC: 1.03178 (Simulation time: 1 hr 1 min 48 sec) 
Heartbeat CPU 0 instructions: 106000000 cycles: 96776588 heartbeat IPC: 1.10635 cumulative IPC: 1.03251 (Simulation time: 1 hr 2 min 20 sec) 
Heartbeat CPU 0 instructions: 107000001 cycles: 98230279 heartbeat IPC: 0.687905 cumulative IPC: 1.0272 (Simulation time: 1 hr 2 min 51 sec) 
Heartbeat CPU 0 instructions: 108000000 cycles: 99139601 heartbeat IPC: 1.09972 cumulative IPC: 1.0279 (Simulation time: 1 hr 3 min 19 sec) 
Heartbeat CPU 0 instructions: 109000000 cycles: 100039480 heartbeat IPC: 1.11126 cumulative IPC: 1.02868 (Simulation time: 1 hr 3 min 47 sec) 
Heartbeat CPU 0 instructions: 110000000 cycles: 101180818 heartbeat IPC: 0.876165 cumulative IPC: 1.02689 (Simulation time: 1 hr 4 min 16 sec) 
Finished CPU 0 instructions: 100000000 cycles: 97381598 cummulative IPC: 1.02689 (Simulation time: 1 hr 4 min 16 sec) 

ChampSim completed all CPUs

Region of Interest Statistics

CPU 0 cummulative IPC: 1.02689 instructions: 100000000 cycles: 97381598
LLC TOTAL     ACCESS:    1574043  HIT:     780068  MISS:     793975
LLC LOAD      ACCESS:     202412  HIT:     161615  MISS:      40797
LLC RFO       ACCESS:     111349  HIT:     110080  MISS:       1269
LLC PREFETCH  ACCESS:    1127127  HIT:     378047  MISS:     749080
LLC WRITEBACK ACCESS:     133155  HIT:     130326  MISS:       2829
Insertion Distribution: 
	LOAD 6666 0 14713 28349 
	RFO 777 0 3885 111 
	PREF 0 2236 81478 748489 
	WRITEBACK 0 0 0 3166 
Total Prefetch Downgrades: 8087
