
*** ChampSim Multicore Out-of-Order Simulator ***

Warmup Instructions: 10000000
Simulation Instructions: 100000000
Configuration: 2
Number of CPUs: 1
LLC sets: 2048
LLC ways: 16
Off-chip DRAM Channels: 1 Width: 64-bit Data Rate: 1600 MT/s

CPU 0 runs /datasets/cs240c-wi22-a00-public/data/Assignment2-gz/milc_409B.trace.gz
CPU 0 L1D next line prefetcher
CPU 0 L2C IP-based stride prefetcher
Initialize SRRIP state
Heartbeat CPU 0 instructions: 1000002 cycles: 407040 heartbeat IPC: 2.45677 cumulative IPC: 2.45677 (Simulation time: 0 hr 0 min 32 sec) 
Heartbeat CPU 0 instructions: 2000002 cycles: 889868 heartbeat IPC: 2.07113 cumulative IPC: 2.24753 (Simulation time: 0 hr 1 min 3 sec) 
Heartbeat CPU 0 instructions: 3000003 cycles: 1672035 heartbeat IPC: 1.2785 cumulative IPC: 1.79422 (Simulation time: 0 hr 1 min 47 sec) 
Heartbeat CPU 0 instructions: 4000000 cycles: 2454292 heartbeat IPC: 1.27835 cumulative IPC: 1.6298 (Simulation time: 0 hr 2 min 33 sec) 
Heartbeat CPU 0 instructions: 5000000 cycles: 3135412 heartbeat IPC: 1.46817 cumulative IPC: 1.59469 (Simulation time: 0 hr 3 min 11 sec) 
Heartbeat CPU 0 instructions: 6000003 cycles: 3679804 heartbeat IPC: 1.83692 cumulative IPC: 1.63052 (Simulation time: 0 hr 3 min 43 sec) 
Heartbeat CPU 0 instructions: 7000002 cycles: 4224110 heartbeat IPC: 1.8372 cumulative IPC: 1.65715 (Simulation time: 0 hr 4 min 17 sec) 
Heartbeat CPU 0 instructions: 8000000 cycles: 4768518 heartbeat IPC: 1.83685 cumulative IPC: 1.67767 (Simulation time: 0 hr 4 min 53 sec) 
Heartbeat CPU 0 instructions: 9000003 cycles: 5312844 heartbeat IPC: 1.83714 cumulative IPC: 1.69401 (Simulation time: 0 hr 5 min 26 sec) 
Heartbeat CPU 0 instructions: 10000000 cycles: 5857232 heartbeat IPC: 1.83692 cumulative IPC: 1.70729 (Simulation time: 0 hr 5 min 58 sec) 

Warmup complete CPU 0 instructions: 10000002 cycles: 5857233 (Simulation time: 0 hr 5 min 58 sec) 

Heartbeat CPU 0 instructions: 11000002 cycles: 7524630 heartbeat IPC: 0.599738 cumulative IPC: 0.599737 (Simulation time: 0 hr 6 min 34 sec) 
Heartbeat CPU 0 instructions: 12000000 cycles: 9187339 heartbeat IPC: 0.601427 cumulative IPC: 0.600581 (Simulation time: 0 hr 7 min 15 sec) 
Heartbeat CPU 0 instructions: 13000003 cycles: 10845508 heartbeat IPC: 0.603077 cumulative IPC: 0.601411 (Simulation time: 0 hr 7 min 56 sec) 
Heartbeat CPU 0 instructions: 14000002 cycles: 12507546 heartbeat IPC: 0.60167 cumulative IPC: 0.601475 (Simulation time: 0 hr 8 min 36 sec) 
Heartbeat CPU 0 instructions: 15000001 cycles: 14170647 heartbeat IPC: 0.601286 cumulative IPC: 0.601438 (Simulation time: 0 hr 9 min 15 sec) 
Heartbeat CPU 0 instructions: 16000000 cycles: 15836795 heartbeat IPC: 0.600186 cumulative IPC: 0.601229 (Simulation time: 0 hr 9 min 51 sec) 
Heartbeat CPU 0 instructions: 17000002 cycles: 17496083 heartbeat IPC: 0.602669 cumulative IPC: 0.601434 (Simulation time: 0 hr 10 min 27 sec) 
Heartbeat CPU 0 instructions: 18000000 cycles: 19162174 heartbeat IPC: 0.600206 cumulative IPC: 0.60128 (Simulation time: 0 hr 11 min 8 sec) 
Heartbeat CPU 0 instructions: 19000003 cycles: 20829413 heartbeat IPC: 0.599796 cumulative IPC: 0.601115 (Simulation time: 0 hr 11 min 48 sec) 
Heartbeat CPU 0 instructions: 20000000 cycles: 22495269 heartbeat IPC: 0.60029 cumulative IPC: 0.601032 (Simulation time: 0 hr 12 min 24 sec) 
Heartbeat CPU 0 instructions: 21000001 cycles: 24154786 heartbeat IPC: 0.602586 cumulative IPC: 0.601173 (Simulation time: 0 hr 13 min 0 sec) 
Heartbeat CPU 0 instructions: 22000002 cycles: 25817742 heartbeat IPC: 0.601339 cumulative IPC: 0.601187 (Simulation time: 0 hr 13 min 37 sec) 
Heartbeat CPU 0 instructions: 23000002 cycles: 27481056 heartbeat IPC: 0.601209 cumulative IPC: 0.601189 (Simulation time: 0 hr 14 min 12 sec) 
Heartbeat CPU 0 instructions: 24000000 cycles: 29145655 heartbeat IPC: 0.600744 cumulative IPC: 0.601157 (Simulation time: 0 hr 14 min 48 sec) 
Heartbeat CPU 0 instructions: 25000002 cycles: 30807431 heartbeat IPC: 0.601767 cumulative IPC: 0.601198 (Simulation time: 0 hr 15 min 24 sec) 
Heartbeat CPU 0 instructions: 26000000 cycles: 32473759 heartbeat IPC: 0.600121 cumulative IPC: 0.60113 (Simulation time: 0 hr 15 min 59 sec) 
Heartbeat CPU 0 instructions: 27000002 cycles: 34129207 heartbeat IPC: 0.604067 cumulative IPC: 0.601302 (Simulation time: 0 hr 16 min 36 sec) 
Heartbeat CPU 0 instructions: 28000000 cycles: 35790799 heartbeat IPC: 0.601831 cumulative IPC: 0.601332 (Simulation time: 0 hr 17 min 19 sec) 
Heartbeat CPU 0 instructions: 29000002 cycles: 37444928 heartbeat IPC: 0.604549 cumulative IPC: 0.6015 (Simulation time: 0 hr 18 min 3 sec) 
Heartbeat CPU 0 instructions: 30000000 cycles: 39104226 heartbeat IPC: 0.602663 cumulative IPC: 0.601558 (Simulation time: 0 hr 18 min 48 sec) 
Heartbeat CPU 0 instructions: 31000000 cycles: 40767520 heartbeat IPC: 0.601217 cumulative IPC: 0.601542 (Simulation time: 0 hr 19 min 33 sec) 
Heartbeat CPU 0 instructions: 32000000 cycles: 42423407 heartbeat IPC: 0.603906 cumulative IPC: 0.601649 (Simulation time: 0 hr 20 min 16 sec) 
Heartbeat CPU 0 instructions: 33000000 cycles: 44088965 heartbeat IPC: 0.600399 cumulative IPC: 0.601594 (Simulation time: 0 hr 21 min 3 sec) 
Heartbeat CPU 0 instructions: 34000000 cycles: 45750438 heartbeat IPC: 0.601876 cumulative IPC: 0.601606 (Simulation time: 0 hr 21 min 50 sec) 
Heartbeat CPU 0 instructions: 35000002 cycles: 47407789 heartbeat IPC: 0.603374 cumulative IPC: 0.601677 (Simulation time: 0 hr 22 min 38 sec) 
Heartbeat CPU 0 instructions: 36000000 cycles: 49071721 heartbeat IPC: 0.600985 cumulative IPC: 0.60165 (Simulation time: 0 hr 23 min 25 sec) 
Heartbeat CPU 0 instructions: 37000000 cycles: 50728947 heartbeat IPC: 0.603418 cumulative IPC: 0.601715 (Simulation time: 0 hr 24 min 15 sec) 
Heartbeat CPU 0 instructions: 38000002 cycles: 52391180 heartbeat IPC: 0.601602 cumulative IPC: 0.601711 (Simulation time: 0 hr 25 min 1 sec) 
Heartbeat CPU 0 instructions: 39000001 cycles: 54057134 heartbeat IPC: 0.600256 cumulative IPC: 0.601661 (Simulation time: 0 hr 25 min 49 sec) 
Heartbeat CPU 0 instructions: 40000000 cycles: 55723119 heartbeat IPC: 0.600245 cumulative IPC: 0.601614 (Simulation time: 0 hr 26 min 35 sec) 
Heartbeat CPU 0 instructions: 41000002 cycles: 57379949 heartbeat IPC: 0.603563 cumulative IPC: 0.601676 (Simulation time: 0 hr 27 min 24 sec) 
Heartbeat CPU 0 instructions: 42000001 cycles: 59039927 heartbeat IPC: 0.602417 cumulative IPC: 0.601699 (Simulation time: 0 hr 28 min 17 sec) 
Heartbeat CPU 0 instructions: 43000000 cycles: 60697248 heartbeat IPC: 0.603383 cumulative IPC: 0.60175 (Simulation time: 0 hr 29 min 1 sec) 
Heartbeat CPU 0 instructions: 44000000 cycles: 62363691 heartbeat IPC: 0.600081 cumulative IPC: 0.601701 (Simulation time: 0 hr 29 min 41 sec) 
Heartbeat CPU 0 instructions: 45000000 cycles: 64028211 heartbeat IPC: 0.600774 cumulative IPC: 0.601675 (Simulation time: 0 hr 30 min 20 sec) 
Heartbeat CPU 0 instructions: 46000000 cycles: 65689910 heartbeat IPC: 0.601794 cumulative IPC: 0.601678 (Simulation time: 0 hr 30 min 59 sec) 
Heartbeat CPU 0 instructions: 47000002 cycles: 67349682 heartbeat IPC: 0.602494 cumulative IPC: 0.6017 (Simulation time: 0 hr 31 min 42 sec) 
Heartbeat CPU 0 instructions: 48000000 cycles: 69011404 heartbeat IPC: 0.601784 cumulative IPC: 0.601702 (Simulation time: 0 hr 32 min 22 sec) 
Heartbeat CPU 0 instructions: 49000000 cycles: 70670627 heartbeat IPC: 0.602692 cumulative IPC: 0.601727 (Simulation time: 0 hr 33 min 1 sec) 
Heartbeat CPU 0 instructions: 50000001 cycles: 72329635 heartbeat IPC: 0.60277 cumulative IPC: 0.601753 (Simulation time: 0 hr 33 min 40 sec) 
Heartbeat CPU 0 instructions: 51000002 cycles: 73990218 heartbeat IPC: 0.602199 cumulative IPC: 0.601764 (Simulation time: 0 hr 34 min 22 sec) 
Heartbeat CPU 0 instructions: 52000000 cycles: 75810717 heartbeat IPC: 0.549299 cumulative IPC: 0.600399 (Simulation time: 0 hr 35 min 8 sec) 
Heartbeat CPU 0 instructions: 53000001 cycles: 77972472 heartbeat IPC: 0.462588 cumulative IPC: 0.596268 (Simulation time: 0 hr 35 min 56 sec) 
Heartbeat CPU 0 instructions: 54000001 cycles: 80198401 heartbeat IPC: 0.449251 cumulative IPC: 0.591866 (Simulation time: 0 hr 36 min 41 sec) 
Heartbeat CPU 0 instructions: 55000002 cycles: 82447883 heartbeat IPC: 0.444547 cumulative IPC: 0.587539 (Simulation time: 0 hr 37 min 24 sec) 
Heartbeat CPU 0 instructions: 56000000 cycles: 84699473 heartbeat IPC: 0.44413 cumulative IPC: 0.583444 (Simulation time: 0 hr 38 min 10 sec) 
Heartbeat CPU 0 instructions: 57000000 cycles: 86947231 heartbeat IPC: 0.444888 cumulative IPC: 0.579603 (Simulation time: 0 hr 38 min 58 sec) 
Heartbeat CPU 0 instructions: 58000002 cycles: 89155218 heartbeat IPC: 0.452902 cumulative IPC: 0.576244 (Simulation time: 0 hr 39 min 46 sec) 
Heartbeat CPU 0 instructions: 59000001 cycles: 90942397 heartbeat IPC: 0.559541 cumulative IPC: 0.575894 (Simulation time: 0 hr 40 min 26 sec) 
Heartbeat CPU 0 instructions: 60000000 cycles: 92606014 heartbeat IPC: 0.601099 cumulative IPC: 0.576377 (Simulation time: 0 hr 41 min 5 sec) 
Heartbeat CPU 0 instructions: 61000000 cycles: 94270625 heartbeat IPC: 0.600741 cumulative IPC: 0.576836 (Simulation time: 0 hr 41 min 45 sec) 
Heartbeat CPU 0 instructions: 62000000 cycles: 95932462 heartbeat IPC: 0.601744 cumulative IPC: 0.577295 (Simulation time: 0 hr 42 min 22 sec) 
Heartbeat CPU 0 instructions: 63000003 cycles: 97596892 heartbeat IPC: 0.600808 cumulative IPC: 0.577722 (Simulation time: 0 hr 43 min 3 sec) 
Heartbeat CPU 0 instructions: 64000000 cycles: 99266842 heartbeat IPC: 0.598819 cumulative IPC: 0.578099 (Simulation time: 0 hr 43 min 42 sec) 
Heartbeat CPU 0 instructions: 65000002 cycles: 100941330 heartbeat IPC: 0.597199 cumulative IPC: 0.578435 (Simulation time: 0 hr 44 min 24 sec) 
Heartbeat CPU 0 instructions: 66000002 cycles: 102609433 heartbeat IPC: 0.599483 cumulative IPC: 0.578798 (Simulation time: 0 hr 45 min 4 sec) 
Heartbeat CPU 0 instructions: 67000001 cycles: 104281780 heartbeat IPC: 0.597961 cumulative IPC: 0.579124 (Simulation time: 0 hr 45 min 44 sec) 
Heartbeat CPU 0 instructions: 68000000 cycles: 105951033 heartbeat IPC: 0.59907 cumulative IPC: 0.579456 (Simulation time: 0 hr 46 min 23 sec) 
Heartbeat CPU 0 instructions: 69000000 cycles: 107618111 heartbeat IPC: 0.599852 cumulative IPC: 0.579791 (Simulation time: 0 hr 47 min 0 sec) 
Heartbeat CPU 0 instructions: 70000000 cycles: 109291905 heartbeat IPC: 0.597445 cumulative IPC: 0.580076 (Simulation time: 0 hr 47 min 34 sec) 
Heartbeat CPU 0 instructions: 71000002 cycles: 110957279 heartbeat IPC: 0.600467 cumulative IPC: 0.580399 (Simulation time: 0 hr 48 min 12 sec) 
Heartbeat CPU 0 instructions: 72000000 cycles: 112627485 heartbeat IPC: 0.598727 cumulative IPC: 0.580686 (Simulation time: 0 hr 48 min 50 sec) 
Heartbeat CPU 0 instructions: 73000003 cycles: 114300342 heartbeat IPC: 0.597782 cumulative IPC: 0.58095 (Simulation time: 0 hr 49 min 31 sec) 
Heartbeat CPU 0 instructions: 74000002 cycles: 115975781 heartbeat IPC: 0.596858 cumulative IPC: 0.581192 (Simulation time: 0 hr 50 min 13 sec) 
Heartbeat CPU 0 instructions: 75000003 cycles: 117643841 heartbeat IPC: 0.599499 cumulative IPC: 0.581465 (Simulation time: 0 hr 50 min 55 sec) 
Heartbeat CPU 0 instructions: 76000000 cycles: 119316011 heartbeat IPC: 0.598024 cumulative IPC: 0.581709 (Simulation time: 0 hr 51 min 34 sec) 
Heartbeat CPU 0 instructions: 77000003 cycles: 120987193 heartbeat IPC: 0.598381 cumulative IPC: 0.581951 (Simulation time: 0 hr 52 min 13 sec) 
Heartbeat CPU 0 instructions: 78000000 cycles: 122658091 heartbeat IPC: 0.598479 cumulative IPC: 0.582187 (Simulation time: 0 hr 52 min 52 sec) 
Heartbeat CPU 0 instructions: 79000000 cycles: 124329199 heartbeat IPC: 0.598405 cumulative IPC: 0.582416 (Simulation time: 0 hr 53 min 31 sec) 
Heartbeat CPU 0 instructions: 80000000 cycles: 125999151 heartbeat IPC: 0.59882 cumulative IPC: 0.582644 (Simulation time: 0 hr 54 min 10 sec) 
Heartbeat CPU 0 instructions: 81000000 cycles: 127669827 heartbeat IPC: 0.59856 cumulative IPC: 0.582863 (Simulation time: 0 hr 54 min 47 sec) 
Heartbeat CPU 0 instructions: 82000002 cycles: 129333819 heartbeat IPC: 0.600966 cumulative IPC: 0.583107 (Simulation time: 0 hr 55 min 23 sec) 
Heartbeat CPU 0 instructions: 83000003 cycles: 130999713 heartbeat IPC: 0.600279 cumulative IPC: 0.583335 (Simulation time: 0 hr 56 min 2 sec) 
Heartbeat CPU 0 instructions: 84000000 cycles: 132665878 heartbeat IPC: 0.600179 cumulative IPC: 0.583556 (Simulation time: 0 hr 56 min 41 sec) 
Heartbeat CPU 0 instructions: 85000001 cycles: 134331007 heartbeat IPC: 0.600555 cumulative IPC: 0.583777 (Simulation time: 0 hr 57 min 16 sec) 
Heartbeat CPU 0 instructions: 86000002 cycles: 135998520 heartbeat IPC: 0.599696 cumulative IPC: 0.583981 (Simulation time: 0 hr 57 min 53 sec) 
Heartbeat CPU 0 instructions: 87000003 cycles: 137664557 heartbeat IPC: 0.600227 cumulative IPC: 0.584186 (Simulation time: 0 hr 58 min 25 sec) 
Heartbeat CPU 0 instructions: 88000000 cycles: 139331423 heartbeat IPC: 0.599926 cumulative IPC: 0.584383 (Simulation time: 0 hr 58 min 58 sec) 
Heartbeat CPU 0 instructions: 89000001 cycles: 141001374 heartbeat IPC: 0.598821 cumulative IPC: 0.584561 (Simulation time: 0 hr 59 min 32 sec) 
Heartbeat CPU 0 instructions: 90000002 cycles: 142666749 heartbeat IPC: 0.600466 cumulative IPC: 0.584755 (Simulation time: 1 hr 0 min 6 sec) 
Heartbeat CPU 0 instructions: 91000000 cycles: 144329726 heartbeat IPC: 0.60133 cumulative IPC: 0.584954 (Simulation time: 1 hr 0 min 39 sec) 
Heartbeat CPU 0 instructions: 92000000 cycles: 145992010 heartbeat IPC: 0.601582 cumulative IPC: 0.585151 (Simulation time: 1 hr 1 min 12 sec) 
Heartbeat CPU 0 instructions: 93000003 cycles: 147662270 heartbeat IPC: 0.598711 cumulative IPC: 0.585311 (Simulation time: 1 hr 1 min 45 sec) 
Heartbeat CPU 0 instructions: 94000002 cycles: 149325935 heartbeat IPC: 0.601082 cumulative IPC: 0.585494 (Simulation time: 1 hr 2 min 16 sec) 
Heartbeat CPU 0 instructions: 95000003 cycles: 150991929 heartbeat IPC: 0.600243 cumulative IPC: 0.585663 (Simulation time: 1 hr 2 min 47 sec) 
Heartbeat CPU 0 instructions: 96000000 cycles: 152656419 heartbeat IPC: 0.600783 cumulative IPC: 0.585834 (Simulation time: 1 hr 3 min 18 sec) 
Heartbeat CPU 0 instructions: 97000001 cycles: 154323730 heartbeat IPC: 0.599769 cumulative IPC: 0.585991 (Simulation time: 1 hr 3 min 52 sec) 
Heartbeat CPU 0 instructions: 98000002 cycles: 155990969 heartbeat IPC: 0.599795 cumulative IPC: 0.586144 (Simulation time: 1 hr 4 min 23 sec) 
Heartbeat CPU 0 instructions: 99000003 cycles: 157654289 heartbeat IPC: 0.601208 cumulative IPC: 0.586309 (Simulation time: 1 hr 4 min 54 sec) 
Heartbeat CPU 0 instructions: 100000000 cycles: 159319148 heartbeat IPC: 0.60065 cumulative IPC: 0.586465 (Simulation time: 1 hr 5 min 24 sec) 
Heartbeat CPU 0 instructions: 101000001 cycles: 160982972 heartbeat IPC: 0.601026 cumulative IPC: 0.586621 (Simulation time: 1 hr 5 min 52 sec) 
Heartbeat CPU 0 instructions: 102000002 cycles: 162644515 heartbeat IPC: 0.601851 cumulative IPC: 0.586782 (Simulation time: 1 hr 6 min 20 sec) 
Heartbeat CPU 0 instructions: 103000000 cycles: 164308109 heartbeat IPC: 0.601107 cumulative IPC: 0.586933 (Simulation time: 1 hr 6 min 46 sec) 
Heartbeat CPU 0 instructions: 104000000 cycles: 165968835 heartbeat IPC: 0.602146 cumulative IPC: 0.58709 (Simulation time: 1 hr 7 min 13 sec) 
Heartbeat CPU 0 instructions: 105000003 cycles: 167818733 heartbeat IPC: 0.540572 cumulative IPC: 0.586559 (Simulation time: 1 hr 7 min 40 sec) 
Heartbeat CPU 0 instructions: 106000003 cycles: 171626580 heartbeat IPC: 0.262616 cumulative IPC: 0.579118 (Simulation time: 1 hr 8 min 20 sec) 
Heartbeat CPU 0 instructions: 107000000 cycles: 173372891 heartbeat IPC: 0.572634 cumulative IPC: 0.57905 (Simulation time: 1 hr 8 min 43 sec) 
Heartbeat CPU 0 instructions: 108000000 cycles: 175102278 heartbeat IPC: 0.57824 cumulative IPC: 0.579042 (Simulation time: 1 hr 9 min 4 sec) 
Heartbeat CPU 0 instructions: 109000001 cycles: 176827261 heartbeat IPC: 0.579716 cumulative IPC: 0.579049 (Simulation time: 1 hr 9 min 25 sec) 
Heartbeat CPU 0 instructions: 110000001 cycles: 178550586 heartbeat IPC: 0.580274 cumulative IPC: 0.579061 (Simulation time: 1 hr 9 min 48 sec) 
Finished CPU 0 instructions: 100000003 cycles: 172693354 cummulative IPC: 0.579061 (Simulation time: 1 hr 9 min 48 sec) 

ChampSim completed all CPUs

Region of Interest Statistics

CPU 0 cummulative IPC: 0.579061 instructions: 100000003 cycles: 172693354
LLC TOTAL     ACCESS:    3300884  HIT:     678574  MISS:    2622310
LLC LOAD      ACCESS:     970671  HIT:          3  MISS:     970668
LLC RFO       ACCESS:     136847  HIT:      14657  MISS:     122190
LLC PREFETCH  ACCESS:    1335277  HIT:       8562  MISS:    1326715
LLC WRITEBACK ACCESS:     858089  HIT:     655352  MISS:     202737
Insertion Distribution: 
	LOAD 0 0 970012 48374 
	RFO 0 0 49618 213583 
	PREF 0 0 470417 1083888 
	WRITEBACK 0 0 0 309556 
Total Prefetch Downgrades: 0
