
*** ChampSim Multicore Out-of-Order Simulator ***

Warmup Instructions: 10000000
Simulation Instructions: 100000000
Configuration: 2
Number of CPUs: 1
LLC sets: 2048
LLC ways: 16
Off-chip DRAM Channels: 1 Width: 64-bit Data Rate: 1600 MT/s

CPU 0 runs /datasets/cs240c-wi22-a00-public/data/Assignment2-gz/libquantum_1210B.trace.gz
CPU 0 L1D next line prefetcher
CPU 0 L2C IP-based stride prefetcher
Initialize SRRIP state
Heartbeat CPU 0 instructions: 1000003 cycles: 314916 heartbeat IPC: 3.17546 cumulative IPC: 3.17546 (Simulation time: 0 hr 0 min 18 sec) 
Heartbeat CPU 0 instructions: 2000000 cycles: 630170 heartbeat IPC: 3.17204 cumulative IPC: 3.17375 (Simulation time: 0 hr 0 min 40 sec) 
Heartbeat CPU 0 instructions: 3000001 cycles: 945979 heartbeat IPC: 3.16647 cumulative IPC: 3.17132 (Simulation time: 0 hr 0 min 59 sec) 
Heartbeat CPU 0 instructions: 4000000 cycles: 1260333 heartbeat IPC: 3.18112 cumulative IPC: 3.17376 (Simulation time: 0 hr 1 min 19 sec) 
Heartbeat CPU 0 instructions: 5000001 cycles: 1576818 heartbeat IPC: 3.15971 cumulative IPC: 3.17094 (Simulation time: 0 hr 1 min 38 sec) 
Heartbeat CPU 0 instructions: 6000002 cycles: 1891318 heartbeat IPC: 3.17965 cumulative IPC: 3.17239 (Simulation time: 0 hr 1 min 56 sec) 
Heartbeat CPU 0 instructions: 7000001 cycles: 2206981 heartbeat IPC: 3.16793 cumulative IPC: 3.17175 (Simulation time: 0 hr 2 min 16 sec) 
Heartbeat CPU 0 instructions: 8000000 cycles: 2522385 heartbeat IPC: 3.17053 cumulative IPC: 3.1716 (Simulation time: 0 hr 2 min 35 sec) 
Heartbeat CPU 0 instructions: 9000002 cycles: 2837144 heartbeat IPC: 3.17704 cumulative IPC: 3.1722 (Simulation time: 0 hr 2 min 55 sec) 
Heartbeat CPU 0 instructions: 10000003 cycles: 3153454 heartbeat IPC: 3.16146 cumulative IPC: 3.17113 (Simulation time: 0 hr 3 min 12 sec) 

Warmup complete CPU 0 instructions: 10000003 cycles: 3153454 (Simulation time: 0 hr 3 min 12 sec) 

Heartbeat CPU 0 instructions: 11000001 cycles: 5333394 heartbeat IPC: 0.458727 cumulative IPC: 0.458727 (Simulation time: 0 hr 3 min 41 sec) 
Heartbeat CPU 0 instructions: 12000000 cycles: 7461399 heartbeat IPC: 0.469923 cumulative IPC: 0.464258 (Simulation time: 0 hr 4 min 11 sec) 
Heartbeat CPU 0 instructions: 13000003 cycles: 10042527 heartbeat IPC: 0.387429 cumulative IPC: 0.435472 (Simulation time: 0 hr 4 min 43 sec) 
Heartbeat CPU 0 instructions: 14000001 cycles: 12587355 heartbeat IPC: 0.392953 cumulative IPC: 0.424003 (Simulation time: 0 hr 5 min 18 sec) 
Heartbeat CPU 0 instructions: 15000001 cycles: 15158420 heartbeat IPC: 0.388944 cumulative IPC: 0.416494 (Simulation time: 0 hr 5 min 52 sec) 
Heartbeat CPU 0 instructions: 16000000 cycles: 17747342 heartbeat IPC: 0.386261 cumulative IPC: 0.411131 (Simulation time: 0 hr 6 min 24 sec) 
Heartbeat CPU 0 instructions: 17000000 cycles: 20332683 heartbeat IPC: 0.386796 cumulative IPC: 0.407469 (Simulation time: 0 hr 6 min 56 sec) 
Heartbeat CPU 0 instructions: 18000002 cycles: 22938457 heartbeat IPC: 0.383764 cumulative IPC: 0.404347 (Simulation time: 0 hr 7 min 27 sec) 
Heartbeat CPU 0 instructions: 19000000 cycles: 25527854 heartbeat IPC: 0.38619 cumulative IPC: 0.402245 (Simulation time: 0 hr 8 min 4 sec) 
Heartbeat CPU 0 instructions: 20000000 cycles: 28091607 heartbeat IPC: 0.390053 cumulative IPC: 0.400992 (Simulation time: 0 hr 8 min 36 sec) 
Heartbeat CPU 0 instructions: 21000001 cycles: 30660288 heartbeat IPC: 0.389305 cumulative IPC: 0.399901 (Simulation time: 0 hr 9 min 9 sec) 
Heartbeat CPU 0 instructions: 22000003 cycles: 33221865 heartbeat IPC: 0.390385 cumulative IPC: 0.39909 (Simulation time: 0 hr 9 min 41 sec) 
Heartbeat CPU 0 instructions: 23000000 cycles: 35811084 heartbeat IPC: 0.386216 cumulative IPC: 0.398069 (Simulation time: 0 hr 10 min 13 sec) 
Heartbeat CPU 0 instructions: 24000000 cycles: 38408170 heartbeat IPC: 0.385047 cumulative IPC: 0.39711 (Simulation time: 0 hr 10 min 45 sec) 
Heartbeat CPU 0 instructions: 25000000 cycles: 41004237 heartbeat IPC: 0.385198 cumulative IPC: 0.396293 (Simulation time: 0 hr 11 min 18 sec) 
Heartbeat CPU 0 instructions: 26000000 cycles: 43599573 heartbeat IPC: 0.385307 cumulative IPC: 0.395588 (Simulation time: 0 hr 11 min 51 sec) 
Heartbeat CPU 0 instructions: 27000003 cycles: 46193920 heartbeat IPC: 0.385455 cumulative IPC: 0.394977 (Simulation time: 0 hr 12 min 26 sec) 
Heartbeat CPU 0 instructions: 28000000 cycles: 48577495 heartbeat IPC: 0.419537 cumulative IPC: 0.396266 (Simulation time: 0 hr 12 min 59 sec) 
Heartbeat CPU 0 instructions: 29000002 cycles: 49717830 heartbeat IPC: 0.876937 cumulative IPC: 0.408037 (Simulation time: 0 hr 13 min 31 sec) 
Heartbeat CPU 0 instructions: 30000001 cycles: 51254438 heartbeat IPC: 0.650783 cumulative IPC: 0.415792 (Simulation time: 0 hr 14 min 5 sec) 
Heartbeat CPU 0 instructions: 31000000 cycles: 52725504 heartbeat IPC: 0.679778 cumulative IPC: 0.423626 (Simulation time: 0 hr 14 min 37 sec) 
Heartbeat CPU 0 instructions: 32000000 cycles: 54196359 heartbeat IPC: 0.679877 cumulative IPC: 0.43101 (Simulation time: 0 hr 15 min 12 sec) 
Heartbeat CPU 0 instructions: 33000000 cycles: 55667239 heartbeat IPC: 0.679865 cumulative IPC: 0.43798 (Simulation time: 0 hr 15 min 47 sec) 
Heartbeat CPU 0 instructions: 34000002 cycles: 57138305 heartbeat IPC: 0.67978 cumulative IPC: 0.444569 (Simulation time: 0 hr 16 min 17 sec) 
Heartbeat CPU 0 instructions: 35000001 cycles: 58609169 heartbeat IPC: 0.679872 cumulative IPC: 0.45081 (Simulation time: 0 hr 16 min 49 sec) 
Heartbeat CPU 0 instructions: 36000000 cycles: 60080396 heartbeat IPC: 0.679704 cumulative IPC: 0.456726 (Simulation time: 0 hr 17 min 26 sec) 
Heartbeat CPU 0 instructions: 37000001 cycles: 61551376 heartbeat IPC: 0.67982 cumulative IPC: 0.462345 (Simulation time: 0 hr 18 min 4 sec) 
Heartbeat CPU 0 instructions: 38000002 cycles: 63022332 heartbeat IPC: 0.679831 cumulative IPC: 0.467689 (Simulation time: 0 hr 18 min 44 sec) 
Heartbeat CPU 0 instructions: 39000001 cycles: 64493196 heartbeat IPC: 0.679872 cumulative IPC: 0.472777 (Simulation time: 0 hr 19 min 21 sec) 
Heartbeat CPU 0 instructions: 40000000 cycles: 65964130 heartbeat IPC: 0.679839 cumulative IPC: 0.477626 (Simulation time: 0 hr 19 min 58 sec) 
Heartbeat CPU 0 instructions: 41000000 cycles: 67435108 heartbeat IPC: 0.67982 cumulative IPC: 0.482253 (Simulation time: 0 hr 20 min 38 sec) 
Heartbeat CPU 0 instructions: 42000000 cycles: 68905969 heartbeat IPC: 0.679874 cumulative IPC: 0.486673 (Simulation time: 0 hr 21 min 17 sec) 
Heartbeat CPU 0 instructions: 43000002 cycles: 70376834 heartbeat IPC: 0.679873 cumulative IPC: 0.490901 (Simulation time: 0 hr 21 min 56 sec) 
Heartbeat CPU 0 instructions: 44000000 cycles: 71847768 heartbeat IPC: 0.679839 cumulative IPC: 0.494946 (Simulation time: 0 hr 22 min 36 sec) 
Heartbeat CPU 0 instructions: 45000000 cycles: 73317978 heartbeat IPC: 0.680175 cumulative IPC: 0.498828 (Simulation time: 0 hr 23 min 15 sec) 
Heartbeat CPU 0 instructions: 46000003 cycles: 74787587 heartbeat IPC: 0.680455 cumulative IPC: 0.502554 (Simulation time: 0 hr 23 min 53 sec) 
Heartbeat CPU 0 instructions: 47000002 cycles: 76384568 heartbeat IPC: 0.626181 cumulative IPC: 0.50525 (Simulation time: 0 hr 24 min 32 sec) 
Heartbeat CPU 0 instructions: 48000000 cycles: 78464536 heartbeat IPC: 0.480776 cumulative IPC: 0.504574 (Simulation time: 0 hr 25 min 10 sec) 
Heartbeat CPU 0 instructions: 49000000 cycles: 80799335 heartbeat IPC: 0.428302 cumulative IPC: 0.50228 (Simulation time: 0 hr 25 min 46 sec) 
Heartbeat CPU 0 instructions: 50000003 cycles: 83109614 heartbeat IPC: 0.432849 cumulative IPC: 0.500274 (Simulation time: 0 hr 26 min 27 sec) 
Heartbeat CPU 0 instructions: 51000000 cycles: 85420916 heartbeat IPC: 0.432655 cumulative IPC: 0.498374 (Simulation time: 0 hr 27 min 9 sec) 
Heartbeat CPU 0 instructions: 52000000 cycles: 87747129 heartbeat IPC: 0.429883 cumulative IPC: 0.496491 (Simulation time: 0 hr 27 min 52 sec) 
Heartbeat CPU 0 instructions: 53000003 cycles: 90042843 heartbeat IPC: 0.435596 cumulative IPC: 0.494882 (Simulation time: 0 hr 28 min 34 sec) 
Heartbeat CPU 0 instructions: 54000003 cycles: 92337566 heartbeat IPC: 0.435782 cumulative IPC: 0.493361 (Simulation time: 0 hr 29 min 11 sec) 
Heartbeat CPU 0 instructions: 55000002 cycles: 94635601 heartbeat IPC: 0.435154 cumulative IPC: 0.491899 (Simulation time: 0 hr 29 min 51 sec) 
Heartbeat CPU 0 instructions: 56000000 cycles: 96958107 heartbeat IPC: 0.430569 cumulative IPC: 0.490381 (Simulation time: 0 hr 30 min 32 sec) 
Heartbeat CPU 0 instructions: 57000001 cycles: 99277812 heartbeat IPC: 0.43109 cumulative IPC: 0.48895 (Simulation time: 0 hr 31 min 8 sec) 
Heartbeat CPU 0 instructions: 58000000 cycles: 101590336 heartbeat IPC: 0.432428 cumulative IPC: 0.487622 (Simulation time: 0 hr 31 min 47 sec) 
Heartbeat CPU 0 instructions: 59000000 cycles: 103908134 heartbeat IPC: 0.431444 cumulative IPC: 0.48633 (Simulation time: 0 hr 32 min 27 sec) 
Heartbeat CPU 0 instructions: 60000000 cycles: 106200783 heartbeat IPC: 0.436177 cumulative IPC: 0.485214 (Simulation time: 0 hr 33 min 5 sec) 
Heartbeat CPU 0 instructions: 61000001 cycles: 108510142 heartbeat IPC: 0.433021 cumulative IPC: 0.48407 (Simulation time: 0 hr 33 min 43 sec) 
Heartbeat CPU 0 instructions: 62000000 cycles: 110818162 heartbeat IPC: 0.433271 cumulative IPC: 0.482981 (Simulation time: 0 hr 34 min 22 sec) 
Heartbeat CPU 0 instructions: 63000001 cycles: 112995881 heartbeat IPC: 0.459197 cumulative IPC: 0.482509 (Simulation time: 0 hr 34 min 58 sec) 
Heartbeat CPU 0 instructions: 64000000 cycles: 114980892 heartbeat IPC: 0.503775 cumulative IPC: 0.482887 (Simulation time: 0 hr 35 min 33 sec) 
Heartbeat CPU 0 instructions: 65000000 cycles: 116972389 heartbeat IPC: 0.502135 cumulative IPC: 0.483224 (Simulation time: 0 hr 36 min 9 sec) 
Heartbeat CPU 0 instructions: 66000001 cycles: 119032144 heartbeat IPC: 0.485495 cumulative IPC: 0.483264 (Simulation time: 0 hr 36 min 43 sec) 
Heartbeat CPU 0 instructions: 67000000 cycles: 121131035 heartbeat IPC: 0.476442 cumulative IPC: 0.483143 (Simulation time: 0 hr 37 min 20 sec) 
Heartbeat CPU 0 instructions: 68000000 cycles: 123288083 heartbeat IPC: 0.463597 cumulative IPC: 0.482792 (Simulation time: 0 hr 37 min 57 sec) 
Heartbeat CPU 0 instructions: 69000002 cycles: 125433720 heartbeat IPC: 0.466063 cumulative IPC: 0.482498 (Simulation time: 0 hr 38 min 31 sec) 
Heartbeat CPU 0 instructions: 70000001 cycles: 127570946 heartbeat IPC: 0.467896 cumulative IPC: 0.482247 (Simulation time: 0 hr 39 min 5 sec) 
Heartbeat CPU 0 instructions: 71000000 cycles: 129729903 heartbeat IPC: 0.463186 cumulative IPC: 0.481922 (Simulation time: 0 hr 39 min 43 sec) 
Heartbeat CPU 0 instructions: 72000000 cycles: 131846237 heartbeat IPC: 0.472515 cumulative IPC: 0.481767 (Simulation time: 0 hr 40 min 20 sec) 
Heartbeat CPU 0 instructions: 73000002 cycles: 134004436 heartbeat IPC: 0.46335 cumulative IPC: 0.481464 (Simulation time: 0 hr 40 min 57 sec) 
Heartbeat CPU 0 instructions: 74000002 cycles: 136121506 heartbeat IPC: 0.472351 cumulative IPC: 0.481319 (Simulation time: 0 hr 41 min 33 sec) 
Heartbeat CPU 0 instructions: 75000001 cycles: 138263670 heartbeat IPC: 0.466817 cumulative IPC: 0.481089 (Simulation time: 0 hr 42 min 9 sec) 
Heartbeat CPU 0 instructions: 76000000 cycles: 140404183 heartbeat IPC: 0.467177 cumulative IPC: 0.480872 (Simulation time: 0 hr 42 min 45 sec) 
Heartbeat CPU 0 instructions: 77000000 cycles: 142538016 heartbeat IPC: 0.46864 cumulative IPC: 0.480684 (Simulation time: 0 hr 43 min 20 sec) 
Heartbeat CPU 0 instructions: 78000002 cycles: 144705332 heartbeat IPC: 0.461401 cumulative IPC: 0.480389 (Simulation time: 0 hr 43 min 55 sec) 
Heartbeat CPU 0 instructions: 79000001 cycles: 146821025 heartbeat IPC: 0.472658 cumulative IPC: 0.480275 (Simulation time: 0 hr 44 min 30 sec) 
Heartbeat CPU 0 instructions: 80000000 cycles: 148989776 heartbeat IPC: 0.461094 cumulative IPC: 0.47999 (Simulation time: 0 hr 45 min 5 sec) 
Heartbeat CPU 0 instructions: 81000000 cycles: 151118630 heartbeat IPC: 0.469736 cumulative IPC: 0.479843 (Simulation time: 0 hr 45 min 41 sec) 
Heartbeat CPU 0 instructions: 82000000 cycles: 153260302 heartbeat IPC: 0.466925 cumulative IPC: 0.479658 (Simulation time: 0 hr 46 min 16 sec) 
Heartbeat CPU 0 instructions: 83000001 cycles: 155557468 heartbeat IPC: 0.435319 cumulative IPC: 0.47899 (Simulation time: 0 hr 46 min 53 sec) 
Heartbeat CPU 0 instructions: 84000000 cycles: 157891019 heartbeat IPC: 0.428531 cumulative IPC: 0.478229 (Simulation time: 0 hr 47 min 30 sec) 
Heartbeat CPU 0 instructions: 85000001 cycles: 160315370 heartbeat IPC: 0.412482 cumulative IPC: 0.477215 (Simulation time: 0 hr 48 min 9 sec) 
Heartbeat CPU 0 instructions: 86000001 cycles: 162805591 heartbeat IPC: 0.401571 cumulative IPC: 0.476035 (Simulation time: 0 hr 48 min 48 sec) 
Heartbeat CPU 0 instructions: 87000003 cycles: 165315250 heartbeat IPC: 0.398461 cumulative IPC: 0.474834 (Simulation time: 0 hr 49 min 27 sec) 
Heartbeat CPU 0 instructions: 88000000 cycles: 167827263 heartbeat IPC: 0.398086 cumulative IPC: 0.473664 (Simulation time: 0 hr 50 min 6 sec) 
Heartbeat CPU 0 instructions: 89000001 cycles: 170338682 heartbeat IPC: 0.398182 cumulative IPC: 0.47253 (Simulation time: 0 hr 50 min 46 sec) 
Heartbeat CPU 0 instructions: 90000000 cycles: 172842015 heartbeat IPC: 0.399467 cumulative IPC: 0.471452 (Simulation time: 0 hr 51 min 25 sec) 
Heartbeat CPU 0 instructions: 91000002 cycles: 175335846 heartbeat IPC: 0.40099 cumulative IPC: 0.470431 (Simulation time: 0 hr 52 min 3 sec) 
Heartbeat CPU 0 instructions: 92000000 cycles: 177811912 heartbeat IPC: 0.403866 cumulative IPC: 0.469488 (Simulation time: 0 hr 52 min 42 sec) 
Heartbeat CPU 0 instructions: 93000003 cycles: 180308583 heartbeat IPC: 0.400535 cumulative IPC: 0.468516 (Simulation time: 0 hr 53 min 20 sec) 
Heartbeat CPU 0 instructions: 94000000 cycles: 182820322 heartbeat IPC: 0.398129 cumulative IPC: 0.467532 (Simulation time: 0 hr 53 min 57 sec) 
Heartbeat CPU 0 instructions: 95000002 cycles: 185333578 heartbeat IPC: 0.397891 cumulative IPC: 0.466571 (Simulation time: 0 hr 54 min 36 sec) 
Heartbeat CPU 0 instructions: 96000000 cycles: 187853457 heartbeat IPC: 0.396844 cumulative IPC: 0.46562 (Simulation time: 0 hr 55 min 15 sec) 
Heartbeat CPU 0 instructions: 97000001 cycles: 190375024 heartbeat IPC: 0.396579 cumulative IPC: 0.46469 (Simulation time: 0 hr 55 min 50 sec) 
Heartbeat CPU 0 instructions: 98000002 cycles: 192871444 heartbeat IPC: 0.400574 cumulative IPC: 0.463846 (Simulation time: 0 hr 56 min 27 sec) 
Heartbeat CPU 0 instructions: 99000002 cycles: 194503994 heartbeat IPC: 0.612539 cumulative IPC: 0.465115 (Simulation time: 0 hr 57 min 5 sec) 
Heartbeat CPU 0 instructions: 100000000 cycles: 195946142 heartbeat IPC: 0.693409 cumulative IPC: 0.466823 (Simulation time: 0 hr 57 min 41 sec) 
Heartbeat CPU 0 instructions: 101000000 cycles: 197371957 heartbeat IPC: 0.701353 cumulative IPC: 0.468544 (Simulation time: 0 hr 58 min 16 sec) 
Heartbeat CPU 0 instructions: 102000003 cycles: 198796781 heartbeat IPC: 0.701843 cumulative IPC: 0.470243 (Simulation time: 0 hr 58 min 54 sec) 
Heartbeat CPU 0 instructions: 103000002 cycles: 200223377 heartbeat IPC: 0.700969 cumulative IPC: 0.471914 (Simulation time: 0 hr 59 min 33 sec) 
Heartbeat CPU 0 instructions: 104000000 cycles: 201650041 heartbeat IPC: 0.700934 cumulative IPC: 0.47356 (Simulation time: 1 hr 0 min 9 sec) 
Heartbeat CPU 0 instructions: 105000000 cycles: 203076755 heartbeat IPC: 0.700911 cumulative IPC: 0.475182 (Simulation time: 1 hr 0 min 46 sec) 
Heartbeat CPU 0 instructions: 106000001 cycles: 204503348 heartbeat IPC: 0.700971 cumulative IPC: 0.476782 (Simulation time: 1 hr 1 min 24 sec) 
Heartbeat CPU 0 instructions: 107000000 cycles: 205929559 heartbeat IPC: 0.701158 cumulative IPC: 0.47836 (Simulation time: 1 hr 1 min 58 sec) 
Heartbeat CPU 0 instructions: 108000000 cycles: 207356224 heartbeat IPC: 0.700935 cumulative IPC: 0.479915 (Simulation time: 1 hr 2 min 32 sec) 
Heartbeat CPU 0 instructions: 109000001 cycles: 208782940 heartbeat IPC: 0.700911 cumulative IPC: 0.481448 (Simulation time: 1 hr 3 min 3 sec) 
Heartbeat CPU 0 instructions: 110000000 cycles: 210209532 heartbeat IPC: 0.700971 cumulative IPC: 0.482961 (Simulation time: 1 hr 3 min 35 sec) 
Finished CPU 0 instructions: 100000001 cycles: 207056082 cummulative IPC: 0.482961 (Simulation time: 1 hr 3 min 35 sec) 

ChampSim completed all CPUs

Region of Interest Statistics

CPU 0 cummulative IPC: 0.482961 instructions: 100000001 cycles: 207056082
LLC TOTAL     ACCESS:    4047262  HIT:     222650  MISS:    3824612
LLC LOAD      ACCESS:     834420  HIT:      28149  MISS:     806271
LLC RFO       ACCESS:         24  HIT:         15  MISS:          9
LLC PREFETCH  ACCESS:    2172382  HIT:      83853  MISS:    2088529
LLC WRITEBACK ACCESS:    1040436  HIT:     110633  MISS:     929803
Insertion Distribution: 
	LOAD 39886 0 47350 723144 
	RFO 0 0 9 0 
	PREF 0 1731 68913 2276566 
	WRITEBACK 0 0 0 1037737 
Total Prefetch Downgrades: 7857
