
*** ChampSim Multicore Out-of-Order Simulator ***

Warmup Instructions: 10000000
Simulation Instructions: 100000000
Configuration: 2
Number of CPUs: 1
LLC sets: 2048
LLC ways: 16
Off-chip DRAM Channels: 1 Width: 64-bit Data Rate: 1600 MT/s

CPU 0 runs /datasets/cs240c-wi22-a00-public/data/Assignment2-gz/zeusmp_300B.trace.gz
CPU 0 L1D next line prefetcher
CPU 0 L2C IP-based stride prefetcher
Initialize SRRIP state
Heartbeat CPU 0 instructions: 1000003 cycles: 509580 heartbeat IPC: 1.96241 cumulative IPC: 1.96241 (Simulation time: 0 hr 0 min 26 sec) 
Heartbeat CPU 0 instructions: 2000003 cycles: 1062148 heartbeat IPC: 1.80973 cumulative IPC: 1.88298 (Simulation time: 0 hr 0 min 54 sec) 
Heartbeat CPU 0 instructions: 3000002 cycles: 1606421 heartbeat IPC: 1.83731 cumulative IPC: 1.86751 (Simulation time: 0 hr 1 min 21 sec) 
Heartbeat CPU 0 instructions: 4000000 cycles: 2093210 heartbeat IPC: 2.05427 cumulative IPC: 1.91094 (Simulation time: 0 hr 1 min 50 sec) 
Heartbeat CPU 0 instructions: 5000001 cycles: 2575892 heartbeat IPC: 2.07176 cumulative IPC: 1.94108 (Simulation time: 0 hr 2 min 17 sec) 
Heartbeat CPU 0 instructions: 6000000 cycles: 3062581 heartbeat IPC: 2.0547 cumulative IPC: 1.95913 (Simulation time: 0 hr 2 min 48 sec) 
Heartbeat CPU 0 instructions: 7000001 cycles: 3590722 heartbeat IPC: 1.89344 cumulative IPC: 1.94947 (Simulation time: 0 hr 3 min 18 sec) 
Heartbeat CPU 0 instructions: 8000000 cycles: 4144747 heartbeat IPC: 1.80497 cumulative IPC: 1.93015 (Simulation time: 0 hr 3 min 45 sec) 
Heartbeat CPU 0 instructions: 9000000 cycles: 4672650 heartbeat IPC: 1.89429 cumulative IPC: 1.9261 (Simulation time: 0 hr 4 min 14 sec) 
Heartbeat CPU 0 instructions: 10000002 cycles: 5158945 heartbeat IPC: 2.05637 cumulative IPC: 1.93838 (Simulation time: 0 hr 4 min 41 sec) 

Warmup complete CPU 0 instructions: 10000002 cycles: 5158945 (Simulation time: 0 hr 4 min 41 sec) 

Heartbeat CPU 0 instructions: 11000003 cycles: 5844923 heartbeat IPC: 1.45777 cumulative IPC: 1.45777 (Simulation time: 0 hr 5 min 10 sec) 
Heartbeat CPU 0 instructions: 12000000 cycles: 6525553 heartbeat IPC: 1.46922 cumulative IPC: 1.46348 (Simulation time: 0 hr 5 min 39 sec) 
Heartbeat CPU 0 instructions: 13000000 cycles: 7323891 heartbeat IPC: 1.2526 cumulative IPC: 1.38571 (Simulation time: 0 hr 6 min 9 sec) 
Heartbeat CPU 0 instructions: 14000000 cycles: 8137905 heartbeat IPC: 1.22848 cumulative IPC: 1.34275 (Simulation time: 0 hr 6 min 38 sec) 
Heartbeat CPU 0 instructions: 15000002 cycles: 8865534 heartbeat IPC: 1.37433 cumulative IPC: 1.34895 (Simulation time: 0 hr 7 min 8 sec) 
Heartbeat CPU 0 instructions: 16000000 cycles: 9551306 heartbeat IPC: 1.45821 cumulative IPC: 1.36601 (Simulation time: 0 hr 7 min 40 sec) 
Heartbeat CPU 0 instructions: 17000003 cycles: 10240543 heartbeat IPC: 1.45088 cumulative IPC: 1.37752 (Simulation time: 0 hr 8 min 13 sec) 
Heartbeat CPU 0 instructions: 18000000 cycles: 10937223 heartbeat IPC: 1.43537 cumulative IPC: 1.3845 (Simulation time: 0 hr 8 min 47 sec) 
Heartbeat CPU 0 instructions: 19000003 cycles: 11755523 heartbeat IPC: 1.22205 cumulative IPC: 1.36434 (Simulation time: 0 hr 9 min 16 sec) 
Heartbeat CPU 0 instructions: 20000000 cycles: 12567492 heartbeat IPC: 1.23157 cumulative IPC: 1.34979 (Simulation time: 0 hr 9 min 47 sec) 
Heartbeat CPU 0 instructions: 21000001 cycles: 13266613 heartbeat IPC: 1.43037 cumulative IPC: 1.35674 (Simulation time: 0 hr 10 min 17 sec) 
Heartbeat CPU 0 instructions: 22000000 cycles: 13957030 heartbeat IPC: 1.4484 cumulative IPC: 1.36393 (Simulation time: 0 hr 10 min 50 sec) 
Heartbeat CPU 0 instructions: 23000001 cycles: 14648328 heartbeat IPC: 1.44656 cumulative IPC: 1.36995 (Simulation time: 0 hr 11 min 20 sec) 
Heartbeat CPU 0 instructions: 24000000 cycles: 15380131 heartbeat IPC: 1.36649 cumulative IPC: 1.3697 (Simulation time: 0 hr 11 min 57 sec) 
Heartbeat CPU 0 instructions: 25000000 cycles: 16194147 heartbeat IPC: 1.22848 cumulative IPC: 1.35929 (Simulation time: 0 hr 12 min 25 sec) 
Heartbeat CPU 0 instructions: 26000000 cycles: 17001072 heartbeat IPC: 1.23927 cumulative IPC: 1.35111 (Simulation time: 0 hr 12 min 57 sec) 
Heartbeat CPU 0 instructions: 27000002 cycles: 17687618 heartbeat IPC: 1.45657 cumulative IPC: 1.35689 (Simulation time: 0 hr 13 min 29 sec) 
Heartbeat CPU 0 instructions: 28000000 cycles: 18378072 heartbeat IPC: 1.44832 cumulative IPC: 1.36166 (Simulation time: 0 hr 14 min 2 sec) 
Heartbeat CPU 0 instructions: 29000003 cycles: 19070974 heartbeat IPC: 1.44321 cumulative IPC: 1.36572 (Simulation time: 0 hr 14 min 31 sec) 
Heartbeat CPU 0 instructions: 30000002 cycles: 19831819 heartbeat IPC: 1.31433 cumulative IPC: 1.36306 (Simulation time: 0 hr 15 min 0 sec) 
Heartbeat CPU 0 instructions: 31000001 cycles: 20648721 heartbeat IPC: 1.22414 cumulative IPC: 1.35573 (Simulation time: 0 hr 15 min 30 sec) 
Heartbeat CPU 0 instructions: 32000000 cycles: 21418435 heartbeat IPC: 1.29918 cumulative IPC: 1.35306 (Simulation time: 0 hr 16 min 0 sec) 
Heartbeat CPU 0 instructions: 33000000 cycles: 22103495 heartbeat IPC: 1.45973 cumulative IPC: 1.35737 (Simulation time: 0 hr 16 min 29 sec) 
Heartbeat CPU 0 instructions: 34000000 cycles: 22798443 heartbeat IPC: 1.43896 cumulative IPC: 1.36058 (Simulation time: 0 hr 16 min 59 sec) 
Heartbeat CPU 0 instructions: 35000002 cycles: 23487600 heartbeat IPC: 1.45105 cumulative IPC: 1.36398 (Simulation time: 0 hr 17 min 35 sec) 
Heartbeat CPU 0 instructions: 36000000 cycles: 24276174 heartbeat IPC: 1.26811 cumulative IPC: 1.36003 (Simulation time: 0 hr 18 min 10 sec) 
Heartbeat CPU 0 instructions: 37000003 cycles: 25090906 heartbeat IPC: 1.2274 cumulative IPC: 1.35461 (Simulation time: 0 hr 18 min 45 sec) 
Heartbeat CPU 0 instructions: 38000001 cycles: 25832538 heartbeat IPC: 1.34837 cumulative IPC: 1.35438 (Simulation time: 0 hr 19 min 27 sec) 
Heartbeat CPU 0 instructions: 39000002 cycles: 26519473 heartbeat IPC: 1.45574 cumulative IPC: 1.35764 (Simulation time: 0 hr 20 min 6 sec) 
Heartbeat CPU 0 instructions: 40000000 cycles: 27215064 heartbeat IPC: 1.43762 cumulative IPC: 1.36017 (Simulation time: 0 hr 20 min 53 sec) 
Heartbeat CPU 0 instructions: 41000001 cycles: 27899015 heartbeat IPC: 1.46209 cumulative IPC: 1.36323 (Simulation time: 0 hr 21 min 45 sec) 
Heartbeat CPU 0 instructions: 42000001 cycles: 28720994 heartbeat IPC: 1.21658 cumulative IPC: 1.35812 (Simulation time: 0 hr 22 min 38 sec) 
Heartbeat CPU 0 instructions: 43000000 cycles: 29531598 heartbeat IPC: 1.23365 cumulative IPC: 1.35398 (Simulation time: 0 hr 23 min 24 sec) 
Heartbeat CPU 0 instructions: 44000000 cycles: 30242554 heartbeat IPC: 1.40656 cumulative IPC: 1.35547 (Simulation time: 0 hr 24 min 18 sec) 
Heartbeat CPU 0 instructions: 45000002 cycles: 30932261 heartbeat IPC: 1.44989 cumulative IPC: 1.35799 (Simulation time: 0 hr 25 min 8 sec) 
Heartbeat CPU 0 instructions: 46000002 cycles: 31626194 heartbeat IPC: 1.44106 cumulative IPC: 1.36017 (Simulation time: 0 hr 26 min 4 sec) 
Heartbeat CPU 0 instructions: 47000001 cycles: 32345764 heartbeat IPC: 1.38972 cumulative IPC: 1.36095 (Simulation time: 0 hr 26 min 57 sec) 
Heartbeat CPU 0 instructions: 48000000 cycles: 33159041 heartbeat IPC: 1.22959 cumulative IPC: 1.35714 (Simulation time: 0 hr 27 min 47 sec) 
Heartbeat CPU 0 instructions: 49000003 cycles: 33966358 heartbeat IPC: 1.23867 cumulative IPC: 1.35382 (Simulation time: 0 hr 28 min 40 sec) 
Heartbeat CPU 0 instructions: 50000001 cycles: 34653153 heartbeat IPC: 1.45604 cumulative IPC: 1.3562 (Simulation time: 0 hr 29 min 35 sec) 
Heartbeat CPU 0 instructions: 51000002 cycles: 35341039 heartbeat IPC: 1.45373 cumulative IPC: 1.35842 (Simulation time: 0 hr 30 min 27 sec) 
Heartbeat CPU 0 instructions: 52000000 cycles: 36031506 heartbeat IPC: 1.44829 cumulative IPC: 1.36043 (Simulation time: 0 hr 31 min 14 sec) 
Heartbeat CPU 0 instructions: 53000000 cycles: 36781549 heartbeat IPC: 1.33326 cumulative IPC: 1.35979 (Simulation time: 0 hr 32 min 5 sec) 
Heartbeat CPU 0 instructions: 54000002 cycles: 37593685 heartbeat IPC: 1.23132 cumulative IPC: 1.35657 (Simulation time: 0 hr 32 min 52 sec) 
Heartbeat CPU 0 instructions: 55000001 cycles: 38371813 heartbeat IPC: 1.28513 cumulative IPC: 1.3549 (Simulation time: 0 hr 33 min 34 sec) 
Heartbeat CPU 0 instructions: 56000000 cycles: 39058911 heartbeat IPC: 1.45539 cumulative IPC: 1.35693 (Simulation time: 0 hr 34 min 21 sec) 
Heartbeat CPU 0 instructions: 57000000 cycles: 39748672 heartbeat IPC: 1.44978 cumulative IPC: 1.35878 (Simulation time: 0 hr 35 min 10 sec) 
Heartbeat CPU 0 instructions: 58000000 cycles: 40437974 heartbeat IPC: 1.45074 cumulative IPC: 1.36058 (Simulation time: 0 hr 35 min 59 sec) 
Heartbeat CPU 0 instructions: 59000003 cycles: 41213982 heartbeat IPC: 1.28865 cumulative IPC: 1.35903 (Simulation time: 0 hr 36 min 53 sec) 
Heartbeat CPU 0 instructions: 60000000 cycles: 42026945 heartbeat IPC: 1.23006 cumulative IPC: 1.35619 (Simulation time: 0 hr 37 min 45 sec) 
Heartbeat CPU 0 instructions: 61000000 cycles: 42778122 heartbeat IPC: 1.33124 cumulative IPC: 1.35569 (Simulation time: 0 hr 38 min 36 sec) 
Heartbeat CPU 0 instructions: 62000002 cycles: 43465287 heartbeat IPC: 1.45526 cumulative IPC: 1.35748 (Simulation time: 0 hr 39 min 30 sec) 
Heartbeat CPU 0 instructions: 63000003 cycles: 44156036 heartbeat IPC: 1.44771 cumulative IPC: 1.35908 (Simulation time: 0 hr 40 min 21 sec) 
Heartbeat CPU 0 instructions: 64000000 cycles: 44843219 heartbeat IPC: 1.45521 cumulative IPC: 1.36074 (Simulation time: 0 hr 41 min 9 sec) 
Heartbeat CPU 0 instructions: 65000003 cycles: 45652515 heartbeat IPC: 1.23565 cumulative IPC: 1.35824 (Simulation time: 0 hr 42 min 3 sec) 
Heartbeat CPU 0 instructions: 66000003 cycles: 46466312 heartbeat IPC: 1.22881 cumulative IPC: 1.35569 (Simulation time: 0 hr 42 min 54 sec) 
Heartbeat CPU 0 instructions: 67000002 cycles: 47187010 heartbeat IPC: 1.38754 cumulative IPC: 1.35624 (Simulation time: 0 hr 43 min 46 sec) 
Heartbeat CPU 0 instructions: 68000000 cycles: 47874320 heartbeat IPC: 1.45494 cumulative IPC: 1.35782 (Simulation time: 0 hr 44 min 40 sec) 
Heartbeat CPU 0 instructions: 69000000 cycles: 48564682 heartbeat IPC: 1.44852 cumulative IPC: 1.35927 (Simulation time: 0 hr 45 min 29 sec) 
Heartbeat CPU 0 instructions: 70000001 cycles: 49276380 heartbeat IPC: 1.40509 cumulative IPC: 1.36001 (Simulation time: 0 hr 46 min 24 sec) 
Heartbeat CPU 0 instructions: 71000001 cycles: 50085867 heartbeat IPC: 1.23535 cumulative IPC: 1.35776 (Simulation time: 0 hr 47 min 19 sec) 
Heartbeat CPU 0 instructions: 72000000 cycles: 50896850 heartbeat IPC: 1.23307 cumulative IPC: 1.35555 (Simulation time: 0 hr 48 min 16 sec) 
Heartbeat CPU 0 instructions: 73000003 cycles: 51592294 heartbeat IPC: 1.43793 cumulative IPC: 1.35678 (Simulation time: 0 hr 49 min 5 sec) 
Heartbeat CPU 0 instructions: 74000001 cycles: 52279684 heartbeat IPC: 1.45478 cumulative IPC: 1.35821 (Simulation time: 0 hr 49 min 53 sec) 
Heartbeat CPU 0 instructions: 75000003 cycles: 52969684 heartbeat IPC: 1.44928 cumulative IPC: 1.35953 (Simulation time: 0 hr 50 min 40 sec) 
Heartbeat CPU 0 instructions: 76000000 cycles: 53711013 heartbeat IPC: 1.34892 cumulative IPC: 1.35937 (Simulation time: 0 hr 51 min 29 sec) 
Heartbeat CPU 0 instructions: 77000001 cycles: 54523962 heartbeat IPC: 1.23009 cumulative IPC: 1.35724 (Simulation time: 0 hr 52 min 20 sec) 
Heartbeat CPU 0 instructions: 78000003 cycles: 55310176 heartbeat IPC: 1.27192 cumulative IPC: 1.3559 (Simulation time: 0 hr 53 min 7 sec) 
Heartbeat CPU 0 instructions: 79000001 cycles: 55996815 heartbeat IPC: 1.45637 cumulative IPC: 1.35726 (Simulation time: 0 hr 53 min 49 sec) 
Heartbeat CPU 0 instructions: 80000000 cycles: 56685439 heartbeat IPC: 1.45217 cumulative IPC: 1.35852 (Simulation time: 0 hr 54 min 37 sec) 
Heartbeat CPU 0 instructions: 81000000 cycles: 57374077 heartbeat IPC: 1.45214 cumulative IPC: 1.35976 (Simulation time: 0 hr 55 min 25 sec) 
Heartbeat CPU 0 instructions: 82000002 cycles: 58143070 heartbeat IPC: 1.3004 cumulative IPC: 1.3589 (Simulation time: 0 hr 56 min 14 sec) 
Heartbeat CPU 0 instructions: 83000001 cycles: 58954124 heartbeat IPC: 1.23296 cumulative IPC: 1.357 (Simulation time: 0 hr 57 min 0 sec) 
Heartbeat CPU 0 instructions: 84000000 cycles: 59712684 heartbeat IPC: 1.31829 cumulative IPC: 1.35646 (Simulation time: 0 hr 57 min 48 sec) 
Heartbeat CPU 0 instructions: 85000001 cycles: 60402562 heartbeat IPC: 1.44953 cumulative IPC: 1.35762 (Simulation time: 0 hr 58 min 33 sec) 
Heartbeat CPU 0 instructions: 86000002 cycles: 61091471 heartbeat IPC: 1.45157 cumulative IPC: 1.35878 (Simulation time: 0 hr 59 min 20 sec) 
Heartbeat CPU 0 instructions: 87000000 cycles: 61777804 heartbeat IPC: 1.45702 cumulative IPC: 1.35997 (Simulation time: 1 hr 0 min 6 sec) 
Heartbeat CPU 0 instructions: 88000000 cycles: 62576690 heartbeat IPC: 1.25174 cumulative IPC: 1.35847 (Simulation time: 1 hr 0 min 56 sec) 
Heartbeat CPU 0 instructions: 89000000 cycles: 63390792 heartbeat IPC: 1.22835 cumulative IPC: 1.35665 (Simulation time: 1 hr 1 min 41 sec) 
Heartbeat CPU 0 instructions: 90000002 cycles: 64123782 heartbeat IPC: 1.36428 cumulative IPC: 1.35674 (Simulation time: 1 hr 2 min 26 sec) 
Heartbeat CPU 0 instructions: 91000002 cycles: 64809537 heartbeat IPC: 1.45825 cumulative IPC: 1.35791 (Simulation time: 1 hr 3 min 8 sec) 
Heartbeat CPU 0 instructions: 92000000 cycles: 65498651 heartbeat IPC: 1.45114 cumulative IPC: 1.35897 (Simulation time: 1 hr 3 min 49 sec) 
Heartbeat CPU 0 instructions: 93000001 cycles: 66183935 heartbeat IPC: 1.45925 cumulative IPC: 1.3601 (Simulation time: 1 hr 4 min 27 sec) 
Heartbeat CPU 0 instructions: 94000000 cycles: 67009716 heartbeat IPC: 1.21097 cumulative IPC: 1.35811 (Simulation time: 1 hr 5 min 8 sec) 
Heartbeat CPU 0 instructions: 95000003 cycles: 67821802 heartbeat IPC: 1.2314 cumulative IPC: 1.35647 (Simulation time: 1 hr 5 min 44 sec) 
Heartbeat CPU 0 instructions: 96000000 cycles: 68526268 heartbeat IPC: 1.41951 cumulative IPC: 1.35717 (Simulation time: 1 hr 6 min 20 sec) 
Heartbeat CPU 0 instructions: 97000001 cycles: 69217006 heartbeat IPC: 1.44773 cumulative IPC: 1.35814 (Simulation time: 1 hr 6 min 53 sec) 
Heartbeat CPU 0 instructions: 98000000 cycles: 69906874 heartbeat IPC: 1.44955 cumulative IPC: 1.35912 (Simulation time: 1 hr 7 min 27 sec) 
Heartbeat CPU 0 instructions: 99000001 cycles: 70631520 heartbeat IPC: 1.37999 cumulative IPC: 1.35935 (Simulation time: 1 hr 7 min 56 sec) 
Heartbeat CPU 0 instructions: 100000000 cycles: 71443677 heartbeat IPC: 1.23129 cumulative IPC: 1.35778 (Simulation time: 1 hr 8 min 28 sec) 
Heartbeat CPU 0 instructions: 101000001 cycles: 72245895 heartbeat IPC: 1.24655 cumulative IPC: 1.35645 (Simulation time: 1 hr 8 min 57 sec) 
Heartbeat CPU 0 instructions: 102000003 cycles: 72932500 heartbeat IPC: 1.45644 cumulative IPC: 1.35746 (Simulation time: 1 hr 9 min 30 sec) 
Heartbeat CPU 0 instructions: 103000003 cycles: 73621224 heartbeat IPC: 1.45196 cumulative IPC: 1.35841 (Simulation time: 1 hr 9 min 58 sec) 
Heartbeat CPU 0 instructions: 104000000 cycles: 74308366 heartbeat IPC: 1.4553 cumulative IPC: 1.35938 (Simulation time: 1 hr 10 min 24 sec) 
Heartbeat CPU 0 instructions: 105000001 cycles: 75067310 heartbeat IPC: 1.31762 cumulative IPC: 1.35892 (Simulation time: 1 hr 10 min 49 sec) 
Heartbeat CPU 0 instructions: 106000002 cycles: 75875201 heartbeat IPC: 1.23779 cumulative IPC: 1.35754 (Simulation time: 1 hr 11 min 15 sec) 
Heartbeat CPU 0 instructions: 107000003 cycles: 76648544 heartbeat IPC: 1.29309 cumulative IPC: 1.35684 (Simulation time: 1 hr 11 min 40 sec) 
Heartbeat CPU 0 instructions: 108000000 cycles: 77335062 heartbeat IPC: 1.45662 cumulative IPC: 1.35779 (Simulation time: 1 hr 12 min 3 sec) 
Heartbeat CPU 0 instructions: 109000001 cycles: 78026235 heartbeat IPC: 1.44682 cumulative IPC: 1.35863 (Simulation time: 1 hr 12 min 22 sec) 
Heartbeat CPU 0 instructions: 110000000 cycles: 78712921 heartbeat IPC: 1.45627 cumulative IPC: 1.35955 (Simulation time: 1 hr 12 min 39 sec) 
Finished CPU 0 instructions: 100000002 cycles: 73553977 cummulative IPC: 1.35955 (Simulation time: 1 hr 12 min 39 sec) 

ChampSim completed all CPUs

Region of Interest Statistics

CPU 0 cummulative IPC: 1.35955 instructions: 100000002 cycles: 73553977
LLC TOTAL     ACCESS:     631980  HIT:     295304  MISS:     336676
LLC LOAD      ACCESS:      37168  HIT:      23772  MISS:      13396
LLC RFO       ACCESS:     152071  HIT:      75900  MISS:      76171
LLC PREFETCH  ACCESS:     286932  HIT:      95112  MISS:     191820
LLC WRITEBACK ACCESS:     155809  HIT:     100520  MISS:      55289
Insertion Distribution: 
	LOAD 2688 0 5070 7238 
	RFO 18 0 10811 75596 
	PREF 0 22709 41594 149949 
	WRITEBACK 0 0 0 56691 
Total Prefetch Downgrades: 22732
