
*** ChampSim Multicore Out-of-Order Simulator ***

Warmup Instructions: 10000000
Simulation Instructions: 100000000
Configuration: 2
Number of CPUs: 1
LLC sets: 2048
LLC ways: 16
Off-chip DRAM Channels: 1 Width: 64-bit Data Rate: 1600 MT/s

CPU 0 runs /datasets/cs240c-wi22-a00-public/data/Assignment2-gz/omnetpp_4B.trace.gz
CPU 0 L1D next line prefetcher
CPU 0 L2C IP-based stride prefetcher
Initialize SRRIP state
Heartbeat CPU 0 instructions: 1000001 cycles: 566984 heartbeat IPC: 1.76372 cumulative IPC: 1.76372 (Simulation time: 0 hr 0 min 30 sec) 
Heartbeat CPU 0 instructions: 2000001 cycles: 1135712 heartbeat IPC: 1.75831 cumulative IPC: 1.76101 (Simulation time: 0 hr 1 min 1 sec) 
Heartbeat CPU 0 instructions: 3000001 cycles: 1722731 heartbeat IPC: 1.70352 cumulative IPC: 1.74142 (Simulation time: 0 hr 1 min 34 sec) 
Heartbeat CPU 0 instructions: 4000000 cycles: 2292003 heartbeat IPC: 1.75663 cumulative IPC: 1.7452 (Simulation time: 0 hr 2 min 10 sec) 
Heartbeat CPU 0 instructions: 5000000 cycles: 2866142 heartbeat IPC: 1.74174 cumulative IPC: 1.74451 (Simulation time: 0 hr 2 min 40 sec) 
Heartbeat CPU 0 instructions: 6000000 cycles: 3442309 heartbeat IPC: 1.73561 cumulative IPC: 1.74302 (Simulation time: 0 hr 3 min 11 sec) 
Heartbeat CPU 0 instructions: 7000000 cycles: 4011579 heartbeat IPC: 1.75664 cumulative IPC: 1.74495 (Simulation time: 0 hr 3 min 42 sec) 
Heartbeat CPU 0 instructions: 8000000 cycles: 4565063 heartbeat IPC: 1.80674 cumulative IPC: 1.75244 (Simulation time: 0 hr 4 min 14 sec) 
Heartbeat CPU 0 instructions: 9000001 cycles: 5147182 heartbeat IPC: 1.71786 cumulative IPC: 1.74853 (Simulation time: 0 hr 4 min 43 sec) 
Heartbeat CPU 0 instructions: 10000000 cycles: 5701165 heartbeat IPC: 1.80511 cumulative IPC: 1.75403 (Simulation time: 0 hr 5 min 14 sec) 

Warmup complete CPU 0 instructions: 10000003 cycles: 5701166 (Simulation time: 0 hr 5 min 14 sec) 

Heartbeat CPU 0 instructions: 11000000 cycles: 8890361 heartbeat IPC: 0.313559 cumulative IPC: 0.313558 (Simulation time: 0 hr 5 min 49 sec) 
Heartbeat CPU 0 instructions: 12000000 cycles: 10045506 heartbeat IPC: 0.865692 cumulative IPC: 0.460368 (Simulation time: 0 hr 6 min 16 sec) 
Heartbeat CPU 0 instructions: 13000003 cycles: 11190455 heartbeat IPC: 0.873404 cumulative IPC: 0.546519 (Simulation time: 0 hr 6 min 42 sec) 
Heartbeat CPU 0 instructions: 14000000 cycles: 12310723 heartbeat IPC: 0.892641 cumulative IPC: 0.605184 (Simulation time: 0 hr 7 min 10 sec) 
Heartbeat CPU 0 instructions: 15000000 cycles: 13449923 heartbeat IPC: 0.877809 cumulative IPC: 0.645264 (Simulation time: 0 hr 7 min 38 sec) 
Heartbeat CPU 0 instructions: 16000000 cycles: 16312734 heartbeat IPC: 0.349307 cumulative IPC: 0.56542 (Simulation time: 0 hr 8 min 16 sec) 
Heartbeat CPU 0 instructions: 17000003 cycles: 19183520 heartbeat IPC: 0.348338 cumulative IPC: 0.519197 (Simulation time: 0 hr 8 min 50 sec) 
Heartbeat CPU 0 instructions: 18000002 cycles: 21995880 heartbeat IPC: 0.355573 cumulative IPC: 0.490957 (Simulation time: 0 hr 9 min 27 sec) 
Heartbeat CPU 0 instructions: 19000002 cycles: 24838127 heartbeat IPC: 0.351834 cumulative IPC: 0.470294 (Simulation time: 0 hr 9 min 59 sec) 
Heartbeat CPU 0 instructions: 20000000 cycles: 28223329 heartbeat IPC: 0.295403 cumulative IPC: 0.444007 (Simulation time: 0 hr 10 min 35 sec) 
Heartbeat CPU 0 instructions: 21000000 cycles: 31602775 heartbeat IPC: 0.295906 cumulative IPC: 0.424684 (Simulation time: 0 hr 11 min 7 sec) 
Heartbeat CPU 0 instructions: 22000001 cycles: 34850577 heartbeat IPC: 0.307901 cumulative IPC: 0.411672 (Simulation time: 0 hr 11 min 42 sec) 
Heartbeat CPU 0 instructions: 23000000 cycles: 37737811 heartbeat IPC: 0.346352 cumulative IPC: 0.405785 (Simulation time: 0 hr 12 min 16 sec) 
Heartbeat CPU 0 instructions: 24000000 cycles: 40561819 heartbeat IPC: 0.354107 cumulative IPC: 0.401599 (Simulation time: 0 hr 12 min 48 sec) 
Heartbeat CPU 0 instructions: 25000000 cycles: 43383165 heartbeat IPC: 0.354441 cumulative IPC: 0.398068 (Simulation time: 0 hr 13 min 20 sec) 
Heartbeat CPU 0 instructions: 26000002 cycles: 46194879 heartbeat IPC: 0.355656 cumulative IPC: 0.395123 (Simulation time: 0 hr 13 min 51 sec) 
Heartbeat CPU 0 instructions: 27000001 cycles: 49057275 heartbeat IPC: 0.349357 cumulative IPC: 0.392102 (Simulation time: 0 hr 14 min 23 sec) 
Heartbeat CPU 0 instructions: 28000000 cycles: 51868377 heartbeat IPC: 0.355732 cumulative IPC: 0.389887 (Simulation time: 0 hr 14 min 57 sec) 
Heartbeat CPU 0 instructions: 29000001 cycles: 54763948 heartbeat IPC: 0.345355 cumulative IPC: 0.387259 (Simulation time: 0 hr 15 min 30 sec) 
Heartbeat CPU 0 instructions: 30000000 cycles: 57587940 heartbeat IPC: 0.354108 cumulative IPC: 0.385455 (Simulation time: 0 hr 16 min 0 sec) 
Heartbeat CPU 0 instructions: 31000002 cycles: 60392046 heartbeat IPC: 0.356621 cumulative IPC: 0.383976 (Simulation time: 0 hr 16 min 35 sec) 
Heartbeat CPU 0 instructions: 32000000 cycles: 63217760 heartbeat IPC: 0.353892 cumulative IPC: 0.382498 (Simulation time: 0 hr 17 min 9 sec) 
Heartbeat CPU 0 instructions: 33000000 cycles: 66398074 heartbeat IPC: 0.314434 cumulative IPC: 0.378932 (Simulation time: 0 hr 17 min 47 sec) 
Heartbeat CPU 0 instructions: 34000001 cycles: 69700316 heartbeat IPC: 0.302825 cumulative IPC: 0.375005 (Simulation time: 0 hr 18 min 28 sec) 
Heartbeat CPU 0 instructions: 35000001 cycles: 72748563 heartbeat IPC: 0.328057 cumulative IPC: 0.372871 (Simulation time: 0 hr 19 min 8 sec) 
Heartbeat CPU 0 instructions: 36000000 cycles: 76055462 heartbeat IPC: 0.302398 cumulative IPC: 0.369558 (Simulation time: 0 hr 19 min 50 sec) 
Heartbeat CPU 0 instructions: 37000001 cycles: 78878534 heartbeat IPC: 0.354224 cumulative IPC: 0.368967 (Simulation time: 0 hr 20 min 30 sec) 
Heartbeat CPU 0 instructions: 38000001 cycles: 82092461 heartbeat IPC: 0.311146 cumulative IPC: 0.366534 (Simulation time: 0 hr 21 min 11 sec) 
Heartbeat CPU 0 instructions: 39000001 cycles: 84612637 heartbeat IPC: 0.396798 cumulative IPC: 0.3675 (Simulation time: 0 hr 21 min 50 sec) 
Heartbeat CPU 0 instructions: 40000000 cycles: 85734997 heartbeat IPC: 0.890979 cumulative IPC: 0.374841 (Simulation time: 0 hr 22 min 21 sec) 
Heartbeat CPU 0 instructions: 41000001 cycles: 86861274 heartbeat IPC: 0.887882 cumulative IPC: 0.381961 (Simulation time: 0 hr 22 min 51 sec) 
Heartbeat CPU 0 instructions: 42000001 cycles: 87995412 heartbeat IPC: 0.881727 cumulative IPC: 0.388849 (Simulation time: 0 hr 23 min 24 sec) 
Heartbeat CPU 0 instructions: 43000002 cycles: 89212307 heartbeat IPC: 0.821764 cumulative IPC: 0.395157 (Simulation time: 0 hr 23 min 57 sec) 
Heartbeat CPU 0 instructions: 44000000 cycles: 92106200 heartbeat IPC: 0.345555 cumulative IPC: 0.393496 (Simulation time: 0 hr 24 min 38 sec) 
Heartbeat CPU 0 instructions: 45000000 cycles: 94974617 heartbeat IPC: 0.348624 cumulative IPC: 0.392054 (Simulation time: 0 hr 25 min 17 sec) 
Heartbeat CPU 0 instructions: 46000000 cycles: 98317952 heartbeat IPC: 0.299103 cumulative IPC: 0.388698 (Simulation time: 0 hr 25 min 58 sec) 
Heartbeat CPU 0 instructions: 47000000 cycles: 101643300 heartbeat IPC: 0.30072 cumulative IPC: 0.385649 (Simulation time: 0 hr 26 min 37 sec) 
Heartbeat CPU 0 instructions: 48000000 cycles: 104788321 heartbeat IPC: 0.317963 cumulative IPC: 0.383501 (Simulation time: 0 hr 27 min 18 sec) 
Heartbeat CPU 0 instructions: 49000000 cycles: 107699637 heartbeat IPC: 0.343487 cumulative IPC: 0.382359 (Simulation time: 0 hr 27 min 58 sec) 
Heartbeat CPU 0 instructions: 50000001 cycles: 110510509 heartbeat IPC: 0.355762 cumulative IPC: 0.381645 (Simulation time: 0 hr 28 min 37 sec) 
Heartbeat CPU 0 instructions: 51000003 cycles: 113329234 heartbeat IPC: 0.354771 cumulative IPC: 0.380942 (Simulation time: 0 hr 29 min 15 sec) 
Heartbeat CPU 0 instructions: 52000000 cycles: 116127067 heartbeat IPC: 0.357418 cumulative IPC: 0.380346 (Simulation time: 0 hr 29 min 52 sec) 
Heartbeat CPU 0 instructions: 53000003 cycles: 118936749 heartbeat IPC: 0.355913 cumulative IPC: 0.379739 (Simulation time: 0 hr 30 min 34 sec) 
Heartbeat CPU 0 instructions: 54000001 cycles: 121708756 heartbeat IPC: 0.360749 cumulative IPC: 0.379286 (Simulation time: 0 hr 31 min 15 sec) 
Heartbeat CPU 0 instructions: 55000001 cycles: 124628571 heartbeat IPC: 0.342487 cumulative IPC: 0.378382 (Simulation time: 0 hr 32 min 3 sec) 
Heartbeat CPU 0 instructions: 56000000 cycles: 127440770 heartbeat IPC: 0.355593 cumulative IPC: 0.377856 (Simulation time: 0 hr 32 min 46 sec) 
Heartbeat CPU 0 instructions: 57000003 cycles: 130235607 heartbeat IPC: 0.357804 cumulative IPC: 0.377406 (Simulation time: 0 hr 33 min 29 sec) 
Heartbeat CPU 0 instructions: 58000001 cycles: 133239587 heartbeat IPC: 0.332891 cumulative IPC: 0.376357 (Simulation time: 0 hr 34 min 21 sec) 
Heartbeat CPU 0 instructions: 59000001 cycles: 136525229 heartbeat IPC: 0.304355 cumulative IPC: 0.374549 (Simulation time: 0 hr 35 min 8 sec) 
Heartbeat CPU 0 instructions: 60000000 cycles: 139515749 heartbeat IPC: 0.33439 cumulative IPC: 0.373651 (Simulation time: 0 hr 36 min 5 sec) 
Heartbeat CPU 0 instructions: 61000001 cycles: 142571248 heartbeat IPC: 0.327279 cumulative IPC: 0.372616 (Simulation time: 0 hr 37 min 2 sec) 
Heartbeat CPU 0 instructions: 62000000 cycles: 145946659 heartbeat IPC: 0.29626 cumulative IPC: 0.370778 (Simulation time: 0 hr 37 min 59 sec) 
Heartbeat CPU 0 instructions: 63000001 cycles: 148781527 heartbeat IPC: 0.35275 cumulative IPC: 0.370421 (Simulation time: 0 hr 38 min 56 sec) 
Heartbeat CPU 0 instructions: 64000000 cycles: 151583895 heartbeat IPC: 0.356841 cumulative IPC: 0.37016 (Simulation time: 0 hr 39 min 55 sec) 
Heartbeat CPU 0 instructions: 65000001 cycles: 154368914 heartbeat IPC: 0.359064 cumulative IPC: 0.369952 (Simulation time: 0 hr 40 min 43 sec) 
Heartbeat CPU 0 instructions: 66000002 cycles: 158498306 heartbeat IPC: 0.242167 cumulative IPC: 0.366499 (Simulation time: 0 hr 41 min 45 sec) 
Heartbeat CPU 0 instructions: 67000001 cycles: 160149630 heartbeat IPC: 0.605574 cumulative IPC: 0.369055 (Simulation time: 0 hr 42 min 29 sec) 
Heartbeat CPU 0 instructions: 68000000 cycles: 161273652 heartbeat IPC: 0.889661 cumulative IPC: 0.372817 (Simulation time: 0 hr 43 min 0 sec) 
Heartbeat CPU 0 instructions: 69000003 cycles: 162415662 heartbeat IPC: 0.875652 cumulative IPC: 0.376481 (Simulation time: 0 hr 43 min 32 sec) 
Heartbeat CPU 0 instructions: 70000000 cycles: 163535908 heartbeat IPC: 0.892658 cumulative IPC: 0.380144 (Simulation time: 0 hr 44 min 1 sec) 
Heartbeat CPU 0 instructions: 71000001 cycles: 164710994 heartbeat IPC: 0.851002 cumulative IPC: 0.383624 (Simulation time: 0 hr 44 min 32 sec) 
Heartbeat CPU 0 instructions: 72000000 cycles: 168088314 heartbeat IPC: 0.296092 cumulative IPC: 0.381804 (Simulation time: 0 hr 45 min 11 sec) 
Heartbeat CPU 0 instructions: 73000000 cycles: 171515588 heartbeat IPC: 0.291777 cumulative IPC: 0.379943 (Simulation time: 0 hr 45 min 51 sec) 
Heartbeat CPU 0 instructions: 74000001 cycles: 174882250 heartbeat IPC: 0.29703 cumulative IPC: 0.378293 (Simulation time: 0 hr 46 min 32 sec) 
Heartbeat CPU 0 instructions: 75000001 cycles: 177811593 heartbeat IPC: 0.341373 cumulative IPC: 0.377665 (Simulation time: 0 hr 47 min 10 sec) 
Heartbeat CPU 0 instructions: 76000000 cycles: 180631021 heartbeat IPC: 0.354682 cumulative IPC: 0.377294 (Simulation time: 0 hr 47 min 48 sec) 
Heartbeat CPU 0 instructions: 77000000 cycles: 183458963 heartbeat IPC: 0.353614 cumulative IPC: 0.376917 (Simulation time: 0 hr 48 min 27 sec) 
Heartbeat CPU 0 instructions: 78000001 cycles: 186260421 heartbeat IPC: 0.356957 cumulative IPC: 0.376608 (Simulation time: 0 hr 49 min 5 sec) 
Heartbeat CPU 0 instructions: 79000001 cycles: 189052640 heartbeat IPC: 0.358138 cumulative IPC: 0.376326 (Simulation time: 0 hr 49 min 44 sec) 
Heartbeat CPU 0 instructions: 80000000 cycles: 191827434 heartbeat IPC: 0.360387 cumulative IPC: 0.376089 (Simulation time: 0 hr 50 min 23 sec) 
Heartbeat CPU 0 instructions: 81000002 cycles: 194678177 heartbeat IPC: 0.350786 cumulative IPC: 0.375707 (Simulation time: 0 hr 51 min 4 sec) 
Heartbeat CPU 0 instructions: 82000001 cycles: 197512516 heartbeat IPC: 0.352816 cumulative IPC: 0.375369 (Simulation time: 0 hr 51 min 44 sec) 
Heartbeat CPU 0 instructions: 83000002 cycles: 200383825 heartbeat IPC: 0.348274 cumulative IPC: 0.374969 (Simulation time: 0 hr 52 min 23 sec) 
Heartbeat CPU 0 instructions: 84000000 cycles: 203256530 heartbeat IPC: 0.348103 cumulative IPC: 0.374579 (Simulation time: 0 hr 52 min 59 sec) 
Heartbeat CPU 0 instructions: 85000002 cycles: 206574360 heartbeat IPC: 0.301402 cumulative IPC: 0.37337 (Simulation time: 0 hr 53 min 39 sec) 
Heartbeat CPU 0 instructions: 86000002 cycles: 209893476 heartbeat IPC: 0.301285 cumulative IPC: 0.372198 (Simulation time: 0 hr 54 min 20 sec) 
Heartbeat CPU 0 instructions: 87000000 cycles: 212933470 heartbeat IPC: 0.328947 cumulative IPC: 0.371564 (Simulation time: 0 hr 55 min 3 sec) 
Heartbeat CPU 0 instructions: 88000000 cycles: 215967504 heartbeat IPC: 0.329594 cumulative IPC: 0.370958 (Simulation time: 0 hr 55 min 39 sec) 
Heartbeat CPU 0 instructions: 89000002 cycles: 219062243 heartbeat IPC: 0.32313 cumulative IPC: 0.370264 (Simulation time: 0 hr 56 min 16 sec) 
Heartbeat CPU 0 instructions: 90000001 cycles: 221864400 heartbeat IPC: 0.356868 cumulative IPC: 0.370091 (Simulation time: 0 hr 56 min 52 sec) 
Heartbeat CPU 0 instructions: 91000001 cycles: 224697009 heartbeat IPC: 0.353031 cumulative IPC: 0.36987 (Simulation time: 0 hr 57 min 29 sec) 
Heartbeat CPU 0 instructions: 92000000 cycles: 227615320 heartbeat IPC: 0.342664 cumulative IPC: 0.369512 (Simulation time: 0 hr 58 min 6 sec) 
Heartbeat CPU 0 instructions: 93000000 cycles: 230460497 heartbeat IPC: 0.351472 cumulative IPC: 0.369284 (Simulation time: 0 hr 58 min 41 sec) 
Heartbeat CPU 0 instructions: 94000000 cycles: 235043957 heartbeat IPC: 0.218176 cumulative IPC: 0.366264 (Simulation time: 0 hr 59 min 27 sec) 
Heartbeat CPU 0 instructions: 95000000 cycles: 236230201 heartbeat IPC: 0.842997 cumulative IPC: 0.368717 (Simulation time: 0 hr 59 min 59 sec) 
Heartbeat CPU 0 instructions: 96000000 cycles: 237373190 heartbeat IPC: 0.874899 cumulative IPC: 0.371214 (Simulation time: 1 hr 0 min 29 sec) 
Heartbeat CPU 0 instructions: 97000002 cycles: 238491862 heartbeat IPC: 0.893919 cumulative IPC: 0.373726 (Simulation time: 1 hr 0 min 58 sec) 
Heartbeat CPU 0 instructions: 98000001 cycles: 239633803 heartbeat IPC: 0.875701 cumulative IPC: 0.376177 (Simulation time: 1 hr 1 min 28 sec) 
Heartbeat CPU 0 instructions: 99000002 cycles: 241508291 heartbeat IPC: 0.53348 cumulative IPC: 0.377427 (Simulation time: 1 hr 2 min 1 sec) 
Heartbeat CPU 0 instructions: 100000000 cycles: 244921116 heartbeat IPC: 0.293012 cumulative IPC: 0.376223 (Simulation time: 1 hr 2 min 35 sec) 
Heartbeat CPU 0 instructions: 101000002 cycles: 248031379 heartbeat IPC: 0.321517 cumulative IPC: 0.375521 (Simulation time: 1 hr 3 min 9 sec) 
Heartbeat CPU 0 instructions: 102000001 cycles: 251041947 heartbeat IPC: 0.332163 cumulative IPC: 0.374989 (Simulation time: 1 hr 3 min 41 sec) 
Heartbeat CPU 0 instructions: 103000000 cycles: 253848894 heartbeat IPC: 0.356259 cumulative IPC: 0.374777 (Simulation time: 1 hr 4 min 11 sec) 
Heartbeat CPU 0 instructions: 104000000 cycles: 256673165 heartbeat IPC: 0.354074 cumulative IPC: 0.374544 (Simulation time: 1 hr 4 min 39 sec) 
Heartbeat CPU 0 instructions: 105000001 cycles: 259464466 heartbeat IPC: 0.358256 cumulative IPC: 0.374365 (Simulation time: 1 hr 5 min 7 sec) 
Heartbeat CPU 0 instructions: 106000000 cycles: 262362315 heartbeat IPC: 0.345083 cumulative IPC: 0.374034 (Simulation time: 1 hr 5 min 35 sec) 
Heartbeat CPU 0 instructions: 107000002 cycles: 265194384 heartbeat IPC: 0.353099 cumulative IPC: 0.373806 (Simulation time: 1 hr 6 min 1 sec) 
Heartbeat CPU 0 instructions: 108000000 cycles: 268001337 heartbeat IPC: 0.356257 cumulative IPC: 0.373618 (Simulation time: 1 hr 6 min 25 sec) 
Heartbeat CPU 0 instructions: 109000002 cycles: 270789438 heartbeat IPC: 0.358668 cumulative IPC: 0.373461 (Simulation time: 1 hr 6 min 51 sec) 
Heartbeat CPU 0 instructions: 110000001 cycles: 273624244 heartbeat IPC: 0.352757 cumulative IPC: 0.373241 (Simulation time: 1 hr 7 min 17 sec) 
Finished CPU 0 instructions: 100000001 cycles: 267923080 cummulative IPC: 0.373241 (Simulation time: 1 hr 7 min 17 sec) 

ChampSim completed all CPUs

Region of Interest Statistics

CPU 0 cummulative IPC: 0.373241 instructions: 100000001 cycles: 267923080
LLC TOTAL     ACCESS:    4665134  HIT:    2362680  MISS:    2302454
LLC LOAD      ACCESS:    2182506  HIT:    1998513  MISS:     183993
LLC RFO       ACCESS:      24959  HIT:      12030  MISS:      12929
LLC PREFETCH  ACCESS:    2377300  HIT:     291893  MISS:    2085407
LLC WRITEBACK ACCESS:      80369  HIT:      60244  MISS:      20125
Insertion Distribution: 
	LOAD 88244 0 106343 44591 
	RFO 1939 0 6941 5653 
	PREF 0 7625 66954 2228871 
	WRITEBACK 0 0 0 21213 
Total Prefetch Downgrades: 12753
