
*** ChampSim Multicore Out-of-Order Simulator ***

Warmup Instructions: 10000000
Simulation Instructions: 100000000
Configuration: 2
Number of CPUs: 1
LLC sets: 2048
LLC ways: 16
Off-chip DRAM Channels: 1 Width: 64-bit Data Rate: 1600 MT/s

CPU 0 runs /datasets/cs240c-wi22-a00-public/data/Assignment2-gz/wrf_1650B.trace.gz
CPU 0 L1D next line prefetcher
CPU 0 L2C IP-based stride prefetcher
Initialize SRRIP state
Heartbeat CPU 0 instructions: 1000000 cycles: 514299 heartbeat IPC: 1.94439 cumulative IPC: 1.94439 (Simulation time: 0 hr 0 min 30 sec) 
Heartbeat CPU 0 instructions: 2000000 cycles: 1028473 heartbeat IPC: 1.94487 cumulative IPC: 1.94463 (Simulation time: 0 hr 1 min 0 sec) 
Heartbeat CPU 0 instructions: 3000001 cycles: 1546184 heartbeat IPC: 1.93158 cumulative IPC: 1.94026 (Simulation time: 0 hr 1 min 31 sec) 
Heartbeat CPU 0 instructions: 4000000 cycles: 2063940 heartbeat IPC: 1.93141 cumulative IPC: 1.93804 (Simulation time: 0 hr 1 min 59 sec) 
Heartbeat CPU 0 instructions: 5000001 cycles: 2581687 heartbeat IPC: 1.93145 cumulative IPC: 1.93672 (Simulation time: 0 hr 2 min 30 sec) 
Heartbeat CPU 0 instructions: 6000003 cycles: 3099505 heartbeat IPC: 1.93118 cumulative IPC: 1.93579 (Simulation time: 0 hr 2 min 59 sec) 
Heartbeat CPU 0 instructions: 7000000 cycles: 3617214 heartbeat IPC: 1.93158 cumulative IPC: 1.93519 (Simulation time: 0 hr 3 min 28 sec) 
Heartbeat CPU 0 instructions: 8000000 cycles: 4135023 heartbeat IPC: 1.93121 cumulative IPC: 1.93469 (Simulation time: 0 hr 3 min 58 sec) 
Heartbeat CPU 0 instructions: 9000001 cycles: 4649336 heartbeat IPC: 1.94434 cumulative IPC: 1.93576 (Simulation time: 0 hr 4 min 31 sec) 
Heartbeat CPU 0 instructions: 10000001 cycles: 5163453 heartbeat IPC: 1.94508 cumulative IPC: 1.93669 (Simulation time: 0 hr 5 min 6 sec) 

Warmup complete CPU 0 instructions: 10000001 cycles: 5163453 (Simulation time: 0 hr 5 min 6 sec) 

Heartbeat CPU 0 instructions: 11000000 cycles: 6646675 heartbeat IPC: 0.674207 cumulative IPC: 0.674207 (Simulation time: 0 hr 5 min 44 sec) 
Heartbeat CPU 0 instructions: 12000000 cycles: 8135729 heartbeat IPC: 0.671567 cumulative IPC: 0.672885 (Simulation time: 0 hr 6 min 23 sec) 
Heartbeat CPU 0 instructions: 13000002 cycles: 9629724 heartbeat IPC: 0.669348 cumulative IPC: 0.671701 (Simulation time: 0 hr 7 min 0 sec) 
Heartbeat CPU 0 instructions: 14000002 cycles: 11124015 heartbeat IPC: 0.669214 cumulative IPC: 0.671078 (Simulation time: 0 hr 7 min 38 sec) 
Heartbeat CPU 0 instructions: 15000001 cycles: 12618833 heartbeat IPC: 0.668977 cumulative IPC: 0.670657 (Simulation time: 0 hr 8 min 23 sec) 
Heartbeat CPU 0 instructions: 16000000 cycles: 14113265 heartbeat IPC: 0.66915 cumulative IPC: 0.670405 (Simulation time: 0 hr 9 min 3 sec) 
Heartbeat CPU 0 instructions: 17000000 cycles: 15607540 heartbeat IPC: 0.669221 cumulative IPC: 0.670236 (Simulation time: 0 hr 9 min 41 sec) 
Heartbeat CPU 0 instructions: 18000001 cycles: 17095469 heartbeat IPC: 0.672076 cumulative IPC: 0.670465 (Simulation time: 0 hr 10 min 20 sec) 
Heartbeat CPU 0 instructions: 19000003 cycles: 18577612 heartbeat IPC: 0.6747 cumulative IPC: 0.670933 (Simulation time: 0 hr 11 min 3 sec) 
Heartbeat CPU 0 instructions: 20000000 cycles: 20060904 heartbeat IPC: 0.674174 cumulative IPC: 0.671256 (Simulation time: 0 hr 11 min 40 sec) 
Heartbeat CPU 0 instructions: 21000000 cycles: 21544830 heartbeat IPC: 0.673888 cumulative IPC: 0.671494 (Simulation time: 0 hr 12 min 20 sec) 
Heartbeat CPU 0 instructions: 22000000 cycles: 23038729 heartbeat IPC: 0.669389 cumulative IPC: 0.671318 (Simulation time: 0 hr 13 min 3 sec) 
Heartbeat CPU 0 instructions: 23000003 cycles: 24534153 heartbeat IPC: 0.668709 cumulative IPC: 0.671117 (Simulation time: 0 hr 13 min 48 sec) 
Heartbeat CPU 0 instructions: 24000000 cycles: 26027761 heartbeat IPC: 0.669518 cumulative IPC: 0.671002 (Simulation time: 0 hr 14 min 28 sec) 
Heartbeat CPU 0 instructions: 25000000 cycles: 27522680 heartbeat IPC: 0.668933 cumulative IPC: 0.670864 (Simulation time: 0 hr 15 min 12 sec) 
Heartbeat CPU 0 instructions: 26000001 cycles: 29017440 heartbeat IPC: 0.669004 cumulative IPC: 0.670747 (Simulation time: 0 hr 15 min 53 sec) 
Heartbeat CPU 0 instructions: 27000003 cycles: 30510713 heartbeat IPC: 0.669671 cumulative IPC: 0.670684 (Simulation time: 0 hr 16 min 39 sec) 
Heartbeat CPU 0 instructions: 28000000 cycles: 31993199 heartbeat IPC: 0.674541 cumulative IPC: 0.670897 (Simulation time: 0 hr 17 min 19 sec) 
Heartbeat CPU 0 instructions: 29000001 cycles: 33476120 heartbeat IPC: 0.674345 cumulative IPC: 0.671078 (Simulation time: 0 hr 18 min 7 sec) 
Heartbeat CPU 0 instructions: 30000001 cycles: 34959508 heartbeat IPC: 0.674132 cumulative IPC: 0.67123 (Simulation time: 0 hr 18 min 59 sec) 
Heartbeat CPU 0 instructions: 31000000 cycles: 36450385 heartbeat IPC: 0.670745 cumulative IPC: 0.671207 (Simulation time: 0 hr 19 min 49 sec) 
Heartbeat CPU 0 instructions: 32000000 cycles: 37944250 heartbeat IPC: 0.669405 cumulative IPC: 0.671125 (Simulation time: 0 hr 20 min 38 sec) 
Heartbeat CPU 0 instructions: 33000001 cycles: 39438209 heartbeat IPC: 0.669363 cumulative IPC: 0.671048 (Simulation time: 0 hr 21 min 25 sec) 
Heartbeat CPU 0 instructions: 34000002 cycles: 40932492 heartbeat IPC: 0.669218 cumulative IPC: 0.670971 (Simulation time: 0 hr 22 min 13 sec) 
Heartbeat CPU 0 instructions: 35000001 cycles: 42427836 heartbeat IPC: 0.668742 cumulative IPC: 0.670882 (Simulation time: 0 hr 23 min 1 sec) 
Heartbeat CPU 0 instructions: 36000000 cycles: 43922755 heartbeat IPC: 0.668932 cumulative IPC: 0.670807 (Simulation time: 0 hr 23 min 49 sec) 
Heartbeat CPU 0 instructions: 37000003 cycles: 45408913 heartbeat IPC: 0.672878 cumulative IPC: 0.670883 (Simulation time: 0 hr 24 min 37 sec) 
Heartbeat CPU 0 instructions: 38000000 cycles: 46891628 heartbeat IPC: 0.674436 cumulative IPC: 0.671009 (Simulation time: 0 hr 25 min 23 sec) 
Heartbeat CPU 0 instructions: 39000001 cycles: 48375509 heartbeat IPC: 0.673909 cumulative IPC: 0.671109 (Simulation time: 0 hr 26 min 10 sec) 
Heartbeat CPU 0 instructions: 40000000 cycles: 49861368 heartbeat IPC: 0.673011 cumulative IPC: 0.671172 (Simulation time: 0 hr 26 min 58 sec) 
Heartbeat CPU 0 instructions: 41000000 cycles: 51355457 heartbeat IPC: 0.669304 cumulative IPC: 0.671112 (Simulation time: 0 hr 27 min 48 sec) 
Heartbeat CPU 0 instructions: 42000001 cycles: 52851276 heartbeat IPC: 0.668531 cumulative IPC: 0.671031 (Simulation time: 0 hr 28 min 37 sec) 
Heartbeat CPU 0 instructions: 43000001 cycles: 54345404 heartbeat IPC: 0.669287 cumulative IPC: 0.670978 (Simulation time: 0 hr 29 min 25 sec) 
Heartbeat CPU 0 instructions: 44000000 cycles: 55840545 heartbeat IPC: 0.668833 cumulative IPC: 0.670915 (Simulation time: 0 hr 30 min 15 sec) 
Heartbeat CPU 0 instructions: 45000000 cycles: 57334937 heartbeat IPC: 0.669168 cumulative IPC: 0.670865 (Simulation time: 0 hr 31 min 4 sec) 
Heartbeat CPU 0 instructions: 46000002 cycles: 59600442 heartbeat IPC: 0.441404 cumulative IPC: 0.661315 (Simulation time: 0 hr 31 min 58 sec) 
Heartbeat CPU 0 instructions: 47000002 cycles: 61157902 heartbeat IPC: 0.642071 cumulative IPC: 0.66078 (Simulation time: 0 hr 32 min 45 sec) 
Heartbeat CPU 0 instructions: 48000000 cycles: 62850578 heartbeat IPC: 0.590779 cumulative IPC: 0.658726 (Simulation time: 0 hr 33 min 32 sec) 
Heartbeat CPU 0 instructions: 49000001 cycles: 64523428 heartbeat IPC: 0.597783 cumulative IPC: 0.657008 (Simulation time: 0 hr 34 min 19 sec) 
Heartbeat CPU 0 instructions: 50000000 cycles: 66202269 heartbeat IPC: 0.595648 cumulative IPC: 0.655321 (Simulation time: 0 hr 35 min 5 sec) 
Heartbeat CPU 0 instructions: 51000000 cycles: 68015870 heartbeat IPC: 0.551389 cumulative IPC: 0.652322 (Simulation time: 0 hr 35 min 54 sec) 
Heartbeat CPU 0 instructions: 52000000 cycles: 69797508 heartbeat IPC: 0.561281 cumulative IPC: 0.649812 (Simulation time: 0 hr 36 min 43 sec) 
Heartbeat CPU 0 instructions: 53000002 cycles: 70843819 heartbeat IPC: 0.955741 cumulative IPC: 0.654686 (Simulation time: 0 hr 37 min 25 sec) 
Heartbeat CPU 0 instructions: 54000001 cycles: 71762864 heartbeat IPC: 1.08808 cumulative IPC: 0.660667 (Simulation time: 0 hr 38 min 6 sec) 
Heartbeat CPU 0 instructions: 55000000 cycles: 72669391 heartbeat IPC: 1.10311 cumulative IPC: 0.666608 (Simulation time: 0 hr 38 min 49 sec) 
Heartbeat CPU 0 instructions: 56000000 cycles: 73553468 heartbeat IPC: 1.13112 cumulative IPC: 0.672613 (Simulation time: 0 hr 39 min 31 sec) 
Heartbeat CPU 0 instructions: 57000001 cycles: 74440865 heartbeat IPC: 1.12689 cumulative IPC: 0.678432 (Simulation time: 0 hr 40 min 13 sec) 
Heartbeat CPU 0 instructions: 58000002 cycles: 75322796 heartbeat IPC: 1.13388 cumulative IPC: 0.684157 (Simulation time: 0 hr 40 min 55 sec) 
Heartbeat CPU 0 instructions: 59000003 cycles: 76207271 heartbeat IPC: 1.13062 cumulative IPC: 0.689715 (Simulation time: 0 hr 41 min 35 sec) 
Heartbeat CPU 0 instructions: 60000000 cycles: 77095574 heartbeat IPC: 1.12574 cumulative IPC: 0.6951 (Simulation time: 0 hr 42 min 16 sec) 
Heartbeat CPU 0 instructions: 61000003 cycles: 78390647 heartbeat IPC: 0.77216 cumulative IPC: 0.696463 (Simulation time: 0 hr 42 min 57 sec) 
Heartbeat CPU 0 instructions: 62000002 cycles: 79878630 heartbeat IPC: 0.67205 cumulative IPC: 0.695976 (Simulation time: 0 hr 43 min 41 sec) 
Heartbeat CPU 0 instructions: 63000002 cycles: 81364479 heartbeat IPC: 0.673016 cumulative IPC: 0.695529 (Simulation time: 0 hr 44 min 22 sec) 
Heartbeat CPU 0 instructions: 64000000 cycles: 82850510 heartbeat IPC: 0.672932 cumulative IPC: 0.695096 (Simulation time: 0 hr 45 min 2 sec) 
Heartbeat CPU 0 instructions: 65000001 cycles: 84338329 heartbeat IPC: 0.672125 cumulative IPC: 0.694665 (Simulation time: 0 hr 45 min 44 sec) 
Heartbeat CPU 0 instructions: 66000000 cycles: 85823721 heartbeat IPC: 0.673222 cumulative IPC: 0.69427 (Simulation time: 0 hr 46 min 26 sec) 
Heartbeat CPU 0 instructions: 67000001 cycles: 87312379 heartbeat IPC: 0.671747 cumulative IPC: 0.693862 (Simulation time: 0 hr 47 min 8 sec) 
Heartbeat CPU 0 instructions: 68000000 cycles: 88798216 heartbeat IPC: 0.673021 cumulative IPC: 0.693492 (Simulation time: 0 hr 47 min 49 sec) 
Heartbeat CPU 0 instructions: 69000002 cycles: 90283315 heartbeat IPC: 0.673357 cumulative IPC: 0.69314 (Simulation time: 0 hr 48 min 32 sec) 
Heartbeat CPU 0 instructions: 70000000 cycles: 91770038 heartbeat IPC: 0.672619 cumulative IPC: 0.692788 (Simulation time: 0 hr 49 min 16 sec) 
Heartbeat CPU 0 instructions: 71000001 cycles: 93256988 heartbeat IPC: 0.672518 cumulative IPC: 0.692446 (Simulation time: 0 hr 49 min 59 sec) 
Heartbeat CPU 0 instructions: 72000000 cycles: 94745298 heartbeat IPC: 0.671902 cumulative IPC: 0.692105 (Simulation time: 0 hr 50 min 43 sec) 
Heartbeat CPU 0 instructions: 73000000 cycles: 96231148 heartbeat IPC: 0.673015 cumulative IPC: 0.691793 (Simulation time: 0 hr 51 min 25 sec) 
Heartbeat CPU 0 instructions: 74000003 cycles: 97716509 heartbeat IPC: 0.673239 cumulative IPC: 0.691495 (Simulation time: 0 hr 52 min 6 sec) 
Heartbeat CPU 0 instructions: 75000003 cycles: 99202797 heartbeat IPC: 0.672817 cumulative IPC: 0.6912 (Simulation time: 0 hr 52 min 46 sec) 
Heartbeat CPU 0 instructions: 76000000 cycles: 100688486 heartbeat IPC: 0.673086 cumulative IPC: 0.690918 (Simulation time: 0 hr 53 min 26 sec) 
Heartbeat CPU 0 instructions: 77000002 cycles: 102176748 heartbeat IPC: 0.671926 cumulative IPC: 0.690627 (Simulation time: 0 hr 54 min 7 sec) 
Heartbeat CPU 0 instructions: 78000001 cycles: 103663139 heartbeat IPC: 0.67277 cumulative IPC: 0.690358 (Simulation time: 0 hr 54 min 49 sec) 
Heartbeat CPU 0 instructions: 79000001 cycles: 105151352 heartbeat IPC: 0.671947 cumulative IPC: 0.690084 (Simulation time: 0 hr 55 min 29 sec) 
Heartbeat CPU 0 instructions: 80000000 cycles: 106637159 heartbeat IPC: 0.673034 cumulative IPC: 0.689834 (Simulation time: 0 hr 56 min 8 sec) 
Heartbeat CPU 0 instructions: 81000000 cycles: 108124954 heartbeat IPC: 0.672136 cumulative IPC: 0.689578 (Simulation time: 0 hr 56 min 48 sec) 
Heartbeat CPU 0 instructions: 82000003 cycles: 109611088 heartbeat IPC: 0.672889 cumulative IPC: 0.689341 (Simulation time: 0 hr 57 min 29 sec) 
Heartbeat CPU 0 instructions: 83000003 cycles: 111101366 heartbeat IPC: 0.671016 cumulative IPC: 0.689083 (Simulation time: 0 hr 58 min 10 sec) 
Heartbeat CPU 0 instructions: 84000000 cycles: 112587087 heartbeat IPC: 0.673072 cumulative IPC: 0.688861 (Simulation time: 0 hr 58 min 50 sec) 
Heartbeat CPU 0 instructions: 85000002 cycles: 114073666 heartbeat IPC: 0.672687 cumulative IPC: 0.688641 (Simulation time: 0 hr 59 min 33 sec) 
Heartbeat CPU 0 instructions: 86000001 cycles: 115558867 heartbeat IPC: 0.673309 cumulative IPC: 0.688434 (Simulation time: 1 hr 0 min 14 sec) 
Heartbeat CPU 0 instructions: 87000001 cycles: 117045011 heartbeat IPC: 0.672882 cumulative IPC: 0.688228 (Simulation time: 1 hr 0 min 54 sec) 
Heartbeat CPU 0 instructions: 88000000 cycles: 118556408 heartbeat IPC: 0.661639 cumulative IPC: 0.687873 (Simulation time: 1 hr 1 min 39 sec) 
Heartbeat CPU 0 instructions: 89000003 cycles: 120061344 heartbeat IPC: 0.664482 cumulative IPC: 0.687567 (Simulation time: 1 hr 2 min 21 sec) 
Heartbeat CPU 0 instructions: 90000003 cycles: 121568818 heartbeat IPC: 0.663361 cumulative IPC: 0.687254 (Simulation time: 1 hr 2 min 59 sec) 
Heartbeat CPU 0 instructions: 91000001 cycles: 123076042 heartbeat IPC: 0.66347 cumulative IPC: 0.68695 (Simulation time: 1 hr 3 min 39 sec) 
Heartbeat CPU 0 instructions: 92000000 cycles: 124582571 heartbeat IPC: 0.663777 cumulative IPC: 0.686657 (Simulation time: 1 hr 4 min 15 sec) 
Heartbeat CPU 0 instructions: 93000001 cycles: 126089740 heartbeat IPC: 0.663496 cumulative IPC: 0.686369 (Simulation time: 1 hr 4 min 48 sec) 
Heartbeat CPU 0 instructions: 94000001 cycles: 127594919 heartbeat IPC: 0.664373 cumulative IPC: 0.686098 (Simulation time: 1 hr 5 min 21 sec) 
Heartbeat CPU 0 instructions: 95000001 cycles: 129100797 heartbeat IPC: 0.664064 cumulative IPC: 0.68583 (Simulation time: 1 hr 5 min 50 sec) 
Heartbeat CPU 0 instructions: 96000000 cycles: 130605987 heartbeat IPC: 0.664367 cumulative IPC: 0.685573 (Simulation time: 1 hr 6 min 19 sec) 
Heartbeat CPU 0 instructions: 97000000 cycles: 132113140 heartbeat IPC: 0.663503 cumulative IPC: 0.685311 (Simulation time: 1 hr 6 min 48 sec) 
Heartbeat CPU 0 instructions: 98000000 cycles: 133618841 heartbeat IPC: 0.664142 cumulative IPC: 0.685063 (Simulation time: 1 hr 7 min 19 sec) 
Heartbeat CPU 0 instructions: 99000000 cycles: 135124995 heartbeat IPC: 0.663943 cumulative IPC: 0.684818 (Simulation time: 1 hr 7 min 47 sec) 
Heartbeat CPU 0 instructions: 100000000 cycles: 136631100 heartbeat IPC: 0.663964 cumulative IPC: 0.684579 (Simulation time: 1 hr 8 min 16 sec) 
Heartbeat CPU 0 instructions: 101000002 cycles: 138139161 heartbeat IPC: 0.663104 cumulative IPC: 0.684336 (Simulation time: 1 hr 8 min 44 sec) 
Heartbeat CPU 0 instructions: 102000002 cycles: 139645847 heartbeat IPC: 0.663708 cumulative IPC: 0.684104 (Simulation time: 1 hr 9 min 12 sec) 
Heartbeat CPU 0 instructions: 103000002 cycles: 141151416 heartbeat IPC: 0.664201 cumulative IPC: 0.683884 (Simulation time: 1 hr 9 min 42 sec) 
Heartbeat CPU 0 instructions: 104000000 cycles: 142657616 heartbeat IPC: 0.663921 cumulative IPC: 0.683665 (Simulation time: 1 hr 10 min 9 sec) 
Heartbeat CPU 0 instructions: 105000001 cycles: 144164406 heartbeat IPC: 0.663663 cumulative IPC: 0.683449 (Simulation time: 1 hr 10 min 35 sec) 
Heartbeat CPU 0 instructions: 106000001 cycles: 145670912 heartbeat IPC: 0.663788 cumulative IPC: 0.683238 (Simulation time: 1 hr 11 min 0 sec) 
Heartbeat CPU 0 instructions: 107000000 cycles: 147175858 heartbeat IPC: 0.664475 cumulative IPC: 0.683039 (Simulation time: 1 hr 11 min 23 sec) 
Heartbeat CPU 0 instructions: 108000000 cycles: 148681519 heartbeat IPC: 0.66416 cumulative IPC: 0.682841 (Simulation time: 1 hr 11 min 45 sec) 
Heartbeat CPU 0 instructions: 109000000 cycles: 150191786 heartbeat IPC: 0.662135 cumulative IPC: 0.682625 (Simulation time: 1 hr 12 min 6 sec) 
Heartbeat CPU 0 instructions: 110000001 cycles: 151704210 heartbeat IPC: 0.661191 cumulative IPC: 0.682404 (Simulation time: 1 hr 12 min 26 sec) 
Finished CPU 0 instructions: 100000000 cycles: 146540757 cummulative IPC: 0.682404 (Simulation time: 1 hr 12 min 26 sec) 

ChampSim completed all CPUs

Region of Interest Statistics

CPU 0 cummulative IPC: 0.682404 instructions: 100000000 cycles: 146540757
LLC TOTAL     ACCESS:    1089301  HIT:     146667  MISS:     942634
LLC LOAD      ACCESS:      57696  HIT:       9294  MISS:      48402
LLC RFO       ACCESS:     201539  HIT:       1484  MISS:     200055
LLC PREFETCH  ACCESS:     601523  HIT:      44261  MISS:     557262
LLC WRITEBACK ACCESS:     228543  HIT:      91628  MISS:     136915
Insertion Distribution: 
	LOAD 10729 0 32536 5423 
	RFO 0 0 56886 147345 
	PREF 0 0 112823 454983 
	WRITEBACK 0 0 0 136915 
Total Prefetch Downgrades: 511
