Initialize SIGNATURE TABLE
ST_SET: 1
ST_WAY: 256
ST_TAG_BIT: 16
ST_TAG_MASK: ffff

Initialize PATTERN TABLE
PT_SET: 512
PT_WAY: 4
SIG_DELTA_BIT: 7
C_SIG_BIT: 4
C_DELTA_BIT: 4

Initialize PREFETCH FILTER
FILTER_SET: 1024

*** ChampSim Multicore Out-of-Order Simulator ***

Warmup Instructions: 50000000
Simulation Instructions: 50000000
Number of CPUs: 1
LLC sets: 2048
LLC ways: 16
Off-chip DRAM Size: 4096 MB Channels: 1 Width: 64-bit Data Rate: 3200 MT/s

CPU 0 runs /Users/gandhardeshpande/Desktop/CSE240C/HW1/ChampSim/ipc1_public/client_002.champsimtrace.xz
CPU 0 L1D next line prefetcher
Heartbeat CPU 0 instructions: 10000000 cycles: 3405145 heartbeat IPC: 2.93673 cumulative IPC: 2.93673 (Simulation time: 0 hr 0 min 22 sec) 
Heartbeat CPU 0 instructions: 20000002 cycles: 6860968 heartbeat IPC: 2.89367 cumulative IPC: 2.91504 (Simulation time: 0 hr 0 min 43 sec) 
Heartbeat CPU 0 instructions: 30000001 cycles: 10293910 heartbeat IPC: 2.91295 cumulative IPC: 2.91434 (Simulation time: 0 hr 1 min 5 sec) 
Heartbeat CPU 0 instructions: 40000002 cycles: 13726787 heartbeat IPC: 2.91301 cumulative IPC: 2.91401 (Simulation time: 0 hr 1 min 26 sec) 
Heartbeat CPU 0 instructions: 50000002 cycles: 17167517 heartbeat IPC: 2.90636 cumulative IPC: 2.91248 (Simulation time: 0 hr 1 min 48 sec) 

Warmup complete CPU 0 instructions: 50000002 cycles: 17167517 (Simulation time: 0 hr 1 min 48 sec) 

Heartbeat CPU 0 instructions: 60000002 cycles: 23135656 heartbeat IPC: 1.67556 cumulative IPC: 1.67556 (Simulation time: 0 hr 2 min 9 sec) 
Heartbeat CPU 0 instructions: 70000001 cycles: 29158791 heartbeat IPC: 1.66026 cumulative IPC: 1.66788 (Simulation time: 0 hr 2 min 29 sec) 
Heartbeat CPU 0 instructions: 80000003 cycles: 35068811 heartbeat IPC: 1.69204 cumulative IPC: 1.67586 (Simulation time: 0 hr 2 min 51 sec) 
Heartbeat CPU 0 instructions: 90000000 cycles: 41552154 heartbeat IPC: 1.54241 cumulative IPC: 1.64038 (Simulation time: 0 hr 3 min 11 sec) 
Heartbeat CPU 0 instructions: 100000003 cycles: 47513122 heartbeat IPC: 1.67758 cumulative IPC: 1.64769 (Simulation time: 0 hr 3 min 32 sec) 
Finished CPU 0 instructions: 50000001 cycles: 30345605 cumulative IPC: 1.64769 (Simulation time: 0 hr 3 min 32 sec) 

ChampSim completed all CPUs

Region of Interest Statistics

CPU 0 cumulative IPC: 1.64769 instructions: 50000001 cycles: 30345605
L1D TOTAL     ACCESS:   19112780  HIT:   18773500  MISS:     339280
L1D LOAD      ACCESS:    6479005  HIT:    6362091  MISS:     116914
L1D RFO       ACCESS:    6417608  HIT:    6327637  MISS:      89971
L1D PREFETCH  ACCESS:    6216167  HIT:    6083772  MISS:     132395
L1D WRITEBACK ACCESS:          0  HIT:          0  MISS:          0
L1D PREFETCH  REQUESTED:    6489481  ISSUED:    6287512  USEFUL:      53602  USELESS:      78933
L1D AVERAGE MISS LATENCY: 49.6038 cycles
L1I TOTAL     ACCESS:   10783344  HIT:    9768112  MISS:    1015232
L1I LOAD      ACCESS:    9528138  HIT:    9434981  MISS:      93157
L1I RFO       ACCESS:          0  HIT:          0  MISS:          0
L1I PREFETCH  ACCESS:    1255206  HIT:     333131  MISS:     922075
L1I WRITEBACK ACCESS:          0  HIT:          0  MISS:          0
L1I PREFETCH  REQUESTED:    1421652  ISSUED:    1421652  USEFUL:     595866  USELESS:     326137
L1I AVERAGE MISS LATENCY: 16.8054 cycles
L2C TOTAL     ACCESS:    1823917  HIT:    1581009  MISS:     242908
L2C LOAD      ACCESS:     150917  HIT:     103716  MISS:      47201
L2C RFO       ACCESS:      88845  HIT:      23015  MISS:      65830
L2C PREFETCH  ACCESS:    1458653  HIT:    1329299  MISS:     129354
L2C WRITEBACK ACCESS:     125502  HIT:     124979  MISS:        523
L2C PREFETCH  REQUESTED:     786474  ISSUED:     786171  USEFUL:       9419  USELESS:     119233
L2C AVERAGE MISS LATENCY: 64.1308 cycles
LLC TOTAL     ACCESS:     524521  HIT:     463021  MISS:      61500
LLC LOAD      ACCESS:      47199  HIT:      41164  MISS:       6035
LLC RFO       ACCESS:      65828  HIT:      35939  MISS:      29889
LLC PREFETCH  ACCESS:     327070  HIT:     301749  MISS:      25321
LLC WRITEBACK ACCESS:      84424  HIT:      84169  MISS:        255
LLC PREFETCH  REQUESTED:          0  ISSUED:          0  USEFUL:       5335  USELESS:      19000
LLC AVERAGE MISS LATENCY: 177.781 cycles
Major fault: 0 Minor fault: 3091
CPU 0 L1D next line prefetcher final stats

DRAM Statistics
 CHANNEL 0
 RQ ROW_BUFFER_HIT:      22040  ROW_BUFFER_MISS:      39205
 DBUS_CONGESTED:      43130
 WQ ROW_BUFFER_HIT:       9056  ROW_BUFFER_MISS:      27938  FULL:          0

 AVG_CONGESTED_CYCLE: 6

CPU 0 Branch Prediction Accuracy: 99.2117% MPKI: 1.49752 Average ROB Occupancy at Mispredict: 115.227

Branch types
NOT_BRANCH: 40501616 81.0032%
BRANCH_DIRECT_JUMP: 517397 1.03479%
BRANCH_INDIRECT: 112348 0.224696%
BRANCH_CONDITIONAL: 6698737 13.3975%
BRANCH_DIRECT_CALL: 960974 1.92195%
BRANCH_INDIRECT_CALL: 123707 0.247414%
BRANCH_RETURN: 1084929 2.16986%
BRANCH_OTHER: 0 0%

