Initialize SIGNATURE TABLE
ST_SET: 1
ST_WAY: 256
ST_TAG_BIT: 16
ST_TAG_MASK: ffff

Initialize PATTERN TABLE
PT_SET: 512
PT_WAY: 4
SIG_DELTA_BIT: 7
C_SIG_BIT: 4
C_DELTA_BIT: 4

Initialize PREFETCH FILTER
FILTER_SET: 1024

*** ChampSim Multicore Out-of-Order Simulator ***

Warmup Instructions: 50000000
Simulation Instructions: 50000000
Number of CPUs: 1
LLC sets: 2048
LLC ways: 16
Off-chip DRAM Size: 4096 MB Channels: 1 Width: 64-bit Data Rate: 3200 MT/s

CPU 0 runs /Users/gandhardeshpande/Desktop/CSE240C/HW1/ChampSim/ipc1_public/client_007.champsimtrace.xz
CPU 0 L1D next line prefetcher
Heartbeat CPU 0 instructions: 10000001 cycles: 3642108 heartbeat IPC: 2.74566 cumulative IPC: 2.74566 (Simulation time: 0 hr 0 min 21 sec) 
Heartbeat CPU 0 instructions: 20000003 cycles: 7033700 heartbeat IPC: 2.94847 cumulative IPC: 2.84345 (Simulation time: 0 hr 0 min 40 sec) 
Heartbeat CPU 0 instructions: 30000000 cycles: 10905456 heartbeat IPC: 2.58281 cumulative IPC: 2.75092 (Simulation time: 0 hr 0 min 59 sec) 
Heartbeat CPU 0 instructions: 40000003 cycles: 15065456 heartbeat IPC: 2.40385 cumulative IPC: 2.65508 (Simulation time: 0 hr 1 min 17 sec) 
Heartbeat CPU 0 instructions: 50000002 cycles: 18470388 heartbeat IPC: 2.93692 cumulative IPC: 2.70704 (Simulation time: 0 hr 1 min 35 sec) 

Warmup complete CPU 0 instructions: 50000002 cycles: 18470388 (Simulation time: 0 hr 1 min 35 sec) 

Heartbeat CPU 0 instructions: 60000003 cycles: 25373609 heartbeat IPC: 1.4486 cumulative IPC: 1.4486 (Simulation time: 0 hr 1 min 53 sec) 
Heartbeat CPU 0 instructions: 70000003 cycles: 34245472 heartbeat IPC: 1.12716 cumulative IPC: 1.26782 (Simulation time: 0 hr 2 min 14 sec) 
Heartbeat CPU 0 instructions: 80000002 cycles: 39572974 heartbeat IPC: 1.87705 cumulative IPC: 1.42163 (Simulation time: 0 hr 2 min 25 sec) 
Heartbeat CPU 0 instructions: 90000002 cycles: 47201168 heartbeat IPC: 1.31093 cumulative IPC: 1.39224 (Simulation time: 0 hr 2 min 45 sec) 
Heartbeat CPU 0 instructions: 100000002 cycles: 56130195 heartbeat IPC: 1.11994 cumulative IPC: 1.32768 (Simulation time: 0 hr 3 min 5 sec) 
Finished CPU 0 instructions: 50000000 cycles: 37659807 cumulative IPC: 1.32768 (Simulation time: 0 hr 3 min 5 sec) 

ChampSim completed all CPUs

Region of Interest Statistics

CPU 0 cumulative IPC: 1.32768 instructions: 50000000 cycles: 37659807
L1D TOTAL     ACCESS:   21204459  HIT:   20035339  MISS:    1169120
L1D LOAD      ACCESS:    8373642  HIT:    7833913  MISS:     539729
L1D RFO       ACCESS:    4868901  HIT:    4777823  MISS:      91078
L1D PREFETCH  ACCESS:    7961916  HIT:    7423603  MISS:     538313
L1D WRITEBACK ACCESS:          0  HIT:          0  MISS:          0
L1D PREFETCH  REQUESTED:    8426825  ISSUED:    8182837  USEFUL:     157805  USELESS:     380523
L1D AVERAGE MISS LATENCY: 34.5161 cycles
L1I TOTAL     ACCESS:   10266887  HIT:    9230471  MISS:    1036416
L1I LOAD      ACCESS:    9103218  HIT:    9041365  MISS:      61853
L1I RFO       ACCESS:          0  HIT:          0  MISS:          0
L1I PREFETCH  ACCESS:    1163669  HIT:     189106  MISS:     974563
L1I WRITEBACK ACCESS:          0  HIT:          0  MISS:          0
L1I PREFETCH  REQUESTED:    1277667  ISSUED:    1277667  USEFUL:     805438  USELESS:     169170
L1I AVERAGE MISS LATENCY: 15.9212 cycles
L2C TOTAL     ACCESS:    3215248  HIT:    3006939  MISS:     208309
L2C LOAD      ACCESS:     542391  HIT:     472021  MISS:      70370
L2C RFO       ACCESS:      89516  HIT:      48274  MISS:      41242
L2C PREFETCH  ACCESS:    2255655  HIT:    2159069  MISS:      96586
L2C WRITEBACK ACCESS:     327686  HIT:     327575  MISS:        111
L2C PREFETCH  REQUESTED:    2216469  ISSUED:    2210453  USEFUL:       8724  USELESS:      87920
L2C AVERAGE MISS LATENCY: 124.639 cycles
LLC TOTAL     ACCESS:     911261  HIT:     742933  MISS:     168328
LLC LOAD      ACCESS:      70282  HIT:      35049  MISS:      35233
LLC RFO       ACCESS:      41242  HIT:       6678  MISS:      34564
LLC PREFETCH  ACCESS:     725563  HIT:     627311  MISS:      98252
LLC WRITEBACK ACCESS:      74174  HIT:      73895  MISS:        279
LLC PREFETCH  REQUESTED:          0  ISSUED:          0  USEFUL:      18379  USELESS:      80309
LLC AVERAGE MISS LATENCY: 182.227 cycles
Major fault: 0 Minor fault: 4405
CPU 0 L1D next line prefetcher final stats

DRAM Statistics
 CHANNEL 0
 RQ ROW_BUFFER_HIT:      36052  ROW_BUFFER_MISS:     131987
 DBUS_CONGESTED:      93407
 WQ ROW_BUFFER_HIT:      13301  ROW_BUFFER_MISS:      45016  FULL:          0

 AVG_CONGESTED_CYCLE: 5

CPU 0 Branch Prediction Accuracy: 98.8607% MPKI: 1.8623 Average ROB Occupancy at Mispredict: 113.4

Branch types
NOT_BRANCH: 41826773 83.6535%
BRANCH_DIRECT_JUMP: 735330 1.47066%
BRANCH_INDIRECT: 269194 0.538388%
BRANCH_CONDITIONAL: 5957947 11.9159%
BRANCH_DIRECT_CALL: 368758 0.737516%
BRANCH_INDIRECT_CALL: 226975 0.45395%
BRANCH_RETURN: 614696 1.22939%
BRANCH_OTHER: 0 0%

