Initialize SIGNATURE TABLE
ST_SET: 1
ST_WAY: 256
ST_TAG_BIT: 16
ST_TAG_MASK: ffff

Initialize PATTERN TABLE
PT_SET: 512
PT_WAY: 4
SIG_DELTA_BIT: 7
C_SIG_BIT: 4
C_DELTA_BIT: 4

Initialize PREFETCH FILTER
FILTER_SET: 1024

*** ChampSim Multicore Out-of-Order Simulator ***

Warmup Instructions: 50000000
Simulation Instructions: 50000000
Number of CPUs: 1
LLC sets: 2048
LLC ways: 16
Off-chip DRAM Size: 4096 MB Channels: 1 Width: 64-bit Data Rate: 3200 MT/s

CPU 0 runs /Users/gandhardeshpande/Desktop/CSE240C/HW1/ChampSim/ipc1_public/server_016.champsimtrace.xz
CPU 0 L1D next line prefetcher
Heartbeat CPU 0 instructions: 10000000 cycles: 3497331 heartbeat IPC: 2.85932 cumulative IPC: 2.85932 (Simulation time: 0 hr 0 min 21 sec) 
Heartbeat CPU 0 instructions: 20000000 cycles: 6994949 heartbeat IPC: 2.85909 cumulative IPC: 2.85921 (Simulation time: 0 hr 0 min 42 sec) 
Heartbeat CPU 0 instructions: 30000001 cycles: 10487772 heartbeat IPC: 2.86301 cumulative IPC: 2.86047 (Simulation time: 0 hr 1 min 3 sec) 
Heartbeat CPU 0 instructions: 40000000 cycles: 13785980 heartbeat IPC: 3.03195 cumulative IPC: 2.9015 (Simulation time: 0 hr 1 min 11 sec) 
Heartbeat CPU 0 instructions: 50000002 cycles: 17021445 heartbeat IPC: 3.09075 cumulative IPC: 2.93747 (Simulation time: 0 hr 1 min 17 sec) 

Warmup complete CPU 0 instructions: 50000002 cycles: 17021445 (Simulation time: 0 hr 1 min 17 sec) 

Heartbeat CPU 0 instructions: 60000000 cycles: 24983314 heartbeat IPC: 1.25599 cumulative IPC: 1.25599 (Simulation time: 0 hr 1 min 24 sec) 
Heartbeat CPU 0 instructions: 70000001 cycles: 31764201 heartbeat IPC: 1.47473 cumulative IPC: 1.3566 (Simulation time: 0 hr 1 min 45 sec) 
Heartbeat CPU 0 instructions: 80000000 cycles: 38645759 heartbeat IPC: 1.45316 cumulative IPC: 1.38733 (Simulation time: 0 hr 2 min 8 sec) 
Heartbeat CPU 0 instructions: 90000000 cycles: 45315017 heartbeat IPC: 1.49942 cumulative IPC: 1.41375 (Simulation time: 0 hr 2 min 29 sec) 
Heartbeat CPU 0 instructions: 100000000 cycles: 52117291 heartbeat IPC: 1.4701 cumulative IPC: 1.42467 (Simulation time: 0 hr 2 min 51 sec) 
Finished CPU 0 instructions: 50000002 cycles: 35095847 cumulative IPC: 1.42467 (Simulation time: 0 hr 2 min 51 sec) 

ChampSim completed all CPUs

Region of Interest Statistics

CPU 0 cumulative IPC: 1.42467 instructions: 50000002 cycles: 35095847
L1D TOTAL     ACCESS:   17976111  HIT:   16708898  MISS:    1267213
L1D LOAD      ACCESS:    6529431  HIT:    5955818  MISS:     573613
L1D RFO       ACCESS:    5198460  HIT:    4976570  MISS:     221890
L1D PREFETCH  ACCESS:    6248220  HIT:    5776510  MISS:     471710
L1D WRITEBACK ACCESS:          0  HIT:          0  MISS:          0
L1D PREFETCH  REQUESTED:    6570728  ISSUED:    6467571  USEFUL:     112689  USELESS:     359039
L1D AVERAGE MISS LATENCY: 22.9939 cycles
L1I TOTAL     ACCESS:   13044276  HIT:   10192207  MISS:    2852069
L1I LOAD      ACCESS:    9805452  HIT:    9577051  MISS:     228401
L1I RFO       ACCESS:          0  HIT:          0  MISS:          0
L1I PREFETCH  ACCESS:    3238824  HIT:     615156  MISS:    2623668
L1I WRITEBACK ACCESS:          0  HIT:          0  MISS:          0
L1I PREFETCH  REQUESTED:    3706987  ISSUED:    3706987  USEFUL:    1928913  USELESS:     694725
L1I AVERAGE MISS LATENCY: 16.2622 cycles
L2C TOTAL     ACCESS:    5576439  HIT:    5078837  MISS:     497602
L2C LOAD      ACCESS:     597212  HIT:     500575  MISS:      96637
L2C RFO       ACCESS:     220429  HIT:     161494  MISS:      58935
L2C PREFETCH  ACCESS:    4330564  HIT:    3989956  MISS:     340608
L2C WRITEBACK ACCESS:     428234  HIT:     426812  MISS:       1422
L2C PREFETCH  REQUESTED:    2935617  ISSUED:    2933468  USEFUL:      10553  USELESS:     329141
L2C AVERAGE MISS LATENCY: 40.8745 cycles
LLC TOTAL     ACCESS:    1404330  HIT:    1367191  MISS:      37139
LLC LOAD      ACCESS:      96533  HIT:      92306  MISS:       4227
LLC RFO       ACCESS:      58935  HIT:      45403  MISS:      13532
LLC PREFETCH  ACCESS:    1151504  HIT:    1132321  MISS:      19183
LLC WRITEBACK ACCESS:      97358  HIT:      97161  MISS:        197
LLC PREFETCH  REQUESTED:          0  ISSUED:          0  USEFUL:       1516  USELESS:      16835
LLC AVERAGE MISS LATENCY: 177.042 cycles
Major fault: 0 Minor fault: 2365
CPU 0 L1D next line prefetcher final stats

DRAM Statistics
 CHANNEL 0
 RQ ROW_BUFFER_HIT:      11320  ROW_BUFFER_MISS:      25619
 DBUS_CONGESTED:      22247
 WQ ROW_BUFFER_HIT:       1603  ROW_BUFFER_MISS:      14906  FULL:          0

 AVG_CONGESTED_CYCLE: 6

CPU 0 Branch Prediction Accuracy: 99.7225% MPKI: 0.50376 Average ROB Occupancy at Mispredict: 127.248

Branch types
NOT_BRANCH: 40923973 81.8479%
BRANCH_DIRECT_JUMP: 487045 0.97409%
BRANCH_INDIRECT: 169158 0.338316%
BRANCH_CONDITIONAL: 6640826 13.2817%
BRANCH_DIRECT_CALL: 755590 1.51118%
BRANCH_INDIRECT_CALL: 133962 0.267924%
BRANCH_RETURN: 889567 1.77913%
BRANCH_OTHER: 0 0%

