Initialize SIGNATURE TABLE
ST_SET: 1
ST_WAY: 256
ST_TAG_BIT: 16
ST_TAG_MASK: ffff

Initialize PATTERN TABLE
PT_SET: 512
PT_WAY: 4
SIG_DELTA_BIT: 7
C_SIG_BIT: 4
C_DELTA_BIT: 4

Initialize PREFETCH FILTER
FILTER_SET: 1024

*** ChampSim Multicore Out-of-Order Simulator ***

Warmup Instructions: 50000000
Simulation Instructions: 50000000
Number of CPUs: 1
LLC sets: 2048
LLC ways: 16
Off-chip DRAM Size: 4096 MB Channels: 1 Width: 64-bit Data Rate: 3200 MT/s

CPU 0 runs /Users/gandhardeshpande/Desktop/CSE240C/HW1/ChampSim/ipc1_public/server_022.champsimtrace.xz
CPU 0 L1D next line prefetcher
Heartbeat CPU 0 instructions: 10000002 cycles: 3625782 heartbeat IPC: 2.75803 cumulative IPC: 2.75803 (Simulation time: 0 hr 0 min 20 sec) 
Heartbeat CPU 0 instructions: 20000001 cycles: 7257632 heartbeat IPC: 2.75342 cumulative IPC: 2.75572 (Simulation time: 0 hr 0 min 40 sec) 
Heartbeat CPU 0 instructions: 30000003 cycles: 10883979 heartbeat IPC: 2.7576 cumulative IPC: 2.75635 (Simulation time: 0 hr 1 min 0 sec) 
Heartbeat CPU 0 instructions: 40000003 cycles: 14517687 heartbeat IPC: 2.75201 cumulative IPC: 2.75526 (Simulation time: 0 hr 1 min 20 sec) 
Heartbeat CPU 0 instructions: 50000002 cycles: 18142309 heartbeat IPC: 2.75891 cumulative IPC: 2.75599 (Simulation time: 0 hr 1 min 41 sec) 

Warmup complete CPU 0 instructions: 50000002 cycles: 18142309 (Simulation time: 0 hr 1 min 41 sec) 

Heartbeat CPU 0 instructions: 60000000 cycles: 35564806 heartbeat IPC: 0.57397 cumulative IPC: 0.57397 (Simulation time: 0 hr 2 min 6 sec) 
Heartbeat CPU 0 instructions: 70000001 cycles: 53123086 heartbeat IPC: 0.569532 cumulative IPC: 0.571743 (Simulation time: 0 hr 2 min 32 sec) 
Heartbeat CPU 0 instructions: 80000001 cycles: 70495526 heartbeat IPC: 0.575624 cumulative IPC: 0.573031 (Simulation time: 0 hr 2 min 58 sec) 
Heartbeat CPU 0 instructions: 90000003 cycles: 88087273 heartbeat IPC: 0.568448 cumulative IPC: 0.571878 (Simulation time: 0 hr 3 min 24 sec) 
Heartbeat CPU 0 instructions: 100000003 cycles: 105434412 heartbeat IPC: 0.576464 cumulative IPC: 0.572789 (Simulation time: 0 hr 3 min 50 sec) 
Finished CPU 0 instructions: 50000001 cycles: 87292103 cumulative IPC: 0.572789 (Simulation time: 0 hr 3 min 50 sec) 

ChampSim completed all CPUs

Region of Interest Statistics

CPU 0 cumulative IPC: 0.572789 instructions: 50000001 cycles: 87292103
L1D TOTAL     ACCESS:   18722847  HIT:   16512105  MISS:    2210742
L1D LOAD      ACCESS:    7054368  HIT:    6334623  MISS:     719745
L1D RFO       ACCESS:    5928637  HIT:    4948915  MISS:     979722
L1D PREFETCH  ACCESS:    5739842  HIT:    5228567  MISS:     511275
L1D WRITEBACK ACCESS:          0  HIT:          0  MISS:          0
L1D PREFETCH  REQUESTED:    7097415  ISSUED:    6889059  USEFUL:     190054  USELESS:     321226
L1D AVERAGE MISS LATENCY: 178.774 cycles
L1I TOTAL     ACCESS:   13490352  HIT:   10703148  MISS:    2787204
L1I LOAD      ACCESS:   10104390  HIT:    9909909  MISS:     194481
L1I RFO       ACCESS:          0  HIT:          0  MISS:          0
L1I PREFETCH  ACCESS:    3385962  HIT:     793239  MISS:    2592723
L1I WRITEBACK ACCESS:          0  HIT:          0  MISS:          0
L1I PREFETCH  REQUESTED:    3862570  ISSUED:    3862570  USEFUL:    2345982  USELESS:     246737
L1I AVERAGE MISS LATENCY: 16.3487 cycles
L2C TOTAL     ACCESS:    7414407  HIT:    5560584  MISS:    1853823
L2C LOAD      ACCESS:     513812  HIT:     265800  MISS:     248012
L2C RFO       ACCESS:     978949  HIT:      21323  MISS:     957626
L2C PREFETCH  ACCESS:    4736544  HIT:    4089957  MISS:     646587
L2C WRITEBACK ACCESS:    1185102  HIT:    1183504  MISS:       1598
L2C PREFETCH  REQUESTED:    3651082  ISSUED:    3647473  USEFUL:      20593  USELESS:     626060
L2C AVERAGE MISS LATENCY: 220.661 cycles
LLC TOTAL     ACCESS:    3946737  HIT:    2558839  MISS:    1387898
LLC LOAD      ACCESS:     247980  HIT:     171521  MISS:      76459
LLC RFO       ACCESS:     957583  HIT:     139769  MISS:     817814
LLC PREFETCH  ACCESS:    1625320  HIT:    1133427  MISS:     491893
LLC WRITEBACK ACCESS:    1115854  HIT:    1114122  MISS:       1732
LLC PREFETCH  REQUESTED:          0  ISSUED:          0  USEFUL:      25353  USELESS:     467207
LLC AVERAGE MISS LATENCY: 287.305 cycles
Major fault: 0 Minor fault: 23505
CPU 0 L1D next line prefetcher final stats

DRAM Statistics
 CHANNEL 0
 RQ ROW_BUFFER_HIT:     394861  ROW_BUFFER_MISS:     991076
 DBUS_CONGESTED:    1403754
 WQ ROW_BUFFER_HIT:     289230  ROW_BUFFER_MISS:     612209  FULL:          0

 AVG_CONGESTED_CYCLE: 6

CPU 0 Branch Prediction Accuracy: 99.8317% MPKI: 0.27564 Average ROB Occupancy at Mispredict: 219.893

Branch types
NOT_BRANCH: 41811143 83.6223%
BRANCH_DIRECT_JUMP: 445742 0.891484%
BRANCH_INDIRECT: 48876 0.097752%
BRANCH_CONDITIONAL: 5859406 11.7188%
BRANCH_DIRECT_CALL: 758267 1.51653%
BRANCH_INDIRECT_CALL: 159103 0.318206%
BRANCH_RETURN: 917372 1.83474%
BRANCH_OTHER: 0 0%

