Initialize SIGNATURE TABLE
ST_SET: 1
ST_WAY: 256
ST_TAG_BIT: 16
ST_TAG_MASK: ffff

Initialize PATTERN TABLE
PT_SET: 512
PT_WAY: 4
SIG_DELTA_BIT: 7
C_SIG_BIT: 4
C_DELTA_BIT: 4

Initialize PREFETCH FILTER
FILTER_SET: 1024

*** ChampSim Multicore Out-of-Order Simulator ***

Warmup Instructions: 50000000
Simulation Instructions: 50000000
Number of CPUs: 1
LLC sets: 2048
LLC ways: 16
Off-chip DRAM Size: 4096 MB Channels: 1 Width: 64-bit Data Rate: 3200 MT/s

CPU 0 runs /Users/gandhardeshpande/Desktop/CSE240C/HW1/ChampSim/ipc1_public/server_026.champsimtrace.xz
CPU 0 L1D next line prefetcher
Heartbeat CPU 0 instructions: 10000000 cycles: 3524105 heartbeat IPC: 2.8376 cumulative IPC: 2.8376 (Simulation time: 0 hr 0 min 21 sec) 
Heartbeat CPU 0 instructions: 20000002 cycles: 7053779 heartbeat IPC: 2.83312 cumulative IPC: 2.83536 (Simulation time: 0 hr 0 min 42 sec) 
Heartbeat CPU 0 instructions: 30000000 cycles: 10574451 heartbeat IPC: 2.84037 cumulative IPC: 2.83703 (Simulation time: 0 hr 1 min 3 sec) 
Heartbeat CPU 0 instructions: 40000003 cycles: 14103609 heartbeat IPC: 2.83354 cumulative IPC: 2.83615 (Simulation time: 0 hr 1 min 25 sec) 
Heartbeat CPU 0 instructions: 50000000 cycles: 17625632 heartbeat IPC: 2.83928 cumulative IPC: 2.83678 (Simulation time: 0 hr 1 min 46 sec) 

Warmup complete CPU 0 instructions: 50000004 cycles: 17625633 (Simulation time: 0 hr 1 min 46 sec) 

*** Reached end of trace for Core: 0 Repeating trace: /Users/gandhardeshpande/Desktop/CSE240C/HW1/ChampSim/ipc1_public/server_026.champsimtrace.xz
Heartbeat CPU 0 instructions: 60000000 cycles: 24542961 heartbeat IPC: 1.44564 cumulative IPC: 1.44564 (Simulation time: 0 hr 2 min 8 sec) 
Heartbeat CPU 0 instructions: 70000003 cycles: 31340831 heartbeat IPC: 1.47105 cumulative IPC: 1.45824 (Simulation time: 0 hr 2 min 30 sec) 
Heartbeat CPU 0 instructions: 80000002 cycles: 38234400 heartbeat IPC: 1.45063 cumulative IPC: 1.45569 (Simulation time: 0 hr 2 min 52 sec) 
Heartbeat CPU 0 instructions: 90000002 cycles: 45030662 heartbeat IPC: 1.4714 cumulative IPC: 1.45959 (Simulation time: 0 hr 3 min 15 sec) 
Heartbeat CPU 0 instructions: 100000000 cycles: 51910104 heartbeat IPC: 1.45361 cumulative IPC: 1.45839 (Simulation time: 0 hr 3 min 37 sec) 
Finished CPU 0 instructions: 50000000 cycles: 34284472 cumulative IPC: 1.45839 (Simulation time: 0 hr 3 min 37 sec) 

ChampSim completed all CPUs

Region of Interest Statistics

CPU 0 cumulative IPC: 1.45839 instructions: 50000000 cycles: 34284472
L1D TOTAL     ACCESS:   19855112  HIT:   18210093  MISS:    1645019
L1D LOAD      ACCESS:    6969218  HIT:    6240754  MISS:     728464
L1D RFO       ACCESS:    6248291  HIT:    5961819  MISS:     286472
L1D PREFETCH  ACCESS:    6637603  HIT:    6007520  MISS:     630083
L1D WRITEBACK ACCESS:          0  HIT:          0  MISS:          0
L1D PREFETCH  REQUESTED:    7015815  ISSUED:    6875468  USEFUL:     152377  USELESS:     477717
L1D AVERAGE MISS LATENCY: 23.298 cycles
L1I TOTAL     ACCESS:   13626438  HIT:    9907543  MISS:    3718895
L1I LOAD      ACCESS:    9407174  HIT:    9108226  MISS:     298948
L1I RFO       ACCESS:          0  HIT:          0  MISS:          0
L1I PREFETCH  ACCESS:    4219264  HIT:     799317  MISS:    3419947
L1I WRITEBACK ACCESS:          0  HIT:          0  MISS:          0
L1I PREFETCH  REQUESTED:    4817007  ISSUED:    4817007  USEFUL:    2542780  USELESS:     877200
L1I AVERAGE MISS LATENCY: 16.563 cycles
L2C TOTAL     ACCESS:    7265028  HIT:    6549819  MISS:     715209
L2C LOAD      ACCESS:     783840  HIT:     647477  MISS:     136363
L2C RFO       ACCESS:     284791  HIT:     198653  MISS:      86138
L2C PREFETCH  ACCESS:    5635232  HIT:    5145529  MISS:     489703
L2C WRITEBACK ACCESS:     561165  HIT:     558160  MISS:       3005
L2C PREFETCH  REQUESTED:    3983375  ISSUED:    3979779  USEFUL:      15000  USELESS:     474310
L2C AVERAGE MISS LATENCY: 38.364 cycles
LLC TOTAL     ACCESS:    1975881  HIT:    1939951  MISS:      35930
LLC LOAD      ACCESS:     136188  HIT:     132645  MISS:       3543
LLC RFO       ACCESS:      86038  HIT:      71388  MISS:      14650
LLC PREFETCH  ACCESS:    1608057  HIT:    1590568  MISS:      17489
LLC WRITEBACK ACCESS:     145598  HIT:     145350  MISS:        248
LLC PREFETCH  REQUESTED:          0  ISSUED:          0  USEFUL:        944  USELESS:      16080
LLC AVERAGE MISS LATENCY: 189.059 cycles
Major fault: 0 Minor fault: 2165
CPU 0 L1D next line prefetcher final stats

DRAM Statistics
 CHANNEL 0
 RQ ROW_BUFFER_HIT:      12431  ROW_BUFFER_MISS:      23242
 DBUS_CONGESTED:      23013
 WQ ROW_BUFFER_HIT:       1610  ROW_BUFFER_MISS:      14648  FULL:          0

 AVG_CONGESTED_CYCLE: 6

CPU 0 Branch Prediction Accuracy: 99.822% MPKI: 0.32584 Average ROB Occupancy at Mispredict: 190.853

Branch types
NOT_BRANCH: 40848580 81.6972%
BRANCH_DIRECT_JUMP: 522045 1.04409%
BRANCH_INDIRECT: 204034 0.408068%
BRANCH_CONDITIONAL: 6212963 12.4259%
BRANCH_DIRECT_CALL: 932393 1.86479%
BRANCH_INDIRECT_CALL: 173764 0.347528%
BRANCH_RETURN: 1106152 2.2123%
BRANCH_OTHER: 0 0%

