
*** ChampSim Multicore Out-of-Order Simulator ***

Warmup Instructions: 50000000
Simulation Instructions: 100000000
Configuration: 2
Number of CPUs: 1
LLC sets: 2048
LLC ways: 16
Off-chip DRAM Channels: 1 Width: 64-bit Data Rate: 1600 MT/s

CPU 0 runs /datasets/cs240c-wi22-a00-public/data/Assignment2-gz/wrf_1212B.trace.gz
CPU 0 L1D next line prefetcher
CPU 0 L2C IP-based stride prefetcher
Heartbeat CPU 0 instructions: 1000001 cycles: 598660 heartbeat IPC: 1.6704 cumulative IPC: 1.6704 (Simulation time: 0 hr 1 min 36 sec) 
Heartbeat CPU 0 instructions: 2000000 cycles: 1197118 heartbeat IPC: 1.67096 cumulative IPC: 1.67068 (Simulation time: 0 hr 3 min 7 sec) 
Heartbeat CPU 0 instructions: 3000001 cycles: 1795976 heartbeat IPC: 1.66985 cumulative IPC: 1.6704 (Simulation time: 0 hr 4 min 42 sec) 
Heartbeat CPU 0 instructions: 4000000 cycles: 2394087 heartbeat IPC: 1.67193 cumulative IPC: 1.67078 (Simulation time: 0 hr 6 min 13 sec) 
Heartbeat CPU 0 instructions: 5000000 cycles: 2993053 heartbeat IPC: 1.66954 cumulative IPC: 1.67054 (Simulation time: 0 hr 7 min 53 sec) 
Heartbeat CPU 0 instructions: 6000001 cycles: 3592667 heartbeat IPC: 1.66774 cumulative IPC: 1.67007 (Simulation time: 0 hr 9 min 26 sec) 
Heartbeat CPU 0 instructions: 7000001 cycles: 4190665 heartbeat IPC: 1.67225 cumulative IPC: 1.67038 (Simulation time: 0 hr 10 min 57 sec) 
Heartbeat CPU 0 instructions: 8000000 cycles: 4788873 heartbeat IPC: 1.67166 cumulative IPC: 1.67054 (Simulation time: 0 hr 12 min 30 sec) 
Heartbeat CPU 0 instructions: 9000002 cycles: 5387792 heartbeat IPC: 1.66968 cumulative IPC: 1.67044 (Simulation time: 0 hr 14 min 2 sec) 
Heartbeat CPU 0 instructions: 10000001 cycles: 5987357 heartbeat IPC: 1.66787 cumulative IPC: 1.67019 (Simulation time: 0 hr 15 min 34 sec) 
Heartbeat CPU 0 instructions: 11000003 cycles: 6585304 heartbeat IPC: 1.67239 cumulative IPC: 1.67039 (Simulation time: 0 hr 17 min 5 sec) 
Heartbeat CPU 0 instructions: 12000000 cycles: 7184891 heartbeat IPC: 1.66781 cumulative IPC: 1.67017 (Simulation time: 0 hr 18 min 38 sec) 
Heartbeat CPU 0 instructions: 13000000 cycles: 7782944 heartbeat IPC: 1.67209 cumulative IPC: 1.67032 (Simulation time: 0 hr 20 min 6 sec) 
Heartbeat CPU 0 instructions: 14000002 cycles: 8381675 heartbeat IPC: 1.6702 cumulative IPC: 1.67031 (Simulation time: 0 hr 21 min 39 sec) 
Heartbeat CPU 0 instructions: 15000003 cycles: 8981003 heartbeat IPC: 1.66854 cumulative IPC: 1.67019 (Simulation time: 0 hr 23 min 13 sec) 
Heartbeat CPU 0 instructions: 16000000 cycles: 9579443 heartbeat IPC: 1.67101 cumulative IPC: 1.67024 (Simulation time: 0 hr 24 min 44 sec) 
Heartbeat CPU 0 instructions: 17000000 cycles: 10177930 heartbeat IPC: 1.67088 cumulative IPC: 1.67028 (Simulation time: 0 hr 26 min 14 sec) 
Heartbeat CPU 0 instructions: 18000000 cycles: 10777771 heartbeat IPC: 1.66711 cumulative IPC: 1.6701 (Simulation time: 0 hr 27 min 48 sec) 
Heartbeat CPU 0 instructions: 19000003 cycles: 11376778 heartbeat IPC: 1.66943 cumulative IPC: 1.67007 (Simulation time: 0 hr 29 min 18 sec) 
Heartbeat CPU 0 instructions: 20000000 cycles: 11974273 heartbeat IPC: 1.67365 cumulative IPC: 1.67025 (Simulation time: 0 hr 30 min 50 sec) 
Heartbeat CPU 0 instructions: 21000001 cycles: 12573596 heartbeat IPC: 1.66855 cumulative IPC: 1.67017 (Simulation time: 0 hr 32 min 22 sec) 
Heartbeat CPU 0 instructions: 22000001 cycles: 13172416 heartbeat IPC: 1.66995 cumulative IPC: 1.67016 (Simulation time: 0 hr 33 min 58 sec) 
Heartbeat CPU 0 instructions: 23000000 cycles: 13770960 heartbeat IPC: 1.67072 cumulative IPC: 1.67018 (Simulation time: 0 hr 35 min 33 sec) 
Heartbeat CPU 0 instructions: 24000000 cycles: 14370485 heartbeat IPC: 1.66799 cumulative IPC: 1.67009 (Simulation time: 0 hr 37 min 6 sec) 
Heartbeat CPU 0 instructions: 25000002 cycles: 14968206 heartbeat IPC: 1.67302 cumulative IPC: 1.67021 (Simulation time: 0 hr 38 min 45 sec) 
Heartbeat CPU 0 instructions: 26000000 cycles: 15566335 heartbeat IPC: 1.67188 cumulative IPC: 1.67027 (Simulation time: 0 hr 40 min 18 sec) 
Heartbeat CPU 0 instructions: 27000000 cycles: 16165863 heartbeat IPC: 1.66798 cumulative IPC: 1.67019 (Simulation time: 0 hr 41 min 53 sec) 
Heartbeat CPU 0 instructions: 28000000 cycles: 16764716 heartbeat IPC: 1.66986 cumulative IPC: 1.67017 (Simulation time: 0 hr 43 min 27 sec) 
Heartbeat CPU 0 instructions: 29000000 cycles: 17361459 heartbeat IPC: 1.67576 cumulative IPC: 1.67037 (Simulation time: 0 hr 44 min 56 sec) 
Heartbeat CPU 0 instructions: 30000003 cycles: 17961440 heartbeat IPC: 1.66672 cumulative IPC: 1.67024 (Simulation time: 0 hr 46 min 25 sec) 
Heartbeat CPU 0 instructions: 31000000 cycles: 18559291 heartbeat IPC: 1.67265 cumulative IPC: 1.67032 (Simulation time: 0 hr 47 min 48 sec) 
Heartbeat CPU 0 instructions: 32000000 cycles: 19157614 heartbeat IPC: 1.67134 cumulative IPC: 1.67035 (Simulation time: 0 hr 49 min 10 sec) 
Heartbeat CPU 0 instructions: 33000003 cycles: 19755963 heartbeat IPC: 1.67127 cumulative IPC: 1.67038 (Simulation time: 0 hr 50 min 38 sec) 
Heartbeat CPU 0 instructions: 34000000 cycles: 20353986 heartbeat IPC: 1.67217 cumulative IPC: 1.67043 (Simulation time: 0 hr 51 min 58 sec) 
Heartbeat CPU 0 instructions: 35000002 cycles: 20953781 heartbeat IPC: 1.66724 cumulative IPC: 1.67034 (Simulation time: 0 hr 53 min 26 sec) 
Heartbeat CPU 0 instructions: 36000000 cycles: 21552560 heartbeat IPC: 1.67006 cumulative IPC: 1.67034 (Simulation time: 0 hr 54 min 55 sec) 
Heartbeat CPU 0 instructions: 37000003 cycles: 22150478 heartbeat IPC: 1.67248 cumulative IPC: 1.67039 (Simulation time: 0 hr 56 min 24 sec) 
Heartbeat CPU 0 instructions: 38000003 cycles: 22749136 heartbeat IPC: 1.6704 cumulative IPC: 1.67039 (Simulation time: 0 hr 57 min 50 sec) 
Heartbeat CPU 0 instructions: 39000001 cycles: 23347350 heartbeat IPC: 1.67164 cumulative IPC: 1.67043 (Simulation time: 0 hr 59 min 17 sec) 
Heartbeat CPU 0 instructions: 40000000 cycles: 23945330 heartbeat IPC: 1.6723 cumulative IPC: 1.67047 (Simulation time: 1 hr 0 min 45 sec) 
Heartbeat CPU 0 instructions: 41000001 cycles: 24544121 heartbeat IPC: 1.67003 cumulative IPC: 1.67046 (Simulation time: 1 hr 2 min 14 sec) 
Heartbeat CPU 0 instructions: 42000002 cycles: 25143015 heartbeat IPC: 1.66975 cumulative IPC: 1.67044 (Simulation time: 1 hr 3 min 40 sec) 
Heartbeat CPU 0 instructions: 43000001 cycles: 25739483 heartbeat IPC: 1.67653 cumulative IPC: 1.67059 (Simulation time: 1 hr 5 min 5 sec) 
Heartbeat CPU 0 instructions: 44000000 cycles: 26338467 heartbeat IPC: 1.66949 cumulative IPC: 1.67056 (Simulation time: 1 hr 6 min 31 sec) 
Heartbeat CPU 0 instructions: 45000000 cycles: 26936931 heartbeat IPC: 1.67094 cumulative IPC: 1.67057 (Simulation time: 1 hr 7 min 58 sec) 
Heartbeat CPU 0 instructions: 46000000 cycles: 27536414 heartbeat IPC: 1.6681 cumulative IPC: 1.67052 (Simulation time: 1 hr 9 min 26 sec) 
Heartbeat CPU 0 instructions: 47000000 cycles: 28133476 heartbeat IPC: 1.67487 cumulative IPC: 1.67061 (Simulation time: 1 hr 10 min 52 sec) 
Heartbeat CPU 0 instructions: 48000000 cycles: 28732152 heartbeat IPC: 1.67035 cumulative IPC: 1.6706 (Simulation time: 1 hr 12 min 18 sec) 
Heartbeat CPU 0 instructions: 49000002 cycles: 29331646 heartbeat IPC: 1.66808 cumulative IPC: 1.67055 (Simulation time: 1 hr 13 min 45 sec) 
Heartbeat CPU 0 instructions: 50000002 cycles: 29930508 heartbeat IPC: 1.66983 cumulative IPC: 1.67054 (Simulation time: 1 hr 15 min 11 sec) 

Warmup complete CPU 0 instructions: 50000002 cycles: 29930508 (Simulation time: 1 hr 15 min 11 sec) 

Heartbeat CPU 0 instructions: 51000002 cycles: 31729955 heartbeat IPC: 0.555726 cumulative IPC: 0.555726 (Simulation time: 1 hr 17 min 1 sec) 
Heartbeat CPU 0 instructions: 52000000 cycles: 33452637 heartbeat IPC: 0.580489 cumulative IPC: 0.567838 (Simulation time: 1 hr 18 min 45 sec) 
Heartbeat CPU 0 instructions: 53000002 cycles: 35219768 heartbeat IPC: 0.56589 cumulative IPC: 0.567187 (Simulation time: 1 hr 20 min 30 sec) 
Heartbeat CPU 0 instructions: 54000001 cycles: 37000323 heartbeat IPC: 0.561622 cumulative IPC: 0.565786 (Simulation time: 1 hr 22 min 21 sec) 
Heartbeat CPU 0 instructions: 55000000 cycles: 38780327 heartbeat IPC: 0.561796 cumulative IPC: 0.564983 (Simulation time: 1 hr 24 min 8 sec) 
Heartbeat CPU 0 instructions: 56000000 cycles: 40553138 heartbeat IPC: 0.564076 cumulative IPC: 0.564832 (Simulation time: 1 hr 25 min 51 sec) 
Heartbeat CPU 0 instructions: 57000001 cycles: 42277951 heartbeat IPC: 0.579774 cumulative IPC: 0.566919 (Simulation time: 1 hr 27 min 38 sec) 
Heartbeat CPU 0 instructions: 58000001 cycles: 44058743 heartbeat IPC: 0.561548 cumulative IPC: 0.566242 (Simulation time: 1 hr 29 min 28 sec) 
Heartbeat CPU 0 instructions: 59000000 cycles: 45840853 heartbeat IPC: 0.561132 cumulative IPC: 0.56567 (Simulation time: 1 hr 31 min 18 sec) 
Heartbeat CPU 0 instructions: 60000000 cycles: 47623643 heartbeat IPC: 0.560919 cumulative IPC: 0.565191 (Simulation time: 1 hr 33 min 7 sec) 
Heartbeat CPU 0 instructions: 61000001 cycles: 49363480 heartbeat IPC: 0.574767 cumulative IPC: 0.566048 (Simulation time: 1 hr 34 min 52 sec) 
Heartbeat CPU 0 instructions: 62000001 cycles: 51106608 heartbeat IPC: 0.573681 cumulative IPC: 0.566677 (Simulation time: 1 hr 36 min 38 sec) 
Heartbeat CPU 0 instructions: 63000002 cycles: 52891979 heartbeat IPC: 0.560108 cumulative IPC: 0.566166 (Simulation time: 1 hr 38 min 26 sec) 
Heartbeat CPU 0 instructions: 64000000 cycles: 54674143 heartbeat IPC: 0.561114 cumulative IPC: 0.565802 (Simulation time: 1 hr 40 min 18 sec) 
Heartbeat CPU 0 instructions: 65000000 cycles: 56462772 heartbeat IPC: 0.559087 cumulative IPC: 0.565349 (Simulation time: 1 hr 42 min 6 sec) 
Heartbeat CPU 0 instructions: 66000001 cycles: 58175519 heartbeat IPC: 0.583858 cumulative IPC: 0.566472 (Simulation time: 1 hr 43 min 51 sec) 
Heartbeat CPU 0 instructions: 67000002 cycles: 59931665 heartbeat IPC: 0.569429 cumulative IPC: 0.566645 (Simulation time: 1 hr 45 min 36 sec) 
Heartbeat CPU 0 instructions: 68000000 cycles: 61716727 heartbeat IPC: 0.560203 cumulative IPC: 0.566283 (Simulation time: 1 hr 47 min 25 sec) 
Heartbeat CPU 0 instructions: 69000001 cycles: 63499469 heartbeat IPC: 0.560934 cumulative IPC: 0.565999 (Simulation time: 1 hr 49 min 19 sec) 
Heartbeat CPU 0 instructions: 70000000 cycles: 65269213 heartbeat IPC: 0.565053 cumulative IPC: 0.565952 (Simulation time: 1 hr 51 min 10 sec) 
Heartbeat CPU 0 instructions: 71000001 cycles: 66984323 heartbeat IPC: 0.583054 cumulative IPC: 0.566743 (Simulation time: 1 hr 52 min 56 sec) 
Heartbeat CPU 0 instructions: 72000000 cycles: 68761499 heartbeat IPC: 0.56269 cumulative IPC: 0.566558 (Simulation time: 1 hr 54 min 44 sec) 
Heartbeat CPU 0 instructions: 73000001 cycles: 70548468 heartbeat IPC: 0.559607 cumulative IPC: 0.566252 (Simulation time: 1 hr 56 min 33 sec) 
Heartbeat CPU 0 instructions: 74000000 cycles: 72327840 heartbeat IPC: 0.561995 cumulative IPC: 0.566073 (Simulation time: 1 hr 58 min 24 sec) 
Heartbeat CPU 0 instructions: 75000002 cycles: 74084384 heartbeat IPC: 0.569301 cumulative IPC: 0.566202 (Simulation time: 2 hr 0 min 12 sec) 
Heartbeat CPU 0 instructions: 76000000 cycles: 75818791 heartbeat IPC: 0.576565 cumulative IPC: 0.566593 (Simulation time: 2 hr 2 min 1 sec) 
Heartbeat CPU 0 instructions: 77000003 cycles: 77596672 heartbeat IPC: 0.562469 cumulative IPC: 0.56644 (Simulation time: 2 hr 3 min 47 sec) 
Heartbeat CPU 0 instructions: 78000000 cycles: 79378214 heartbeat IPC: 0.56131 cumulative IPC: 0.566255 (Simulation time: 2 hr 5 min 32 sec) 
Heartbeat CPU 0 instructions: 79000000 cycles: 81174372 heartbeat IPC: 0.556744 cumulative IPC: 0.565921 (Simulation time: 2 hr 7 min 5 sec) 
Heartbeat CPU 0 instructions: 80000000 cycles: 82890984 heartbeat IPC: 0.582543 cumulative IPC: 0.56646 (Simulation time: 2 hr 8 min 41 sec) 
Heartbeat CPU 0 instructions: 81000003 cycles: 84653852 heartbeat IPC: 0.567259 cumulative IPC: 0.566486 (Simulation time: 2 hr 10 min 11 sec) 
Heartbeat CPU 0 instructions: 82000002 cycles: 86440074 heartbeat IPC: 0.55984 cumulative IPC: 0.566276 (Simulation time: 2 hr 11 min 56 sec) 
Heartbeat CPU 0 instructions: 83000001 cycles: 88222433 heartbeat IPC: 0.561054 cumulative IPC: 0.566116 (Simulation time: 2 hr 13 min 45 sec) 
Heartbeat CPU 0 instructions: 84000000 cycles: 89997585 heartbeat IPC: 0.563331 cumulative IPC: 0.566034 (Simulation time: 2 hr 15 min 35 sec) 
Heartbeat CPU 0 instructions: 85000000 cycles: 91715152 heartbeat IPC: 0.582219 cumulative IPC: 0.566484 (Simulation time: 2 hr 17 min 18 sec) 
Heartbeat CPU 0 instructions: 86000001 cycles: 93500646 heartbeat IPC: 0.56007 cumulative IPC: 0.566304 (Simulation time: 2 hr 18 min 51 sec) 
Heartbeat CPU 0 instructions: 87000000 cycles: 95282419 heartbeat IPC: 0.561238 cumulative IPC: 0.566166 (Simulation time: 2 hr 20 min 29 sec) 
Heartbeat CPU 0 instructions: 88000000 cycles: 97059079 heartbeat IPC: 0.562854 cumulative IPC: 0.566078 (Simulation time: 2 hr 21 min 56 sec) 
Heartbeat CPU 0 instructions: 89000000 cycles: 98810651 heartbeat IPC: 0.570916 cumulative IPC: 0.566201 (Simulation time: 2 hr 23 min 25 sec) 
Heartbeat CPU 0 instructions: 90000000 cycles: 100567073 heartbeat IPC: 0.569339 cumulative IPC: 0.566279 (Simulation time: 2 hr 25 min 3 sec) 
Heartbeat CPU 0 instructions: 91000001 cycles: 102347299 heartbeat IPC: 0.561727 cumulative IPC: 0.566167 (Simulation time: 2 hr 26 min 27 sec) 
Heartbeat CPU 0 instructions: 92000000 cycles: 104130875 heartbeat IPC: 0.560671 cumulative IPC: 0.566035 (Simulation time: 2 hr 27 min 57 sec) 
Heartbeat CPU 0 instructions: 93000003 cycles: 105914457 heartbeat IPC: 0.560671 cumulative IPC: 0.565909 (Simulation time: 2 hr 29 min 51 sec) 
Heartbeat CPU 0 instructions: 94000001 cycles: 107641422 heartbeat IPC: 0.579049 cumulative IPC: 0.566201 (Simulation time: 2 hr 31 min 14 sec) 
Heartbeat CPU 0 instructions: 95000001 cycles: 109422167 heartbeat IPC: 0.561563 cumulative IPC: 0.566097 (Simulation time: 2 hr 33 min 4 sec) 
Heartbeat CPU 0 instructions: 96000000 cycles: 111201797 heartbeat IPC: 0.561914 cumulative IPC: 0.566006 (Simulation time: 2 hr 34 min 35 sec) 
Heartbeat CPU 0 instructions: 97000000 cycles: 112980553 heartbeat IPC: 0.562191 cumulative IPC: 0.565924 (Simulation time: 2 hr 36 min 7 sec) 
Heartbeat CPU 0 instructions: 98000000 cycles: 114741375 heartbeat IPC: 0.567917 cumulative IPC: 0.565965 (Simulation time: 2 hr 37 min 37 sec) 
Heartbeat CPU 0 instructions: 99000000 cycles: 116495541 heartbeat IPC: 0.570071 cumulative IPC: 0.566048 (Simulation time: 2 hr 39 min 6 sec) 
Heartbeat CPU 0 instructions: 100000000 cycles: 118274547 heartbeat IPC: 0.562112 cumulative IPC: 0.565969 (Simulation time: 2 hr 40 min 28 sec) 
Heartbeat CPU 0 instructions: 101000000 cycles: 120052609 heartbeat IPC: 0.56241 cumulative IPC: 0.565899 (Simulation time: 2 hr 41 min 46 sec) 
Heartbeat CPU 0 instructions: 102000003 cycles: 121841164 heartbeat IPC: 0.559112 cumulative IPC: 0.565767 (Simulation time: 2 hr 43 min 14 sec) 
Heartbeat CPU 0 instructions: 103000001 cycles: 123572347 heartbeat IPC: 0.577639 cumulative IPC: 0.565986 (Simulation time: 2 hr 44 min 52 sec) 
Heartbeat CPU 0 instructions: 104000000 cycles: 125357695 heartbeat IPC: 0.560114 cumulative IPC: 0.565876 (Simulation time: 2 hr 46 min 18 sec) 
Heartbeat CPU 0 instructions: 105000002 cycles: 127137796 heartbeat IPC: 0.561767 cumulative IPC: 0.565801 (Simulation time: 2 hr 47 min 46 sec) 
Heartbeat CPU 0 instructions: 106000001 cycles: 128914835 heartbeat IPC: 0.562733 cumulative IPC: 0.565746 (Simulation time: 2 hr 49 min 29 sec) 
Heartbeat CPU 0 instructions: 107000003 cycles: 130672752 heartbeat IPC: 0.568856 cumulative IPC: 0.5658 (Simulation time: 2 hr 50 min 46 sec) 
Heartbeat CPU 0 instructions: 108000000 cycles: 132438769 heartbeat IPC: 0.566244 cumulative IPC: 0.565808 (Simulation time: 2 hr 52 min 8 sec) 
Heartbeat CPU 0 instructions: 109000002 cycles: 134223151 heartbeat IPC: 0.560419 cumulative IPC: 0.565716 (Simulation time: 2 hr 53 min 49 sec) 
Heartbeat CPU 0 instructions: 110000003 cycles: 136002048 heartbeat IPC: 0.562147 cumulative IPC: 0.565656 (Simulation time: 2 hr 55 min 27 sec) 
Heartbeat CPU 0 instructions: 111000000 cycles: 137789425 heartbeat IPC: 0.559477 cumulative IPC: 0.565554 (Simulation time: 2 hr 57 min 12 sec) 
Heartbeat CPU 0 instructions: 112000000 cycles: 139530719 heartbeat IPC: 0.574286 cumulative IPC: 0.565692 (Simulation time: 2 hr 58 min 51 sec) 
Heartbeat CPU 0 instructions: 113000000 cycles: 141309930 heartbeat IPC: 0.562047 cumulative IPC: 0.565634 (Simulation time: 3 hr 0 min 33 sec) 
Heartbeat CPU 0 instructions: 114000000 cycles: 143089414 heartbeat IPC: 0.561961 cumulative IPC: 0.565576 (Simulation time: 3 hr 3 min 21 sec) 
Heartbeat CPU 0 instructions: 115000003 cycles: 144869507 heartbeat IPC: 0.56177 cumulative IPC: 0.565517 (Simulation time: 3 hr 6 min 35 sec) 
Heartbeat CPU 0 instructions: 116000000 cycles: 146624732 heartbeat IPC: 0.569726 cumulative IPC: 0.565581 (Simulation time: 3 hr 10 min 1 sec) 
Heartbeat CPU 0 instructions: 117000000 cycles: 148400281 heartbeat IPC: 0.563206 cumulative IPC: 0.565545 (Simulation time: 3 hr 13 min 19 sec) 
Heartbeat CPU 0 instructions: 118000002 cycles: 150179893 heartbeat IPC: 0.561921 cumulative IPC: 0.565491 (Simulation time: 3 hr 16 min 37 sec) 
Heartbeat CPU 0 instructions: 119000002 cycles: 151963844 heartbeat IPC: 0.560553 cumulative IPC: 0.565419 (Simulation time: 3 hr 19 min 53 sec) 
Heartbeat CPU 0 instructions: 120000000 cycles: 153739948 heartbeat IPC: 0.563029 cumulative IPC: 0.565385 (Simulation time: 3 hr 23 min 9 sec) 
Heartbeat CPU 0 instructions: 121000003 cycles: 155494724 heartbeat IPC: 0.569875 cumulative IPC: 0.565448 (Simulation time: 3 hr 26 min 13 sec) 
Heartbeat CPU 0 instructions: 122000000 cycles: 157274226 heartbeat IPC: 0.561953 cumulative IPC: 0.565399 (Simulation time: 3 hr 29 min 27 sec) 
Heartbeat CPU 0 instructions: 123000000 cycles: 159053990 heartbeat IPC: 0.561872 cumulative IPC: 0.56535 (Simulation time: 3 hr 32 min 36 sec) 
Heartbeat CPU 0 instructions: 124000000 cycles: 160832992 heartbeat IPC: 0.562113 cumulative IPC: 0.565306 (Simulation time: 3 hr 35 min 41 sec) 
Heartbeat CPU 0 instructions: 125000000 cycles: 162596201 heartbeat IPC: 0.567148 cumulative IPC: 0.565331 (Simulation time: 3 hr 38 min 50 sec) 
Heartbeat CPU 0 instructions: 126000003 cycles: 164377136 heartbeat IPC: 0.561504 cumulative IPC: 0.56528 (Simulation time: 3 hr 42 min 4 sec) 
Heartbeat CPU 0 instructions: 127000000 cycles: 166159551 heartbeat IPC: 0.561035 cumulative IPC: 0.565225 (Simulation time: 3 hr 45 min 7 sec) 
Heartbeat CPU 0 instructions: 128000000 cycles: 167938068 heartbeat IPC: 0.562266 cumulative IPC: 0.565186 (Simulation time: 3 hr 48 min 10 sec) 
Heartbeat CPU 0 instructions: 129000002 cycles: 169706837 heartbeat IPC: 0.565366 cumulative IPC: 0.565189 (Simulation time: 3 hr 51 min 12 sec) 
Heartbeat CPU 0 instructions: 130000000 cycles: 171482045 heartbeat IPC: 0.563313 cumulative IPC: 0.565165 (Simulation time: 3 hr 54 min 11 sec) 
Heartbeat CPU 0 instructions: 131000002 cycles: 173260961 heartbeat IPC: 0.562141 cumulative IPC: 0.565128 (Simulation time: 3 hr 57 min 9 sec) 
Heartbeat CPU 0 instructions: 132000000 cycles: 175044574 heartbeat IPC: 0.560659 cumulative IPC: 0.565073 (Simulation time: 4 hr 0 min 13 sec) 
Heartbeat CPU 0 instructions: 133000000 cycles: 176827031 heartbeat IPC: 0.561023 cumulative IPC: 0.565024 (Simulation time: 4 hr 3 min 15 sec) 
Heartbeat CPU 0 instructions: 134000000 cycles: 178589509 heartbeat IPC: 0.567383 cumulative IPC: 0.565052 (Simulation time: 4 hr 6 min 9 sec) 
Heartbeat CPU 0 instructions: 135000000 cycles: 180371388 heartbeat IPC: 0.561205 cumulative IPC: 0.565006 (Simulation time: 4 hr 9 min 16 sec) 
Heartbeat CPU 0 instructions: 136000000 cycles: 182152098 heartbeat IPC: 0.561574 cumulative IPC: 0.564966 (Simulation time: 4 hr 12 min 38 sec) 
Heartbeat CPU 0 instructions: 137000000 cycles: 183934883 heartbeat IPC: 0.56092 cumulative IPC: 0.564919 (Simulation time: 4 hr 15 min 59 sec) 
Heartbeat CPU 0 instructions: 138000000 cycles: 185705547 heartbeat IPC: 0.56476 cumulative IPC: 0.564917 (Simulation time: 4 hr 19 min 9 sec) 
Heartbeat CPU 0 instructions: 139000001 cycles: 187485169 heartbeat IPC: 0.561918 cumulative IPC: 0.564883 (Simulation time: 4 hr 21 min 54 sec) 
Heartbeat CPU 0 instructions: 140000000 cycles: 189262890 heartbeat IPC: 0.562517 cumulative IPC: 0.564857 (Simulation time: 4 hr 24 min 38 sec) 
Heartbeat CPU 0 instructions: 141000001 cycles: 191041394 heartbeat IPC: 0.562271 cumulative IPC: 0.564828 (Simulation time: 4 hr 27 min 22 sec) 
Heartbeat CPU 0 instructions: 142000000 cycles: 192818454 heartbeat IPC: 0.562727 cumulative IPC: 0.564805 (Simulation time: 4 hr 30 min 5 sec) 
Heartbeat CPU 0 instructions: 143000001 cycles: 194599514 heartbeat IPC: 0.561464 cumulative IPC: 0.564769 (Simulation time: 4 hr 32 min 47 sec) 
Heartbeat CPU 0 instructions: 144000000 cycles: 196379656 heartbeat IPC: 0.561752 cumulative IPC: 0.564737 (Simulation time: 4 hr 35 min 26 sec) 
Heartbeat CPU 0 instructions: 145000000 cycles: 198160707 heartbeat IPC: 0.561466 cumulative IPC: 0.564702 (Simulation time: 4 hr 38 min 7 sec) 
Heartbeat CPU 0 instructions: 146000000 cycles: 199950528 heartbeat IPC: 0.558715 cumulative IPC: 0.564639 (Simulation time: 4 hr 40 min 41 sec) 
Heartbeat CPU 0 instructions: 147000003 cycles: 201725377 heartbeat IPC: 0.56343 cumulative IPC: 0.564627 (Simulation time: 4 hr 43 min 16 sec) 
Heartbeat CPU 0 instructions: 148000000 cycles: 203506861 heartbeat IPC: 0.561328 cumulative IPC: 0.564593 (Simulation time: 4 hr 45 min 53 sec) 
Heartbeat CPU 0 instructions: 149000002 cycles: 205284507 heartbeat IPC: 0.562543 cumulative IPC: 0.564572 (Simulation time: 4 hr 48 min 22 sec) 
Heartbeat CPU 0 instructions: 150000002 cycles: 207081621 heartbeat IPC: 0.556448 cumulative IPC: 0.56449 (Simulation time: 4 hr 51 min 1 sec) 
Finished CPU 0 instructions: 100000000 cycles: 177151113 cummulative IPC: 0.56449 (Simulation time: 4 hr 51 min 1 sec) 

ChampSim completed all CPUs

Region of Interest Statistics

CPU 0 cummulative IPC: 0.56449 instructions: 100000000 cycles: 177151113
LLC TOTAL     ACCESS:     134524  HIT:      40201  MISS:      94323
LLC LOAD      ACCESS:      14885  HIT:       4028  MISS:      10857
LLC RFO       ACCESS:       1065  HIT:        155  MISS:        910
LLC PREFETCH  ACCESS:      79329  HIT:       9260  MISS:      70069
LLC WRITEBACK ACCESS:      39245  HIT:      26758  MISS:      12487
