
*** ChampSim Multicore Out-of-Order Simulator ***

Warmup Instructions: 50000000
Simulation Instructions: 100000000
Configuration: 2
Number of CPUs: 1
LLC sets: 2048
LLC ways: 16
Off-chip DRAM Channels: 1 Width: 64-bit Data Rate: 1600 MT/s

CPU 0 runs /datasets/cs240c-wi22-a00-public/data/Assignment2-gz/libquantum_964B.trace.gz
CPU 0 L1D next line prefetcher
CPU 0 L2C IP-based stride prefetcher
Heartbeat CPU 0 instructions: 1000002 cycles: 333341 heartbeat IPC: 2.99994 cumulative IPC: 2.99994 (Simulation time: 0 hr 0 min 45 sec) 
Heartbeat CPU 0 instructions: 2000001 cycles: 666674 heartbeat IPC: 3 cumulative IPC: 2.99997 (Simulation time: 0 hr 1 min 30 sec) 
Heartbeat CPU 0 instructions: 3000000 cycles: 1000007 heartbeat IPC: 3 cumulative IPC: 2.99998 (Simulation time: 0 hr 2 min 18 sec) 
Heartbeat CPU 0 instructions: 4000000 cycles: 1333341 heartbeat IPC: 2.99999 cumulative IPC: 2.99998 (Simulation time: 0 hr 3 min 4 sec) 
Heartbeat CPU 0 instructions: 5000000 cycles: 1666674 heartbeat IPC: 3 cumulative IPC: 2.99999 (Simulation time: 0 hr 3 min 52 sec) 
Heartbeat CPU 0 instructions: 6000002 cycles: 2000008 heartbeat IPC: 3 cumulative IPC: 2.99999 (Simulation time: 0 hr 4 min 40 sec) 
Heartbeat CPU 0 instructions: 7000001 cycles: 2331518 heartbeat IPC: 3.0165 cumulative IPC: 3.00234 (Simulation time: 0 hr 5 min 33 sec) 
Heartbeat CPU 0 instructions: 8000000 cycles: 2662240 heartbeat IPC: 3.02368 cumulative IPC: 3.00499 (Simulation time: 0 hr 6 min 27 sec) 
Heartbeat CPU 0 instructions: 9000001 cycles: 2992962 heartbeat IPC: 3.02369 cumulative IPC: 3.00705 (Simulation time: 0 hr 7 min 22 sec) 
Heartbeat CPU 0 instructions: 10000001 cycles: 3323684 heartbeat IPC: 3.02369 cumulative IPC: 3.00871 (Simulation time: 0 hr 8 min 11 sec) 
Heartbeat CPU 0 instructions: 11000000 cycles: 3654406 heartbeat IPC: 3.02368 cumulative IPC: 3.01007 (Simulation time: 0 hr 9 min 0 sec) 
Heartbeat CPU 0 instructions: 12000000 cycles: 3985113 heartbeat IPC: 3.02382 cumulative IPC: 3.01121 (Simulation time: 0 hr 9 min 52 sec) 
Heartbeat CPU 0 instructions: 13000001 cycles: 4315818 heartbeat IPC: 3.02385 cumulative IPC: 3.01218 (Simulation time: 0 hr 10 min 41 sec) 
Heartbeat CPU 0 instructions: 14000000 cycles: 4646523 heartbeat IPC: 3.02384 cumulative IPC: 3.01301 (Simulation time: 0 hr 11 min 29 sec) 
Heartbeat CPU 0 instructions: 15000003 cycles: 4977229 heartbeat IPC: 3.02384 cumulative IPC: 3.01373 (Simulation time: 0 hr 12 min 18 sec) 
Heartbeat CPU 0 instructions: 16000000 cycles: 5307934 heartbeat IPC: 3.02383 cumulative IPC: 3.01436 (Simulation time: 0 hr 13 min 5 sec) 
Heartbeat CPU 0 instructions: 17000000 cycles: 5638642 heartbeat IPC: 3.02382 cumulative IPC: 3.01491 (Simulation time: 0 hr 13 min 52 sec) 
Heartbeat CPU 0 instructions: 18000003 cycles: 5969365 heartbeat IPC: 3.02369 cumulative IPC: 3.0154 (Simulation time: 0 hr 14 min 41 sec) 
Heartbeat CPU 0 instructions: 19000002 cycles: 6300087 heartbeat IPC: 3.02368 cumulative IPC: 3.01583 (Simulation time: 0 hr 15 min 30 sec) 
Heartbeat CPU 0 instructions: 20000000 cycles: 6630808 heartbeat IPC: 3.02369 cumulative IPC: 3.01622 (Simulation time: 0 hr 16 min 16 sec) 
Heartbeat CPU 0 instructions: 21000003 cycles: 6961531 heartbeat IPC: 3.02369 cumulative IPC: 3.01658 (Simulation time: 0 hr 17 min 4 sec) 
Heartbeat CPU 0 instructions: 22000002 cycles: 7292253 heartbeat IPC: 3.02368 cumulative IPC: 3.0169 (Simulation time: 0 hr 17 min 53 sec) 
Heartbeat CPU 0 instructions: 23000000 cycles: 7622968 heartbeat IPC: 3.02375 cumulative IPC: 3.0172 (Simulation time: 0 hr 18 min 41 sec) 
Heartbeat CPU 0 instructions: 24000000 cycles: 7953674 heartbeat IPC: 3.02383 cumulative IPC: 3.01747 (Simulation time: 0 hr 19 min 27 sec) 
Heartbeat CPU 0 instructions: 25000000 cycles: 8284379 heartbeat IPC: 3.02384 cumulative IPC: 3.01773 (Simulation time: 0 hr 20 min 17 sec) 
Heartbeat CPU 0 instructions: 26000002 cycles: 8675744 heartbeat IPC: 2.55516 cumulative IPC: 2.99686 (Simulation time: 0 hr 21 min 21 sec) 
Heartbeat CPU 0 instructions: 27000000 cycles: 9096050 heartbeat IPC: 2.37921 cumulative IPC: 2.96832 (Simulation time: 0 hr 22 min 32 sec) 
Heartbeat CPU 0 instructions: 28000000 cycles: 9516352 heartbeat IPC: 2.37924 cumulative IPC: 2.9423 (Simulation time: 0 hr 23 min 44 sec) 
Heartbeat CPU 0 instructions: 29000002 cycles: 9936683 heartbeat IPC: 2.37908 cumulative IPC: 2.91848 (Simulation time: 0 hr 24 min 58 sec) 
Heartbeat CPU 0 instructions: 30000002 cycles: 10356994 heartbeat IPC: 2.37919 cumulative IPC: 2.89659 (Simulation time: 0 hr 26 min 8 sec) 
Heartbeat CPU 0 instructions: 31000000 cycles: 10777300 heartbeat IPC: 2.37921 cumulative IPC: 2.87642 (Simulation time: 0 hr 27 min 22 sec) 
Heartbeat CPU 0 instructions: 32000000 cycles: 11197602 heartbeat IPC: 2.37924 cumulative IPC: 2.85775 (Simulation time: 0 hr 28 min 37 sec) 
Heartbeat CPU 0 instructions: 33000002 cycles: 11617933 heartbeat IPC: 2.37908 cumulative IPC: 2.84044 (Simulation time: 0 hr 29 min 52 sec) 
Heartbeat CPU 0 instructions: 34000002 cycles: 12038244 heartbeat IPC: 2.37919 cumulative IPC: 2.82433 (Simulation time: 0 hr 31 min 2 sec) 
Heartbeat CPU 0 instructions: 35000000 cycles: 12458550 heartbeat IPC: 2.37921 cumulative IPC: 2.80932 (Simulation time: 0 hr 32 min 16 sec) 
Heartbeat CPU 0 instructions: 36000000 cycles: 12862260 heartbeat IPC: 2.47703 cumulative IPC: 2.79889 (Simulation time: 0 hr 33 min 25 sec) 
Heartbeat CPU 0 instructions: 37000001 cycles: 13195593 heartbeat IPC: 3.00001 cumulative IPC: 2.80397 (Simulation time: 0 hr 34 min 10 sec) 
Heartbeat CPU 0 instructions: 38000000 cycles: 13528926 heartbeat IPC: 3 cumulative IPC: 2.8088 (Simulation time: 0 hr 34 min 56 sec) 
Heartbeat CPU 0 instructions: 39000003 cycles: 13862260 heartbeat IPC: 3 cumulative IPC: 2.81339 (Simulation time: 0 hr 35 min 48 sec) 
Heartbeat CPU 0 instructions: 40000000 cycles: 14195593 heartbeat IPC: 2.99999 cumulative IPC: 2.81778 (Simulation time: 0 hr 36 min 39 sec) 
Heartbeat CPU 0 instructions: 41000001 cycles: 14528926 heartbeat IPC: 3.00001 cumulative IPC: 2.82196 (Simulation time: 0 hr 37 min 31 sec) 
Heartbeat CPU 0 instructions: 42000000 cycles: 14862259 heartbeat IPC: 3 cumulative IPC: 2.82595 (Simulation time: 0 hr 38 min 20 sec) 
Heartbeat CPU 0 instructions: 43000001 cycles: 15195593 heartbeat IPC: 3 cumulative IPC: 2.82977 (Simulation time: 0 hr 39 min 8 sec) 
Heartbeat CPU 0 instructions: 44000000 cycles: 15528926 heartbeat IPC: 3 cumulative IPC: 2.83342 (Simulation time: 0 hr 39 min 56 sec) 
Heartbeat CPU 0 instructions: 45000002 cycles: 15862260 heartbeat IPC: 3 cumulative IPC: 2.83692 (Simulation time: 0 hr 40 min 45 sec) 
Heartbeat CPU 0 instructions: 46000001 cycles: 16195593 heartbeat IPC: 3 cumulative IPC: 2.84028 (Simulation time: 0 hr 41 min 33 sec) 
Heartbeat CPU 0 instructions: 47000000 cycles: 16528926 heartbeat IPC: 3 cumulative IPC: 2.8435 (Simulation time: 0 hr 42 min 26 sec) 
Heartbeat CPU 0 instructions: 48000000 cycles: 16862260 heartbeat IPC: 2.99999 cumulative IPC: 2.84659 (Simulation time: 0 hr 43 min 16 sec) 
Heartbeat CPU 0 instructions: 49000003 cycles: 17195596 heartbeat IPC: 2.99998 cumulative IPC: 2.84957 (Simulation time: 0 hr 44 min 4 sec) 
Heartbeat CPU 0 instructions: 50000001 cycles: 17528926 heartbeat IPC: 3.00002 cumulative IPC: 2.85243 (Simulation time: 0 hr 44 min 53 sec) 

Warmup complete CPU 0 instructions: 50000001 cycles: 17528926 (Simulation time: 0 hr 44 min 53 sec) 

Heartbeat CPU 0 instructions: 51000000 cycles: 18995168 heartbeat IPC: 0.682015 cumulative IPC: 0.682015 (Simulation time: 0 hr 46 min 16 sec) 
Heartbeat CPU 0 instructions: 52000000 cycles: 20461433 heartbeat IPC: 0.682005 cumulative IPC: 0.68201 (Simulation time: 0 hr 47 min 33 sec) 
Heartbeat CPU 0 instructions: 53000000 cycles: 21927639 heartbeat IPC: 0.682032 cumulative IPC: 0.682017 (Simulation time: 0 hr 48 min 51 sec) 
Heartbeat CPU 0 instructions: 54000002 cycles: 23393725 heartbeat IPC: 0.68209 cumulative IPC: 0.682036 (Simulation time: 0 hr 50 min 11 sec) 
Heartbeat CPU 0 instructions: 55000002 cycles: 24929489 heartbeat IPC: 0.651142 cumulative IPC: 0.675624 (Simulation time: 0 hr 51 min 29 sec) 
Heartbeat CPU 0 instructions: 56000000 cycles: 26517537 heartbeat IPC: 0.629703 cumulative IPC: 0.667511 (Simulation time: 0 hr 52 min 47 sec) 
Heartbeat CPU 0 instructions: 57000001 cycles: 27594567 heartbeat IPC: 0.92848 cumulative IPC: 0.695435 (Simulation time: 0 hr 53 min 53 sec) 
Heartbeat CPU 0 instructions: 58000000 cycles: 29322011 heartbeat IPC: 0.578889 cumulative IPC: 0.678364 (Simulation time: 0 hr 55 min 8 sec) 
Heartbeat CPU 0 instructions: 59000003 cycles: 31053902 heartbeat IPC: 0.577405 cumulative IPC: 0.665436 (Simulation time: 0 hr 56 min 19 sec) 
Heartbeat CPU 0 instructions: 60000000 cycles: 32789810 heartbeat IPC: 0.576066 cumulative IPC: 0.65527 (Simulation time: 0 hr 57 min 32 sec) 
Heartbeat CPU 0 instructions: 61000002 cycles: 34519564 heartbeat IPC: 0.578118 cumulative IPC: 0.647415 (Simulation time: 0 hr 58 min 47 sec) 
Heartbeat CPU 0 instructions: 62000001 cycles: 36254819 heartbeat IPC: 0.576284 cumulative IPC: 0.640824 (Simulation time: 1 hr 0 min 3 sec) 
Heartbeat CPU 0 instructions: 63000001 cycles: 37984225 heartbeat IPC: 0.578233 cumulative IPC: 0.635532 (Simulation time: 1 hr 1 min 19 sec) 
Heartbeat CPU 0 instructions: 64000000 cycles: 39720707 heartbeat IPC: 0.575876 cumulative IPC: 0.630864 (Simulation time: 1 hr 2 min 36 sec) 
Heartbeat CPU 0 instructions: 65000002 cycles: 41450309 heartbeat IPC: 0.578169 cumulative IPC: 0.627054 (Simulation time: 1 hr 3 min 55 sec) 
Heartbeat CPU 0 instructions: 66000002 cycles: 43182652 heartbeat IPC: 0.577253 cumulative IPC: 0.623691 (Simulation time: 1 hr 5 min 8 sec) 
Heartbeat CPU 0 instructions: 67000000 cycles: 44911494 heartbeat IPC: 0.578421 cumulative IPC: 0.620833 (Simulation time: 1 hr 6 min 28 sec) 
Heartbeat CPU 0 instructions: 68000000 cycles: 46645515 heartbeat IPC: 0.576694 cumulative IPC: 0.618204 (Simulation time: 1 hr 7 min 51 sec) 
Heartbeat CPU 0 instructions: 69000000 cycles: 48384782 heartbeat IPC: 0.574955 cumulative IPC: 0.615766 (Simulation time: 1 hr 9 min 16 sec) 
Heartbeat CPU 0 instructions: 70000002 cycles: 50118424 heartbeat IPC: 0.576822 cumulative IPC: 0.613695 (Simulation time: 1 hr 10 min 33 sec) 
Heartbeat CPU 0 instructions: 71000001 cycles: 51855037 heartbeat IPC: 0.575833 cumulative IPC: 0.611779 (Simulation time: 1 hr 11 min 46 sec) 
Heartbeat CPU 0 instructions: 72000000 cycles: 53594764 heartbeat IPC: 0.574802 cumulative IPC: 0.609995 (Simulation time: 1 hr 12 min 58 sec) 
Heartbeat CPU 0 instructions: 73000000 cycles: 55331179 heartbeat IPC: 0.575899 cumulative IPC: 0.608429 (Simulation time: 1 hr 14 min 16 sec) 
Heartbeat CPU 0 instructions: 74000000 cycles: 57157894 heartbeat IPC: 0.547431 cumulative IPC: 0.605618 (Simulation time: 1 hr 15 min 36 sec) 
Heartbeat CPU 0 instructions: 75000000 cycles: 59259180 heartbeat IPC: 0.475899 cumulative IPC: 0.599086 (Simulation time: 1 hr 17 min 13 sec) 
Heartbeat CPU 0 instructions: 76000000 cycles: 61386288 heartbeat IPC: 0.470122 cumulative IPC: 0.592831 (Simulation time: 1 hr 18 min 51 sec) 
Heartbeat CPU 0 instructions: 77000000 cycles: 63508447 heartbeat IPC: 0.471218 cumulative IPC: 0.587218 (Simulation time: 1 hr 20 min 30 sec) 
Heartbeat CPU 0 instructions: 78000000 cycles: 65634628 heartbeat IPC: 0.470327 cumulative IPC: 0.582052 (Simulation time: 1 hr 22 min 7 sec) 
Heartbeat CPU 0 instructions: 79000000 cycles: 67763569 heartbeat IPC: 0.469717 cumulative IPC: 0.577291 (Simulation time: 1 hr 23 min 49 sec) 
Heartbeat CPU 0 instructions: 80000000 cycles: 69889677 heartbeat IPC: 0.470343 cumulative IPC: 0.572948 (Simulation time: 1 hr 25 min 27 sec) 
Heartbeat CPU 0 instructions: 81000000 cycles: 72016681 heartbeat IPC: 0.470145 cumulative IPC: 0.568935 (Simulation time: 1 hr 27 min 2 sec) 
Heartbeat CPU 0 instructions: 82000000 cycles: 74141770 heartbeat IPC: 0.470569 cumulative IPC: 0.565243 (Simulation time: 1 hr 28 min 38 sec) 
Heartbeat CPU 0 instructions: 83000000 cycles: 76262827 heartbeat IPC: 0.471463 cumulative IPC: 0.561856 (Simulation time: 1 hr 30 min 18 sec) 
Heartbeat CPU 0 instructions: 84000000 cycles: 78389664 heartbeat IPC: 0.470182 cumulative IPC: 0.558652 (Simulation time: 1 hr 31 min 52 sec) 
Heartbeat CPU 0 instructions: 85000001 cycles: 80029043 heartbeat IPC: 0.609988 cumulative IPC: 0.559999 (Simulation time: 1 hr 33 min 17 sec) 
Heartbeat CPU 0 instructions: 86000000 cycles: 80979410 heartbeat IPC: 1.05222 cumulative IPC: 0.567372 (Simulation time: 1 hr 34 min 31 sec) 
Heartbeat CPU 0 instructions: 87000003 cycles: 82370298 heartbeat IPC: 0.718967 cumulative IPC: 0.570623 (Simulation time: 1 hr 35 min 53 sec) 
Heartbeat CPU 0 instructions: 88000000 cycles: 83875255 heartbeat IPC: 0.664469 cumulative IPC: 0.572752 (Simulation time: 1 hr 37 min 13 sec) 
Heartbeat CPU 0 instructions: 89000001 cycles: 85382323 heartbeat IPC: 0.663541 cumulative IPC: 0.574769 (Simulation time: 1 hr 38 min 35 sec) 
Heartbeat CPU 0 instructions: 90000000 cycles: 86891528 heartbeat IPC: 0.6626 cumulative IPC: 0.57668 (Simulation time: 1 hr 39 min 57 sec) 
Heartbeat CPU 0 instructions: 91000001 cycles: 88399106 heartbeat IPC: 0.663316 cumulative IPC: 0.578523 (Simulation time: 1 hr 41 min 18 sec) 
Heartbeat CPU 0 instructions: 92000000 cycles: 89904949 heartbeat IPC: 0.664079 cumulative IPC: 0.580303 (Simulation time: 1 hr 42 min 44 sec) 
Heartbeat CPU 0 instructions: 93000002 cycles: 91411209 heartbeat IPC: 0.663897 cumulative IPC: 0.582007 (Simulation time: 1 hr 44 min 5 sec) 
Heartbeat CPU 0 instructions: 94000001 cycles: 92918403 heartbeat IPC: 0.663484 cumulative IPC: 0.583636 (Simulation time: 1 hr 45 min 33 sec) 
Heartbeat CPU 0 instructions: 95000000 cycles: 94425611 heartbeat IPC: 0.663478 cumulative IPC: 0.585201 (Simulation time: 1 hr 46 min 55 sec) 
Heartbeat CPU 0 instructions: 96000000 cycles: 95934333 heartbeat IPC: 0.662813 cumulative IPC: 0.586694 (Simulation time: 1 hr 48 min 14 sec) 
Heartbeat CPU 0 instructions: 97000002 cycles: 97444849 heartbeat IPC: 0.662027 cumulative IPC: 0.588118 (Simulation time: 1 hr 49 min 41 sec) 
Heartbeat CPU 0 instructions: 98000001 cycles: 98954790 heartbeat IPC: 0.662277 cumulative IPC: 0.589493 (Simulation time: 1 hr 51 min 9 sec) 
Heartbeat CPU 0 instructions: 99000000 cycles: 100465968 heartbeat IPC: 0.661735 cumulative IPC: 0.59081 (Simulation time: 1 hr 52 min 46 sec) 
Heartbeat CPU 0 instructions: 100000000 cycles: 101976362 heartbeat IPC: 0.662079 cumulative IPC: 0.592084 (Simulation time: 1 hr 54 min 12 sec) 
Heartbeat CPU 0 instructions: 101000000 cycles: 103485523 heartbeat IPC: 0.66262 cumulative IPC: 0.593323 (Simulation time: 1 hr 55 min 38 sec) 
Heartbeat CPU 0 instructions: 102000002 cycles: 104993851 heartbeat IPC: 0.662987 cumulative IPC: 0.594524 (Simulation time: 1 hr 56 min 59 sec) 
Heartbeat CPU 0 instructions: 103000001 cycles: 106493898 heartbeat IPC: 0.666645 cumulative IPC: 0.59574 (Simulation time: 1 hr 58 min 19 sec) 
Heartbeat CPU 0 instructions: 104000000 cycles: 108138846 heartbeat IPC: 0.607921 cumulative IPC: 0.595961 (Simulation time: 1 hr 59 min 47 sec) 
Heartbeat CPU 0 instructions: 105000000 cycles: 110107649 heartbeat IPC: 0.507923 cumulative IPC: 0.594089 (Simulation time: 2 hr 1 min 20 sec) 
Heartbeat CPU 0 instructions: 106000000 cycles: 112337230 heartbeat IPC: 0.448515 cumulative IPC: 0.590666 (Simulation time: 2 hr 2 min 59 sec) 
Heartbeat CPU 0 instructions: 107000000 cycles: 114567003 heartbeat IPC: 0.448476 cumulative IPC: 0.587398 (Simulation time: 2 hr 4 min 33 sec) 
Heartbeat CPU 0 instructions: 108000000 cycles: 116786559 heartbeat IPC: 0.450541 cumulative IPC: 0.584338 (Simulation time: 2 hr 6 min 5 sec) 
Heartbeat CPU 0 instructions: 109000000 cycles: 119018322 heartbeat IPC: 0.448076 cumulative IPC: 0.581342 (Simulation time: 2 hr 7 min 43 sec) 
Heartbeat CPU 0 instructions: 110000000 cycles: 121252673 heartbeat IPC: 0.447557 cumulative IPC: 0.57846 (Simulation time: 2 hr 9 min 15 sec) 
Heartbeat CPU 0 instructions: 111000000 cycles: 123484761 heartbeat IPC: 0.448011 cumulative IPC: 0.575712 (Simulation time: 2 hr 10 min 42 sec) 
Heartbeat CPU 0 instructions: 112000000 cycles: 125717794 heartbeat IPC: 0.447821 cumulative IPC: 0.573072 (Simulation time: 2 hr 12 min 13 sec) 
Heartbeat CPU 0 instructions: 113000000 cycles: 127943507 heartbeat IPC: 0.449294 cumulative IPC: 0.570577 (Simulation time: 2 hr 13 min 53 sec) 
Heartbeat CPU 0 instructions: 114000002 cycles: 129976389 heartbeat IPC: 0.491913 cumulative IPC: 0.569155 (Simulation time: 2 hr 15 min 23 sec) 
Heartbeat CPU 0 instructions: 115000001 cycles: 131390426 heartbeat IPC: 0.707194 cumulative IPC: 0.570869 (Simulation time: 2 hr 16 min 30 sec) 
Heartbeat CPU 0 instructions: 116000000 cycles: 132730135 heartbeat IPC: 0.74643 cumulative IPC: 0.572911 (Simulation time: 2 hr 17 min 37 sec) 
Heartbeat CPU 0 instructions: 117000002 cycles: 134464675 heartbeat IPC: 0.576523 cumulative IPC: 0.572964 (Simulation time: 2 hr 18 min 31 sec) 
Heartbeat CPU 0 instructions: 118000002 cycles: 136197838 heartbeat IPC: 0.57698 cumulative IPC: 0.573023 (Simulation time: 2 hr 19 min 34 sec) 
Heartbeat CPU 0 instructions: 119000002 cycles: 137932520 heartbeat IPC: 0.576475 cumulative IPC: 0.573073 (Simulation time: 2 hr 20 min 35 sec) 
Heartbeat CPU 0 instructions: 120000000 cycles: 139661303 heartbeat IPC: 0.57844 cumulative IPC: 0.573149 (Simulation time: 2 hr 21 min 39 sec) 
Heartbeat CPU 0 instructions: 121000000 cycles: 141394414 heartbeat IPC: 0.576997 cumulative IPC: 0.573202 (Simulation time: 2 hr 22 min 54 sec) 
Heartbeat CPU 0 instructions: 122000001 cycles: 143127428 heartbeat IPC: 0.57703 cumulative IPC: 0.573255 (Simulation time: 2 hr 23 min 56 sec) 
Heartbeat CPU 0 instructions: 123000000 cycles: 144857623 heartbeat IPC: 0.577969 cumulative IPC: 0.573319 (Simulation time: 2 hr 24 min 49 sec) 
Heartbeat CPU 0 instructions: 124000000 cycles: 146592513 heartbeat IPC: 0.576405 cumulative IPC: 0.573361 (Simulation time: 2 hr 25 min 44 sec) 
Heartbeat CPU 0 instructions: 125000001 cycles: 148328864 heartbeat IPC: 0.575921 cumulative IPC: 0.573395 (Simulation time: 2 hr 26 min 38 sec) 
Heartbeat CPU 0 instructions: 126000000 cycles: 150061866 heartbeat IPC: 0.577033 cumulative IPC: 0.573442 (Simulation time: 2 hr 27 min 33 sec) 
Heartbeat CPU 0 instructions: 127000003 cycles: 151797306 heartbeat IPC: 0.576224 cumulative IPC: 0.573478 (Simulation time: 2 hr 28 min 28 sec) 
Heartbeat CPU 0 instructions: 128000000 cycles: 153537164 heartbeat IPC: 0.574758 cumulative IPC: 0.573495 (Simulation time: 2 hr 29 min 26 sec) 
Heartbeat CPU 0 instructions: 129000000 cycles: 155273171 heartbeat IPC: 0.576035 cumulative IPC: 0.573527 (Simulation time: 2 hr 30 min 20 sec) 
Heartbeat CPU 0 instructions: 130000001 cycles: 157011616 heartbeat IPC: 0.575227 cumulative IPC: 0.573548 (Simulation time: 2 hr 31 min 18 sec) 
Heartbeat CPU 0 instructions: 131000000 cycles: 158749327 heartbeat IPC: 0.575469 cumulative IPC: 0.573572 (Simulation time: 2 hr 32 min 10 sec) 
Heartbeat CPU 0 instructions: 132000000 cycles: 160486582 heartbeat IPC: 0.575621 cumulative IPC: 0.573596 (Simulation time: 2 hr 33 min 4 sec) 
Heartbeat CPU 0 instructions: 133000000 cycles: 162343997 heartbeat IPC: 0.538383 cumulative IPC: 0.573145 (Simulation time: 2 hr 34 min 16 sec) 
Heartbeat CPU 0 instructions: 134000000 cycles: 163856574 heartbeat IPC: 0.661123 cumulative IPC: 0.574054 (Simulation time: 2 hr 35 min 54 sec) 
Heartbeat CPU 0 instructions: 135000000 cycles: 166034494 heartbeat IPC: 0.459154 cumulative IPC: 0.572369 (Simulation time: 2 hr 37 min 11 sec) 
Heartbeat CPU 0 instructions: 136000000 cycles: 168205761 heartbeat IPC: 0.460561 cumulative IPC: 0.570758 (Simulation time: 2 hr 38 min 36 sec) 
Heartbeat CPU 0 instructions: 137000000 cycles: 170381172 heartbeat IPC: 0.459683 cumulative IPC: 0.569177 (Simulation time: 2 hr 39 min 49 sec) 
Heartbeat CPU 0 instructions: 138000000 cycles: 172552465 heartbeat IPC: 0.460555 cumulative IPC: 0.567656 (Simulation time: 2 hr 41 min 2 sec) 
Heartbeat CPU 0 instructions: 139000000 cycles: 174737705 heartbeat IPC: 0.457616 cumulative IPC: 0.566126 (Simulation time: 2 hr 42 min 35 sec) 
Heartbeat CPU 0 instructions: 140000000 cycles: 176907024 heartbeat IPC: 0.460974 cumulative IPC: 0.564695 (Simulation time: 2 hr 44 min 7 sec) 
Heartbeat CPU 0 instructions: 141000000 cycles: 179087496 heartbeat IPC: 0.458616 cumulative IPC: 0.563263 (Simulation time: 2 hr 45 min 22 sec) 
Heartbeat CPU 0 instructions: 142000000 cycles: 181273582 heartbeat IPC: 0.457439 cumulative IPC: 0.56185 (Simulation time: 2 hr 46 min 55 sec) 
Heartbeat CPU 0 instructions: 143000000 cycles: 183440058 heartbeat IPC: 0.461579 cumulative IPC: 0.560541 (Simulation time: 2 hr 48 min 17 sec) 
Heartbeat CPU 0 instructions: 144000000 cycles: 185153430 heartbeat IPC: 0.583644 cumulative IPC: 0.560777 (Simulation time: 2 hr 49 min 12 sec) 
Heartbeat CPU 0 instructions: 145000002 cycles: 186296308 heartbeat IPC: 0.874986 cumulative IPC: 0.562905 (Simulation time: 2 hr 50 min 1 sec) 
Heartbeat CPU 0 instructions: 146000001 cycles: 187986062 heartbeat IPC: 0.591802 cumulative IPC: 0.563191 (Simulation time: 2 hr 51 min 4 sec) 
Heartbeat CPU 0 instructions: 147000000 cycles: 189716683 heartbeat IPC: 0.577827 cumulative IPC: 0.563339 (Simulation time: 2 hr 52 min 4 sec) 
Heartbeat CPU 0 instructions: 148000000 cycles: 191448441 heartbeat IPC: 0.577448 cumulative IPC: 0.563479 (Simulation time: 2 hr 53 min 0 sec) 
Heartbeat CPU 0 instructions: 149000002 cycles: 193180169 heartbeat IPC: 0.577459 cumulative IPC: 0.563617 (Simulation time: 2 hr 53 min 57 sec) 
Heartbeat CPU 0 instructions: 150000000 cycles: 194911304 heartbeat IPC: 0.577655 cumulative IPC: 0.563754 (Simulation time: 2 hr 54 min 49 sec) 
Finished CPU 0 instructions: 100000001 cycles: 177382379 cummulative IPC: 0.563754 (Simulation time: 2 hr 54 min 49 sec) 

ChampSim completed all CPUs

Region of Interest Statistics

CPU 0 cummulative IPC: 0.563754 instructions: 100000001 cycles: 177382379
LLC TOTAL     ACCESS:    5216164  HIT:     314052  MISS:    4902112
LLC LOAD      ACCESS:    1206753  HIT:      63383  MISS:    1143370
LLC RFO       ACCESS:         28  HIT:         13  MISS:         15
LLC PREFETCH  ACCESS:    2260330  HIT:     120543  MISS:    2139787
LLC WRITEBACK ACCESS:    1749053  HIT:     130113  MISS:    1618940
