
*** ChampSim Multicore Out-of-Order Simulator ***

Warmup Instructions: 50000000
Simulation Instructions: 100000000
Configuration: 2
Number of CPUs: 1
LLC sets: 2048
LLC ways: 16
Off-chip DRAM Channels: 1 Width: 64-bit Data Rate: 1600 MT/s

CPU 0 runs /datasets/cs240c-wi22-a00-public/data/Assignment2-gz/milc_409B.trace.gz
CPU 0 L1D next line prefetcher
CPU 0 L2C IP-based stride prefetcher
Heartbeat CPU 0 instructions: 1000002 cycles: 407040 heartbeat IPC: 2.45677 cumulative IPC: 2.45677 (Simulation time: 0 hr 1 min 22 sec) 
Heartbeat CPU 0 instructions: 2000002 cycles: 889868 heartbeat IPC: 2.07113 cumulative IPC: 2.24753 (Simulation time: 0 hr 2 min 56 sec) 
Heartbeat CPU 0 instructions: 3000003 cycles: 1672035 heartbeat IPC: 1.2785 cumulative IPC: 1.79422 (Simulation time: 0 hr 4 min 59 sec) 
Heartbeat CPU 0 instructions: 4000000 cycles: 2454292 heartbeat IPC: 1.27835 cumulative IPC: 1.6298 (Simulation time: 0 hr 6 min 50 sec) 
Heartbeat CPU 0 instructions: 5000000 cycles: 3135412 heartbeat IPC: 1.46817 cumulative IPC: 1.59469 (Simulation time: 0 hr 8 min 30 sec) 
Heartbeat CPU 0 instructions: 6000003 cycles: 3679804 heartbeat IPC: 1.83692 cumulative IPC: 1.63052 (Simulation time: 0 hr 9 min 56 sec) 
Heartbeat CPU 0 instructions: 7000002 cycles: 4224110 heartbeat IPC: 1.8372 cumulative IPC: 1.65715 (Simulation time: 0 hr 11 min 26 sec) 
Heartbeat CPU 0 instructions: 8000000 cycles: 4768518 heartbeat IPC: 1.83685 cumulative IPC: 1.67767 (Simulation time: 0 hr 12 min 55 sec) 
Heartbeat CPU 0 instructions: 9000003 cycles: 5312844 heartbeat IPC: 1.83714 cumulative IPC: 1.69401 (Simulation time: 0 hr 14 min 27 sec) 
Heartbeat CPU 0 instructions: 10000000 cycles: 5857232 heartbeat IPC: 1.83692 cumulative IPC: 1.70729 (Simulation time: 0 hr 15 min 58 sec) 
Heartbeat CPU 0 instructions: 11000002 cycles: 6401582 heartbeat IPC: 1.83706 cumulative IPC: 1.71833 (Simulation time: 0 hr 17 min 24 sec) 
Heartbeat CPU 0 instructions: 12000000 cycles: 6945917 heartbeat IPC: 1.8371 cumulative IPC: 1.72763 (Simulation time: 0 hr 18 min 46 sec) 
Heartbeat CPU 0 instructions: 13000000 cycles: 7490305 heartbeat IPC: 1.83693 cumulative IPC: 1.73558 (Simulation time: 0 hr 20 min 9 sec) 
Heartbeat CPU 0 instructions: 14000002 cycles: 8034670 heartbeat IPC: 1.83701 cumulative IPC: 1.74245 (Simulation time: 0 hr 21 min 32 sec) 
Heartbeat CPU 0 instructions: 15000001 cycles: 8578997 heartbeat IPC: 1.83713 cumulative IPC: 1.74846 (Simulation time: 0 hr 22 min 55 sec) 
Heartbeat CPU 0 instructions: 16000000 cycles: 9123371 heartbeat IPC: 1.83697 cumulative IPC: 1.75374 (Simulation time: 0 hr 24 min 20 sec) 
Heartbeat CPU 0 instructions: 17000002 cycles: 9667737 heartbeat IPC: 1.837 cumulative IPC: 1.75843 (Simulation time: 0 hr 25 min 49 sec) 
Heartbeat CPU 0 instructions: 18000000 cycles: 10212107 heartbeat IPC: 1.83698 cumulative IPC: 1.76261 (Simulation time: 0 hr 27 min 15 sec) 
Heartbeat CPU 0 instructions: 19000003 cycles: 10756427 heartbeat IPC: 1.83716 cumulative IPC: 1.76639 (Simulation time: 0 hr 28 min 44 sec) 
Heartbeat CPU 0 instructions: 20000000 cycles: 11300831 heartbeat IPC: 1.83687 cumulative IPC: 1.76978 (Simulation time: 0 hr 30 min 11 sec) 
Heartbeat CPU 0 instructions: 21000001 cycles: 11845161 heartbeat IPC: 1.83712 cumulative IPC: 1.77288 (Simulation time: 0 hr 31 min 35 sec) 
Heartbeat CPU 0 instructions: 22000003 cycles: 12389528 heartbeat IPC: 1.837 cumulative IPC: 1.77569 (Simulation time: 0 hr 32 min 58 sec) 
Heartbeat CPU 0 instructions: 23000002 cycles: 12933913 heartbeat IPC: 1.83693 cumulative IPC: 1.77827 (Simulation time: 0 hr 34 min 20 sec) 
Heartbeat CPU 0 instructions: 24000000 cycles: 13478220 heartbeat IPC: 1.83719 cumulative IPC: 1.78065 (Simulation time: 0 hr 35 min 48 sec) 
Heartbeat CPU 0 instructions: 25000000 cycles: 14022616 heartbeat IPC: 1.8369 cumulative IPC: 1.78283 (Simulation time: 0 hr 37 min 15 sec) 
Heartbeat CPU 0 instructions: 26000000 cycles: 14566990 heartbeat IPC: 1.83697 cumulative IPC: 1.78486 (Simulation time: 0 hr 38 min 40 sec) 
Heartbeat CPU 0 instructions: 27000002 cycles: 15111312 heartbeat IPC: 1.83715 cumulative IPC: 1.78674 (Simulation time: 0 hr 40 min 14 sec) 
Heartbeat CPU 0 instructions: 28000000 cycles: 15655447 heartbeat IPC: 1.83778 cumulative IPC: 1.78851 (Simulation time: 0 hr 41 min 48 sec) 
Heartbeat CPU 0 instructions: 29000000 cycles: 16196637 heartbeat IPC: 1.84778 cumulative IPC: 1.7905 (Simulation time: 0 hr 43 min 22 sec) 
Heartbeat CPU 0 instructions: 30000000 cycles: 16737802 heartbeat IPC: 1.84787 cumulative IPC: 1.79235 (Simulation time: 0 hr 44 min 47 sec) 
Heartbeat CPU 0 instructions: 31000003 cycles: 17278973 heartbeat IPC: 1.84785 cumulative IPC: 1.79409 (Simulation time: 0 hr 46 min 18 sec) 
Heartbeat CPU 0 instructions: 32000000 cycles: 17820133 heartbeat IPC: 1.84788 cumulative IPC: 1.79572 (Simulation time: 0 hr 47 min 42 sec) 
Heartbeat CPU 0 instructions: 33000000 cycles: 18361311 heartbeat IPC: 1.84782 cumulative IPC: 1.79726 (Simulation time: 0 hr 48 min 57 sec) 
Heartbeat CPU 0 instructions: 34000000 cycles: 18902453 heartbeat IPC: 1.84794 cumulative IPC: 1.79871 (Simulation time: 0 hr 50 min 22 sec) 
Heartbeat CPU 0 instructions: 35000000 cycles: 19443596 heartbeat IPC: 1.84794 cumulative IPC: 1.80008 (Simulation time: 0 hr 51 min 39 sec) 
Heartbeat CPU 0 instructions: 36000000 cycles: 19984730 heartbeat IPC: 1.84797 cumulative IPC: 1.80138 (Simulation time: 0 hr 53 min 4 sec) 
Heartbeat CPU 0 instructions: 37000000 cycles: 20525942 heartbeat IPC: 1.8477 cumulative IPC: 1.8026 (Simulation time: 0 hr 54 min 31 sec) 
Heartbeat CPU 0 instructions: 38000001 cycles: 21067089 heartbeat IPC: 1.84793 cumulative IPC: 1.80376 (Simulation time: 0 hr 55 min 58 sec) 
Heartbeat CPU 0 instructions: 39000001 cycles: 21608245 heartbeat IPC: 1.8479 cumulative IPC: 1.80487 (Simulation time: 0 hr 57 min 34 sec) 
Heartbeat CPU 0 instructions: 40000000 cycles: 22149433 heartbeat IPC: 1.84778 cumulative IPC: 1.80592 (Simulation time: 0 hr 59 min 1 sec) 
Heartbeat CPU 0 instructions: 41000002 cycles: 22690598 heartbeat IPC: 1.84787 cumulative IPC: 1.80692 (Simulation time: 1 hr 0 min 29 sec) 
Heartbeat CPU 0 instructions: 42000001 cycles: 23231759 heartbeat IPC: 1.84788 cumulative IPC: 1.80787 (Simulation time: 1 hr 1 min 51 sec) 
Heartbeat CPU 0 instructions: 43000000 cycles: 23772902 heartbeat IPC: 1.84794 cumulative IPC: 1.80878 (Simulation time: 1 hr 3 min 21 sec) 
Heartbeat CPU 0 instructions: 44000000 cycles: 24314028 heartbeat IPC: 1.848 cumulative IPC: 1.80965 (Simulation time: 1 hr 4 min 43 sec) 
Heartbeat CPU 0 instructions: 45000001 cycles: 24855217 heartbeat IPC: 1.84779 cumulative IPC: 1.81049 (Simulation time: 1 hr 6 min 15 sec) 
Heartbeat CPU 0 instructions: 46000000 cycles: 25396380 heartbeat IPC: 1.84787 cumulative IPC: 1.81128 (Simulation time: 1 hr 7 min 44 sec) 
Heartbeat CPU 0 instructions: 47000002 cycles: 25937547 heartbeat IPC: 1.84786 cumulative IPC: 1.81204 (Simulation time: 1 hr 9 min 13 sec) 
Heartbeat CPU 0 instructions: 48000000 cycles: 26478711 heartbeat IPC: 1.84786 cumulative IPC: 1.81278 (Simulation time: 1 hr 10 min 37 sec) 
Heartbeat CPU 0 instructions: 49000002 cycles: 27019890 heartbeat IPC: 1.84782 cumulative IPC: 1.81348 (Simulation time: 1 hr 12 min 8 sec) 
Heartbeat CPU 0 instructions: 50000001 cycles: 27561033 heartbeat IPC: 1.84794 cumulative IPC: 1.81416 (Simulation time: 1 hr 13 min 35 sec) 

Warmup complete CPU 0 instructions: 50000001 cycles: 27561033 (Simulation time: 1 hr 13 min 35 sec) 

Heartbeat CPU 0 instructions: 51000002 cycles: 29220719 heartbeat IPC: 0.602524 cumulative IPC: 0.602524 (Simulation time: 1 hr 15 min 20 sec) 
Heartbeat CPU 0 instructions: 52000000 cycles: 31076232 heartbeat IPC: 0.538933 cumulative IPC: 0.568958 (Simulation time: 1 hr 17 min 4 sec) 
Heartbeat CPU 0 instructions: 53000001 cycles: 33178513 heartbeat IPC: 0.475674 cumulative IPC: 0.534047 (Simulation time: 1 hr 18 min 55 sec) 
Heartbeat CPU 0 instructions: 54000001 cycles: 35265867 heartbeat IPC: 0.479075 cumulative IPC: 0.519155 (Simulation time: 1 hr 20 min 44 sec) 
Heartbeat CPU 0 instructions: 55000002 cycles: 37432405 heartbeat IPC: 0.461566 cumulative IPC: 0.506515 (Simulation time: 1 hr 22 min 31 sec) 
Heartbeat CPU 0 instructions: 56000000 cycles: 39609276 heartbeat IPC: 0.459374 cumulative IPC: 0.497998 (Simulation time: 1 hr 24 min 21 sec) 
Heartbeat CPU 0 instructions: 57000000 cycles: 41776944 heartbeat IPC: 0.461325 cumulative IPC: 0.492406 (Simulation time: 1 hr 26 min 6 sec) 
Heartbeat CPU 0 instructions: 58000002 cycles: 43859969 heartbeat IPC: 0.480072 cumulative IPC: 0.49083 (Simulation time: 1 hr 27 min 57 sec) 
Heartbeat CPU 0 instructions: 59000001 cycles: 45626472 heartbeat IPC: 0.56609 cumulative IPC: 0.498189 (Simulation time: 1 hr 29 min 33 sec) 
Heartbeat CPU 0 instructions: 60000000 cycles: 47299569 heartbeat IPC: 0.597693 cumulative IPC: 0.506623 (Simulation time: 1 hr 31 min 5 sec) 
Heartbeat CPU 0 instructions: 61000000 cycles: 48966837 heartbeat IPC: 0.599784 cumulative IPC: 0.513879 (Simulation time: 1 hr 32 min 42 sec) 
Heartbeat CPU 0 instructions: 62000000 cycles: 50631216 heartbeat IPC: 0.600825 cumulative IPC: 0.520152 (Simulation time: 1 hr 34 min 16 sec) 
Heartbeat CPU 0 instructions: 63000003 cycles: 52297336 heartbeat IPC: 0.600199 cumulative IPC: 0.525543 (Simulation time: 1 hr 35 min 50 sec) 
Heartbeat CPU 0 instructions: 64000000 cycles: 53956399 heartbeat IPC: 0.602748 cumulative IPC: 0.530396 (Simulation time: 1 hr 37 min 25 sec) 
Heartbeat CPU 0 instructions: 65000002 cycles: 55619816 heartbeat IPC: 0.601173 cumulative IPC: 0.534592 (Simulation time: 1 hr 38 min 56 sec) 
Heartbeat CPU 0 instructions: 66000002 cycles: 57274695 heartbeat IPC: 0.604274 cumulative IPC: 0.538473 (Simulation time: 1 hr 40 min 30 sec) 
Heartbeat CPU 0 instructions: 67000001 cycles: 58931364 heartbeat IPC: 0.60362 cumulative IPC: 0.541913 (Simulation time: 1 hr 42 min 4 sec) 
Heartbeat CPU 0 instructions: 68000000 cycles: 60585550 heartbeat IPC: 0.604526 cumulative IPC: 0.54505 (Simulation time: 1 hr 43 min 35 sec) 
Heartbeat CPU 0 instructions: 69000000 cycles: 62242190 heartbeat IPC: 0.603631 cumulative IPC: 0.547848 (Simulation time: 1 hr 45 min 7 sec) 
Heartbeat CPU 0 instructions: 70000000 cycles: 63905957 heartbeat IPC: 0.601046 cumulative IPC: 0.550283 (Simulation time: 1 hr 46 min 44 sec) 
Heartbeat CPU 0 instructions: 71000002 cycles: 65572139 heartbeat IPC: 0.600176 cumulative IPC: 0.55247 (Simulation time: 1 hr 48 min 16 sec) 
Heartbeat CPU 0 instructions: 72000000 cycles: 67243620 heartbeat IPC: 0.598271 cumulative IPC: 0.554399 (Simulation time: 1 hr 49 min 50 sec) 
Heartbeat CPU 0 instructions: 73000003 cycles: 68910483 heartbeat IPC: 0.599931 cumulative IPC: 0.556235 (Simulation time: 1 hr 51 min 22 sec) 
Heartbeat CPU 0 instructions: 74000002 cycles: 70585138 heartbeat IPC: 0.597137 cumulative IPC: 0.557827 (Simulation time: 1 hr 52 min 54 sec) 
Heartbeat CPU 0 instructions: 75000003 cycles: 72255790 heartbeat IPC: 0.598569 cumulative IPC: 0.55935 (Simulation time: 1 hr 54 min 25 sec) 
Heartbeat CPU 0 instructions: 76000000 cycles: 73926474 heartbeat IPC: 0.598555 cumulative IPC: 0.560762 (Simulation time: 1 hr 55 min 55 sec) 
Heartbeat CPU 0 instructions: 77000003 cycles: 75596161 heartbeat IPC: 0.598916 cumulative IPC: 0.562089 (Simulation time: 1 hr 57 min 23 sec) 
Heartbeat CPU 0 instructions: 78000000 cycles: 77266383 heartbeat IPC: 0.598721 cumulative IPC: 0.56332 (Simulation time: 1 hr 59 min 3 sec) 
Heartbeat CPU 0 instructions: 79000000 cycles: 78935447 heartbeat IPC: 0.599138 cumulative IPC: 0.564483 (Simulation time: 2 hr 0 min 38 sec) 
Heartbeat CPU 0 instructions: 80000000 cycles: 80609398 heartbeat IPC: 0.597389 cumulative IPC: 0.565522 (Simulation time: 2 hr 2 min 7 sec) 
Heartbeat CPU 0 instructions: 81000000 cycles: 82279635 heartbeat IPC: 0.598717 cumulative IPC: 0.566535 (Simulation time: 2 hr 3 min 38 sec) 
Heartbeat CPU 0 instructions: 82000002 cycles: 83949736 heartbeat IPC: 0.598767 cumulative IPC: 0.56749 (Simulation time: 2 hr 5 min 7 sec) 
Heartbeat CPU 0 instructions: 83000003 cycles: 85615979 heartbeat IPC: 0.600153 cumulative IPC: 0.568427 (Simulation time: 2 hr 6 min 39 sec) 
Heartbeat CPU 0 instructions: 84000000 cycles: 87287804 heartbeat IPC: 0.598147 cumulative IPC: 0.569259 (Simulation time: 2 hr 8 min 8 sec) 
Heartbeat CPU 0 instructions: 85000001 cycles: 88956799 heartbeat IPC: 0.599164 cumulative IPC: 0.570072 (Simulation time: 2 hr 9 min 52 sec) 
Heartbeat CPU 0 instructions: 86000002 cycles: 90629414 heartbeat IPC: 0.597867 cumulative IPC: 0.570809 (Simulation time: 2 hr 11 min 23 sec) 
Heartbeat CPU 0 instructions: 87000003 cycles: 92304135 heartbeat IPC: 0.597115 cumulative IPC: 0.57149 (Simulation time: 2 hr 12 min 56 sec) 
Heartbeat CPU 0 instructions: 88000000 cycles: 93978713 heartbeat IPC: 0.597164 cumulative IPC: 0.572137 (Simulation time: 2 hr 14 min 38 sec) 
Heartbeat CPU 0 instructions: 89000001 cycles: 95650676 heartbeat IPC: 0.5981 cumulative IPC: 0.572774 (Simulation time: 2 hr 16 min 4 sec) 
Heartbeat CPU 0 instructions: 90000002 cycles: 97320860 heartbeat IPC: 0.598737 cumulative IPC: 0.573396 (Simulation time: 2 hr 17 min 32 sec) 
Heartbeat CPU 0 instructions: 91000000 cycles: 98990573 heartbeat IPC: 0.598904 cumulative IPC: 0.573992 (Simulation time: 2 hr 18 min 46 sec) 
Heartbeat CPU 0 instructions: 92000000 cycles: 100660398 heartbeat IPC: 0.598865 cumulative IPC: 0.57456 (Simulation time: 2 hr 20 min 7 sec) 
Heartbeat CPU 0 instructions: 93000003 cycles: 102330360 heartbeat IPC: 0.598818 cumulative IPC: 0.575102 (Simulation time: 2 hr 21 min 28 sec) 
Heartbeat CPU 0 instructions: 94000002 cycles: 103994885 heartbeat IPC: 0.600771 cumulative IPC: 0.575661 (Simulation time: 2 hr 22 min 55 sec) 
Heartbeat CPU 0 instructions: 95000003 cycles: 105667550 heartbeat IPC: 0.597849 cumulative IPC: 0.576136 (Simulation time: 2 hr 24 min 11 sec) 
Heartbeat CPU 0 instructions: 96000000 cycles: 107337815 heartbeat IPC: 0.598706 cumulative IPC: 0.576609 (Simulation time: 2 hr 25 min 31 sec) 
Heartbeat CPU 0 instructions: 97000001 cycles: 109014967 heartbeat IPC: 0.596249 cumulative IPC: 0.577013 (Simulation time: 2 hr 26 min 44 sec) 
Heartbeat CPU 0 instructions: 98000002 cycles: 110684175 heartbeat IPC: 0.599087 cumulative IPC: 0.577457 (Simulation time: 2 hr 27 min 58 sec) 
Heartbeat CPU 0 instructions: 99000003 cycles: 112353733 heartbeat IPC: 0.598962 cumulative IPC: 0.57788 (Simulation time: 2 hr 29 min 12 sec) 
Heartbeat CPU 0 instructions: 100000000 cycles: 114021162 heartbeat IPC: 0.599724 cumulative IPC: 0.578301 (Simulation time: 2 hr 30 min 25 sec) 
Heartbeat CPU 0 instructions: 101000001 cycles: 115689854 heartbeat IPC: 0.599272 cumulative IPC: 0.578698 (Simulation time: 2 hr 31 min 43 sec) 
Heartbeat CPU 0 instructions: 102000002 cycles: 117357019 heartbeat IPC: 0.599821 cumulative IPC: 0.57909 (Simulation time: 2 hr 32 min 59 sec) 
Heartbeat CPU 0 instructions: 103000000 cycles: 119027363 heartbeat IPC: 0.598678 cumulative IPC: 0.579448 (Simulation time: 2 hr 34 min 27 sec) 
Heartbeat CPU 0 instructions: 104000000 cycles: 120695196 heartbeat IPC: 0.59958 cumulative IPC: 0.579809 (Simulation time: 2 hr 35 min 42 sec) 
Heartbeat CPU 0 instructions: 105000003 cycles: 122577612 heartbeat IPC: 0.531234 cumulative IPC: 0.578846 (Simulation time: 2 hr 37 min 1 sec) 
Heartbeat CPU 0 instructions: 106000003 cycles: 126975217 heartbeat IPC: 0.227397 cumulative IPC: 0.5633 (Simulation time: 2 hr 39 min 1 sec) 
Heartbeat CPU 0 instructions: 107000000 cycles: 128757569 heartbeat IPC: 0.561055 cumulative IPC: 0.56326 (Simulation time: 2 hr 40 min 11 sec) 
Heartbeat CPU 0 instructions: 108000000 cycles: 130554050 heartbeat IPC: 0.556644 cumulative IPC: 0.563145 (Simulation time: 2 hr 41 min 10 sec) 
Heartbeat CPU 0 instructions: 109000001 cycles: 132350376 heartbeat IPC: 0.556692 cumulative IPC: 0.563034 (Simulation time: 2 hr 42 min 19 sec) 
Heartbeat CPU 0 instructions: 110000001 cycles: 134129438 heartbeat IPC: 0.562094 cumulative IPC: 0.563019 (Simulation time: 2 hr 43 min 18 sec) 
Heartbeat CPU 0 instructions: 111000000 cycles: 135901676 heartbeat IPC: 0.564258 cumulative IPC: 0.563039 (Simulation time: 2 hr 44 min 18 sec) 
Heartbeat CPU 0 instructions: 112000000 cycles: 137674991 heartbeat IPC: 0.563916 cumulative IPC: 0.563053 (Simulation time: 2 hr 45 min 16 sec) 
Heartbeat CPU 0 instructions: 113000003 cycles: 139449999 heartbeat IPC: 0.563379 cumulative IPC: 0.563058 (Simulation time: 2 hr 46 min 26 sec) 
Heartbeat CPU 0 instructions: 114000003 cycles: 141223614 heartbeat IPC: 0.56382 cumulative IPC: 0.56307 (Simulation time: 2 hr 47 min 27 sec) 
Heartbeat CPU 0 instructions: 115000001 cycles: 142997440 heartbeat IPC: 0.563752 cumulative IPC: 0.563081 (Simulation time: 2 hr 48 min 27 sec) 
Heartbeat CPU 0 instructions: 116000000 cycles: 144772104 heartbeat IPC: 0.563486 cumulative IPC: 0.563087 (Simulation time: 2 hr 49 min 28 sec) 
Heartbeat CPU 0 instructions: 117000001 cycles: 146545263 heartbeat IPC: 0.563966 cumulative IPC: 0.5631 (Simulation time: 2 hr 50 min 31 sec) 
Heartbeat CPU 0 instructions: 118000003 cycles: 148320210 heartbeat IPC: 0.563398 cumulative IPC: 0.563104 (Simulation time: 2 hr 51 min 41 sec) 
Heartbeat CPU 0 instructions: 119000001 cycles: 150087982 heartbeat IPC: 0.565683 cumulative IPC: 0.563141 (Simulation time: 2 hr 52 min 55 sec) 
Heartbeat CPU 0 instructions: 120000000 cycles: 151855922 heartbeat IPC: 0.565629 cumulative IPC: 0.563177 (Simulation time: 2 hr 53 min 54 sec) 
Heartbeat CPU 0 instructions: 121000003 cycles: 153626130 heartbeat IPC: 0.564907 cumulative IPC: 0.563201 (Simulation time: 2 hr 55 min 5 sec) 
Heartbeat CPU 0 instructions: 122000001 cycles: 155398522 heartbeat IPC: 0.564208 cumulative IPC: 0.563215 (Simulation time: 2 hr 56 min 19 sec) 
Heartbeat CPU 0 instructions: 123000003 cycles: 157173037 heartbeat IPC: 0.563535 cumulative IPC: 0.563219 (Simulation time: 2 hr 57 min 32 sec) 
Heartbeat CPU 0 instructions: 124000000 cycles: 158946893 heartbeat IPC: 0.563742 cumulative IPC: 0.563227 (Simulation time: 2 hr 58 min 47 sec) 
Heartbeat CPU 0 instructions: 125000003 cycles: 160717822 heartbeat IPC: 0.564677 cumulative IPC: 0.563246 (Simulation time: 3 hr 0 min 1 sec) 
Heartbeat CPU 0 instructions: 126000000 cycles: 162490059 heartbeat IPC: 0.564257 cumulative IPC: 0.563259 (Simulation time: 3 hr 1 min 25 sec) 
Heartbeat CPU 0 instructions: 127000001 cycles: 164266974 heartbeat IPC: 0.562774 cumulative IPC: 0.563253 (Simulation time: 3 hr 4 min 7 sec) 
Heartbeat CPU 0 instructions: 128000000 cycles: 166040563 heartbeat IPC: 0.563828 cumulative IPC: 0.56326 (Simulation time: 3 hr 6 min 42 sec) 
Heartbeat CPU 0 instructions: 129000001 cycles: 167817225 heartbeat IPC: 0.562854 cumulative IPC: 0.563255 (Simulation time: 3 hr 9 min 27 sec) 
Heartbeat CPU 0 instructions: 130000000 cycles: 169587139 heartbeat IPC: 0.564999 cumulative IPC: 0.563277 (Simulation time: 3 hr 12 min 7 sec) 
Heartbeat CPU 0 instructions: 131000001 cycles: 171349329 heartbeat IPC: 0.567476 cumulative IPC: 0.563328 (Simulation time: 3 hr 14 min 41 sec) 
Heartbeat CPU 0 instructions: 132000000 cycles: 173102583 heartbeat IPC: 0.570367 cumulative IPC: 0.563413 (Simulation time: 3 hr 17 min 20 sec) 
Heartbeat CPU 0 instructions: 133000003 cycles: 174850007 heartbeat IPC: 0.572273 cumulative IPC: 0.563518 (Simulation time: 3 hr 19 min 48 sec) 
Heartbeat CPU 0 instructions: 134000001 cycles: 176584584 heartbeat IPC: 0.576508 cumulative IPC: 0.563669 (Simulation time: 3 hr 22 min 23 sec) 
Heartbeat CPU 0 instructions: 135000003 cycles: 178314626 heartbeat IPC: 0.578022 cumulative IPC: 0.563834 (Simulation time: 3 hr 24 min 48 sec) 
Heartbeat CPU 0 instructions: 136000000 cycles: 180039247 heartbeat IPC: 0.579836 cumulative IPC: 0.564015 (Simulation time: 3 hr 27 min 16 sec) 
Heartbeat CPU 0 instructions: 137000001 cycles: 181171811 heartbeat IPC: 0.882953 cumulative IPC: 0.566366 (Simulation time: 3 hr 29 min 46 sec) 
Heartbeat CPU 0 instructions: 138000000 cycles: 182753921 heartbeat IPC: 0.632067 cumulative IPC: 0.567036 (Simulation time: 3 hr 32 min 39 sec) 
Heartbeat CPU 0 instructions: 139000002 cycles: 185612069 heartbeat IPC: 0.349878 cumulative IPC: 0.563109 (Simulation time: 3 hr 36 min 28 sec) 
Heartbeat CPU 0 instructions: 140000000 cycles: 188566456 heartbeat IPC: 0.338479 cumulative IPC: 0.558987 (Simulation time: 3 hr 40 min 32 sec) 
Heartbeat CPU 0 instructions: 141000003 cycles: 192134415 heartbeat IPC: 0.280273 cumulative IPC: 0.552945 (Simulation time: 3 hr 45 min 0 sec) 
Heartbeat CPU 0 instructions: 142000003 cycles: 194345728 heartbeat IPC: 0.45222 cumulative IPC: 0.551609 (Simulation time: 3 hr 47 min 55 sec) 
Heartbeat CPU 0 instructions: 143000001 cycles: 196171300 heartbeat IPC: 0.547772 cumulative IPC: 0.551568 (Simulation time: 3 hr 50 min 14 sec) 
Heartbeat CPU 0 instructions: 144000000 cycles: 197986222 heartbeat IPC: 0.550987 cumulative IPC: 0.551562 (Simulation time: 3 hr 52 min 33 sec) 
Heartbeat CPU 0 instructions: 145000001 cycles: 199802808 heartbeat IPC: 0.550484 cumulative IPC: 0.55155 (Simulation time: 3 hr 54 min 53 sec) 
Heartbeat CPU 0 instructions: 146000003 cycles: 201621355 heartbeat IPC: 0.549891 cumulative IPC: 0.551533 (Simulation time: 3 hr 57 min 12 sec) 
Heartbeat CPU 0 instructions: 147000003 cycles: 203434257 heartbeat IPC: 0.551602 cumulative IPC: 0.551534 (Simulation time: 3 hr 59 min 29 sec) 
Heartbeat CPU 0 instructions: 148000000 cycles: 205252086 heartbeat IPC: 0.550105 cumulative IPC: 0.551519 (Simulation time: 4 hr 1 min 52 sec) 
Heartbeat CPU 0 instructions: 149000003 cycles: 207062438 heartbeat IPC: 0.55238 cumulative IPC: 0.551528 (Simulation time: 4 hr 4 min 10 sec) 
Heartbeat CPU 0 instructions: 150000003 cycles: 208877920 heartbeat IPC: 0.550818 cumulative IPC: 0.551521 (Simulation time: 4 hr 6 min 31 sec) 
Finished CPU 0 instructions: 100000002 cycles: 181316887 cummulative IPC: 0.551521 (Simulation time: 4 hr 6 min 31 sec) 

ChampSim completed all CPUs

Region of Interest Statistics

CPU 0 cummulative IPC: 0.551521 instructions: 100000002 cycles: 181316887
LLC TOTAL     ACCESS:    3965671  HIT:     630134  MISS:    3335537
LLC LOAD      ACCESS:    1061092  HIT:       8849  MISS:    1052243
LLC RFO       ACCESS:     534380  HIT:      39745  MISS:     494635
LLC PREFETCH  ACCESS:    1387458  HIT:      34904  MISS:    1352554
LLC WRITEBACK ACCESS:     982741  HIT:     546636  MISS:     436105
