
*** ChampSim Multicore Out-of-Order Simulator ***

Warmup Instructions: 50000000
Simulation Instructions: 100000000
Configuration: 2
Number of CPUs: 1
LLC sets: 2048
LLC ways: 16
Off-chip DRAM Channels: 1 Width: 64-bit Data Rate: 1600 MT/s

CPU 0 runs /datasets/cs240c-wi22-a00-public/data/Assignment2-gz/lbm_564B.trace.gz
CPU 0 L1D next line prefetcher
CPU 0 L2C IP-based stride prefetcher
Heartbeat CPU 0 instructions: 1000000 cycles: 390168 heartbeat IPC: 2.563 cumulative IPC: 2.563 (Simulation time: 0 hr 1 min 17 sec) 
Heartbeat CPU 0 instructions: 2000003 cycles: 785204 heartbeat IPC: 2.53142 cumulative IPC: 2.54711 (Simulation time: 0 hr 2 min 42 sec) 
Heartbeat CPU 0 instructions: 3000002 cycles: 1175399 heartbeat IPC: 2.56282 cumulative IPC: 2.55233 (Simulation time: 0 hr 4 min 5 sec) 
Heartbeat CPU 0 instructions: 4000000 cycles: 1565586 heartbeat IPC: 2.56287 cumulative IPC: 2.55495 (Simulation time: 0 hr 5 min 21 sec) 
Heartbeat CPU 0 instructions: 5000000 cycles: 1960691 heartbeat IPC: 2.53097 cumulative IPC: 2.55012 (Simulation time: 0 hr 6 min 35 sec) 
Heartbeat CPU 0 instructions: 6000002 cycles: 2350841 heartbeat IPC: 2.56312 cumulative IPC: 2.55228 (Simulation time: 0 hr 7 min 48 sec) 
Heartbeat CPU 0 instructions: 7000001 cycles: 2741105 heartbeat IPC: 2.56237 cumulative IPC: 2.55371 (Simulation time: 0 hr 9 min 3 sec) 
Heartbeat CPU 0 instructions: 8000000 cycles: 3136115 heartbeat IPC: 2.53158 cumulative IPC: 2.55093 (Simulation time: 0 hr 10 min 22 sec) 
Heartbeat CPU 0 instructions: 9000000 cycles: 3526359 heartbeat IPC: 2.5625 cumulative IPC: 2.55221 (Simulation time: 0 hr 11 min 36 sec) 
Heartbeat CPU 0 instructions: 10000002 cycles: 3916508 heartbeat IPC: 2.56313 cumulative IPC: 2.5533 (Simulation time: 0 hr 12 min 51 sec) 
Heartbeat CPU 0 instructions: 11000000 cycles: 4306753 heartbeat IPC: 2.56249 cumulative IPC: 2.55413 (Simulation time: 0 hr 14 min 10 sec) 
Heartbeat CPU 0 instructions: 12000000 cycles: 4701740 heartbeat IPC: 2.53173 cumulative IPC: 2.55225 (Simulation time: 0 hr 15 min 25 sec) 
Heartbeat CPU 0 instructions: 13000001 cycles: 5091978 heartbeat IPC: 2.56254 cumulative IPC: 2.55304 (Simulation time: 0 hr 16 min 39 sec) 
Heartbeat CPU 0 instructions: 14000003 cycles: 5482166 heartbeat IPC: 2.56287 cumulative IPC: 2.55374 (Simulation time: 0 hr 17 min 54 sec) 
Heartbeat CPU 0 instructions: 15000000 cycles: 5877231 heartbeat IPC: 2.53122 cumulative IPC: 2.55222 (Simulation time: 0 hr 19 min 10 sec) 
Heartbeat CPU 0 instructions: 16000000 cycles: 6267445 heartbeat IPC: 2.5627 cumulative IPC: 2.55287 (Simulation time: 0 hr 20 min 26 sec) 
Heartbeat CPU 0 instructions: 17000000 cycles: 6657645 heartbeat IPC: 2.56279 cumulative IPC: 2.55346 (Simulation time: 0 hr 21 min 40 sec) 
Heartbeat CPU 0 instructions: 18000000 cycles: 7052735 heartbeat IPC: 2.53107 cumulative IPC: 2.5522 (Simulation time: 0 hr 22 min 54 sec) 
Heartbeat CPU 0 instructions: 19000001 cycles: 7442914 heartbeat IPC: 2.56293 cumulative IPC: 2.55276 (Simulation time: 0 hr 24 min 7 sec) 
Heartbeat CPU 0 instructions: 20000000 cycles: 7833111 heartbeat IPC: 2.56281 cumulative IPC: 2.55326 (Simulation time: 0 hr 25 min 23 sec) 
Heartbeat CPU 0 instructions: 21000003 cycles: 8223309 heartbeat IPC: 2.56281 cumulative IPC: 2.55372 (Simulation time: 0 hr 26 min 37 sec) 
Heartbeat CPU 0 instructions: 22000002 cycles: 8687322 heartbeat IPC: 2.15511 cumulative IPC: 2.53243 (Simulation time: 0 hr 28 min 9 sec) 
Heartbeat CPU 0 instructions: 23000003 cycles: 9180550 heartbeat IPC: 2.02746 cumulative IPC: 2.5053 (Simulation time: 0 hr 29 min 37 sec) 
Heartbeat CPU 0 instructions: 24000000 cycles: 10024561 heartbeat IPC: 1.18482 cumulative IPC: 2.39412 (Simulation time: 0 hr 31 min 45 sec) 
Heartbeat CPU 0 instructions: 25000003 cycles: 10553225 heartbeat IPC: 1.89157 cumulative IPC: 2.36894 (Simulation time: 0 hr 33 min 20 sec) 
Heartbeat CPU 0 instructions: 26000002 cycles: 11043575 heartbeat IPC: 2.03936 cumulative IPC: 2.35431 (Simulation time: 0 hr 34 min 55 sec) 
Heartbeat CPU 0 instructions: 27000001 cycles: 11433857 heartbeat IPC: 2.56225 cumulative IPC: 2.36141 (Simulation time: 0 hr 36 min 15 sec) 
Heartbeat CPU 0 instructions: 28000000 cycles: 11824206 heartbeat IPC: 2.56181 cumulative IPC: 2.36802 (Simulation time: 0 hr 37 min 39 sec) 
Heartbeat CPU 0 instructions: 29000002 cycles: 12214511 heartbeat IPC: 2.5621 cumulative IPC: 2.37423 (Simulation time: 0 hr 38 min 58 sec) 
Heartbeat CPU 0 instructions: 30000000 cycles: 12609637 heartbeat IPC: 2.53083 cumulative IPC: 2.37913 (Simulation time: 0 hr 40 min 12 sec) 
Heartbeat CPU 0 instructions: 31000000 cycles: 12999955 heartbeat IPC: 2.56201 cumulative IPC: 2.38462 (Simulation time: 0 hr 41 min 29 sec) 
Heartbeat CPU 0 instructions: 32000000 cycles: 13390303 heartbeat IPC: 2.56182 cumulative IPC: 2.38979 (Simulation time: 0 hr 42 min 48 sec) 
Heartbeat CPU 0 instructions: 33000001 cycles: 13785453 heartbeat IPC: 2.53069 cumulative IPC: 2.39383 (Simulation time: 0 hr 44 min 4 sec) 
Heartbeat CPU 0 instructions: 34000001 cycles: 14175679 heartbeat IPC: 2.56262 cumulative IPC: 2.39847 (Simulation time: 0 hr 45 min 19 sec) 
Heartbeat CPU 0 instructions: 35000002 cycles: 14566051 heartbeat IPC: 2.56166 cumulative IPC: 2.40285 (Simulation time: 0 hr 46 min 33 sec) 
Heartbeat CPU 0 instructions: 36000000 cycles: 14956325 heartbeat IPC: 2.5623 cumulative IPC: 2.40701 (Simulation time: 0 hr 47 min 43 sec) 
Heartbeat CPU 0 instructions: 37000003 cycles: 15351429 heartbeat IPC: 2.53099 cumulative IPC: 2.4102 (Simulation time: 0 hr 48 min 52 sec) 
Heartbeat CPU 0 instructions: 38000003 cycles: 15741731 heartbeat IPC: 2.56212 cumulative IPC: 2.41397 (Simulation time: 0 hr 50 min 2 sec) 
Heartbeat CPU 0 instructions: 39000002 cycles: 16132096 heartbeat IPC: 2.5617 cumulative IPC: 2.41754 (Simulation time: 0 hr 51 min 13 sec) 
Heartbeat CPU 0 instructions: 40000000 cycles: 16527133 heartbeat IPC: 2.5314 cumulative IPC: 2.42026 (Simulation time: 0 hr 52 min 19 sec) 
Heartbeat CPU 0 instructions: 41000000 cycles: 16917437 heartbeat IPC: 2.56211 cumulative IPC: 2.42353 (Simulation time: 0 hr 53 min 36 sec) 
Heartbeat CPU 0 instructions: 42000002 cycles: 17307793 heartbeat IPC: 2.56177 cumulative IPC: 2.42665 (Simulation time: 0 hr 54 min 48 sec) 
Heartbeat CPU 0 instructions: 43000001 cycles: 17702911 heartbeat IPC: 2.53089 cumulative IPC: 2.42898 (Simulation time: 0 hr 56 min 12 sec) 
Heartbeat CPU 0 instructions: 44000000 cycles: 18093200 heartbeat IPC: 2.5622 cumulative IPC: 2.43185 (Simulation time: 0 hr 57 min 34 sec) 
Heartbeat CPU 0 instructions: 45000001 cycles: 18483548 heartbeat IPC: 2.56182 cumulative IPC: 2.4346 (Simulation time: 0 hr 58 min 51 sec) 
Heartbeat CPU 0 instructions: 46000002 cycles: 18873861 heartbeat IPC: 2.56205 cumulative IPC: 2.43723 (Simulation time: 1 hr 0 min 8 sec) 
Heartbeat CPU 0 instructions: 47000002 cycles: 19268904 heartbeat IPC: 2.53137 cumulative IPC: 2.43916 (Simulation time: 1 hr 1 min 22 sec) 
Heartbeat CPU 0 instructions: 48000000 cycles: 19659230 heartbeat IPC: 2.56196 cumulative IPC: 2.4416 (Simulation time: 1 hr 2 min 44 sec) 
Heartbeat CPU 0 instructions: 49000003 cycles: 20049568 heartbeat IPC: 2.56189 cumulative IPC: 2.44394 (Simulation time: 1 hr 3 min 57 sec) 
Heartbeat CPU 0 instructions: 50000002 cycles: 20444693 heartbeat IPC: 2.53084 cumulative IPC: 2.44562 (Simulation time: 1 hr 5 min 13 sec) 

Warmup complete CPU 0 instructions: 50000002 cycles: 20444693 (Simulation time: 1 hr 5 min 13 sec) 

Heartbeat CPU 0 instructions: 51000002 cycles: 21908884 heartbeat IPC: 0.682971 cumulative IPC: 0.682971 (Simulation time: 1 hr 6 min 45 sec) 
Heartbeat CPU 0 instructions: 52000000 cycles: 23408287 heartbeat IPC: 0.666931 cumulative IPC: 0.674856 (Simulation time: 1 hr 8 min 17 sec) 
Heartbeat CPU 0 instructions: 53000001 cycles: 24911345 heartbeat IPC: 0.665311 cumulative IPC: 0.671644 (Simulation time: 1 hr 9 min 49 sec) 
Heartbeat CPU 0 instructions: 54000001 cycles: 26453095 heartbeat IPC: 0.648614 cumulative IPC: 0.665734 (Simulation time: 1 hr 11 min 22 sec) 
Heartbeat CPU 0 instructions: 55000003 cycles: 27941808 heartbeat IPC: 0.671722 cumulative IPC: 0.666923 (Simulation time: 1 hr 12 min 55 sec) 
Heartbeat CPU 0 instructions: 56000000 cycles: 29444796 heartbeat IPC: 0.665339 cumulative IPC: 0.666659 (Simulation time: 1 hr 14 min 23 sec) 
Heartbeat CPU 0 instructions: 57000001 cycles: 30973267 heartbeat IPC: 0.654249 cumulative IPC: 0.664857 (Simulation time: 1 hr 16 min 0 sec) 
Heartbeat CPU 0 instructions: 58000002 cycles: 32497047 heartbeat IPC: 0.656263 cumulative IPC: 0.663771 (Simulation time: 1 hr 17 min 37 sec) 
Heartbeat CPU 0 instructions: 59000001 cycles: 33979537 heartbeat IPC: 0.67454 cumulative IPC: 0.66495 (Simulation time: 1 hr 19 min 13 sec) 
Heartbeat CPU 0 instructions: 60000000 cycles: 35517175 heartbeat IPC: 0.650347 cumulative IPC: 0.663461 (Simulation time: 1 hr 20 min 46 sec) 
Heartbeat CPU 0 instructions: 61000003 cycles: 37100592 heartbeat IPC: 0.631547 cumulative IPC: 0.660427 (Simulation time: 1 hr 22 min 21 sec) 
Heartbeat CPU 0 instructions: 62000003 cycles: 38601012 heartbeat IPC: 0.66648 cumulative IPC: 0.660927 (Simulation time: 1 hr 23 min 53 sec) 
Heartbeat CPU 0 instructions: 63000000 cycles: 40146577 heartbeat IPC: 0.647011 cumulative IPC: 0.659835 (Simulation time: 1 hr 25 min 28 sec) 
Heartbeat CPU 0 instructions: 64000000 cycles: 41713722 heartbeat IPC: 0.638103 cumulative IPC: 0.658234 (Simulation time: 1 hr 27 min 6 sec) 
Heartbeat CPU 0 instructions: 65000003 cycles: 43237933 heartbeat IPC: 0.656079 cumulative IPC: 0.65809 (Simulation time: 1 hr 28 min 38 sec) 
Heartbeat CPU 0 instructions: 66000001 cycles: 44737767 heartbeat IPC: 0.666739 cumulative IPC: 0.658624 (Simulation time: 1 hr 30 min 12 sec) 
Heartbeat CPU 0 instructions: 67000001 cycles: 46322707 heartbeat IPC: 0.630939 cumulative IPC: 0.656928 (Simulation time: 1 hr 31 min 48 sec) 
Heartbeat CPU 0 instructions: 68000000 cycles: 47939456 heartbeat IPC: 0.618525 cumulative IPC: 0.65467 (Simulation time: 1 hr 33 min 19 sec) 
Heartbeat CPU 0 instructions: 69000003 cycles: 49433477 heartbeat IPC: 0.669337 cumulative IPC: 0.655426 (Simulation time: 1 hr 34 min 51 sec) 
Heartbeat CPU 0 instructions: 70000003 cycles: 50982495 heartbeat IPC: 0.64557 cumulative IPC: 0.654926 (Simulation time: 1 hr 36 min 29 sec) 
Heartbeat CPU 0 instructions: 71000000 cycles: 52633502 heartbeat IPC: 0.605689 cumulative IPC: 0.652401 (Simulation time: 1 hr 38 min 8 sec) 
Heartbeat CPU 0 instructions: 72000000 cycles: 54124619 heartbeat IPC: 0.670638 cumulative IPC: 0.653208 (Simulation time: 1 hr 39 min 36 sec) 
Heartbeat CPU 0 instructions: 73000003 cycles: 55656508 heartbeat IPC: 0.652791 cumulative IPC: 0.65319 (Simulation time: 1 hr 41 min 5 sec) 
Heartbeat CPU 0 instructions: 74000002 cycles: 57348107 heartbeat IPC: 0.591156 cumulative IPC: 0.650346 (Simulation time: 1 hr 42 min 41 sec) 
Heartbeat CPU 0 instructions: 75000002 cycles: 58849858 heartbeat IPC: 0.665889 cumulative IPC: 0.650954 (Simulation time: 1 hr 44 min 18 sec) 
Heartbeat CPU 0 instructions: 76000000 cycles: 60408358 heartbeat IPC: 0.641641 cumulative IPC: 0.650591 (Simulation time: 1 hr 45 min 49 sec) 
Heartbeat CPU 0 instructions: 77000001 cycles: 62135488 heartbeat IPC: 0.578996 cumulative IPC: 0.647625 (Simulation time: 1 hr 47 min 31 sec) 
Heartbeat CPU 0 instructions: 78000002 cycles: 63646538 heartbeat IPC: 0.661792 cumulative IPC: 0.64812 (Simulation time: 1 hr 49 min 1 sec) 
Heartbeat CPU 0 instructions: 79000000 cycles: 65183298 heartbeat IPC: 0.650718 cumulative IPC: 0.64821 (Simulation time: 1 hr 50 min 36 sec) 
Heartbeat CPU 0 instructions: 80000000 cycles: 66898717 heartbeat IPC: 0.582948 cumulative IPC: 0.6458 (Simulation time: 1 hr 52 min 13 sec) 
Heartbeat CPU 0 instructions: 81000003 cycles: 68426489 heartbeat IPC: 0.65455 cumulative IPC: 0.646078 (Simulation time: 1 hr 53 min 46 sec) 
Heartbeat CPU 0 instructions: 82000001 cycles: 69983649 heartbeat IPC: 0.642193 cumulative IPC: 0.645956 (Simulation time: 1 hr 55 min 19 sec) 
Heartbeat CPU 0 instructions: 83000001 cycles: 71680550 heartbeat IPC: 0.58931 cumulative IPC: 0.64408 (Simulation time: 1 hr 56 min 50 sec) 
Heartbeat CPU 0 instructions: 84000000 cycles: 73256857 heartbeat IPC: 0.634394 cumulative IPC: 0.643791 (Simulation time: 1 hr 58 min 23 sec) 
Heartbeat CPU 0 instructions: 85000002 cycles: 74747607 heartbeat IPC: 0.670805 cumulative IPC: 0.644533 (Simulation time: 1 hr 59 min 56 sec) 
Heartbeat CPU 0 instructions: 86000001 cycles: 76482670 heartbeat IPC: 0.576347 cumulative IPC: 0.642421 (Simulation time: 2 hr 1 min 30 sec) 
Heartbeat CPU 0 instructions: 87000003 cycles: 78092603 heartbeat IPC: 0.621145 cumulative IPC: 0.641827 (Simulation time: 2 hr 2 min 59 sec) 
Heartbeat CPU 0 instructions: 88000000 cycles: 79575578 heartbeat IPC: 0.674318 cumulative IPC: 0.642642 (Simulation time: 2 hr 4 min 23 sec) 
Heartbeat CPU 0 instructions: 89000003 cycles: 81292874 heartbeat IPC: 0.582313 cumulative IPC: 0.640939 (Simulation time: 2 hr 5 min 42 sec) 
Heartbeat CPU 0 instructions: 90000001 cycles: 82928440 heartbeat IPC: 0.611408 cumulative IPC: 0.640166 (Simulation time: 2 hr 7 min 4 sec) 
Heartbeat CPU 0 instructions: 91000000 cycles: 84405937 heartbeat IPC: 0.67682 cumulative IPC: 0.641013 (Simulation time: 2 hr 8 min 11 sec) 
Heartbeat CPU 0 instructions: 92000000 cycles: 86113705 heartbeat IPC: 0.58556 cumulative IPC: 0.639571 (Simulation time: 2 hr 9 min 26 sec) 
Heartbeat CPU 0 instructions: 93000003 cycles: 87773613 heartbeat IPC: 0.602445 cumulative IPC: 0.638656 (Simulation time: 2 hr 11 min 1 sec) 
Heartbeat CPU 0 instructions: 94000002 cycles: 89246152 heartbeat IPC: 0.679098 cumulative IPC: 0.639521 (Simulation time: 2 hr 12 min 39 sec) 
Heartbeat CPU 0 instructions: 95000001 cycles: 90953806 heartbeat IPC: 0.585598 cumulative IPC: 0.638215 (Simulation time: 2 hr 14 min 27 sec) 
Heartbeat CPU 0 instructions: 96000000 cycles: 92632334 heartbeat IPC: 0.59576 cumulative IPC: 0.637228 (Simulation time: 2 hr 16 min 7 sec) 
Heartbeat CPU 0 instructions: 97000002 cycles: 94134490 heartbeat IPC: 0.665711 cumulative IPC: 0.637809 (Simulation time: 2 hr 17 min 38 sec) 
Heartbeat CPU 0 instructions: 98000000 cycles: 95872533 heartbeat IPC: 0.575359 cumulative IPC: 0.63637 (Simulation time: 2 hr 18 min 54 sec) 
Heartbeat CPU 0 instructions: 99000001 cycles: 97535078 heartbeat IPC: 0.601488 cumulative IPC: 0.635617 (Simulation time: 2 hr 20 min 5 sec) 
Heartbeat CPU 0 instructions: 100000000 cycles: 99017820 heartbeat IPC: 0.674425 cumulative IPC: 0.63635 (Simulation time: 2 hr 21 min 28 sec) 
Heartbeat CPU 0 instructions: 101000002 cycles: 100787276 heartbeat IPC: 0.565147 cumulative IPC: 0.634782 (Simulation time: 2 hr 22 min 40 sec) 
Heartbeat CPU 0 instructions: 102000002 cycles: 102450337 heartbeat IPC: 0.601301 cumulative IPC: 0.634103 (Simulation time: 2 hr 23 min 56 sec) 
Heartbeat CPU 0 instructions: 103000001 cycles: 103944898 heartbeat IPC: 0.669092 cumulative IPC: 0.634729 (Simulation time: 2 hr 25 min 35 sec) 
Heartbeat CPU 0 instructions: 104000000 cycles: 105717646 heartbeat IPC: 0.564095 cumulative IPC: 0.633261 (Simulation time: 2 hr 26 min 58 sec) 
Heartbeat CPU 0 instructions: 105000001 cycles: 107372375 heartbeat IPC: 0.604329 cumulative IPC: 0.63271 (Simulation time: 2 hr 28 min 42 sec) 
Heartbeat CPU 0 instructions: 106000001 cycles: 108860031 heartbeat IPC: 0.672198 cumulative IPC: 0.633374 (Simulation time: 2 hr 29 min 58 sec) 
Heartbeat CPU 0 instructions: 107000001 cycles: 110649565 heartbeat IPC: 0.558805 cumulative IPC: 0.631895 (Simulation time: 2 hr 31 min 11 sec) 
Heartbeat CPU 0 instructions: 108000000 cycles: 112287057 heartbeat IPC: 0.610689 cumulative IPC: 0.631517 (Simulation time: 2 hr 32 min 25 sec) 
Heartbeat CPU 0 instructions: 109000003 cycles: 113759963 heartbeat IPC: 0.678932 cumulative IPC: 0.632265 (Simulation time: 2 hr 33 min 56 sec) 
Heartbeat CPU 0 instructions: 110000001 cycles: 115590975 heartbeat IPC: 0.546145 cumulative IPC: 0.630608 (Simulation time: 2 hr 35 min 16 sec) 
Heartbeat CPU 0 instructions: 111000002 cycles: 117188730 heartbeat IPC: 0.625879 cumulative IPC: 0.63053 (Simulation time: 2 hr 36 min 51 sec) 
Heartbeat CPU 0 instructions: 112000000 cycles: 118725695 heartbeat IPC: 0.650632 cumulative IPC: 0.630844 (Simulation time: 2 hr 38 min 1 sec) 
Heartbeat CPU 0 instructions: 113000001 cycles: 120526947 heartbeat IPC: 0.55517 cumulative IPC: 0.629482 (Simulation time: 2 hr 39 min 16 sec) 
Heartbeat CPU 0 instructions: 114000002 cycles: 122109290 heartbeat IPC: 0.631975 cumulative IPC: 0.629521 (Simulation time: 2 hr 40 min 44 sec) 
Heartbeat CPU 0 instructions: 115000002 cycles: 123649692 heartbeat IPC: 0.649181 cumulative IPC: 0.629814 (Simulation time: 2 hr 41 min 53 sec) 
Heartbeat CPU 0 instructions: 116000000 cycles: 125501841 heartbeat IPC: 0.539912 cumulative IPC: 0.628229 (Simulation time: 2 hr 43 min 4 sec) 
Heartbeat CPU 0 instructions: 117000001 cycles: 127038268 heartbeat IPC: 0.650861 cumulative IPC: 0.628556 (Simulation time: 2 hr 44 min 29 sec) 
Heartbeat CPU 0 instructions: 118000003 cycles: 128582219 heartbeat IPC: 0.64769 cumulative IPC: 0.628829 (Simulation time: 2 hr 45 min 49 sec) 
Heartbeat CPU 0 instructions: 119000002 cycles: 130451413 heartbeat IPC: 0.534989 cumulative IPC: 0.627234 (Simulation time: 2 hr 47 min 1 sec) 
Heartbeat CPU 0 instructions: 120000000 cycles: 131987375 heartbeat IPC: 0.651056 cumulative IPC: 0.627562 (Simulation time: 2 hr 48 min 5 sec) 
Heartbeat CPU 0 instructions: 121000000 cycles: 133520123 heartbeat IPC: 0.652423 cumulative IPC: 0.627899 (Simulation time: 2 hr 49 min 15 sec) 
Heartbeat CPU 0 instructions: 122000001 cycles: 135400058 heartbeat IPC: 0.531934 cumulative IPC: 0.62633 (Simulation time: 2 hr 50 min 35 sec) 
Heartbeat CPU 0 instructions: 123000002 cycles: 136912942 heartbeat IPC: 0.66099 cumulative IPC: 0.62678 (Simulation time: 2 hr 51 min 58 sec) 
Heartbeat CPU 0 instructions: 124000000 cycles: 138449919 heartbeat IPC: 0.650627 cumulative IPC: 0.627091 (Simulation time: 2 hr 53 min 13 sec) 
Heartbeat CPU 0 instructions: 125000003 cycles: 140376349 heartbeat IPC: 0.519096 cumulative IPC: 0.625356 (Simulation time: 2 hr 54 min 49 sec) 
Heartbeat CPU 0 instructions: 126000001 cycles: 141851766 heartbeat IPC: 0.677773 cumulative IPC: 0.625993 (Simulation time: 2 hr 56 min 10 sec) 
Heartbeat CPU 0 instructions: 127000001 cycles: 143376244 heartbeat IPC: 0.655962 cumulative IPC: 0.626365 (Simulation time: 2 hr 57 min 33 sec) 
Heartbeat CPU 0 instructions: 128000000 cycles: 145275656 heartbeat IPC: 0.526478 cumulative IPC: 0.624845 (Simulation time: 2 hr 59 min 17 sec) 
Heartbeat CPU 0 instructions: 129000003 cycles: 146771609 heartbeat IPC: 0.668472 cumulative IPC: 0.625362 (Simulation time: 3 hr 0 min 57 sec) 
Heartbeat CPU 0 instructions: 130000003 cycles: 148338957 heartbeat IPC: 0.63802 cumulative IPC: 0.625517 (Simulation time: 3 hr 4 min 1 sec) 
Heartbeat CPU 0 instructions: 131000000 cycles: 150228309 heartbeat IPC: 0.52928 cumulative IPC: 0.624116 (Simulation time: 3 hr 7 min 32 sec) 
Heartbeat CPU 0 instructions: 132000000 cycles: 151705543 heartbeat IPC: 0.676941 cumulative IPC: 0.62471 (Simulation time: 3 hr 10 min 43 sec) 
Heartbeat CPU 0 instructions: 133000001 cycles: 153270279 heartbeat IPC: 0.639086 cumulative IPC: 0.62488 (Simulation time: 3 hr 14 min 2 sec) 
Heartbeat CPU 0 instructions: 134000000 cycles: 155135922 heartbeat IPC: 0.536008 cumulative IPC: 0.623649 (Simulation time: 3 hr 17 min 43 sec) 
Heartbeat CPU 0 instructions: 135000003 cycles: 156626665 heartbeat IPC: 0.670808 cumulative IPC: 0.624165 (Simulation time: 3 hr 20 min 45 sec) 
Heartbeat CPU 0 instructions: 136000000 cycles: 158211682 heartbeat IPC: 0.630906 cumulative IPC: 0.624242 (Simulation time: 3 hr 23 min 42 sec) 
Heartbeat CPU 0 instructions: 137000001 cycles: 160067545 heartbeat IPC: 0.538833 cumulative IPC: 0.623107 (Simulation time: 3 hr 26 min 39 sec) 
Heartbeat CPU 0 instructions: 138000000 cycles: 161571606 heartbeat IPC: 0.664866 cumulative IPC: 0.623552 (Simulation time: 3 hr 29 min 19 sec) 
Heartbeat CPU 0 instructions: 139000003 cycles: 163148952 heartbeat IPC: 0.633978 cumulative IPC: 0.623667 (Simulation time: 3 hr 31 min 56 sec) 
Heartbeat CPU 0 instructions: 140000000 cycles: 164990430 heartbeat IPC: 0.54304 cumulative IPC: 0.62264 (Simulation time: 3 hr 34 min 55 sec) 
Heartbeat CPU 0 instructions: 141000003 cycles: 166478809 heartbeat IPC: 0.671874 cumulative IPC: 0.623142 (Simulation time: 3 hr 37 min 38 sec) 
Heartbeat CPU 0 instructions: 142000001 cycles: 168058389 heartbeat IPC: 0.633078 cumulative IPC: 0.623248 (Simulation time: 3 hr 40 min 21 sec) 
Heartbeat CPU 0 instructions: 143000000 cycles: 169836448 heartbeat IPC: 0.56241 cumulative IPC: 0.622524 (Simulation time: 3 hr 43 min 12 sec) 
Heartbeat CPU 0 instructions: 144000000 cycles: 171329925 heartbeat IPC: 0.669578 cumulative IPC: 0.62299 (Simulation time: 3 hr 45 min 49 sec) 
Heartbeat CPU 0 instructions: 145000002 cycles: 172932945 heartbeat IPC: 0.623824 cumulative IPC: 0.622999 (Simulation time: 3 hr 48 min 34 sec) 
Heartbeat CPU 0 instructions: 146000001 cycles: 174719141 heartbeat IPC: 0.559848 cumulative IPC: 0.622268 (Simulation time: 3 hr 51 min 22 sec) 
Heartbeat CPU 0 instructions: 147000000 cycles: 176208666 heartbeat IPC: 0.671354 cumulative IPC: 0.622737 (Simulation time: 3 hr 53 min 54 sec) 
Heartbeat CPU 0 instructions: 148000000 cycles: 177768711 heartbeat IPC: 0.641007 cumulative IPC: 0.622918 (Simulation time: 3 hr 56 min 29 sec) 
Heartbeat CPU 0 instructions: 149000003 cycles: 179542225 heartbeat IPC: 0.563854 cumulative IPC: 0.62226 (Simulation time: 3 hr 59 min 19 sec) 
Heartbeat CPU 0 instructions: 150000003 cycles: 181029579 heartbeat IPC: 0.672335 cumulative IPC: 0.622724 (Simulation time: 4 hr 1 min 59 sec) 
Finished CPU 0 instructions: 100000001 cycles: 160584886 cummulative IPC: 0.622724 (Simulation time: 4 hr 1 min 59 sec) 

ChampSim completed all CPUs

Region of Interest Statistics

CPU 0 cummulative IPC: 0.622724 instructions: 100000001 cycles: 160584886
LLC TOTAL     ACCESS:    5899220  HIT:     289764  MISS:    5609456
LLC LOAD      ACCESS:     439712  HIT:      10327  MISS:     429385
LLC RFO       ACCESS:    2513623  HIT:     127788  MISS:    2385835
LLC PREFETCH  ACCESS:     431957  HIT:      11693  MISS:     420264
LLC WRITEBACK ACCESS:    2513928  HIT:     139956  MISS:    2373972
