
*** ChampSim Multicore Out-of-Order Simulator ***

Warmup Instructions: 50000000
Simulation Instructions: 100000000
Configuration: 2
Number of CPUs: 1
LLC sets: 2048
LLC ways: 16
Off-chip DRAM Channels: 1 Width: 64-bit Data Rate: 1600 MT/s

CPU 0 runs /datasets/cs240c-wi22-a00-public/data/Assignment2-gz/leslie3d_1186B.trace.gz
CPU 0 L1D next line prefetcher
CPU 0 L2C IP-based stride prefetcher
Heartbeat CPU 0 instructions: 1000002 cycles: 564509 heartbeat IPC: 1.77145 cumulative IPC: 1.77145 (Simulation time: 0 hr 1 min 37 sec) 
Heartbeat CPU 0 instructions: 2000000 cycles: 1215829 heartbeat IPC: 1.53534 cumulative IPC: 1.64497 (Simulation time: 0 hr 3 min 18 sec) 
Heartbeat CPU 0 instructions: 3000000 cycles: 1867567 heartbeat IPC: 1.53436 cumulative IPC: 1.60637 (Simulation time: 0 hr 5 min 3 sec) 
Heartbeat CPU 0 instructions: 4000000 cycles: 2473128 heartbeat IPC: 1.65136 cumulative IPC: 1.61738 (Simulation time: 0 hr 6 min 42 sec) 
Heartbeat CPU 0 instructions: 5000000 cycles: 3083454 heartbeat IPC: 1.63847 cumulative IPC: 1.62156 (Simulation time: 0 hr 8 min 19 sec) 
Heartbeat CPU 0 instructions: 6000000 cycles: 3735164 heartbeat IPC: 1.53442 cumulative IPC: 1.60636 (Simulation time: 0 hr 10 min 1 sec) 
Heartbeat CPU 0 instructions: 7000001 cycles: 4386356 heartbeat IPC: 1.53565 cumulative IPC: 1.59586 (Simulation time: 0 hr 11 min 38 sec) 
Heartbeat CPU 0 instructions: 8000000 cycles: 4950953 heartbeat IPC: 1.77117 cumulative IPC: 1.61585 (Simulation time: 0 hr 13 min 10 sec) 
Heartbeat CPU 0 instructions: 9000003 cycles: 5602260 heartbeat IPC: 1.53538 cumulative IPC: 1.6065 (Simulation time: 0 hr 14 min 45 sec) 
Heartbeat CPU 0 instructions: 10000001 cycles: 6253410 heartbeat IPC: 1.53574 cumulative IPC: 1.59913 (Simulation time: 0 hr 16 min 24 sec) 
Heartbeat CPU 0 instructions: 11000000 cycles: 6820182 heartbeat IPC: 1.76438 cumulative IPC: 1.61286 (Simulation time: 0 hr 18 min 2 sec) 
Heartbeat CPU 0 instructions: 12000000 cycles: 7469244 heartbeat IPC: 1.54068 cumulative IPC: 1.60659 (Simulation time: 0 hr 19 min 59 sec) 
Heartbeat CPU 0 instructions: 13000002 cycles: 8120736 heartbeat IPC: 1.53494 cumulative IPC: 1.60084 (Simulation time: 0 hr 21 min 44 sec) 
Heartbeat CPU 0 instructions: 14000000 cycles: 8755143 heartbeat IPC: 1.57627 cumulative IPC: 1.59906 (Simulation time: 0 hr 23 min 32 sec) 
Heartbeat CPU 0 instructions: 15000000 cycles: 9336198 heartbeat IPC: 1.72101 cumulative IPC: 1.60665 (Simulation time: 0 hr 25 min 8 sec) 
Heartbeat CPU 0 instructions: 16000000 cycles: 9987735 heartbeat IPC: 1.53483 cumulative IPC: 1.60196 (Simulation time: 0 hr 26 min 49 sec) 
Heartbeat CPU 0 instructions: 17000000 cycles: 10638781 heartbeat IPC: 1.53599 cumulative IPC: 1.59793 (Simulation time: 0 hr 28 min 31 sec) 
Heartbeat CPU 0 instructions: 18000003 cycles: 11203244 heartbeat IPC: 1.7716 cumulative IPC: 1.60668 (Simulation time: 0 hr 30 min 6 sec) 
Heartbeat CPU 0 instructions: 19000003 cycles: 11854538 heartbeat IPC: 1.5354 cumulative IPC: 1.60276 (Simulation time: 0 hr 31 min 50 sec) 
Heartbeat CPU 0 instructions: 20000000 cycles: 12505676 heartbeat IPC: 1.53577 cumulative IPC: 1.59927 (Simulation time: 0 hr 33 min 32 sec) 
Heartbeat CPU 0 instructions: 21000001 cycles: 13101276 heartbeat IPC: 1.67898 cumulative IPC: 1.6029 (Simulation time: 0 hr 35 min 12 sec) 
Heartbeat CPU 0 instructions: 22000003 cycles: 13721237 heartbeat IPC: 1.61301 cumulative IPC: 1.60335 (Simulation time: 0 hr 36 min 55 sec) 
Heartbeat CPU 0 instructions: 23000001 cycles: 14372355 heartbeat IPC: 1.53582 cumulative IPC: 1.60029 (Simulation time: 0 hr 38 min 40 sec) 
Heartbeat CPU 0 instructions: 24000000 cycles: 15023946 heartbeat IPC: 1.5347 cumulative IPC: 1.59745 (Simulation time: 0 hr 40 min 25 sec) 
Heartbeat CPU 0 instructions: 25000000 cycles: 15587980 heartbeat IPC: 1.77294 cumulative IPC: 1.6038 (Simulation time: 0 hr 42 min 2 sec) 
Heartbeat CPU 0 instructions: 26000003 cycles: 16239915 heartbeat IPC: 1.5339 cumulative IPC: 1.60099 (Simulation time: 0 hr 43 min 46 sec) 
Heartbeat CPU 0 instructions: 27000000 cycles: 16891546 heartbeat IPC: 1.53461 cumulative IPC: 1.59843 (Simulation time: 0 hr 45 min 25 sec) 
Heartbeat CPU 0 instructions: 28000000 cycles: 17455674 heartbeat IPC: 1.77265 cumulative IPC: 1.60406 (Simulation time: 0 hr 46 min 54 sec) 
Heartbeat CPU 0 instructions: 29000002 cycles: 18107105 heartbeat IPC: 1.53509 cumulative IPC: 1.60158 (Simulation time: 0 hr 48 min 28 sec) 
Heartbeat CPU 0 instructions: 30000002 cycles: 18758428 heartbeat IPC: 1.53534 cumulative IPC: 1.59928 (Simulation time: 0 hr 50 min 1 sec) 
Heartbeat CPU 0 instructions: 31000002 cycles: 19382451 heartbeat IPC: 1.60251 cumulative IPC: 1.59939 (Simulation time: 0 hr 51 min 33 sec) 
Heartbeat CPU 0 instructions: 32000000 cycles: 19973924 heartbeat IPC: 1.69069 cumulative IPC: 1.60209 (Simulation time: 0 hr 53 min 32 sec) 
Heartbeat CPU 0 instructions: 33000000 cycles: 20625465 heartbeat IPC: 1.53482 cumulative IPC: 1.59996 (Simulation time: 0 hr 55 min 55 sec) 
Heartbeat CPU 0 instructions: 34000000 cycles: 21277475 heartbeat IPC: 1.53372 cumulative IPC: 1.59793 (Simulation time: 0 hr 58 min 18 sec) 
Heartbeat CPU 0 instructions: 35000000 cycles: 21841692 heartbeat IPC: 1.77237 cumulative IPC: 1.60244 (Simulation time: 1 hr 0 min 27 sec) 
Heartbeat CPU 0 instructions: 36000000 cycles: 22493242 heartbeat IPC: 1.5348 cumulative IPC: 1.60048 (Simulation time: 1 hr 2 min 29 sec) 
Heartbeat CPU 0 instructions: 37000003 cycles: 23144929 heartbeat IPC: 1.53448 cumulative IPC: 1.59862 (Simulation time: 1 hr 4 min 40 sec) 
Heartbeat CPU 0 instructions: 38000002 cycles: 23730579 heartbeat IPC: 1.7075 cumulative IPC: 1.60131 (Simulation time: 1 hr 6 min 52 sec) 
Heartbeat CPU 0 instructions: 39000000 cycles: 24360784 heartbeat IPC: 1.58678 cumulative IPC: 1.60093 (Simulation time: 1 hr 9 min 1 sec) 
Heartbeat CPU 0 instructions: 40000000 cycles: 25012550 heartbeat IPC: 1.53429 cumulative IPC: 1.5992 (Simulation time: 1 hr 11 min 17 sec) 
Heartbeat CPU 0 instructions: 41000000 cycles: 25663503 heartbeat IPC: 1.53621 cumulative IPC: 1.5976 (Simulation time: 1 hr 13 min 28 sec) 
Heartbeat CPU 0 instructions: 42000000 cycles: 26228306 heartbeat IPC: 1.77053 cumulative IPC: 1.60132 (Simulation time: 1 hr 15 min 23 sec) 
Heartbeat CPU 0 instructions: 43000002 cycles: 26879407 heartbeat IPC: 1.53586 cumulative IPC: 1.59974 (Simulation time: 1 hr 17 min 39 sec) 
Heartbeat CPU 0 instructions: 44000000 cycles: 27530926 heartbeat IPC: 1.53487 cumulative IPC: 1.5982 (Simulation time: 1 hr 19 min 56 sec) 
Heartbeat CPU 0 instructions: 45000001 cycles: 28090049 heartbeat IPC: 1.78852 cumulative IPC: 1.60199 (Simulation time: 1 hr 21 min 56 sec) 
Heartbeat CPU 0 instructions: 46000001 cycles: 28590786 heartbeat IPC: 1.99706 cumulative IPC: 1.60891 (Simulation time: 1 hr 24 min 4 sec) 
Heartbeat CPU 0 instructions: 47000001 cycles: 29091461 heartbeat IPC: 1.9973 cumulative IPC: 1.61559 (Simulation time: 1 hr 26 min 19 sec) 
Heartbeat CPU 0 instructions: 48000000 cycles: 29592329 heartbeat IPC: 1.99653 cumulative IPC: 1.62204 (Simulation time: 1 hr 28 min 20 sec) 
Heartbeat CPU 0 instructions: 49000002 cycles: 30092714 heartbeat IPC: 1.99847 cumulative IPC: 1.6283 (Simulation time: 1 hr 30 min 20 sec) 
Heartbeat CPU 0 instructions: 50000001 cycles: 30593643 heartbeat IPC: 1.99629 cumulative IPC: 1.63433 (Simulation time: 1 hr 32 min 27 sec) 

Warmup complete CPU 0 instructions: 50000001 cycles: 30593643 (Simulation time: 1 hr 32 min 27 sec) 

Heartbeat CPU 0 instructions: 51000000 cycles: 32243563 heartbeat IPC: 0.606089 cumulative IPC: 0.606089 (Simulation time: 1 hr 34 min 49 sec) 
Heartbeat CPU 0 instructions: 52000000 cycles: 33794411 heartbeat IPC: 0.644809 cumulative IPC: 0.62485 (Simulation time: 1 hr 36 min 57 sec) 
Heartbeat CPU 0 instructions: 53000003 cycles: 35442863 heartbeat IPC: 0.606632 cumulative IPC: 0.618657 (Simulation time: 1 hr 39 min 10 sec) 
Heartbeat CPU 0 instructions: 54000003 cycles: 37027566 heartbeat IPC: 0.631033 cumulative IPC: 0.621705 (Simulation time: 1 hr 41 min 27 sec) 
Heartbeat CPU 0 instructions: 55000001 cycles: 38842407 heartbeat IPC: 0.551011 cumulative IPC: 0.606151 (Simulation time: 1 hr 43 min 33 sec) 
Heartbeat CPU 0 instructions: 56000000 cycles: 41160948 heartbeat IPC: 0.431305 cumulative IPC: 0.567789 (Simulation time: 1 hr 45 min 34 sec) 
Heartbeat CPU 0 instructions: 57000003 cycles: 43488964 heartbeat IPC: 0.429552 cumulative IPC: 0.542833 (Simulation time: 1 hr 47 min 41 sec) 
Heartbeat CPU 0 instructions: 58000001 cycles: 45909792 heartbeat IPC: 0.413081 cumulative IPC: 0.522325 (Simulation time: 1 hr 49 min 47 sec) 
Heartbeat CPU 0 instructions: 59000003 cycles: 48272288 heartbeat IPC: 0.423282 cumulative IPC: 0.509089 (Simulation time: 1 hr 51 min 55 sec) 
Heartbeat CPU 0 instructions: 60000000 cycles: 50623538 heartbeat IPC: 0.425304 cumulative IPC: 0.499254 (Simulation time: 1 hr 54 min 20 sec) 
Heartbeat CPU 0 instructions: 61000003 cycles: 52972045 heartbeat IPC: 0.425804 cumulative IPC: 0.491545 (Simulation time: 1 hr 56 min 30 sec) 
Heartbeat CPU 0 instructions: 62000001 cycles: 55294075 heartbeat IPC: 0.430657 cumulative IPC: 0.485821 (Simulation time: 1 hr 58 min 37 sec) 
Heartbeat CPU 0 instructions: 63000000 cycles: 57289858 heartbeat IPC: 0.501056 cumulative IPC: 0.48696 (Simulation time: 2 hr 0 min 31 sec) 
Heartbeat CPU 0 instructions: 64000000 cycles: 58505643 heartbeat IPC: 0.822514 cumulative IPC: 0.501576 (Simulation time: 2 hr 2 min 7 sec) 
Heartbeat CPU 0 instructions: 65000000 cycles: 59746427 heartbeat IPC: 0.805942 cumulative IPC: 0.514531 (Simulation time: 2 hr 3 min 42 sec) 
Heartbeat CPU 0 instructions: 66000002 cycles: 60983088 heartbeat IPC: 0.808631 cumulative IPC: 0.526499 (Simulation time: 2 hr 5 min 17 sec) 
Heartbeat CPU 0 instructions: 67000001 cycles: 62221554 heartbeat IPC: 0.80745 cumulative IPC: 0.5375 (Simulation time: 2 hr 6 min 47 sec) 
Heartbeat CPU 0 instructions: 68000000 cycles: 63515725 heartbeat IPC: 0.772695 cumulative IPC: 0.546745 (Simulation time: 2 hr 8 min 29 sec) 
Heartbeat CPU 0 instructions: 69000000 cycles: 64761426 heartbeat IPC: 0.802761 cumulative IPC: 0.556079 (Simulation time: 2 hr 9 min 52 sec) 
Heartbeat CPU 0 instructions: 70000000 cycles: 66040389 heartbeat IPC: 0.781883 cumulative IPC: 0.564227 (Simulation time: 2 hr 11 min 32 sec) 
Heartbeat CPU 0 instructions: 71000003 cycles: 67269005 heartbeat IPC: 0.813926 cumulative IPC: 0.572592 (Simulation time: 2 hr 13 min 15 sec) 
Heartbeat CPU 0 instructions: 72000000 cycles: 68532539 heartbeat IPC: 0.791429 cumulative IPC: 0.57988 (Simulation time: 2 hr 14 min 57 sec) 
Heartbeat CPU 0 instructions: 73000000 cycles: 69782486 heartbeat IPC: 0.800034 cumulative IPC: 0.586902 (Simulation time: 2 hr 16 min 39 sec) 
Heartbeat CPU 0 instructions: 74000000 cycles: 71018439 heartbeat IPC: 0.809092 cumulative IPC: 0.593695 (Simulation time: 2 hr 18 min 8 sec) 
Heartbeat CPU 0 instructions: 75000003 cycles: 72311033 heartbeat IPC: 0.77364 cumulative IPC: 0.599271 (Simulation time: 2 hr 19 min 37 sec) 
Heartbeat CPU 0 instructions: 76000000 cycles: 73551442 heartbeat IPC: 0.806183 cumulative IPC: 0.605245 (Simulation time: 2 hr 20 min 54 sec) 
Heartbeat CPU 0 instructions: 77000000 cycles: 74832893 heartbeat IPC: 0.780365 cumulative IPC: 0.610318 (Simulation time: 2 hr 22 min 17 sec) 
Heartbeat CPU 0 instructions: 78000001 cycles: 76095432 heartbeat IPC: 0.792056 cumulative IPC: 0.61536 (Simulation time: 2 hr 23 min 57 sec) 
Heartbeat CPU 0 instructions: 79000002 cycles: 77380142 heartbeat IPC: 0.778387 cumulative IPC: 0.619837 (Simulation time: 2 hr 25 min 33 sec) 
Heartbeat CPU 0 instructions: 80000000 cycles: 78668024 heartbeat IPC: 0.776467 cumulative IPC: 0.624033 (Simulation time: 2 hr 27 min 3 sec) 
Heartbeat CPU 0 instructions: 81000000 cycles: 79917229 heartbeat IPC: 0.800509 cumulative IPC: 0.628503 (Simulation time: 2 hr 28 min 34 sec) 
Heartbeat CPU 0 instructions: 82000003 cycles: 81202540 heartbeat IPC: 0.778024 cumulative IPC: 0.6323 (Simulation time: 2 hr 29 min 53 sec) 
Heartbeat CPU 0 instructions: 83000001 cycles: 82460352 heartbeat IPC: 0.79503 cumulative IPC: 0.636246 (Simulation time: 2 hr 31 min 8 sec) 
Heartbeat CPU 0 instructions: 84000000 cycles: 83741034 heartbeat IPC: 0.780833 cumulative IPC: 0.63973 (Simulation time: 2 hr 32 min 25 sec) 
Heartbeat CPU 0 instructions: 85000001 cycles: 84991034 heartbeat IPC: 0.800001 cumulative IPC: 0.643413 (Simulation time: 2 hr 34 min 12 sec) 
Heartbeat CPU 0 instructions: 86000003 cycles: 86260077 heartbeat IPC: 0.787997 cumulative IPC: 0.646709 (Simulation time: 2 hr 35 min 41 sec) 
Heartbeat CPU 0 instructions: 87000001 cycles: 87514869 heartbeat IPC: 0.796943 cumulative IPC: 0.650021 (Simulation time: 2 hr 37 min 7 sec) 
Heartbeat CPU 0 instructions: 88000000 cycles: 88774090 heartbeat IPC: 0.794141 cumulative IPC: 0.65314 (Simulation time: 2 hr 38 min 26 sec) 
Heartbeat CPU 0 instructions: 89000001 cycles: 90055113 heartbeat IPC: 0.780627 cumulative IPC: 0.655887 (Simulation time: 2 hr 39 min 43 sec) 
Heartbeat CPU 0 instructions: 90000002 cycles: 91312757 heartbeat IPC: 0.795138 cumulative IPC: 0.658771 (Simulation time: 2 hr 40 min 59 sec) 
Heartbeat CPU 0 instructions: 91000000 cycles: 92596295 heartbeat IPC: 0.779095 cumulative IPC: 0.661262 (Simulation time: 2 hr 42 min 15 sec) 
Heartbeat CPU 0 instructions: 92000000 cycles: 93847610 heartbeat IPC: 0.799159 cumulative IPC: 0.66399 (Simulation time: 2 hr 43 min 38 sec) 
Heartbeat CPU 0 instructions: 93000002 cycles: 95140049 heartbeat IPC: 0.773732 cumulative IPC: 0.666187 (Simulation time: 2 hr 45 min 21 sec) 
Heartbeat CPU 0 instructions: 94000000 cycles: 96379446 heartbeat IPC: 0.806842 cumulative IPC: 0.668837 (Simulation time: 2 hr 46 min 34 sec) 
Heartbeat CPU 0 instructions: 95000003 cycles: 97626074 heartbeat IPC: 0.802166 cumulative IPC: 0.671317 (Simulation time: 2 hr 48 min 16 sec) 
Heartbeat CPU 0 instructions: 96000000 cycles: 98907761 heartbeat IPC: 0.780219 cumulative IPC: 0.67336 (Simulation time: 2 hr 49 min 42 sec) 
Heartbeat CPU 0 instructions: 97000001 cycles: 100154980 heartbeat IPC: 0.801785 cumulative IPC: 0.675663 (Simulation time: 2 hr 50 min 55 sec) 
Heartbeat CPU 0 instructions: 98000002 cycles: 101450997 heartbeat IPC: 0.771596 cumulative IPC: 0.677417 (Simulation time: 2 hr 52 min 21 sec) 
Heartbeat CPU 0 instructions: 99000000 cycles: 102702357 heartbeat IPC: 0.799129 cumulative IPC: 0.679529 (Simulation time: 2 hr 53 min 38 sec) 
Heartbeat CPU 0 instructions: 100000000 cycles: 103996358 heartbeat IPC: 0.772797 cumulative IPC: 0.681174 (Simulation time: 2 hr 55 min 9 sec) 
Heartbeat CPU 0 instructions: 101000000 cycles: 105251717 heartbeat IPC: 0.796585 cumulative IPC: 0.683114 (Simulation time: 2 hr 56 min 48 sec) 
Heartbeat CPU 0 instructions: 102000001 cycles: 106497022 heartbeat IPC: 0.803017 cumulative IPC: 0.685081 (Simulation time: 2 hr 58 min 19 sec) 
Heartbeat CPU 0 instructions: 103000002 cycles: 107800942 heartbeat IPC: 0.766919 cumulative IPC: 0.686464 (Simulation time: 2 hr 59 min 48 sec) 
Heartbeat CPU 0 instructions: 104000000 cycles: 109044162 heartbeat IPC: 0.804361 cumulative IPC: 0.688332 (Simulation time: 3 hr 1 min 48 sec) 
Heartbeat CPU 0 instructions: 105000001 cycles: 110339695 heartbeat IPC: 0.771884 cumulative IPC: 0.689689 (Simulation time: 3 hr 5 min 8 sec) 
Heartbeat CPU 0 instructions: 106000002 cycles: 111582678 heartbeat IPC: 0.804517 cumulative IPC: 0.691452 (Simulation time: 3 hr 8 min 24 sec) 
Heartbeat CPU 0 instructions: 107000000 cycles: 112868637 heartbeat IPC: 0.777628 cumulative IPC: 0.692799 (Simulation time: 3 hr 11 min 41 sec) 
Heartbeat CPU 0 instructions: 108000000 cycles: 114125160 heartbeat IPC: 0.795847 cumulative IPC: 0.694349 (Simulation time: 3 hr 14 min 55 sec) 
Heartbeat CPU 0 instructions: 109000003 cycles: 115371351 heartbeat IPC: 0.802448 cumulative IPC: 0.695938 (Simulation time: 3 hr 17 min 59 sec) 
Heartbeat CPU 0 instructions: 110000001 cycles: 116656111 heartbeat IPC: 0.778354 cumulative IPC: 0.697168 (Simulation time: 3 hr 21 min 2 sec) 
Heartbeat CPU 0 instructions: 111000001 cycles: 117889044 heartbeat IPC: 0.811074 cumulative IPC: 0.698777 (Simulation time: 3 hr 23 min 58 sec) 
Heartbeat CPU 0 instructions: 112000000 cycles: 119207408 heartbeat IPC: 0.758515 cumulative IPC: 0.699666 (Simulation time: 3 hr 26 min 55 sec) 
Heartbeat CPU 0 instructions: 113000000 cycles: 120794376 heartbeat IPC: 0.630132 cumulative IPC: 0.698442 (Simulation time: 3 hr 29 min 54 sec) 
Heartbeat CPU 0 instructions: 114000000 cycles: 122406041 heartbeat IPC: 0.620476 cumulative IPC: 0.697074 (Simulation time: 3 hr 32 min 45 sec) 
Heartbeat CPU 0 instructions: 115000001 cycles: 124039133 heartbeat IPC: 0.612336 cumulative IPC: 0.695593 (Simulation time: 3 hr 35 min 45 sec) 
Heartbeat CPU 0 instructions: 116000000 cycles: 125684244 heartbeat IPC: 0.607861 cumulative IPC: 0.694075 (Simulation time: 3 hr 38 min 36 sec) 
Heartbeat CPU 0 instructions: 117000002 cycles: 127329591 heartbeat IPC: 0.607776 cumulative IPC: 0.692607 (Simulation time: 3 hr 41 min 34 sec) 
Heartbeat CPU 0 instructions: 118000000 cycles: 128969798 heartbeat IPC: 0.609678 cumulative IPC: 0.691224 (Simulation time: 3 hr 44 min 36 sec) 
Heartbeat CPU 0 instructions: 119000001 cycles: 130620359 heartbeat IPC: 0.605855 cumulative IPC: 0.689816 (Simulation time: 3 hr 47 min 38 sec) 
Heartbeat CPU 0 instructions: 120000000 cycles: 132288358 heartbeat IPC: 0.59952 cumulative IPC: 0.688335 (Simulation time: 3 hr 50 min 42 sec) 
Heartbeat CPU 0 instructions: 121000002 cycles: 133947525 heartbeat IPC: 0.602713 cumulative IPC: 0.68696 (Simulation time: 3 hr 53 min 42 sec) 
Heartbeat CPU 0 instructions: 122000000 cycles: 135624340 heartbeat IPC: 0.596368 cumulative IPC: 0.685514 (Simulation time: 3 hr 56 min 31 sec) 
Heartbeat CPU 0 instructions: 123000002 cycles: 137269243 heartbeat IPC: 0.60794 cumulative IPC: 0.684318 (Simulation time: 3 hr 59 min 14 sec) 
Heartbeat CPU 0 instructions: 124000000 cycles: 138921919 heartbeat IPC: 0.605078 cumulative IPC: 0.683109 (Simulation time: 4 hr 1 min 58 sec) 
Heartbeat CPU 0 instructions: 125000003 cycles: 140577122 heartbeat IPC: 0.604157 cumulative IPC: 0.681921 (Simulation time: 4 hr 4 min 32 sec) 
Heartbeat CPU 0 instructions: 126000000 cycles: 142215206 heartbeat IPC: 0.610467 cumulative IPC: 0.680872 (Simulation time: 4 hr 7 min 21 sec) 
Heartbeat CPU 0 instructions: 127000001 cycles: 143909405 heartbeat IPC: 0.59025 cumulative IPC: 0.679517 (Simulation time: 4 hr 10 min 17 sec) 
Heartbeat CPU 0 instructions: 128000000 cycles: 145554171 heartbeat IPC: 0.607989 cumulative IPC: 0.678494 (Simulation time: 4 hr 13 min 3 sec) 
Heartbeat CPU 0 instructions: 129000001 cycles: 147189567 heartbeat IPC: 0.611473 cumulative IPC: 0.677554 (Simulation time: 4 hr 15 min 53 sec) 
Heartbeat CPU 0 instructions: 130000003 cycles: 148862490 heartbeat IPC: 0.597757 cumulative IPC: 0.676425 (Simulation time: 4 hr 18 min 41 sec) 
Heartbeat CPU 0 instructions: 131000001 cycles: 153755147 heartbeat IPC: 0.204388 cumulative IPC: 0.657673 (Simulation time: 4 hr 23 min 0 sec) 
Heartbeat CPU 0 instructions: 132000000 cycles: 156681227 heartbeat IPC: 0.341754 cumulative IPC: 0.650342 (Simulation time: 4 hr 27 min 8 sec) 
Heartbeat CPU 0 instructions: 133000002 cycles: 159233460 heartbeat IPC: 0.391815 cumulative IPC: 0.645212 (Simulation time: 4 hr 30 min 45 sec) 
Heartbeat CPU 0 instructions: 134000000 cycles: 160488308 heartbeat IPC: 0.796908 cumulative IPC: 0.646678 (Simulation time: 4 hr 32 min 56 sec) 
Heartbeat CPU 0 instructions: 135000001 cycles: 161752433 heartbeat IPC: 0.791062 cumulative IPC: 0.648069 (Simulation time: 4 hr 34 min 59 sec) 
Heartbeat CPU 0 instructions: 136000000 cycles: 163168551 heartbeat IPC: 0.706155 cumulative IPC: 0.64869 (Simulation time: 4 hr 37 min 13 sec) 
Heartbeat CPU 0 instructions: 137000001 cycles: 164509339 heartbeat IPC: 0.745831 cumulative IPC: 0.649662 (Simulation time: 4 hr 39 min 21 sec) 
Heartbeat CPU 0 instructions: 138000003 cycles: 165963409 heartbeat IPC: 0.687726 cumulative IPC: 0.650071 (Simulation time: 4 hr 41 min 32 sec) 
Heartbeat CPU 0 instructions: 139000001 cycles: 167383213 heartbeat IPC: 0.704321 cumulative IPC: 0.650634 (Simulation time: 4 hr 43 min 44 sec) 
Heartbeat CPU 0 instructions: 140000000 cycles: 168806355 heartbeat IPC: 0.70267 cumulative IPC: 0.65117 (Simulation time: 4 hr 45 min 53 sec) 
Heartbeat CPU 0 instructions: 141000003 cycles: 170254055 heartbeat IPC: 0.690753 cumulative IPC: 0.651581 (Simulation time: 4 hr 48 min 6 sec) 
Heartbeat CPU 0 instructions: 142000003 cycles: 171692836 heartbeat IPC: 0.695033 cumulative IPC: 0.652024 (Simulation time: 4 hr 50 min 24 sec) 
Heartbeat CPU 0 instructions: 143000000 cycles: 173129114 heartbeat IPC: 0.696242 cumulative IPC: 0.652469 (Simulation time: 4 hr 52 min 36 sec) 
Heartbeat CPU 0 instructions: 144000000 cycles: 174550908 heartbeat IPC: 0.703337 cumulative IPC: 0.652972 (Simulation time: 4 hr 54 min 40 sec) 
Heartbeat CPU 0 instructions: 145000001 cycles: 176023887 heartbeat IPC: 0.678897 cumulative IPC: 0.653234 (Simulation time: 4 hr 56 min 41 sec) 
Heartbeat CPU 0 instructions: 146000003 cycles: 177473539 heartbeat IPC: 0.689822 cumulative IPC: 0.653595 (Simulation time: 4 hr 58 min 44 sec) 
Heartbeat CPU 0 instructions: 147000000 cycles: 179753799 heartbeat IPC: 0.438545 cumulative IPC: 0.650308 (Simulation time: 5 hr 0 min 57 sec) 
Heartbeat CPU 0 instructions: 148000000 cycles: 182133550 heartbeat IPC: 0.420212 cumulative IPC: 0.646694 (Simulation time: 5 hr 3 min 15 sec) 
Heartbeat CPU 0 instructions: 149000003 cycles: 184498347 heartbeat IPC: 0.422871 cumulative IPC: 0.643255 (Simulation time: 5 hr 5 min 39 sec) 
Heartbeat CPU 0 instructions: 150000001 cycles: 186712848 heartbeat IPC: 0.451568 cumulative IPC: 0.640536 (Simulation time: 5 hr 7 min 58 sec) 
Finished CPU 0 instructions: 100000000 cycles: 156119205 cummulative IPC: 0.640536 (Simulation time: 5 hr 7 min 58 sec) 

ChampSim completed all CPUs

Region of Interest Statistics

CPU 0 cummulative IPC: 0.640536 instructions: 100000000 cycles: 156119205
LLC TOTAL     ACCESS:    4660916  HIT:    1104844  MISS:    3556072
LLC LOAD      ACCESS:     475203  HIT:     113895  MISS:     361308
LLC RFO       ACCESS:     796346  HIT:      93806  MISS:     702540
LLC PREFETCH  ACCESS:    2244893  HIT:     504166  MISS:    1740727
LLC WRITEBACK ACCESS:    1144474  HIT:     392977  MISS:     751497
