
*** ChampSim Multicore Out-of-Order Simulator ***

Warmup Instructions: 50000000
Simulation Instructions: 100000000
Configuration: 2
Number of CPUs: 1
LLC sets: 2048
LLC ways: 16
Off-chip DRAM Channels: 1 Width: 64-bit Data Rate: 1600 MT/s

CPU 0 runs /datasets/cs240c-wi22-a00-public/data/Assignment2-gz/gcc_56B.trace.gz
CPU 0 L1D next line prefetcher
CPU 0 L2C IP-based stride prefetcher
Heartbeat CPU 0 instructions: 1000003 cycles: 954151 heartbeat IPC: 1.04806 cumulative IPC: 1.04806 (Simulation time: 0 hr 1 min 46 sec) 
Heartbeat CPU 0 instructions: 2000001 cycles: 1898349 heartbeat IPC: 1.0591 cumulative IPC: 1.05355 (Simulation time: 0 hr 3 min 37 sec) 
Heartbeat CPU 0 instructions: 3000001 cycles: 2885593 heartbeat IPC: 1.01292 cumulative IPC: 1.03965 (Simulation time: 0 hr 5 min 17 sec) 
Heartbeat CPU 0 instructions: 4000000 cycles: 3848221 heartbeat IPC: 1.03882 cumulative IPC: 1.03944 (Simulation time: 0 hr 6 min 53 sec) 
Heartbeat CPU 0 instructions: 5000002 cycles: 4737701 heartbeat IPC: 1.12425 cumulative IPC: 1.05536 (Simulation time: 0 hr 8 min 31 sec) 
Heartbeat CPU 0 instructions: 6000000 cycles: 5685656 heartbeat IPC: 1.0549 cumulative IPC: 1.05529 (Simulation time: 0 hr 10 min 14 sec) 
Heartbeat CPU 0 instructions: 7000000 cycles: 6649891 heartbeat IPC: 1.03709 cumulative IPC: 1.05265 (Simulation time: 0 hr 11 min 46 sec) 
Heartbeat CPU 0 instructions: 8000000 cycles: 7611114 heartbeat IPC: 1.04034 cumulative IPC: 1.05109 (Simulation time: 0 hr 13 min 16 sec) 
Heartbeat CPU 0 instructions: 9000000 cycles: 8622586 heartbeat IPC: 0.988658 cumulative IPC: 1.04377 (Simulation time: 0 hr 14 min 51 sec) 
Heartbeat CPU 0 instructions: 10000002 cycles: 9583097 heartbeat IPC: 1.04111 cumulative IPC: 1.0435 (Simulation time: 0 hr 16 min 22 sec) 
Heartbeat CPU 0 instructions: 11000002 cycles: 10472393 heartbeat IPC: 1.12449 cumulative IPC: 1.05038 (Simulation time: 0 hr 17 min 48 sec) 
Heartbeat CPU 0 instructions: 12000000 cycles: 11357924 heartbeat IPC: 1.12926 cumulative IPC: 1.05653 (Simulation time: 0 hr 19 min 16 sec) 
Heartbeat CPU 0 instructions: 13000001 cycles: 12297171 heartbeat IPC: 1.06468 cumulative IPC: 1.05715 (Simulation time: 0 hr 20 min 47 sec) 
Heartbeat CPU 0 instructions: 14000000 cycles: 13290642 heartbeat IPC: 1.00657 cumulative IPC: 1.05337 (Simulation time: 0 hr 22 min 23 sec) 
Heartbeat CPU 0 instructions: 15000003 cycles: 14246130 heartbeat IPC: 1.04659 cumulative IPC: 1.05292 (Simulation time: 0 hr 23 min 55 sec) 
Heartbeat CPU 0 instructions: 16000000 cycles: 15246175 heartbeat IPC: 0.999952 cumulative IPC: 1.04944 (Simulation time: 0 hr 25 min 29 sec) 
Heartbeat CPU 0 instructions: 17000001 cycles: 16221160 heartbeat IPC: 1.02566 cumulative IPC: 1.04801 (Simulation time: 0 hr 27 min 1 sec) 
Heartbeat CPU 0 instructions: 18000000 cycles: 17121989 heartbeat IPC: 1.11009 cumulative IPC: 1.05128 (Simulation time: 0 hr 28 min 32 sec) 
Heartbeat CPU 0 instructions: 19000000 cycles: 18045883 heartbeat IPC: 1.08238 cumulative IPC: 1.05287 (Simulation time: 0 hr 30 min 4 sec) 
Heartbeat CPU 0 instructions: 20000000 cycles: 18990391 heartbeat IPC: 1.05875 cumulative IPC: 1.05316 (Simulation time: 0 hr 31 min 40 sec) 
Heartbeat CPU 0 instructions: 21000000 cycles: 19947022 heartbeat IPC: 1.04534 cumulative IPC: 1.05279 (Simulation time: 0 hr 33 min 13 sec) 
Heartbeat CPU 0 instructions: 22000000 cycles: 20939406 heartbeat IPC: 1.00767 cumulative IPC: 1.05065 (Simulation time: 0 hr 34 min 49 sec) 
Heartbeat CPU 0 instructions: 23000000 cycles: 21860056 heartbeat IPC: 1.08619 cumulative IPC: 1.05215 (Simulation time: 0 hr 36 min 24 sec) 
Heartbeat CPU 0 instructions: 24000000 cycles: 22777467 heartbeat IPC: 1.09002 cumulative IPC: 1.05367 (Simulation time: 0 hr 37 min 55 sec) 
Heartbeat CPU 0 instructions: 25000000 cycles: 23713199 heartbeat IPC: 1.06868 cumulative IPC: 1.05427 (Simulation time: 0 hr 39 min 28 sec) 
Heartbeat CPU 0 instructions: 26000002 cycles: 24633685 heartbeat IPC: 1.08638 cumulative IPC: 1.05547 (Simulation time: 0 hr 41 min 1 sec) 
Heartbeat CPU 0 instructions: 27000000 cycles: 25585997 heartbeat IPC: 1.05007 cumulative IPC: 1.05526 (Simulation time: 0 hr 42 min 37 sec) 
Heartbeat CPU 0 instructions: 28000000 cycles: 26583769 heartbeat IPC: 1.00223 cumulative IPC: 1.05327 (Simulation time: 0 hr 44 min 12 sec) 
Heartbeat CPU 0 instructions: 29000000 cycles: 27583174 heartbeat IPC: 1.0006 cumulative IPC: 1.05137 (Simulation time: 0 hr 45 min 47 sec) 
Heartbeat CPU 0 instructions: 30000000 cycles: 28562058 heartbeat IPC: 1.02157 cumulative IPC: 1.05034 (Simulation time: 0 hr 47 min 16 sec) 
Heartbeat CPU 0 instructions: 31000000 cycles: 29476452 heartbeat IPC: 1.09362 cumulative IPC: 1.05169 (Simulation time: 0 hr 48 min 39 sec) 
Heartbeat CPU 0 instructions: 32000000 cycles: 30387154 heartbeat IPC: 1.09805 cumulative IPC: 1.05308 (Simulation time: 0 hr 50 min 1 sec) 
Heartbeat CPU 0 instructions: 33000002 cycles: 31312871 heartbeat IPC: 1.08025 cumulative IPC: 1.05388 (Simulation time: 0 hr 51 min 17 sec) 
Heartbeat CPU 0 instructions: 34000002 cycles: 32279383 heartbeat IPC: 1.03465 cumulative IPC: 1.0533 (Simulation time: 0 hr 52 min 50 sec) 
Heartbeat CPU 0 instructions: 35000002 cycles: 33244048 heartbeat IPC: 1.03663 cumulative IPC: 1.05282 (Simulation time: 0 hr 54 min 28 sec) 
Heartbeat CPU 0 instructions: 36000000 cycles: 34239321 heartbeat IPC: 1.00475 cumulative IPC: 1.05142 (Simulation time: 0 hr 56 min 6 sec) 
Heartbeat CPU 0 instructions: 37000000 cycles: 35205865 heartbeat IPC: 1.03461 cumulative IPC: 1.05096 (Simulation time: 0 hr 57 min 49 sec) 
Heartbeat CPU 0 instructions: 38000002 cycles: 36155157 heartbeat IPC: 1.05342 cumulative IPC: 1.05103 (Simulation time: 0 hr 59 min 22 sec) 
Heartbeat CPU 0 instructions: 39000000 cycles: 37066136 heartbeat IPC: 1.09772 cumulative IPC: 1.05217 (Simulation time: 1 hr 1 min 0 sec) 
Heartbeat CPU 0 instructions: 40000000 cycles: 38010458 heartbeat IPC: 1.05896 cumulative IPC: 1.05234 (Simulation time: 1 hr 2 min 35 sec) 
Heartbeat CPU 0 instructions: 41000001 cycles: 38985290 heartbeat IPC: 1.02582 cumulative IPC: 1.05168 (Simulation time: 1 hr 4 min 13 sec) 
Heartbeat CPU 0 instructions: 42000003 cycles: 39974544 heartbeat IPC: 1.01086 cumulative IPC: 1.05067 (Simulation time: 1 hr 5 min 50 sec) 
Heartbeat CPU 0 instructions: 43000001 cycles: 40938704 heartbeat IPC: 1.03717 cumulative IPC: 1.05035 (Simulation time: 1 hr 7 min 28 sec) 
Heartbeat CPU 0 instructions: 44000000 cycles: 41869469 heartbeat IPC: 1.07438 cumulative IPC: 1.05089 (Simulation time: 1 hr 9 min 1 sec) 
Heartbeat CPU 0 instructions: 45000000 cycles: 42778770 heartbeat IPC: 1.09975 cumulative IPC: 1.05192 (Simulation time: 1 hr 10 min 31 sec) 
Heartbeat CPU 0 instructions: 46000001 cycles: 43731190 heartbeat IPC: 1.04996 cumulative IPC: 1.05188 (Simulation time: 1 hr 12 min 8 sec) 
Heartbeat CPU 0 instructions: 47000001 cycles: 44686072 heartbeat IPC: 1.04725 cumulative IPC: 1.05178 (Simulation time: 1 hr 13 min 42 sec) 
Heartbeat CPU 0 instructions: 48000000 cycles: 45666153 heartbeat IPC: 1.02032 cumulative IPC: 1.05111 (Simulation time: 1 hr 15 min 21 sec) 
Heartbeat CPU 0 instructions: 49000002 cycles: 46667614 heartbeat IPC: 0.998543 cumulative IPC: 1.04998 (Simulation time: 1 hr 17 min 2 sec) 
Heartbeat CPU 0 instructions: 50000000 cycles: 47652580 heartbeat IPC: 1.01526 cumulative IPC: 1.04926 (Simulation time: 1 hr 18 min 38 sec) 

Warmup complete CPU 0 instructions: 50000001 cycles: 47652582 (Simulation time: 1 hr 18 min 38 sec) 

Heartbeat CPU 0 instructions: 51000000 cycles: 49006220 heartbeat IPC: 0.738749 cumulative IPC: 0.738749 (Simulation time: 1 hr 20 min 11 sec) 
Heartbeat CPU 0 instructions: 52000000 cycles: 50397184 heartbeat IPC: 0.718926 cumulative IPC: 0.728703 (Simulation time: 1 hr 21 min 44 sec) 
Heartbeat CPU 0 instructions: 53000001 cycles: 51733677 heartbeat IPC: 0.748228 cumulative IPC: 0.735097 (Simulation time: 1 hr 23 min 14 sec) 
Heartbeat CPU 0 instructions: 54000000 cycles: 53046446 heartbeat IPC: 0.761748 cumulative IPC: 0.741583 (Simulation time: 1 hr 24 min 50 sec) 
Heartbeat CPU 0 instructions: 55000001 cycles: 54352616 heartbeat IPC: 0.765598 cumulative IPC: 0.746265 (Simulation time: 1 hr 26 min 24 sec) 
Heartbeat CPU 0 instructions: 56000000 cycles: 55676893 heartbeat IPC: 0.755128 cumulative IPC: 0.747728 (Simulation time: 1 hr 27 min 58 sec) 
Heartbeat CPU 0 instructions: 57000001 cycles: 57011198 heartbeat IPC: 0.749455 cumulative IPC: 0.747974 (Simulation time: 1 hr 29 min 29 sec) 
Heartbeat CPU 0 instructions: 58000000 cycles: 58383990 heartbeat IPC: 0.728442 cumulative IPC: 0.745475 (Simulation time: 1 hr 31 min 6 sec) 
Heartbeat CPU 0 instructions: 59000000 cycles: 59778679 heartbeat IPC: 0.717006 cumulative IPC: 0.742201 (Simulation time: 1 hr 32 min 38 sec) 
Heartbeat CPU 0 instructions: 60000000 cycles: 61154411 heartbeat IPC: 0.726886 cumulative IPC: 0.74064 (Simulation time: 1 hr 34 min 15 sec) 
Heartbeat CPU 0 instructions: 61000000 cycles: 62483711 heartbeat IPC: 0.752276 cumulative IPC: 0.741683 (Simulation time: 1 hr 35 min 53 sec) 
Heartbeat CPU 0 instructions: 62000002 cycles: 63844600 heartbeat IPC: 0.734815 cumulative IPC: 0.741106 (Simulation time: 1 hr 37 min 31 sec) 
Heartbeat CPU 0 instructions: 63000003 cycles: 65158942 heartbeat IPC: 0.760838 cumulative IPC: 0.742587 (Simulation time: 1 hr 39 min 6 sec) 
Heartbeat CPU 0 instructions: 64000000 cycles: 66475157 heartbeat IPC: 0.759752 cumulative IPC: 0.743788 (Simulation time: 1 hr 40 min 44 sec) 
Heartbeat CPU 0 instructions: 65000000 cycles: 67816662 heartbeat IPC: 0.745431 cumulative IPC: 0.743897 (Simulation time: 1 hr 42 min 15 sec) 
Heartbeat CPU 0 instructions: 66000002 cycles: 69207850 heartbeat IPC: 0.718812 cumulative IPC: 0.742278 (Simulation time: 1 hr 43 min 47 sec) 
Heartbeat CPU 0 instructions: 67000002 cycles: 70595756 heartbeat IPC: 0.72051 cumulative IPC: 0.740961 (Simulation time: 1 hr 45 min 24 sec) 
Heartbeat CPU 0 instructions: 68000000 cycles: 71946568 heartbeat IPC: 0.740294 cumulative IPC: 0.740924 (Simulation time: 1 hr 47 min 0 sec) 
Heartbeat CPU 0 instructions: 69000000 cycles: 73274583 heartbeat IPC: 0.753004 cumulative IPC: 0.74155 (Simulation time: 1 hr 48 min 37 sec) 
Heartbeat CPU 0 instructions: 70000000 cycles: 74599557 heartbeat IPC: 0.754732 cumulative IPC: 0.742198 (Simulation time: 1 hr 50 min 15 sec) 
Heartbeat CPU 0 instructions: 71000003 cycles: 75940203 heartbeat IPC: 0.745911 cumulative IPC: 0.742374 (Simulation time: 1 hr 51 min 54 sec) 
Heartbeat CPU 0 instructions: 72000000 cycles: 77278395 heartbeat IPC: 0.747275 cumulative IPC: 0.742596 (Simulation time: 1 hr 53 min 33 sec) 
Heartbeat CPU 0 instructions: 73000003 cycles: 78644852 heartbeat IPC: 0.731822 cumulative IPC: 0.742121 (Simulation time: 1 hr 55 min 3 sec) 
Heartbeat CPU 0 instructions: 74000001 cycles: 80040976 heartbeat IPC: 0.716267 cumulative IPC: 0.741006 (Simulation time: 1 hr 56 min 41 sec) 
Heartbeat CPU 0 instructions: 75000003 cycles: 81413807 heartbeat IPC: 0.728423 cumulative IPC: 0.740494 (Simulation time: 1 hr 58 min 18 sec) 
Heartbeat CPU 0 instructions: 76000000 cycles: 82756712 heartbeat IPC: 0.744652 cumulative IPC: 0.740654 (Simulation time: 1 hr 59 min 56 sec) 
Heartbeat CPU 0 instructions: 77000003 cycles: 84089827 heartbeat IPC: 0.750125 cumulative IPC: 0.741 (Simulation time: 2 hr 1 min 35 sec) 
Heartbeat CPU 0 instructions: 78000001 cycles: 85420274 heartbeat IPC: 0.751626 cumulative IPC: 0.741374 (Simulation time: 2 hr 3 min 6 sec) 
Heartbeat CPU 0 instructions: 79000000 cycles: 86775590 heartbeat IPC: 0.737835 cumulative IPC: 0.741252 (Simulation time: 2 hr 4 min 29 sec) 
Heartbeat CPU 0 instructions: 80000000 cycles: 88119707 heartbeat IPC: 0.743983 cumulative IPC: 0.741342 (Simulation time: 2 hr 5 min 50 sec) 
Heartbeat CPU 0 instructions: 81000002 cycles: 89497121 heartbeat IPC: 0.726 cumulative IPC: 0.740837 (Simulation time: 2 hr 7 min 10 sec) 
Heartbeat CPU 0 instructions: 82000000 cycles: 90866607 heartbeat IPC: 0.7302 cumulative IPC: 0.7405 (Simulation time: 2 hr 8 min 24 sec) 
Heartbeat CPU 0 instructions: 83000003 cycles: 92198542 heartbeat IPC: 0.75079 cumulative IPC: 0.740808 (Simulation time: 2 hr 9 min 36 sec) 
Heartbeat CPU 0 instructions: 84000000 cycles: 93540335 heartbeat IPC: 0.745269 cumulative IPC: 0.740938 (Simulation time: 2 hr 11 min 7 sec) 
Heartbeat CPU 0 instructions: 85000002 cycles: 94853962 heartbeat IPC: 0.761253 cumulative IPC: 0.741504 (Simulation time: 2 hr 12 min 38 sec) 
Heartbeat CPU 0 instructions: 86000003 cycles: 96155084 heartbeat IPC: 0.768568 cumulative IPC: 0.74223 (Simulation time: 2 hr 14 min 11 sec) 
Heartbeat CPU 0 instructions: 87000000 cycles: 97534747 heartbeat IPC: 0.724813 cumulative IPC: 0.741748 (Simulation time: 2 hr 15 min 42 sec) 
Heartbeat CPU 0 instructions: 88000000 cycles: 98883750 heartbeat IPC: 0.741288 cumulative IPC: 0.741736 (Simulation time: 2 hr 17 min 13 sec) 
Heartbeat CPU 0 instructions: 89000000 cycles: 100241639 heartbeat IPC: 0.736437 cumulative IPC: 0.741599 (Simulation time: 2 hr 18 min 30 sec) 
Heartbeat CPU 0 instructions: 90000000 cycles: 101559392 heartbeat IPC: 0.758868 cumulative IPC: 0.742021 (Simulation time: 2 hr 20 min 3 sec) 
Heartbeat CPU 0 instructions: 91000001 cycles: 102866794 heartbeat IPC: 0.764876 cumulative IPC: 0.742562 (Simulation time: 2 hr 21 min 27 sec) 
Heartbeat CPU 0 instructions: 92000000 cycles: 104182978 heartbeat IPC: 0.759771 cumulative IPC: 0.742963 (Simulation time: 2 hr 22 min 45 sec) 
Heartbeat CPU 0 instructions: 93000003 cycles: 105564726 heartbeat IPC: 0.723723 cumulative IPC: 0.742504 (Simulation time: 2 hr 23 min 59 sec) 
Heartbeat CPU 0 instructions: 94000000 cycles: 106906526 heartbeat IPC: 0.745265 cumulative IPC: 0.742567 (Simulation time: 2 hr 25 min 10 sec) 
Heartbeat CPU 0 instructions: 95000000 cycles: 108255737 heartbeat IPC: 0.741174 cumulative IPC: 0.742536 (Simulation time: 2 hr 26 min 21 sec) 
Heartbeat CPU 0 instructions: 96000000 cycles: 109588876 heartbeat IPC: 0.750109 cumulative IPC: 0.742699 (Simulation time: 2 hr 27 min 30 sec) 
Heartbeat CPU 0 instructions: 97000000 cycles: 110899150 heartbeat IPC: 0.763199 cumulative IPC: 0.743123 (Simulation time: 2 hr 28 min 48 sec) 
Heartbeat CPU 0 instructions: 98000003 cycles: 112207116 heartbeat IPC: 0.764548 cumulative IPC: 0.743557 (Simulation time: 2 hr 30 min 15 sec) 
Heartbeat CPU 0 instructions: 99000000 cycles: 113593487 heartbeat IPC: 0.721305 cumulative IPC: 0.74309 (Simulation time: 2 hr 31 min 33 sec) 
Heartbeat CPU 0 instructions: 100000000 cycles: 114936417 heartbeat IPC: 0.74464 cumulative IPC: 0.743121 (Simulation time: 2 hr 32 min 47 sec) 
Heartbeat CPU 0 instructions: 101000000 cycles: 116283229 heartbeat IPC: 0.742494 cumulative IPC: 0.743108 (Simulation time: 2 hr 34 min 17 sec) 
Heartbeat CPU 0 instructions: 102000001 cycles: 117595351 heartbeat IPC: 0.762125 cumulative IPC: 0.743465 (Simulation time: 2 hr 35 min 29 sec) 
Heartbeat CPU 0 instructions: 103000001 cycles: 118897172 heartbeat IPC: 0.768155 cumulative IPC: 0.743916 (Simulation time: 2 hr 36 min 40 sec) 
Heartbeat CPU 0 instructions: 104000000 cycles: 120199580 heartbeat IPC: 0.767808 cumulative IPC: 0.744345 (Simulation time: 2 hr 37 min 51 sec) 
Heartbeat CPU 0 instructions: 105000002 cycles: 121580155 heartbeat IPC: 0.724337 cumulative IPC: 0.743971 (Simulation time: 2 hr 39 min 4 sec) 
Heartbeat CPU 0 instructions: 106000000 cycles: 122985830 heartbeat IPC: 0.711401 cumulative IPC: 0.743364 (Simulation time: 2 hr 40 min 9 sec) 
Heartbeat CPU 0 instructions: 107000002 cycles: 124375064 heartbeat IPC: 0.719823 cumulative IPC: 0.742937 (Simulation time: 2 hr 41 min 15 sec) 
Heartbeat CPU 0 instructions: 108000000 cycles: 125731754 heartbeat IPC: 0.737087 cumulative IPC: 0.742836 (Simulation time: 2 hr 42 min 24 sec) 
Heartbeat CPU 0 instructions: 109000000 cycles: 127070386 heartbeat IPC: 0.747031 cumulative IPC: 0.742906 (Simulation time: 2 hr 43 min 36 sec) 
Heartbeat CPU 0 instructions: 110000000 cycles: 128398837 heartbeat IPC: 0.752756 cumulative IPC: 0.743069 (Simulation time: 2 hr 44 min 43 sec) 
Heartbeat CPU 0 instructions: 111000000 cycles: 129733119 heartbeat IPC: 0.749467 cumulative IPC: 0.743173 (Simulation time: 2 hr 45 min 53 sec) 
Heartbeat CPU 0 instructions: 112000000 cycles: 131121563 heartbeat IPC: 0.720231 cumulative IPC: 0.742791 (Simulation time: 2 hr 47 min 39 sec) 
Heartbeat CPU 0 instructions: 113000000 cycles: 132495063 heartbeat IPC: 0.728067 cumulative IPC: 0.742553 (Simulation time: 2 hr 48 min 57 sec) 
Heartbeat CPU 0 instructions: 114000001 cycles: 133823383 heartbeat IPC: 0.752831 cumulative IPC: 0.742711 (Simulation time: 2 hr 50 min 7 sec) 
Heartbeat CPU 0 instructions: 115000000 cycles: 135183946 heartbeat IPC: 0.734989 cumulative IPC: 0.742591 (Simulation time: 2 hr 51 min 15 sec) 
Heartbeat CPU 0 instructions: 116000000 cycles: 136501592 heartbeat IPC: 0.758929 cumulative IPC: 0.742833 (Simulation time: 2 hr 52 min 23 sec) 
Heartbeat CPU 0 instructions: 117000000 cycles: 137809209 heartbeat IPC: 0.76475 cumulative IPC: 0.743151 (Simulation time: 2 hr 53 min 33 sec) 
Heartbeat CPU 0 instructions: 118000002 cycles: 139179990 heartbeat IPC: 0.729513 cumulative IPC: 0.742947 (Simulation time: 2 hr 54 min 38 sec) 
Heartbeat CPU 0 instructions: 119000000 cycles: 140584780 heartbeat IPC: 0.711849 cumulative IPC: 0.742477 (Simulation time: 2 hr 55 min 57 sec) 
Heartbeat CPU 0 instructions: 120000000 cycles: 142014159 heartbeat IPC: 0.699605 cumulative IPC: 0.741827 (Simulation time: 2 hr 57 min 23 sec) 
Heartbeat CPU 0 instructions: 121000000 cycles: 143369027 heartbeat IPC: 0.738079 cumulative IPC: 0.741774 (Simulation time: 2 hr 58 min 50 sec) 
Heartbeat CPU 0 instructions: 122000003 cycles: 144702591 heartbeat IPC: 0.749873 cumulative IPC: 0.741886 (Simulation time: 3 hr 0 min 20 sec) 
Heartbeat CPU 0 instructions: 123000003 cycles: 146030119 heartbeat IPC: 0.75328 cumulative IPC: 0.742039 (Simulation time: 3 hr 2 min 42 sec) 
Heartbeat CPU 0 instructions: 124000000 cycles: 147367487 heartbeat IPC: 0.747735 cumulative IPC: 0.742116 (Simulation time: 3 hr 5 min 47 sec) 
Heartbeat CPU 0 instructions: 125000001 cycles: 148752962 heartbeat IPC: 0.721775 cumulative IPC: 0.741837 (Simulation time: 3 hr 8 min 49 sec) 
Heartbeat CPU 0 instructions: 126000000 cycles: 150083195 heartbeat IPC: 0.751747 cumulative IPC: 0.741966 (Simulation time: 3 hr 11 min 54 sec) 
Heartbeat CPU 0 instructions: 127000003 cycles: 151423124 heartbeat IPC: 0.74631 cumulative IPC: 0.742022 (Simulation time: 3 hr 14 min 52 sec) 
Heartbeat CPU 0 instructions: 128000000 cycles: 152734816 heartbeat IPC: 0.762372 cumulative IPC: 0.742276 (Simulation time: 3 hr 17 min 50 sec) 
Heartbeat CPU 0 instructions: 129000003 cycles: 154037095 heartbeat IPC: 0.767887 cumulative IPC: 0.742589 (Simulation time: 3 hr 20 min 53 sec) 
Heartbeat CPU 0 instructions: 130000000 cycles: 155332887 heartbeat IPC: 0.771726 cumulative IPC: 0.74294 (Simulation time: 3 hr 23 min 38 sec) 
Heartbeat CPU 0 instructions: 131000000 cycles: 156707380 heartbeat IPC: 0.727541 cumulative IPC: 0.742746 (Simulation time: 3 hr 26 min 26 sec) 
Heartbeat CPU 0 instructions: 132000000 cycles: 158105530 heartbeat IPC: 0.715231 cumulative IPC: 0.742398 (Simulation time: 3 hr 29 min 22 sec) 
Heartbeat CPU 0 instructions: 133000003 cycles: 159480640 heartbeat IPC: 0.727217 cumulative IPC: 0.742211 (Simulation time: 3 hr 32 min 5 sec) 
Heartbeat CPU 0 instructions: 134000000 cycles: 160829476 heartbeat IPC: 0.741378 cumulative IPC: 0.742201 (Simulation time: 3 hr 34 min 52 sec) 
Heartbeat CPU 0 instructions: 135000002 cycles: 162148502 heartbeat IPC: 0.758137 cumulative IPC: 0.742385 (Simulation time: 3 hr 37 min 43 sec) 
Heartbeat CPU 0 instructions: 136000000 cycles: 163455118 heartbeat IPC: 0.765334 cumulative IPC: 0.742643 (Simulation time: 3 hr 40 min 36 sec) 
Heartbeat CPU 0 instructions: 137000003 cycles: 164787646 heartbeat IPC: 0.750455 cumulative IPC: 0.742732 (Simulation time: 3 hr 43 min 23 sec) 
Heartbeat CPU 0 instructions: 138000003 cycles: 166137410 heartbeat IPC: 0.74087 cumulative IPC: 0.742711 (Simulation time: 3 hr 46 min 8 sec) 
Heartbeat CPU 0 instructions: 139000000 cycles: 167525984 heartbeat IPC: 0.720161 cumulative IPC: 0.74245 (Simulation time: 3 hr 48 min 47 sec) 
Heartbeat CPU 0 instructions: 140000000 cycles: 168848786 heartbeat IPC: 0.755971 cumulative IPC: 0.742598 (Simulation time: 3 hr 51 min 30 sec) 
Heartbeat CPU 0 instructions: 141000001 cycles: 170169949 heartbeat IPC: 0.75691 cumulative IPC: 0.742752 (Simulation time: 3 hr 54 min 13 sec) 
Heartbeat CPU 0 instructions: 142000000 cycles: 171468988 heartbeat IPC: 0.769799 cumulative IPC: 0.743036 (Simulation time: 3 hr 56 min 57 sec) 
Heartbeat CPU 0 instructions: 143000003 cycles: 172794614 heartbeat IPC: 0.754363 cumulative IPC: 0.743156 (Simulation time: 3 hr 59 min 38 sec) 
Heartbeat CPU 0 instructions: 144000000 cycles: 174140084 heartbeat IPC: 0.743232 cumulative IPC: 0.743156 (Simulation time: 4 hr 2 min 20 sec) 
Heartbeat CPU 0 instructions: 145000001 cycles: 175529865 heartbeat IPC: 0.719539 cumulative IPC: 0.7429 (Simulation time: 4 hr 4 min 56 sec) 
Heartbeat CPU 0 instructions: 146000000 cycles: 176938009 heartbeat IPC: 0.710154 cumulative IPC: 0.742543 (Simulation time: 4 hr 7 min 37 sec) 
Heartbeat CPU 0 instructions: 147000001 cycles: 178293325 heartbeat IPC: 0.737836 cumulative IPC: 0.742494 (Simulation time: 4 hr 10 min 15 sec) 
Heartbeat CPU 0 instructions: 148000000 cycles: 179618449 heartbeat IPC: 0.754646 cumulative IPC: 0.742616 (Simulation time: 4 hr 13 min 8 sec) 
Heartbeat CPU 0 instructions: 149000000 cycles: 180933698 heartbeat IPC: 0.760312 cumulative IPC: 0.742791 (Simulation time: 4 hr 16 min 11 sec) 
Heartbeat CPU 0 instructions: 150000000 cycles: 182254234 heartbeat IPC: 0.757268 cumulative IPC: 0.742933 (Simulation time: 4 hr 19 min 2 sec) 
Finished CPU 0 instructions: 100000000 cycles: 134601661 cummulative IPC: 0.742933 (Simulation time: 4 hr 19 min 2 sec) 

ChampSim completed all CPUs

Region of Interest Statistics

CPU 0 cummulative IPC: 0.742933 instructions: 100000000 cycles: 134601661
LLC TOTAL     ACCESS:   21168194  HIT:   21086238  MISS:      81956
LLC LOAD      ACCESS:     165336  HIT:     129739  MISS:      35597
LLC RFO       ACCESS:   10374956  HIT:   10369292  MISS:       5664
LLC PREFETCH  ACCESS:     183340  HIT:     149524  MISS:      33816
LLC WRITEBACK ACCESS:   10444562  HIT:   10437683  MISS:       6879
