
*** ChampSim Multicore Out-of-Order Simulator ***

Warmup Instructions: 50000000
Simulation Instructions: 100000000
Configuration: 2
Number of CPUs: 1
LLC sets: 2048
LLC ways: 16
Off-chip DRAM Channels: 1 Width: 64-bit Data Rate: 1600 MT/s

CPU 0 runs /datasets/cs240c-wi22-a00-public/data/Assignment2-gz/lbm_94B.trace.gz
CPU 0 L1D next line prefetcher
CPU 0 L2C IP-based stride prefetcher
Heartbeat CPU 0 instructions: 1000000 cycles: 422068 heartbeat IPC: 2.36929 cumulative IPC: 2.36929 (Simulation time: 0 hr 1 min 22 sec) 
Heartbeat CPU 0 instructions: 2000000 cycles: 812399 heartbeat IPC: 2.56193 cumulative IPC: 2.46184 (Simulation time: 0 hr 2 min 39 sec) 
Heartbeat CPU 0 instructions: 3000000 cycles: 1211540 heartbeat IPC: 2.50538 cumulative IPC: 2.47619 (Simulation time: 0 hr 3 min 53 sec) 
Heartbeat CPU 0 instructions: 4000000 cycles: 1631536 heartbeat IPC: 2.38098 cumulative IPC: 2.45168 (Simulation time: 0 hr 5 min 11 sec) 
Heartbeat CPU 0 instructions: 5000001 cycles: 2021779 heartbeat IPC: 2.56251 cumulative IPC: 2.47307 (Simulation time: 0 hr 6 min 21 sec) 
Heartbeat CPU 0 instructions: 6000000 cycles: 2422478 heartbeat IPC: 2.49564 cumulative IPC: 2.4768 (Simulation time: 0 hr 7 min 37 sec) 
Heartbeat CPU 0 instructions: 7000001 cycles: 2840629 heartbeat IPC: 2.39148 cumulative IPC: 2.46424 (Simulation time: 0 hr 8 min 53 sec) 
Heartbeat CPU 0 instructions: 8000000 cycles: 3230859 heartbeat IPC: 2.56259 cumulative IPC: 2.47612 (Simulation time: 0 hr 10 min 3 sec) 
Heartbeat CPU 0 instructions: 9000003 cycles: 3631897 heartbeat IPC: 2.49354 cumulative IPC: 2.47804 (Simulation time: 0 hr 11 min 20 sec) 
Heartbeat CPU 0 instructions: 10000000 cycles: 4048484 heartbeat IPC: 2.40045 cumulative IPC: 2.47006 (Simulation time: 0 hr 12 min 36 sec) 
Heartbeat CPU 0 instructions: 11000003 cycles: 4438690 heartbeat IPC: 2.56276 cumulative IPC: 2.47821 (Simulation time: 0 hr 13 min 49 sec) 
Heartbeat CPU 0 instructions: 12000000 cycles: 4839252 heartbeat IPC: 2.49648 cumulative IPC: 2.47972 (Simulation time: 0 hr 15 min 0 sec) 
Heartbeat CPU 0 instructions: 13000000 cycles: 5254660 heartbeat IPC: 2.40727 cumulative IPC: 2.47399 (Simulation time: 0 hr 16 min 17 sec) 
Heartbeat CPU 0 instructions: 14000003 cycles: 5644940 heartbeat IPC: 2.56227 cumulative IPC: 2.4801 (Simulation time: 0 hr 17 min 32 sec) 
Heartbeat CPU 0 instructions: 15000001 cycles: 6045342 heartbeat IPC: 2.49748 cumulative IPC: 2.48125 (Simulation time: 0 hr 18 min 44 sec) 
Heartbeat CPU 0 instructions: 16000000 cycles: 6459741 heartbeat IPC: 2.41313 cumulative IPC: 2.47688 (Simulation time: 0 hr 20 min 0 sec) 
Heartbeat CPU 0 instructions: 17000001 cycles: 6850014 heartbeat IPC: 2.56231 cumulative IPC: 2.48175 (Simulation time: 0 hr 21 min 18 sec) 
Heartbeat CPU 0 instructions: 18000001 cycles: 7248889 heartbeat IPC: 2.50705 cumulative IPC: 2.48314 (Simulation time: 0 hr 22 min 42 sec) 
Heartbeat CPU 0 instructions: 19000000 cycles: 7663442 heartbeat IPC: 2.41223 cumulative IPC: 2.4793 (Simulation time: 0 hr 24 min 9 sec) 
Heartbeat CPU 0 instructions: 20000000 cycles: 8053726 heartbeat IPC: 2.56224 cumulative IPC: 2.48332 (Simulation time: 0 hr 25 min 32 sec) 
Heartbeat CPU 0 instructions: 21000003 cycles: 8451824 heartbeat IPC: 2.51195 cumulative IPC: 2.48467 (Simulation time: 0 hr 26 min 51 sec) 
Heartbeat CPU 0 instructions: 22000000 cycles: 8866024 heartbeat IPC: 2.41429 cumulative IPC: 2.48138 (Simulation time: 0 hr 28 min 16 sec) 
Heartbeat CPU 0 instructions: 23000000 cycles: 9256232 heartbeat IPC: 2.56274 cumulative IPC: 2.48481 (Simulation time: 0 hr 29 min 30 sec) 
Heartbeat CPU 0 instructions: 24000000 cycles: 9652333 heartbeat IPC: 2.52461 cumulative IPC: 2.48645 (Simulation time: 0 hr 30 min 49 sec) 
Heartbeat CPU 0 instructions: 25000000 cycles: 10066011 heartbeat IPC: 2.41734 cumulative IPC: 2.48361 (Simulation time: 0 hr 32 min 8 sec) 
Heartbeat CPU 0 instructions: 26000003 cycles: 10456281 heartbeat IPC: 2.56234 cumulative IPC: 2.48654 (Simulation time: 0 hr 33 min 31 sec) 
Heartbeat CPU 0 instructions: 27000002 cycles: 10851359 heartbeat IPC: 2.53114 cumulative IPC: 2.48817 (Simulation time: 0 hr 34 min 56 sec) 
Heartbeat CPU 0 instructions: 28000000 cycles: 11264820 heartbeat IPC: 2.4186 cumulative IPC: 2.48561 (Simulation time: 0 hr 36 min 29 sec) 
Heartbeat CPU 0 instructions: 29000000 cycles: 11655020 heartbeat IPC: 2.56279 cumulative IPC: 2.4882 (Simulation time: 0 hr 37 min 57 sec) 
Heartbeat CPU 0 instructions: 30000000 cycles: 12050075 heartbeat IPC: 2.53129 cumulative IPC: 2.48961 (Simulation time: 0 hr 39 min 16 sec) 
Heartbeat CPU 0 instructions: 31000003 cycles: 12461016 heartbeat IPC: 2.43345 cumulative IPC: 2.48776 (Simulation time: 0 hr 40 min 35 sec) 
Heartbeat CPU 0 instructions: 32000000 cycles: 12851314 heartbeat IPC: 2.56214 cumulative IPC: 2.49002 (Simulation time: 0 hr 41 min 55 sec) 
Heartbeat CPU 0 instructions: 33000002 cycles: 13246451 heartbeat IPC: 2.53077 cumulative IPC: 2.49123 (Simulation time: 0 hr 43 min 19 sec) 
Heartbeat CPU 0 instructions: 34000003 cycles: 13654003 heartbeat IPC: 2.45368 cumulative IPC: 2.49011 (Simulation time: 0 hr 44 min 34 sec) 
Heartbeat CPU 0 instructions: 35000002 cycles: 14045658 heartbeat IPC: 2.55327 cumulative IPC: 2.49187 (Simulation time: 0 hr 45 min 51 sec) 
Heartbeat CPU 0 instructions: 36000000 cycles: 14440685 heartbeat IPC: 2.53147 cumulative IPC: 2.49296 (Simulation time: 0 hr 47 min 0 sec) 
Heartbeat CPU 0 instructions: 37000003 cycles: 14842919 heartbeat IPC: 2.48612 cumulative IPC: 2.49277 (Simulation time: 0 hr 48 min 7 sec) 
Heartbeat CPU 0 instructions: 38000002 cycles: 15237456 heartbeat IPC: 2.53461 cumulative IPC: 2.49385 (Simulation time: 0 hr 49 min 19 sec) 
Heartbeat CPU 0 instructions: 39000000 cycles: 15627683 heartbeat IPC: 2.56261 cumulative IPC: 2.49557 (Simulation time: 0 hr 50 min 25 sec) 
Heartbeat CPU 0 instructions: 40000000 cycles: 16028020 heartbeat IPC: 2.4979 cumulative IPC: 2.49563 (Simulation time: 0 hr 51 min 34 sec) 
Heartbeat CPU 0 instructions: 41000003 cycles: 16426713 heartbeat IPC: 2.5082 cumulative IPC: 2.49593 (Simulation time: 0 hr 52 min 48 sec) 
Heartbeat CPU 0 instructions: 42000003 cycles: 16816979 heartbeat IPC: 2.56235 cumulative IPC: 2.49748 (Simulation time: 0 hr 54 min 4 sec) 
Heartbeat CPU 0 instructions: 43000003 cycles: 17212265 heartbeat IPC: 2.52981 cumulative IPC: 2.49822 (Simulation time: 0 hr 55 min 20 sec) 
Heartbeat CPU 0 instructions: 44000000 cycles: 17613268 heartbeat IPC: 2.49374 cumulative IPC: 2.49812 (Simulation time: 0 hr 56 min 34 sec) 
Heartbeat CPU 0 instructions: 45000002 cycles: 18003543 heartbeat IPC: 2.5623 cumulative IPC: 2.49951 (Simulation time: 0 hr 57 min 46 sec) 
Heartbeat CPU 0 instructions: 46000001 cycles: 18398713 heartbeat IPC: 2.53055 cumulative IPC: 2.50017 (Simulation time: 0 hr 59 min 0 sec) 
Heartbeat CPU 0 instructions: 47000003 cycles: 18797131 heartbeat IPC: 2.50993 cumulative IPC: 2.50038 (Simulation time: 1 hr 0 min 11 sec) 
Heartbeat CPU 0 instructions: 48000000 cycles: 19187294 heartbeat IPC: 2.56302 cumulative IPC: 2.50166 (Simulation time: 1 hr 1 min 25 sec) 
Heartbeat CPU 0 instructions: 49000000 cycles: 19582392 heartbeat IPC: 2.53102 cumulative IPC: 2.50225 (Simulation time: 1 hr 2 min 39 sec) 
Heartbeat CPU 0 instructions: 50000003 cycles: 19976720 heartbeat IPC: 2.53597 cumulative IPC: 2.50291 (Simulation time: 1 hr 3 min 51 sec) 

Warmup complete CPU 0 instructions: 50000003 cycles: 19976720 (Simulation time: 1 hr 3 min 51 sec) 

Heartbeat CPU 0 instructions: 51000003 cycles: 21443929 heartbeat IPC: 0.681566 cumulative IPC: 0.681566 (Simulation time: 1 hr 5 min 24 sec) 
Heartbeat CPU 0 instructions: 52000000 cycles: 22937732 heartbeat IPC: 0.66943 cumulative IPC: 0.675444 (Simulation time: 1 hr 7 min 2 sec) 
Heartbeat CPU 0 instructions: 53000001 cycles: 24489521 heartbeat IPC: 0.644418 cumulative IPC: 0.664775 (Simulation time: 1 hr 8 min 37 sec) 
Heartbeat CPU 0 instructions: 54000000 cycles: 25999812 heartbeat IPC: 0.662123 cumulative IPC: 0.66411 (Simulation time: 1 hr 10 min 8 sec) 
Heartbeat CPU 0 instructions: 55000003 cycles: 27482604 heartbeat IPC: 0.674405 cumulative IPC: 0.666144 (Simulation time: 1 hr 11 min 35 sec) 
Heartbeat CPU 0 instructions: 56000000 cycles: 29025802 heartbeat IPC: 0.648003 cumulative IPC: 0.66305 (Simulation time: 1 hr 13 min 9 sec) 
Heartbeat CPU 0 instructions: 57000003 cycles: 30522473 heartbeat IPC: 0.668151 cumulative IPC: 0.663774 (Simulation time: 1 hr 14 min 34 sec) 
Heartbeat CPU 0 instructions: 58000003 cycles: 32015260 heartbeat IPC: 0.669888 cumulative IPC: 0.664532 (Simulation time: 1 hr 16 min 2 sec) 
Heartbeat CPU 0 instructions: 59000002 cycles: 33560717 heartbeat IPC: 0.647057 cumulative IPC: 0.662544 (Simulation time: 1 hr 17 min 30 sec) 
Heartbeat CPU 0 instructions: 60000000 cycles: 35040650 heartbeat IPC: 0.675705 cumulative IPC: 0.663837 (Simulation time: 1 hr 18 min 56 sec) 
Heartbeat CPU 0 instructions: 61000000 cycles: 36526246 heartbeat IPC: 0.673131 cumulative IPC: 0.664671 (Simulation time: 1 hr 20 min 26 sec) 
Heartbeat CPU 0 instructions: 62000000 cycles: 38026175 heartbeat IPC: 0.666698 cumulative IPC: 0.66484 (Simulation time: 1 hr 21 min 51 sec) 
Heartbeat CPU 0 instructions: 63000001 cycles: 39589632 heartbeat IPC: 0.639609 cumulative IPC: 0.662829 (Simulation time: 1 hr 23 min 20 sec) 
Heartbeat CPU 0 instructions: 64000000 cycles: 41080399 heartbeat IPC: 0.670795 cumulative IPC: 0.663391 (Simulation time: 1 hr 24 min 45 sec) 
Heartbeat CPU 0 instructions: 65000003 cycles: 42587568 heartbeat IPC: 0.663498 cumulative IPC: 0.663398 (Simulation time: 1 hr 26 min 11 sec) 
Heartbeat CPU 0 instructions: 66000002 cycles: 44130648 heartbeat IPC: 0.648054 cumulative IPC: 0.662418 (Simulation time: 1 hr 27 min 37 sec) 
Heartbeat CPU 0 instructions: 67000002 cycles: 45611166 heartbeat IPC: 0.675439 cumulative IPC: 0.66317 (Simulation time: 1 hr 29 min 3 sec) 
Heartbeat CPU 0 instructions: 68000000 cycles: 47091797 heartbeat IPC: 0.675386 cumulative IPC: 0.663837 (Simulation time: 1 hr 30 min 25 sec) 
Heartbeat CPU 0 instructions: 69000000 cycles: 48617209 heartbeat IPC: 0.655561 cumulative IPC: 0.663396 (Simulation time: 1 hr 31 min 53 sec) 
Heartbeat CPU 0 instructions: 70000001 cycles: 50158173 heartbeat IPC: 0.648945 cumulative IPC: 0.662659 (Simulation time: 1 hr 33 min 21 sec) 
Heartbeat CPU 0 instructions: 71000001 cycles: 51647821 heartbeat IPC: 0.6713 cumulative IPC: 0.663065 (Simulation time: 1 hr 34 min 44 sec) 
Heartbeat CPU 0 instructions: 72000000 cycles: 53144191 heartbeat IPC: 0.668283 cumulative IPC: 0.6633 (Simulation time: 1 hr 36 min 7 sec) 
Heartbeat CPU 0 instructions: 73000001 cycles: 54685634 heartbeat IPC: 0.648743 cumulative IPC: 0.662654 (Simulation time: 1 hr 37 min 36 sec) 
Heartbeat CPU 0 instructions: 74000001 cycles: 56174069 heartbeat IPC: 0.671847 cumulative IPC: 0.663032 (Simulation time: 1 hr 39 min 1 sec) 
Heartbeat CPU 0 instructions: 75000000 cycles: 57668724 heartbeat IPC: 0.66905 cumulative IPC: 0.663271 (Simulation time: 1 hr 40 min 25 sec) 
Heartbeat CPU 0 instructions: 76000000 cycles: 59212540 heartbeat IPC: 0.647746 cumulative IPC: 0.66266 (Simulation time: 1 hr 41 min 51 sec) 
Heartbeat CPU 0 instructions: 77000002 cycles: 60686391 heartbeat IPC: 0.678496 cumulative IPC: 0.663233 (Simulation time: 1 hr 43 min 16 sec) 
Heartbeat CPU 0 instructions: 78000003 cycles: 62180253 heartbeat IPC: 0.669407 cumulative IPC: 0.663452 (Simulation time: 1 hr 44 min 42 sec) 
Heartbeat CPU 0 instructions: 79000000 cycles: 63688863 heartbeat IPC: 0.66286 cumulative IPC: 0.663431 (Simulation time: 1 hr 46 min 13 sec) 
Heartbeat CPU 0 instructions: 80000000 cycles: 65237538 heartbeat IPC: 0.645713 cumulative IPC: 0.662825 (Simulation time: 1 hr 47 min 42 sec) 
Heartbeat CPU 0 instructions: 81000000 cycles: 66718819 heartbeat IPC: 0.675091 cumulative IPC: 0.663214 (Simulation time: 1 hr 49 min 10 sec) 
Heartbeat CPU 0 instructions: 82000000 cycles: 68220088 heartbeat IPC: 0.666103 cumulative IPC: 0.663304 (Simulation time: 1 hr 50 min 34 sec) 
Heartbeat CPU 0 instructions: 83000003 cycles: 69763931 heartbeat IPC: 0.647736 cumulative IPC: 0.662821 (Simulation time: 1 hr 52 min 2 sec) 
Heartbeat CPU 0 instructions: 84000000 cycles: 71246949 heartbeat IPC: 0.674299 cumulative IPC: 0.663153 (Simulation time: 1 hr 53 min 33 sec) 
Heartbeat CPU 0 instructions: 85000001 cycles: 72731228 heartbeat IPC: 0.673728 cumulative IPC: 0.66345 (Simulation time: 1 hr 55 min 7 sec) 
Heartbeat CPU 0 instructions: 86000003 cycles: 74281052 heartbeat IPC: 0.645236 cumulative IPC: 0.662931 (Simulation time: 1 hr 56 min 39 sec) 
Heartbeat CPU 0 instructions: 87000000 cycles: 75770721 heartbeat IPC: 0.671288 cumulative IPC: 0.663154 (Simulation time: 1 hr 58 min 11 sec) 
Heartbeat CPU 0 instructions: 88000000 cycles: 77249205 heartbeat IPC: 0.676368 cumulative IPC: 0.663495 (Simulation time: 1 hr 59 min 40 sec) 
Heartbeat CPU 0 instructions: 89000003 cycles: 78720225 heartbeat IPC: 0.679802 cumulative IPC: 0.663903 (Simulation time: 2 hr 1 min 10 sec) 
Heartbeat CPU 0 instructions: 90000003 cycles: 80260653 heartbeat IPC: 0.64917 cumulative IPC: 0.663527 (Simulation time: 2 hr 2 min 43 sec) 
Heartbeat CPU 0 instructions: 91000002 cycles: 81756505 heartbeat IPC: 0.668515 cumulative IPC: 0.663647 (Simulation time: 2 hr 4 min 12 sec) 
Heartbeat CPU 0 instructions: 92000000 cycles: 83246178 heartbeat IPC: 0.671287 cumulative IPC: 0.663827 (Simulation time: 2 hr 5 min 39 sec) 
Heartbeat CPU 0 instructions: 93000003 cycles: 84792984 heartbeat IPC: 0.646495 cumulative IPC: 0.663414 (Simulation time: 2 hr 7 min 6 sec) 
Heartbeat CPU 0 instructions: 94000001 cycles: 86268707 heartbeat IPC: 0.677633 cumulative IPC: 0.66373 (Simulation time: 2 hr 8 min 19 sec) 
Heartbeat CPU 0 instructions: 95000001 cycles: 87757254 heartbeat IPC: 0.671796 cumulative IPC: 0.663907 (Simulation time: 2 hr 9 min 41 sec) 
Heartbeat CPU 0 instructions: 96000000 cycles: 89246654 heartbeat IPC: 0.671411 cumulative IPC: 0.664069 (Simulation time: 2 hr 11 min 5 sec) 
Heartbeat CPU 0 instructions: 97000000 cycles: 90808454 heartbeat IPC: 0.640287 cumulative IPC: 0.663544 (Simulation time: 2 hr 12 min 37 sec) 
Heartbeat CPU 0 instructions: 98000002 cycles: 92285037 heartbeat IPC: 0.677241 cumulative IPC: 0.663824 (Simulation time: 2 hr 14 min 9 sec) 
Heartbeat CPU 0 instructions: 99000001 cycles: 93776969 heartbeat IPC: 0.670271 cumulative IPC: 0.663954 (Simulation time: 2 hr 15 min 42 sec) 
Heartbeat CPU 0 instructions: 100000000 cycles: 95311130 heartbeat IPC: 0.651821 cumulative IPC: 0.663707 (Simulation time: 2 hr 17 min 6 sec) 
Heartbeat CPU 0 instructions: 101000003 cycles: 96803897 heartbeat IPC: 0.669899 cumulative IPC: 0.663828 (Simulation time: 2 hr 18 min 20 sec) 
Heartbeat CPU 0 instructions: 102000002 cycles: 98287410 heartbeat IPC: 0.674075 cumulative IPC: 0.664022 (Simulation time: 2 hr 19 min 30 sec) 
Heartbeat CPU 0 instructions: 103000000 cycles: 99837062 heartbeat IPC: 0.645305 cumulative IPC: 0.663658 (Simulation time: 2 hr 20 min 41 sec) 
Heartbeat CPU 0 instructions: 104000000 cycles: 101313925 heartbeat IPC: 0.677111 cumulative IPC: 0.663903 (Simulation time: 2 hr 21 min 53 sec) 
Heartbeat CPU 0 instructions: 105000002 cycles: 102805240 heartbeat IPC: 0.67055 cumulative IPC: 0.664023 (Simulation time: 2 hr 23 min 10 sec) 
Heartbeat CPU 0 instructions: 106000001 cycles: 104278200 heartbeat IPC: 0.678904 cumulative IPC: 0.664283 (Simulation time: 2 hr 24 min 33 sec) 
Heartbeat CPU 0 instructions: 107000000 cycles: 105812028 heartbeat IPC: 0.651963 cumulative IPC: 0.664062 (Simulation time: 2 hr 25 min 52 sec) 
Heartbeat CPU 0 instructions: 108000000 cycles: 107305611 heartbeat IPC: 0.669531 cumulative IPC: 0.664156 (Simulation time: 2 hr 27 min 3 sec) 
Heartbeat CPU 0 instructions: 109000002 cycles: 108785885 heartbeat IPC: 0.675552 cumulative IPC: 0.664346 (Simulation time: 2 hr 28 min 27 sec) 
Heartbeat CPU 0 instructions: 110000000 cycles: 110325473 heartbeat IPC: 0.649523 cumulative IPC: 0.664093 (Simulation time: 2 hr 29 min 43 sec) 
Heartbeat CPU 0 instructions: 111000003 cycles: 111794688 heartbeat IPC: 0.680638 cumulative IPC: 0.664358 (Simulation time: 2 hr 30 min 48 sec) 
Heartbeat CPU 0 instructions: 112000000 cycles: 113269926 heartbeat IPC: 0.677855 cumulative IPC: 0.664571 (Simulation time: 2 hr 31 min 55 sec) 
Heartbeat CPU 0 instructions: 113000001 cycles: 114814527 heartbeat IPC: 0.647417 cumulative IPC: 0.664292 (Simulation time: 2 hr 33 min 4 sec) 
Heartbeat CPU 0 instructions: 114000003 cycles: 116293932 heartbeat IPC: 0.675949 cumulative IPC: 0.664471 (Simulation time: 2 hr 34 min 17 sec) 
Heartbeat CPU 0 instructions: 115000003 cycles: 117773013 heartbeat IPC: 0.676095 cumulative IPC: 0.664647 (Simulation time: 2 hr 35 min 31 sec) 
Heartbeat CPU 0 instructions: 116000000 cycles: 119242098 heartbeat IPC: 0.680694 cumulative IPC: 0.664884 (Simulation time: 2 hr 36 min 44 sec) 
Heartbeat CPU 0 instructions: 117000003 cycles: 120778062 heartbeat IPC: 0.651059 cumulative IPC: 0.664674 (Simulation time: 2 hr 37 min 55 sec) 
Heartbeat CPU 0 instructions: 118000003 cycles: 122258764 heartbeat IPC: 0.675355 cumulative IPC: 0.664828 (Simulation time: 2 hr 39 min 11 sec) 
Heartbeat CPU 0 instructions: 119000000 cycles: 123754438 heartbeat IPC: 0.668593 cumulative IPC: 0.664883 (Simulation time: 2 hr 40 min 20 sec) 
Heartbeat CPU 0 instructions: 120000000 cycles: 125306532 heartbeat IPC: 0.644291 cumulative IPC: 0.664579 (Simulation time: 2 hr 41 min 26 sec) 
Heartbeat CPU 0 instructions: 121000002 cycles: 126772048 heartbeat IPC: 0.682355 cumulative IPC: 0.664823 (Simulation time: 2 hr 42 min 35 sec) 
Heartbeat CPU 0 instructions: 122000003 cycles: 128262202 heartbeat IPC: 0.671072 cumulative IPC: 0.664909 (Simulation time: 2 hr 43 min 47 sec) 
Heartbeat CPU 0 instructions: 123000002 cycles: 129770447 heartbeat IPC: 0.663022 cumulative IPC: 0.664883 (Simulation time: 2 hr 44 min 56 sec) 
Heartbeat CPU 0 instructions: 124000000 cycles: 131304962 heartbeat IPC: 0.65167 cumulative IPC: 0.664701 (Simulation time: 2 hr 46 min 35 sec) 
Heartbeat CPU 0 instructions: 125000001 cycles: 132784359 heartbeat IPC: 0.675952 cumulative IPC: 0.664849 (Simulation time: 2 hr 47 min 55 sec) 
Heartbeat CPU 0 instructions: 126000003 cycles: 134246897 heartbeat IPC: 0.683744 cumulative IPC: 0.66509 (Simulation time: 2 hr 49 min 2 sec) 
Heartbeat CPU 0 instructions: 127000002 cycles: 135774834 heartbeat IPC: 0.654477 cumulative IPC: 0.66495 (Simulation time: 2 hr 50 min 3 sec) 
Heartbeat CPU 0 instructions: 128000000 cycles: 137247563 heartbeat IPC: 0.67901 cumulative IPC: 0.665127 (Simulation time: 2 hr 51 min 6 sec) 
Heartbeat CPU 0 instructions: 129000003 cycles: 138710250 heartbeat IPC: 0.683675 cumulative IPC: 0.665355 (Simulation time: 2 hr 52 min 15 sec) 
Heartbeat CPU 0 instructions: 130000000 cycles: 140223478 heartbeat IPC: 0.660837 cumulative IPC: 0.665299 (Simulation time: 2 hr 53 min 32 sec) 
Heartbeat CPU 0 instructions: 131000001 cycles: 141698888 heartbeat IPC: 0.677778 cumulative IPC: 0.66545 (Simulation time: 2 hr 54 min 42 sec) 
Heartbeat CPU 0 instructions: 132000000 cycles: 143193788 heartbeat IPC: 0.66894 cumulative IPC: 0.665492 (Simulation time: 2 hr 55 min 43 sec) 
Heartbeat CPU 0 instructions: 133000003 cycles: 144678581 heartbeat IPC: 0.673497 cumulative IPC: 0.665587 (Simulation time: 2 hr 57 min 3 sec) 
Heartbeat CPU 0 instructions: 134000001 cycles: 146239167 heartbeat IPC: 0.640784 cumulative IPC: 0.665281 (Simulation time: 2 hr 58 min 28 sec) 
Heartbeat CPU 0 instructions: 135000000 cycles: 147735086 heartbeat IPC: 0.668485 cumulative IPC: 0.665318 (Simulation time: 2 hr 59 min 53 sec) 
Heartbeat CPU 0 instructions: 136000000 cycles: 149229750 heartbeat IPC: 0.669047 cumulative IPC: 0.665362 (Simulation time: 3 hr 1 min 29 sec) 
Heartbeat CPU 0 instructions: 137000002 cycles: 150770056 heartbeat IPC: 0.649223 cumulative IPC: 0.665172 (Simulation time: 3 hr 4 min 38 sec) 
Heartbeat CPU 0 instructions: 138000001 cycles: 152263771 heartbeat IPC: 0.669471 cumulative IPC: 0.66522 (Simulation time: 3 hr 7 min 42 sec) 
Heartbeat CPU 0 instructions: 139000000 cycles: 153748178 heartbeat IPC: 0.673669 cumulative IPC: 0.665314 (Simulation time: 3 hr 10 min 53 sec) 
Heartbeat CPU 0 instructions: 140000000 cycles: 155230188 heartbeat IPC: 0.674759 cumulative IPC: 0.665417 (Simulation time: 3 hr 13 min 50 sec) 
Heartbeat CPU 0 instructions: 141000001 cycles: 156790749 heartbeat IPC: 0.640796 cumulative IPC: 0.665136 (Simulation time: 3 hr 17 min 5 sec) 
Heartbeat CPU 0 instructions: 142000003 cycles: 158271593 heartbeat IPC: 0.675292 cumulative IPC: 0.665245 (Simulation time: 3 hr 20 min 7 sec) 
Heartbeat CPU 0 instructions: 143000003 cycles: 159758010 heartbeat IPC: 0.672759 cumulative IPC: 0.665325 (Simulation time: 3 hr 23 min 11 sec) 
Heartbeat CPU 0 instructions: 144000000 cycles: 161287807 heartbeat IPC: 0.65368 cumulative IPC: 0.665199 (Simulation time: 3 hr 26 min 13 sec) 
Heartbeat CPU 0 instructions: 145000002 cycles: 162778995 heartbeat IPC: 0.670608 cumulative IPC: 0.665255 (Simulation time: 3 hr 29 min 3 sec) 
Heartbeat CPU 0 instructions: 146000000 cycles: 164286615 heartbeat IPC: 0.663296 cumulative IPC: 0.665235 (Simulation time: 3 hr 32 min 1 sec) 
Heartbeat CPU 0 instructions: 147000000 cycles: 165827871 heartbeat IPC: 0.648821 cumulative IPC: 0.665062 (Simulation time: 3 hr 35 min 1 sec) 
Heartbeat CPU 0 instructions: 148000000 cycles: 167317721 heartbeat IPC: 0.671209 cumulative IPC: 0.665124 (Simulation time: 3 hr 38 min 2 sec) 
Heartbeat CPU 0 instructions: 149000001 cycles: 168814586 heartbeat IPC: 0.668064 cumulative IPC: 0.665153 (Simulation time: 3 hr 40 min 55 sec) 
Heartbeat CPU 0 instructions: 150000003 cycles: 170312742 heartbeat IPC: 0.667489 cumulative IPC: 0.665177 (Simulation time: 3 hr 43 min 51 sec) 
Finished CPU 0 instructions: 100000000 cycles: 150336022 cummulative IPC: 0.665177 (Simulation time: 3 hr 43 min 51 sec) 

ChampSim completed all CPUs

Region of Interest Statistics

CPU 0 cummulative IPC: 0.665177 instructions: 100000000 cycles: 150336022
LLC TOTAL     ACCESS:    5326543  HIT:     263086  MISS:    5063457
LLC LOAD      ACCESS:     378461  HIT:      11429  MISS:     367032
LLC RFO       ACCESS:    2270807  HIT:     113151  MISS:    2157656
LLC PREFETCH  ACCESS:     406531  HIT:      14083  MISS:     392448
LLC WRITEBACK ACCESS:    2270744  HIT:     124423  MISS:    2146321
