
*** ChampSim Multicore Out-of-Order Simulator ***

Warmup Instructions: 50000000
Simulation Instructions: 100000000
Configuration: 2
Number of CPUs: 1
LLC sets: 2048
LLC ways: 16
Off-chip DRAM Channels: 1 Width: 64-bit Data Rate: 1600 MT/s

CPU 0 runs /datasets/cs240c-wi22-a00-public/data/Assignment2-gz/calculix_3812B.trace.gz
CPU 0 L1D next line prefetcher
CPU 0 L2C IP-based stride prefetcher
Heartbeat CPU 0 instructions: 1000001 cycles: 478689 heartbeat IPC: 2.08904 cumulative IPC: 2.08904 (Simulation time: 0 hr 1 min 54 sec) 
Heartbeat CPU 0 instructions: 2000002 cycles: 956483 heartbeat IPC: 2.09295 cumulative IPC: 2.091 (Simulation time: 0 hr 3 min 49 sec) 
Heartbeat CPU 0 instructions: 3000002 cycles: 1434999 heartbeat IPC: 2.08979 cumulative IPC: 2.0906 (Simulation time: 0 hr 5 min 32 sec) 
Heartbeat CPU 0 instructions: 4000000 cycles: 1907482 heartbeat IPC: 2.11647 cumulative IPC: 2.09701 (Simulation time: 0 hr 7 min 21 sec) 
Heartbeat CPU 0 instructions: 5000000 cycles: 2356307 heartbeat IPC: 2.22804 cumulative IPC: 2.12196 (Simulation time: 0 hr 9 min 2 sec) 
Heartbeat CPU 0 instructions: 6000003 cycles: 2761688 heartbeat IPC: 2.46682 cumulative IPC: 2.17259 (Simulation time: 0 hr 10 min 18 sec) 
Heartbeat CPU 0 instructions: 7000002 cycles: 3154798 heartbeat IPC: 2.54381 cumulative IPC: 2.21884 (Simulation time: 0 hr 11 min 35 sec) 
Heartbeat CPU 0 instructions: 8000000 cycles: 3547939 heartbeat IPC: 2.54361 cumulative IPC: 2.25483 (Simulation time: 0 hr 12 min 50 sec) 
Heartbeat CPU 0 instructions: 9000000 cycles: 3940928 heartbeat IPC: 2.5446 cumulative IPC: 2.28373 (Simulation time: 0 hr 14 min 4 sec) 
Heartbeat CPU 0 instructions: 10000003 cycles: 4334017 heartbeat IPC: 2.54396 cumulative IPC: 2.30733 (Simulation time: 0 hr 15 min 18 sec) 
Heartbeat CPU 0 instructions: 11000000 cycles: 4726964 heartbeat IPC: 2.54486 cumulative IPC: 2.32708 (Simulation time: 0 hr 16 min 37 sec) 
Heartbeat CPU 0 instructions: 12000000 cycles: 5120150 heartbeat IPC: 2.54333 cumulative IPC: 2.34368 (Simulation time: 0 hr 17 min 58 sec) 
Heartbeat CPU 0 instructions: 13000003 cycles: 5513237 heartbeat IPC: 2.54397 cumulative IPC: 2.35796 (Simulation time: 0 hr 19 min 17 sec) 
Heartbeat CPU 0 instructions: 14000001 cycles: 5942143 heartbeat IPC: 2.33151 cumulative IPC: 2.35605 (Simulation time: 0 hr 21 min 12 sec) 
Heartbeat CPU 0 instructions: 15000000 cycles: 6335382 heartbeat IPC: 2.54298 cumulative IPC: 2.36766 (Simulation time: 0 hr 22 min 28 sec) 
Heartbeat CPU 0 instructions: 16000000 cycles: 6728574 heartbeat IPC: 2.54329 cumulative IPC: 2.37792 (Simulation time: 0 hr 23 min 44 sec) 
Heartbeat CPU 0 instructions: 17000002 cycles: 7121750 heartbeat IPC: 2.5434 cumulative IPC: 2.38705 (Simulation time: 0 hr 25 min 0 sec) 
Heartbeat CPU 0 instructions: 18000001 cycles: 7515077 heartbeat IPC: 2.54241 cumulative IPC: 2.39519 (Simulation time: 0 hr 26 min 16 sec) 
Heartbeat CPU 0 instructions: 19000001 cycles: 7908294 heartbeat IPC: 2.54313 cumulative IPC: 2.40254 (Simulation time: 0 hr 27 min 41 sec) 
Heartbeat CPU 0 instructions: 20000000 cycles: 8301268 heartbeat IPC: 2.5447 cumulative IPC: 2.40927 (Simulation time: 0 hr 29 min 7 sec) 
Heartbeat CPU 0 instructions: 21000000 cycles: 8694479 heartbeat IPC: 2.54316 cumulative IPC: 2.41533 (Simulation time: 0 hr 30 min 30 sec) 
Heartbeat CPU 0 instructions: 22000003 cycles: 9087728 heartbeat IPC: 2.54293 cumulative IPC: 2.42085 (Simulation time: 0 hr 31 min 46 sec) 
Heartbeat CPU 0 instructions: 23000002 cycles: 9480995 heartbeat IPC: 2.5428 cumulative IPC: 2.42591 (Simulation time: 0 hr 33 min 1 sec) 
Heartbeat CPU 0 instructions: 24000000 cycles: 9874253 heartbeat IPC: 2.54285 cumulative IPC: 2.43056 (Simulation time: 0 hr 34 min 26 sec) 
Heartbeat CPU 0 instructions: 25000003 cycles: 10262723 heartbeat IPC: 2.57421 cumulative IPC: 2.436 (Simulation time: 0 hr 35 min 55 sec) 
Heartbeat CPU 0 instructions: 26000003 cycles: 10649332 heartbeat IPC: 2.58659 cumulative IPC: 2.44147 (Simulation time: 0 hr 37 min 15 sec) 
Heartbeat CPU 0 instructions: 27000000 cycles: 11035434 heartbeat IPC: 2.58998 cumulative IPC: 2.44666 (Simulation time: 0 hr 38 min 47 sec) 
Heartbeat CPU 0 instructions: 28000000 cycles: 11422756 heartbeat IPC: 2.58183 cumulative IPC: 2.45125 (Simulation time: 0 hr 40 min 20 sec) 
Heartbeat CPU 0 instructions: 29000003 cycles: 11815304 heartbeat IPC: 2.54747 cumulative IPC: 2.45444 (Simulation time: 0 hr 41 min 43 sec) 
Heartbeat CPU 0 instructions: 30000001 cycles: 12202094 heartbeat IPC: 2.58538 cumulative IPC: 2.45859 (Simulation time: 0 hr 43 min 10 sec) 
Heartbeat CPU 0 instructions: 31000001 cycles: 12567509 heartbeat IPC: 2.73661 cumulative IPC: 2.46668 (Simulation time: 0 hr 44 min 49 sec) 
Heartbeat CPU 0 instructions: 32000000 cycles: 13033827 heartbeat IPC: 2.14446 cumulative IPC: 2.45515 (Simulation time: 0 hr 46 min 41 sec) 
Heartbeat CPU 0 instructions: 33000003 cycles: 13513408 heartbeat IPC: 2.08516 cumulative IPC: 2.44202 (Simulation time: 0 hr 48 min 48 sec) 
Heartbeat CPU 0 instructions: 34000000 cycles: 13993158 heartbeat IPC: 2.08441 cumulative IPC: 2.42976 (Simulation time: 0 hr 50 min 58 sec) 
Heartbeat CPU 0 instructions: 35000000 cycles: 14471849 heartbeat IPC: 2.08903 cumulative IPC: 2.41849 (Simulation time: 0 hr 53 min 9 sec) 
Heartbeat CPU 0 instructions: 36000000 cycles: 14948717 heartbeat IPC: 2.09702 cumulative IPC: 2.40823 (Simulation time: 0 hr 55 min 13 sec) 
Heartbeat CPU 0 instructions: 37000003 cycles: 15427168 heartbeat IPC: 2.09008 cumulative IPC: 2.39837 (Simulation time: 0 hr 57 min 9 sec) 
Heartbeat CPU 0 instructions: 38000003 cycles: 15900973 heartbeat IPC: 2.11057 cumulative IPC: 2.38979 (Simulation time: 0 hr 59 min 4 sec) 
Heartbeat CPU 0 instructions: 39000001 cycles: 16324282 heartbeat IPC: 2.36234 cumulative IPC: 2.38908 (Simulation time: 1 hr 0 min 48 sec) 
Heartbeat CPU 0 instructions: 40000000 cycles: 16759379 heartbeat IPC: 2.29834 cumulative IPC: 2.38672 (Simulation time: 1 hr 2 min 32 sec) 
Heartbeat CPU 0 instructions: 41000002 cycles: 17202666 heartbeat IPC: 2.25588 cumulative IPC: 2.38335 (Simulation time: 1 hr 4 min 23 sec) 
Heartbeat CPU 0 instructions: 42000003 cycles: 17578886 heartbeat IPC: 2.65802 cumulative IPC: 2.38923 (Simulation time: 1 hr 6 min 6 sec) 
Heartbeat CPU 0 instructions: 43000000 cycles: 17974042 heartbeat IPC: 2.53064 cumulative IPC: 2.39234 (Simulation time: 1 hr 8 min 0 sec) 
Heartbeat CPU 0 instructions: 44000000 cycles: 18451829 heartbeat IPC: 2.09298 cumulative IPC: 2.38459 (Simulation time: 1 hr 10 min 6 sec) 
Heartbeat CPU 0 instructions: 45000002 cycles: 18927168 heartbeat IPC: 2.10377 cumulative IPC: 2.37753 (Simulation time: 1 hr 12 min 11 sec) 
Heartbeat CPU 0 instructions: 46000002 cycles: 19405069 heartbeat IPC: 2.09248 cumulative IPC: 2.37051 (Simulation time: 1 hr 14 min 10 sec) 
Heartbeat CPU 0 instructions: 47000002 cycles: 19840993 heartbeat IPC: 2.29398 cumulative IPC: 2.36883 (Simulation time: 1 hr 15 min 43 sec) 
Heartbeat CPU 0 instructions: 48000000 cycles: 20234883 heartbeat IPC: 2.53877 cumulative IPC: 2.37214 (Simulation time: 1 hr 17 min 1 sec) 
Heartbeat CPU 0 instructions: 49000001 cycles: 20628359 heartbeat IPC: 2.54145 cumulative IPC: 2.37537 (Simulation time: 1 hr 18 min 15 sec) 
Heartbeat CPU 0 instructions: 50000000 cycles: 21023457 heartbeat IPC: 2.53102 cumulative IPC: 2.3783 (Simulation time: 1 hr 19 min 26 sec) 

Warmup complete CPU 0 instructions: 50000004 cycles: 21023458 (Simulation time: 1 hr 19 min 26 sec) 

Heartbeat CPU 0 instructions: 51000000 cycles: 21610244 heartbeat IPC: 1.7042 cumulative IPC: 1.70419 (Simulation time: 1 hr 20 min 57 sec) 
Heartbeat CPU 0 instructions: 52000000 cycles: 22153249 heartbeat IPC: 1.8416 cumulative IPC: 1.77024 (Simulation time: 1 hr 22 min 17 sec) 
Heartbeat CPU 0 instructions: 53000000 cycles: 22601107 heartbeat IPC: 2.23285 cumulative IPC: 1.90156 (Simulation time: 1 hr 23 min 31 sec) 
Heartbeat CPU 0 instructions: 54000003 cycles: 23040693 heartbeat IPC: 2.27487 cumulative IPC: 1.98291 (Simulation time: 1 hr 24 min 53 sec) 
Heartbeat CPU 0 instructions: 55000001 cycles: 23480411 heartbeat IPC: 2.27418 cumulative IPC: 2.03504 (Simulation time: 1 hr 26 min 6 sec) 
Heartbeat CPU 0 instructions: 56000000 cycles: 23920455 heartbeat IPC: 2.2725 cumulative IPC: 2.07111 (Simulation time: 1 hr 27 min 9 sec) 
Heartbeat CPU 0 instructions: 57000003 cycles: 24361466 heartbeat IPC: 2.26752 cumulative IPC: 2.09706 (Simulation time: 1 hr 28 min 19 sec) 
Heartbeat CPU 0 instructions: 58000002 cycles: 24819099 heartbeat IPC: 2.18515 cumulative IPC: 2.10768 (Simulation time: 1 hr 29 min 27 sec) 
Heartbeat CPU 0 instructions: 59000001 cycles: 25373942 heartbeat IPC: 1.80231 cumulative IPC: 2.06873 (Simulation time: 1 hr 30 min 46 sec) 
Heartbeat CPU 0 instructions: 60000000 cycles: 25813598 heartbeat IPC: 2.2745 cumulative IPC: 2.08762 (Simulation time: 1 hr 32 min 2 sec) 
Heartbeat CPU 0 instructions: 61000003 cycles: 26256306 heartbeat IPC: 2.25883 cumulative IPC: 2.10211 (Simulation time: 1 hr 33 min 23 sec) 
Heartbeat CPU 0 instructions: 62000002 cycles: 26695194 heartbeat IPC: 2.27848 cumulative IPC: 2.11575 (Simulation time: 1 hr 34 min 39 sec) 
Heartbeat CPU 0 instructions: 63000003 cycles: 27133313 heartbeat IPC: 2.28249 cumulative IPC: 2.12771 (Simulation time: 1 hr 35 min 54 sec) 
Heartbeat CPU 0 instructions: 64000000 cycles: 27570820 heartbeat IPC: 2.28567 cumulative IPC: 2.13827 (Simulation time: 1 hr 37 min 19 sec) 
Heartbeat CPU 0 instructions: 65000000 cycles: 28200979 heartbeat IPC: 1.5869 cumulative IPC: 2.08986 (Simulation time: 1 hr 39 min 4 sec) 
Heartbeat CPU 0 instructions: 66000002 cycles: 28747522 heartbeat IPC: 1.82969 cumulative IPC: 2.07145 (Simulation time: 1 hr 40 min 42 sec) 
Heartbeat CPU 0 instructions: 67000002 cycles: 29185245 heartbeat IPC: 2.28455 cumulative IPC: 2.08288 (Simulation time: 1 hr 42 min 11 sec) 
Heartbeat CPU 0 instructions: 68000000 cycles: 29621669 heartbeat IPC: 2.29135 cumulative IPC: 2.09346 (Simulation time: 1 hr 43 min 47 sec) 
Heartbeat CPU 0 instructions: 69000001 cycles: 30160003 heartbeat IPC: 1.85758 cumulative IPC: 2.07956 (Simulation time: 1 hr 45 min 7 sec) 
Heartbeat CPU 0 instructions: 70000000 cycles: 30607563 heartbeat IPC: 2.23433 cumulative IPC: 2.08679 (Simulation time: 1 hr 46 min 43 sec) 
Heartbeat CPU 0 instructions: 71000000 cycles: 31049425 heartbeat IPC: 2.26315 cumulative IPC: 2.09456 (Simulation time: 1 hr 48 min 21 sec) 
Heartbeat CPU 0 instructions: 72000000 cycles: 31533629 heartbeat IPC: 2.06525 cumulative IPC: 2.09321 (Simulation time: 1 hr 50 min 6 sec) 
Heartbeat CPU 0 instructions: 73000001 cycles: 32097736 heartbeat IPC: 1.77272 cumulative IPC: 2.07688 (Simulation time: 1 hr 51 min 46 sec) 
Heartbeat CPU 0 instructions: 74000002 cycles: 32745010 heartbeat IPC: 1.54494 cumulative IPC: 2.04751 (Simulation time: 1 hr 53 min 32 sec) 
Heartbeat CPU 0 instructions: 75000000 cycles: 33297199 heartbeat IPC: 1.81097 cumulative IPC: 2.03687 (Simulation time: 1 hr 55 min 17 sec) 
Heartbeat CPU 0 instructions: 76000000 cycles: 34045493 heartbeat IPC: 1.33637 cumulative IPC: 1.99662 (Simulation time: 1 hr 57 min 23 sec) 
Heartbeat CPU 0 instructions: 77000000 cycles: 34766456 heartbeat IPC: 1.38703 cumulative IPC: 1.96464 (Simulation time: 1 hr 59 min 22 sec) 
Heartbeat CPU 0 instructions: 78000003 cycles: 35485232 heartbeat IPC: 1.39126 cumulative IPC: 1.93614 (Simulation time: 2 hr 1 min 36 sec) 
Heartbeat CPU 0 instructions: 79000000 cycles: 36196133 heartbeat IPC: 1.40666 cumulative IPC: 1.91133 (Simulation time: 2 hr 3 min 37 sec) 
Heartbeat CPU 0 instructions: 80000000 cycles: 36881215 heartbeat IPC: 1.45968 cumulative IPC: 1.89182 (Simulation time: 2 hr 5 min 41 sec) 
Heartbeat CPU 0 instructions: 81000001 cycles: 37545547 heartbeat IPC: 1.50527 cumulative IPC: 1.87628 (Simulation time: 2 hr 7 min 54 sec) 
Heartbeat CPU 0 instructions: 82000002 cycles: 38188505 heartbeat IPC: 1.55531 cumulative IPC: 1.86425 (Simulation time: 2 hr 9 min 24 sec) 
Heartbeat CPU 0 instructions: 83000002 cycles: 39005343 heartbeat IPC: 1.22423 cumulative IPC: 1.83518 (Simulation time: 2 hr 10 min 59 sec) 
Heartbeat CPU 0 instructions: 84000000 cycles: 39594334 heartbeat IPC: 1.69782 cumulative IPC: 1.83082 (Simulation time: 2 hr 12 min 44 sec) 
Heartbeat CPU 0 instructions: 85000000 cycles: 40049059 heartbeat IPC: 2.19913 cumulative IPC: 1.83963 (Simulation time: 2 hr 14 min 18 sec) 
Heartbeat CPU 0 instructions: 86000001 cycles: 40501451 heartbeat IPC: 2.21047 cumulative IPC: 1.84824 (Simulation time: 2 hr 15 min 56 sec) 
Heartbeat CPU 0 instructions: 87000002 cycles: 40957072 heartbeat IPC: 2.19481 cumulative IPC: 1.85616 (Simulation time: 2 hr 17 min 43 sec) 
Heartbeat CPU 0 instructions: 88000000 cycles: 41408101 heartbeat IPC: 2.21715 cumulative IPC: 1.86415 (Simulation time: 2 hr 19 min 29 sec) 
Heartbeat CPU 0 instructions: 89000003 cycles: 41857646 heartbeat IPC: 2.22448 cumulative IPC: 1.87192 (Simulation time: 2 hr 21 min 12 sec) 
Heartbeat CPU 0 instructions: 90000003 cycles: 42307619 heartbeat IPC: 2.22236 cumulative IPC: 1.87933 (Simulation time: 2 hr 22 min 53 sec) 
Heartbeat CPU 0 instructions: 91000001 cycles: 42769644 heartbeat IPC: 2.16438 cumulative IPC: 1.88539 (Simulation time: 2 hr 24 min 34 sec) 
Heartbeat CPU 0 instructions: 92000000 cycles: 43246079 heartbeat IPC: 2.09892 cumulative IPC: 1.88997 (Simulation time: 2 hr 26 min 12 sec) 
Heartbeat CPU 0 instructions: 93000000 cycles: 43691972 heartbeat IPC: 2.24269 cumulative IPC: 1.8969 (Simulation time: 2 hr 27 min 55 sec) 
Heartbeat CPU 0 instructions: 94000003 cycles: 44137112 heartbeat IPC: 2.24649 cumulative IPC: 1.90364 (Simulation time: 2 hr 29 min 36 sec) 
Heartbeat CPU 0 instructions: 95000001 cycles: 44754254 heartbeat IPC: 1.62037 cumulative IPC: 1.89627 (Simulation time: 2 hr 31 min 28 sec) 
Heartbeat CPU 0 instructions: 96000000 cycles: 45315990 heartbeat IPC: 1.78019 cumulative IPC: 1.89359 (Simulation time: 2 hr 33 min 14 sec) 
Heartbeat CPU 0 instructions: 97000000 cycles: 45757949 heartbeat IPC: 2.26265 cumulative IPC: 1.90018 (Simulation time: 2 hr 34 min 38 sec) 
Heartbeat CPU 0 instructions: 98000003 cycles: 46198192 heartbeat IPC: 2.27148 cumulative IPC: 1.90667 (Simulation time: 2 hr 36 min 0 sec) 
Heartbeat CPU 0 instructions: 99000000 cycles: 46637838 heartbeat IPC: 2.27455 cumulative IPC: 1.91299 (Simulation time: 2 hr 37 min 16 sec) 
Heartbeat CPU 0 instructions: 100000000 cycles: 47077852 heartbeat IPC: 2.27266 cumulative IPC: 1.91906 (Simulation time: 2 hr 38 min 36 sec) 
Heartbeat CPU 0 instructions: 101000003 cycles: 47517436 heartbeat IPC: 2.27488 cumulative IPC: 1.92497 (Simulation time: 2 hr 39 min 47 sec) 
Heartbeat CPU 0 instructions: 102000002 cycles: 48042076 heartbeat IPC: 1.90607 cumulative IPC: 1.9246 (Simulation time: 2 hr 41 min 12 sec) 
Heartbeat CPU 0 instructions: 103000000 cycles: 48486018 heartbeat IPC: 2.25254 cumulative IPC: 1.9299 (Simulation time: 2 hr 42 min 24 sec) 
Heartbeat CPU 0 instructions: 104000000 cycles: 48924579 heartbeat IPC: 2.28018 cumulative IPC: 1.93541 (Simulation time: 2 hr 43 min 45 sec) 
Heartbeat CPU 0 instructions: 105000000 cycles: 49361874 heartbeat IPC: 2.28679 cumulative IPC: 1.94083 (Simulation time: 2 hr 44 min 50 sec) 
Heartbeat CPU 0 instructions: 106000003 cycles: 49798783 heartbeat IPC: 2.28881 cumulative IPC: 1.94611 (Simulation time: 2 hr 46 min 13 sec) 
Heartbeat CPU 0 instructions: 107000003 cycles: 50236675 heartbeat IPC: 2.28367 cumulative IPC: 1.95117 (Simulation time: 2 hr 47 min 8 sec) 
Heartbeat CPU 0 instructions: 108000000 cycles: 50751478 heartbeat IPC: 1.94248 cumulative IPC: 1.95102 (Simulation time: 2 hr 48 min 7 sec) 
Heartbeat CPU 0 instructions: 109000002 cycles: 51401695 heartbeat IPC: 1.53795 cumulative IPC: 1.94218 (Simulation time: 2 hr 48 min 56 sec) 
Heartbeat CPU 0 instructions: 110000003 cycles: 51839155 heartbeat IPC: 2.28593 cumulative IPC: 1.94706 (Simulation time: 2 hr 49 min 41 sec) 
Heartbeat CPU 0 instructions: 111000001 cycles: 52275187 heartbeat IPC: 2.29341 cumulative IPC: 1.95189 (Simulation time: 2 hr 50 min 31 sec) 
Heartbeat CPU 0 instructions: 112000000 cycles: 52758767 heartbeat IPC: 2.06791 cumulative IPC: 1.95366 (Simulation time: 2 hr 51 min 17 sec) 
Heartbeat CPU 0 instructions: 113000003 cycles: 53230927 heartbeat IPC: 2.11793 cumulative IPC: 1.95607 (Simulation time: 2 hr 52 min 4 sec) 
Heartbeat CPU 0 instructions: 114000003 cycles: 53668096 heartbeat IPC: 2.28744 cumulative IPC: 1.96051 (Simulation time: 2 hr 53 min 1 sec) 
Heartbeat CPU 0 instructions: 115000002 cycles: 54103298 heartbeat IPC: 2.29778 cumulative IPC: 1.96494 (Simulation time: 2 hr 53 min 48 sec) 
Heartbeat CPU 0 instructions: 116000000 cycles: 54609573 heartbeat IPC: 1.97521 cumulative IPC: 1.9651 (Simulation time: 2 hr 54 min 33 sec) 
Heartbeat CPU 0 instructions: 117000000 cycles: 55170816 heartbeat IPC: 1.78176 cumulative IPC: 1.96208 (Simulation time: 2 hr 55 min 20 sec) 
Heartbeat CPU 0 instructions: 118000001 cycles: 55807857 heartbeat IPC: 1.56976 cumulative IPC: 1.9549 (Simulation time: 2 hr 56 min 14 sec) 
Heartbeat CPU 0 instructions: 119000003 cycles: 56553987 heartbeat IPC: 1.34025 cumulative IPC: 1.94199 (Simulation time: 2 hr 57 min 31 sec) 
Heartbeat CPU 0 instructions: 120000000 cycles: 57270970 heartbeat IPC: 1.39473 cumulative IPC: 1.93117 (Simulation time: 2 hr 58 min 46 sec) 
Heartbeat CPU 0 instructions: 121000001 cycles: 57985955 heartbeat IPC: 1.39863 cumulative IPC: 1.92087 (Simulation time: 2 hr 59 min 59 sec) 
Heartbeat CPU 0 instructions: 122000002 cycles: 58691774 heartbeat IPC: 1.4168 cumulative IPC: 1.91142 (Simulation time: 3 hr 1 min 11 sec) 
Heartbeat CPU 0 instructions: 123000002 cycles: 59374220 heartbeat IPC: 1.46532 cumulative IPC: 1.90348 (Simulation time: 3 hr 3 min 53 sec) 
Heartbeat CPU 0 instructions: 124000000 cycles: 60037723 heartbeat IPC: 1.50715 cumulative IPC: 1.89674 (Simulation time: 3 hr 6 min 32 sec) 
Heartbeat CPU 0 instructions: 125000002 cycles: 60685881 heartbeat IPC: 1.54284 cumulative IPC: 1.89096 (Simulation time: 3 hr 9 min 5 sec) 
Heartbeat CPU 0 instructions: 126000001 cycles: 61626147 heartbeat IPC: 1.06353 cumulative IPC: 1.8718 (Simulation time: 3 hr 11 min 46 sec) 
Heartbeat CPU 0 instructions: 127000003 cycles: 62202809 heartbeat IPC: 1.73412 cumulative IPC: 1.86987 (Simulation time: 3 hr 14 min 3 sec) 
Heartbeat CPU 0 instructions: 128000000 cycles: 62651261 heartbeat IPC: 2.22989 cumulative IPC: 1.87375 (Simulation time: 3 hr 16 min 13 sec) 
Heartbeat CPU 0 instructions: 129000002 cycles: 63100550 heartbeat IPC: 2.22574 cumulative IPC: 1.87751 (Simulation time: 3 hr 18 min 23 sec) 
Heartbeat CPU 0 instructions: 130000001 cycles: 63549187 heartbeat IPC: 2.22897 cumulative IPC: 1.88121 (Simulation time: 3 hr 20 min 27 sec) 
Heartbeat CPU 0 instructions: 131000000 cycles: 63997638 heartbeat IPC: 2.2299 cumulative IPC: 1.88485 (Simulation time: 3 hr 22 min 37 sec) 
Heartbeat CPU 0 instructions: 132000000 cycles: 64451306 heartbeat IPC: 2.20426 cumulative IPC: 1.88819 (Simulation time: 3 hr 24 min 45 sec) 
Heartbeat CPU 0 instructions: 133000000 cycles: 64906841 heartbeat IPC: 2.19522 cumulative IPC: 1.89138 (Simulation time: 3 hr 26 min 54 sec) 
Heartbeat CPU 0 instructions: 134000000 cycles: 65430599 heartbeat IPC: 1.90928 cumulative IPC: 1.89159 (Simulation time: 3 hr 28 min 58 sec) 
Heartbeat CPU 0 instructions: 135000003 cycles: 65947214 heartbeat IPC: 1.93568 cumulative IPC: 1.89209 (Simulation time: 3 hr 31 min 8 sec) 
Heartbeat CPU 0 instructions: 136000000 cycles: 66395419 heartbeat IPC: 2.23112 cumulative IPC: 1.89544 (Simulation time: 3 hr 33 min 16 sec) 
Heartbeat CPU 0 instructions: 137000002 cycles: 66846926 heartbeat IPC: 2.21481 cumulative IPC: 1.89859 (Simulation time: 3 hr 35 min 25 sec) 
Heartbeat CPU 0 instructions: 138000002 cycles: 67299904 heartbeat IPC: 2.20761 cumulative IPC: 1.90162 (Simulation time: 3 hr 37 min 26 sec) 
Heartbeat CPU 0 instructions: 139000000 cycles: 67756230 heartbeat IPC: 2.19141 cumulative IPC: 1.90445 (Simulation time: 3 hr 39 min 27 sec) 
Heartbeat CPU 0 instructions: 140000000 cycles: 68207556 heartbeat IPC: 2.21569 cumulative IPC: 1.90742 (Simulation time: 3 hr 41 min 34 sec) 
Heartbeat CPU 0 instructions: 141000000 cycles: 68660500 heartbeat IPC: 2.20778 cumulative IPC: 1.91028 (Simulation time: 3 hr 43 min 39 sec) 
Heartbeat CPU 0 instructions: 142000003 cycles: 69171981 heartbeat IPC: 1.95511 cumulative IPC: 1.91075 (Simulation time: 3 hr 45 min 42 sec) 
Heartbeat CPU 0 instructions: 143000002 cycles: 69616136 heartbeat IPC: 2.25146 cumulative IPC: 1.91387 (Simulation time: 3 hr 47 min 43 sec) 
Heartbeat CPU 0 instructions: 144000000 cycles: 70066183 heartbeat IPC: 2.22199 cumulative IPC: 1.9167 (Simulation time: 3 hr 49 min 37 sec) 
Heartbeat CPU 0 instructions: 145000001 cycles: 70717940 heartbeat IPC: 1.53432 cumulative IPC: 1.91168 (Simulation time: 3 hr 51 min 43 sec) 
Heartbeat CPU 0 instructions: 146000003 cycles: 71299696 heartbeat IPC: 1.71894 cumulative IPC: 1.90945 (Simulation time: 3 hr 53 min 54 sec) 
Heartbeat CPU 0 instructions: 147000002 cycles: 71738033 heartbeat IPC: 2.28135 cumulative IPC: 1.91267 (Simulation time: 3 hr 55 min 46 sec) 
Heartbeat CPU 0 instructions: 148000000 cycles: 72175061 heartbeat IPC: 2.28818 cumulative IPC: 1.91587 (Simulation time: 3 hr 57 min 40 sec) 
Heartbeat CPU 0 instructions: 149000002 cycles: 72614608 heartbeat IPC: 2.27507 cumulative IPC: 1.91893 (Simulation time: 3 hr 59 min 28 sec) 
Heartbeat CPU 0 instructions: 150000003 cycles: 73052315 heartbeat IPC: 2.28464 cumulative IPC: 1.92201 (Simulation time: 4 hr 1 min 24 sec) 
Finished CPU 0 instructions: 100000003 cycles: 52028858 cummulative IPC: 1.92201 (Simulation time: 4 hr 1 min 24 sec) 

ChampSim completed all CPUs

Region of Interest Statistics

CPU 0 cummulative IPC: 1.92201 instructions: 100000003 cycles: 52028858
LLC TOTAL     ACCESS:    1256062  HIT:    1182176  MISS:      73886
LLC LOAD      ACCESS:     149449  HIT:     141431  MISS:       8018
LLC RFO       ACCESS:      37525  HIT:      18157  MISS:      19368
LLC PREFETCH  ACCESS:     776745  HIT:     731789  MISS:      44956
LLC WRITEBACK ACCESS:     292343  HIT:     290799  MISS:       1544
