
*** ChampSim Multicore Out-of-Order Simulator ***

Warmup Instructions: 50000000
Simulation Instructions: 100000000
Configuration: 2
Number of CPUs: 1
LLC sets: 2048
LLC ways: 16
Off-chip DRAM Channels: 1 Width: 64-bit Data Rate: 1600 MT/s

CPU 0 runs /datasets/cs240c-wi22-a00-public/data/Assignment2-gz/perlbench_135B.trace.gz
CPU 0 L1D next line prefetcher
CPU 0 L2C IP-based stride prefetcher
Heartbeat CPU 0 instructions: 1000000 cycles: 600033 heartbeat IPC: 1.66657 cumulative IPC: 1.66657 (Simulation time: 0 hr 1 min 39 sec) 
Heartbeat CPU 0 instructions: 2000000 cycles: 1209301 heartbeat IPC: 1.64131 cumulative IPC: 1.65385 (Simulation time: 0 hr 3 min 14 sec) 
Heartbeat CPU 0 instructions: 3000000 cycles: 1832834 heartbeat IPC: 1.60376 cumulative IPC: 1.63681 (Simulation time: 0 hr 4 min 53 sec) 
Heartbeat CPU 0 instructions: 4000000 cycles: 2492639 heartbeat IPC: 1.5156 cumulative IPC: 1.60473 (Simulation time: 0 hr 6 min 36 sec) 
Heartbeat CPU 0 instructions: 5000001 cycles: 3079302 heartbeat IPC: 1.70456 cumulative IPC: 1.62374 (Simulation time: 0 hr 8 min 12 sec) 
Heartbeat CPU 0 instructions: 6000002 cycles: 3681729 heartbeat IPC: 1.65995 cumulative IPC: 1.62967 (Simulation time: 0 hr 9 min 53 sec) 
Heartbeat CPU 0 instructions: 7000001 cycles: 4282492 heartbeat IPC: 1.66455 cumulative IPC: 1.63456 (Simulation time: 0 hr 11 min 27 sec) 
Heartbeat CPU 0 instructions: 8000000 cycles: 4892986 heartbeat IPC: 1.63802 cumulative IPC: 1.63499 (Simulation time: 0 hr 13 min 6 sec) 
Heartbeat CPU 0 instructions: 9000001 cycles: 5534121 heartbeat IPC: 1.55974 cumulative IPC: 1.62627 (Simulation time: 0 hr 14 min 43 sec) 
Heartbeat CPU 0 instructions: 10000000 cycles: 6192836 heartbeat IPC: 1.51811 cumulative IPC: 1.61477 (Simulation time: 0 hr 16 min 20 sec) 
Heartbeat CPU 0 instructions: 11000003 cycles: 6888946 heartbeat IPC: 1.43656 cumulative IPC: 1.59676 (Simulation time: 0 hr 18 min 2 sec) 
Heartbeat CPU 0 instructions: 12000000 cycles: 7505157 heartbeat IPC: 1.62282 cumulative IPC: 1.5989 (Simulation time: 0 hr 19 min 36 sec) 
Heartbeat CPU 0 instructions: 13000000 cycles: 8134092 heartbeat IPC: 1.58999 cumulative IPC: 1.59821 (Simulation time: 0 hr 21 min 12 sec) 
Heartbeat CPU 0 instructions: 14000002 cycles: 8774572 heartbeat IPC: 1.56133 cumulative IPC: 1.59552 (Simulation time: 0 hr 22 min 52 sec) 
Heartbeat CPU 0 instructions: 15000003 cycles: 9413447 heartbeat IPC: 1.56525 cumulative IPC: 1.59347 (Simulation time: 0 hr 24 min 58 sec) 
Heartbeat CPU 0 instructions: 16000000 cycles: 10053283 heartbeat IPC: 1.5629 cumulative IPC: 1.59152 (Simulation time: 0 hr 27 min 10 sec) 
Heartbeat CPU 0 instructions: 17000000 cycles: 10694438 heartbeat IPC: 1.55969 cumulative IPC: 1.58961 (Simulation time: 0 hr 29 min 19 sec) 
Heartbeat CPU 0 instructions: 18000000 cycles: 11335105 heartbeat IPC: 1.56087 cumulative IPC: 1.58799 (Simulation time: 0 hr 31 min 34 sec) 
Heartbeat CPU 0 instructions: 19000003 cycles: 11972185 heartbeat IPC: 1.56967 cumulative IPC: 1.58701 (Simulation time: 0 hr 33 min 47 sec) 
Heartbeat CPU 0 instructions: 20000000 cycles: 12611024 heartbeat IPC: 1.56533 cumulative IPC: 1.58591 (Simulation time: 0 hr 36 min 6 sec) 
Heartbeat CPU 0 instructions: 21000000 cycles: 13246388 heartbeat IPC: 1.5739 cumulative IPC: 1.58534 (Simulation time: 0 hr 38 min 25 sec) 
Heartbeat CPU 0 instructions: 22000002 cycles: 13885133 heartbeat IPC: 1.56557 cumulative IPC: 1.58443 (Simulation time: 0 hr 40 min 49 sec) 
Heartbeat CPU 0 instructions: 23000003 cycles: 14552653 heartbeat IPC: 1.49808 cumulative IPC: 1.58047 (Simulation time: 0 hr 43 min 11 sec) 
Heartbeat CPU 0 instructions: 24000000 cycles: 15116537 heartbeat IPC: 1.77341 cumulative IPC: 1.58767 (Simulation time: 0 hr 45 min 1 sec) 
Heartbeat CPU 0 instructions: 25000000 cycles: 15773443 heartbeat IPC: 1.52229 cumulative IPC: 1.58494 (Simulation time: 0 hr 46 min 56 sec) 
Heartbeat CPU 0 instructions: 26000001 cycles: 16389419 heartbeat IPC: 1.62344 cumulative IPC: 1.58639 (Simulation time: 0 hr 48 min 31 sec) 
Heartbeat CPU 0 instructions: 27000000 cycles: 17029640 heartbeat IPC: 1.56196 cumulative IPC: 1.58547 (Simulation time: 0 hr 50 min 5 sec) 
Heartbeat CPU 0 instructions: 28000000 cycles: 17670347 heartbeat IPC: 1.56078 cumulative IPC: 1.58458 (Simulation time: 0 hr 51 min 45 sec) 
Heartbeat CPU 0 instructions: 29000000 cycles: 18307877 heartbeat IPC: 1.56855 cumulative IPC: 1.58402 (Simulation time: 0 hr 53 min 25 sec) 
Heartbeat CPU 0 instructions: 30000002 cycles: 18953523 heartbeat IPC: 1.54884 cumulative IPC: 1.58282 (Simulation time: 0 hr 55 min 7 sec) 
Heartbeat CPU 0 instructions: 31000001 cycles: 19590135 heartbeat IPC: 1.57081 cumulative IPC: 1.58243 (Simulation time: 0 hr 56 min 52 sec) 
Heartbeat CPU 0 instructions: 32000000 cycles: 20230306 heartbeat IPC: 1.56208 cumulative IPC: 1.58179 (Simulation time: 0 hr 58 min 50 sec) 
Heartbeat CPU 0 instructions: 33000000 cycles: 20865629 heartbeat IPC: 1.574 cumulative IPC: 1.58155 (Simulation time: 1 hr 1 min 1 sec) 
Heartbeat CPU 0 instructions: 34000001 cycles: 21501962 heartbeat IPC: 1.57151 cumulative IPC: 1.58125 (Simulation time: 1 hr 3 min 12 sec) 
Heartbeat CPU 0 instructions: 35000003 cycles: 22157714 heartbeat IPC: 1.52497 cumulative IPC: 1.57959 (Simulation time: 1 hr 5 min 15 sec) 
Heartbeat CPU 0 instructions: 36000000 cycles: 22756785 heartbeat IPC: 1.66925 cumulative IPC: 1.58195 (Simulation time: 1 hr 7 min 23 sec) 
Heartbeat CPU 0 instructions: 37000000 cycles: 23371745 heartbeat IPC: 1.62612 cumulative IPC: 1.58311 (Simulation time: 1 hr 9 min 28 sec) 
Heartbeat CPU 0 instructions: 38000002 cycles: 23944000 heartbeat IPC: 1.74748 cumulative IPC: 1.58704 (Simulation time: 1 hr 11 min 43 sec) 
Heartbeat CPU 0 instructions: 39000000 cycles: 24547980 heartbeat IPC: 1.65568 cumulative IPC: 1.58873 (Simulation time: 1 hr 13 min 54 sec) 
Heartbeat CPU 0 instructions: 40000000 cycles: 25099491 heartbeat IPC: 1.8132 cumulative IPC: 1.59366 (Simulation time: 1 hr 15 min 59 sec) 
Heartbeat CPU 0 instructions: 41000001 cycles: 25666042 heartbeat IPC: 1.76507 cumulative IPC: 1.59744 (Simulation time: 1 hr 18 min 5 sec) 
Heartbeat CPU 0 instructions: 42000003 cycles: 26303641 heartbeat IPC: 1.56839 cumulative IPC: 1.59674 (Simulation time: 1 hr 20 min 22 sec) 
Heartbeat CPU 0 instructions: 43000001 cycles: 26969738 heartbeat IPC: 1.50128 cumulative IPC: 1.59438 (Simulation time: 1 hr 22 min 37 sec) 
Heartbeat CPU 0 instructions: 44000000 cycles: 27581920 heartbeat IPC: 1.6335 cumulative IPC: 1.59525 (Simulation time: 1 hr 24 min 54 sec) 
Heartbeat CPU 0 instructions: 45000003 cycles: 28227793 heartbeat IPC: 1.5483 cumulative IPC: 1.59417 (Simulation time: 1 hr 27 min 17 sec) 
Heartbeat CPU 0 instructions: 46000000 cycles: 28867400 heartbeat IPC: 1.56346 cumulative IPC: 1.59349 (Simulation time: 1 hr 29 min 32 sec) 
Heartbeat CPU 0 instructions: 47000000 cycles: 29506516 heartbeat IPC: 1.56466 cumulative IPC: 1.59287 (Simulation time: 1 hr 31 min 54 sec) 
Heartbeat CPU 0 instructions: 48000000 cycles: 30146672 heartbeat IPC: 1.56212 cumulative IPC: 1.59222 (Simulation time: 1 hr 34 min 16 sec) 
Heartbeat CPU 0 instructions: 49000003 cycles: 30788598 heartbeat IPC: 1.55782 cumulative IPC: 1.5915 (Simulation time: 1 hr 36 min 28 sec) 
Heartbeat CPU 0 instructions: 50000001 cycles: 31428203 heartbeat IPC: 1.56346 cumulative IPC: 1.59093 (Simulation time: 1 hr 38 min 46 sec) 

Warmup complete CPU 0 instructions: 50000001 cycles: 31428203 (Simulation time: 1 hr 38 min 46 sec) 

Heartbeat CPU 0 instructions: 51000000 cycles: 34046702 heartbeat IPC: 0.381898 cumulative IPC: 0.381898 (Simulation time: 1 hr 41 min 29 sec) 
Heartbeat CPU 0 instructions: 52000000 cycles: 36657218 heartbeat IPC: 0.383066 cumulative IPC: 0.382481 (Simulation time: 1 hr 43 min 53 sec) 
Heartbeat CPU 0 instructions: 53000000 cycles: 39241036 heartbeat IPC: 0.387024 cumulative IPC: 0.383983 (Simulation time: 1 hr 46 min 12 sec) 
Heartbeat CPU 0 instructions: 54000001 cycles: 41879161 heartbeat IPC: 0.379057 cumulative IPC: 0.38274 (Simulation time: 1 hr 48 min 43 sec) 
Heartbeat CPU 0 instructions: 55000001 cycles: 44325062 heartbeat IPC: 0.408847 cumulative IPC: 0.387691 (Simulation time: 1 hr 51 min 24 sec) 
Heartbeat CPU 0 instructions: 56000000 cycles: 46449236 heartbeat IPC: 0.470771 cumulative IPC: 0.39944 (Simulation time: 1 hr 53 min 39 sec) 
Heartbeat CPU 0 instructions: 57000000 cycles: 48652952 heartbeat IPC: 0.453779 cumulative IPC: 0.406392 (Simulation time: 1 hr 55 min 35 sec) 
Heartbeat CPU 0 instructions: 58000002 cycles: 50600741 heartbeat IPC: 0.513404 cumulative IPC: 0.417264 (Simulation time: 1 hr 57 min 17 sec) 
Heartbeat CPU 0 instructions: 59000003 cycles: 52723717 heartbeat IPC: 0.471037 cumulative IPC: 0.422624 (Simulation time: 1 hr 59 min 1 sec) 
Heartbeat CPU 0 instructions: 60000000 cycles: 55785581 heartbeat IPC: 0.326597 cumulative IPC: 0.410553 (Simulation time: 2 hr 0 min 59 sec) 
Heartbeat CPU 0 instructions: 61000000 cycles: 58204629 heartbeat IPC: 0.413386 cumulative IPC: 0.410809 (Simulation time: 2 hr 2 min 47 sec) 
Heartbeat CPU 0 instructions: 62000001 cycles: 61024635 heartbeat IPC: 0.35461 cumulative IPC: 0.405454 (Simulation time: 2 hr 4 min 33 sec) 
Heartbeat CPU 0 instructions: 63000000 cycles: 64030150 heartbeat IPC: 0.332721 cumulative IPC: 0.398749 (Simulation time: 2 hr 6 min 12 sec) 
Heartbeat CPU 0 instructions: 64000000 cycles: 66961040 heartbeat IPC: 0.341193 cumulative IPC: 0.394002 (Simulation time: 2 hr 7 min 47 sec) 
Heartbeat CPU 0 instructions: 65000001 cycles: 69920556 heartbeat IPC: 0.337893 cumulative IPC: 0.389688 (Simulation time: 2 hr 9 min 13 sec) 
Heartbeat CPU 0 instructions: 66000001 cycles: 72918923 heartbeat IPC: 0.333515 cumulative IPC: 0.385628 (Simulation time: 2 hr 10 min 53 sec) 
Heartbeat CPU 0 instructions: 67000001 cycles: 75677774 heartbeat IPC: 0.36247 cumulative IPC: 0.384185 (Simulation time: 2 hr 12 min 39 sec) 
Heartbeat CPU 0 instructions: 68000000 cycles: 78450793 heartbeat IPC: 0.360617 cumulative IPC: 0.382795 (Simulation time: 2 hr 14 min 22 sec) 
Heartbeat CPU 0 instructions: 69000002 cycles: 81435332 heartbeat IPC: 0.335061 cumulative IPC: 0.379946 (Simulation time: 2 hr 16 min 21 sec) 
Heartbeat CPU 0 instructions: 70000003 cycles: 83269858 heartbeat IPC: 0.5451 cumulative IPC: 0.38579 (Simulation time: 2 hr 17 min 46 sec) 
Heartbeat CPU 0 instructions: 71000000 cycles: 85189603 heartbeat IPC: 0.520901 cumulative IPC: 0.390615 (Simulation time: 2 hr 18 min 59 sec) 
Heartbeat CPU 0 instructions: 72000000 cycles: 87200856 heartbeat IPC: 0.497202 cumulative IPC: 0.394459 (Simulation time: 2 hr 20 min 25 sec) 
Heartbeat CPU 0 instructions: 73000000 cycles: 89475398 heartbeat IPC: 0.439649 cumulative IPC: 0.396229 (Simulation time: 2 hr 22 min 24 sec) 
Heartbeat CPU 0 instructions: 74000000 cycles: 91393944 heartbeat IPC: 0.521228 cumulative IPC: 0.400229 (Simulation time: 2 hr 23 min 43 sec) 
Heartbeat CPU 0 instructions: 75000003 cycles: 93657704 heartbeat IPC: 0.441744 cumulative IPC: 0.401739 (Simulation time: 2 hr 25 min 0 sec) 
Heartbeat CPU 0 instructions: 76000000 cycles: 96400832 heartbeat IPC: 0.364546 cumulative IPC: 0.400168 (Simulation time: 2 hr 26 min 21 sec) 
Heartbeat CPU 0 instructions: 77000000 cycles: 99113569 heartbeat IPC: 0.368631 cumulative IPC: 0.398905 (Simulation time: 2 hr 27 min 40 sec) 
Heartbeat CPU 0 instructions: 78000000 cycles: 102076033 heartbeat IPC: 0.337557 cumulative IPC: 0.396332 (Simulation time: 2 hr 29 min 8 sec) 
Heartbeat CPU 0 instructions: 79000000 cycles: 103937351 heartbeat IPC: 0.537254 cumulative IPC: 0.39995 (Simulation time: 2 hr 30 min 23 sec) 
Heartbeat CPU 0 instructions: 80000000 cycles: 105728552 heartbeat IPC: 0.558285 cumulative IPC: 0.403767 (Simulation time: 2 hr 31 min 33 sec) 
Heartbeat CPU 0 instructions: 81000000 cycles: 107649948 heartbeat IPC: 0.520455 cumulative IPC: 0.406708 (Simulation time: 2 hr 33 min 17 sec) 
Heartbeat CPU 0 instructions: 82000000 cycles: 109567487 heartbeat IPC: 0.521502 cumulative IPC: 0.409525 (Simulation time: 2 hr 34 min 41 sec) 
Heartbeat CPU 0 instructions: 83000000 cycles: 111911017 heartbeat IPC: 0.426707 cumulative IPC: 0.410025 (Simulation time: 2 hr 36 min 12 sec) 
Heartbeat CPU 0 instructions: 84000000 cycles: 113861801 heartbeat IPC: 0.512614 cumulative IPC: 0.412453 (Simulation time: 2 hr 37 min 47 sec) 
Heartbeat CPU 0 instructions: 85000000 cycles: 115782816 heartbeat IPC: 0.520558 cumulative IPC: 0.414915 (Simulation time: 2 hr 39 min 11 sec) 
Heartbeat CPU 0 instructions: 86000002 cycles: 117701345 heartbeat IPC: 0.521234 cumulative IPC: 0.417279 (Simulation time: 2 hr 40 min 20 sec) 
Heartbeat CPU 0 instructions: 87000003 cycles: 119879406 heartbeat IPC: 0.459124 cumulative IPC: 0.41831 (Simulation time: 2 hr 41 min 31 sec) 
Heartbeat CPU 0 instructions: 88000000 cycles: 122652677 heartbeat IPC: 0.360584 cumulative IPC: 0.416555 (Simulation time: 2 hr 43 min 3 sec) 
Heartbeat CPU 0 instructions: 89000003 cycles: 125226643 heartbeat IPC: 0.388507 cumulative IPC: 0.415785 (Simulation time: 2 hr 45 min 1 sec) 
Heartbeat CPU 0 instructions: 90000001 cycles: 128108798 heartbeat IPC: 0.346962 cumulative IPC: 0.413733 (Simulation time: 2 hr 46 min 51 sec) 
Heartbeat CPU 0 instructions: 91000000 cycles: 130597323 heartbeat IPC: 0.401844 cumulative IPC: 0.413435 (Simulation time: 2 hr 48 min 16 sec) 
Heartbeat CPU 0 instructions: 92000000 cycles: 133061014 heartbeat IPC: 0.405895 cumulative IPC: 0.413252 (Simulation time: 2 hr 49 min 37 sec) 
Heartbeat CPU 0 instructions: 93000000 cycles: 135766088 heartbeat IPC: 0.369676 cumulative IPC: 0.412123 (Simulation time: 2 hr 50 min 52 sec) 
Heartbeat CPU 0 instructions: 94000001 cycles: 138424697 heartbeat IPC: 0.376137 cumulative IPC: 0.411228 (Simulation time: 2 hr 52 min 14 sec) 
Heartbeat CPU 0 instructions: 95000000 cycles: 141285678 heartbeat IPC: 0.34953 cumulative IPC: 0.409622 (Simulation time: 2 hr 53 min 34 sec) 
Heartbeat CPU 0 instructions: 96000000 cycles: 144390595 heartbeat IPC: 0.32207 cumulative IPC: 0.407215 (Simulation time: 2 hr 54 min 54 sec) 
Heartbeat CPU 0 instructions: 97000001 cycles: 147407310 heartbeat IPC: 0.331487 cumulative IPC: 0.405245 (Simulation time: 2 hr 56 min 28 sec) 
Heartbeat CPU 0 instructions: 98000000 cycles: 150074763 heartbeat IPC: 0.374889 cumulative IPC: 0.404563 (Simulation time: 2 hr 58 min 7 sec) 
Heartbeat CPU 0 instructions: 99000000 cycles: 152674384 heartbeat IPC: 0.384671 cumulative IPC: 0.404136 (Simulation time: 2 hr 59 min 46 sec) 
Heartbeat CPU 0 instructions: 100000000 cycles: 155300645 heartbeat IPC: 0.380769 cumulative IPC: 0.403641 (Simulation time: 3 hr 1 min 45 sec) 
Heartbeat CPU 0 instructions: 101000001 cycles: 157903522 heartbeat IPC: 0.384191 cumulative IPC: 0.403241 (Simulation time: 3 hr 5 min 13 sec) 
Heartbeat CPU 0 instructions: 102000000 cycles: 160539410 heartbeat IPC: 0.379378 cumulative IPC: 0.402754 (Simulation time: 3 hr 8 min 42 sec) 
Heartbeat CPU 0 instructions: 103000000 cycles: 163211708 heartbeat IPC: 0.37421 cumulative IPC: 0.402175 (Simulation time: 3 hr 12 min 23 sec) 
Heartbeat CPU 0 instructions: 104000000 cycles: 165950375 heartbeat IPC: 0.365141 cumulative IPC: 0.401421 (Simulation time: 3 hr 15 min 50 sec) 
Heartbeat CPU 0 instructions: 105000001 cycles: 168555365 heartbeat IPC: 0.383879 cumulative IPC: 0.401088 (Simulation time: 3 hr 19 min 16 sec) 
Heartbeat CPU 0 instructions: 106000001 cycles: 171174216 heartbeat IPC: 0.381847 cumulative IPC: 0.400727 (Simulation time: 3 hr 22 min 39 sec) 
Heartbeat CPU 0 instructions: 107000000 cycles: 173789882 heartbeat IPC: 0.382311 cumulative IPC: 0.400389 (Simulation time: 3 hr 26 min 2 sec) 
Heartbeat CPU 0 instructions: 108000000 cycles: 176401464 heartbeat IPC: 0.38291 cumulative IPC: 0.400074 (Simulation time: 3 hr 29 min 24 sec) 
Heartbeat CPU 0 instructions: 109000001 cycles: 178976570 heartbeat IPC: 0.388334 cumulative IPC: 0.399869 (Simulation time: 3 hr 32 min 51 sec) 
Heartbeat CPU 0 instructions: 110000003 cycles: 181144851 heartbeat IPC: 0.461196 cumulative IPC: 0.400757 (Simulation time: 3 hr 35 min 48 sec) 
Heartbeat CPU 0 instructions: 111000000 cycles: 183575318 heartbeat IPC: 0.411442 cumulative IPC: 0.400928 (Simulation time: 3 hr 38 min 51 sec) 
Heartbeat CPU 0 instructions: 112000000 cycles: 186399481 heartbeat IPC: 0.354087 cumulative IPC: 0.400074 (Simulation time: 3 hr 42 min 24 sec) 
Heartbeat CPU 0 instructions: 113000000 cycles: 189075049 heartbeat IPC: 0.373752 cumulative IPC: 0.399627 (Simulation time: 3 hr 45 min 36 sec) 
Heartbeat CPU 0 instructions: 114000002 cycles: 191644591 heartbeat IPC: 0.389175 cumulative IPC: 0.39946 (Simulation time: 3 hr 48 min 41 sec) 
Heartbeat CPU 0 instructions: 115000001 cycles: 194260136 heartbeat IPC: 0.382329 cumulative IPC: 0.399185 (Simulation time: 3 hr 51 min 51 sec) 
Heartbeat CPU 0 instructions: 116000000 cycles: 196848181 heartbeat IPC: 0.386392 cumulative IPC: 0.398984 (Simulation time: 3 hr 55 min 7 sec) 
Heartbeat CPU 0 instructions: 117000002 cycles: 199423934 heartbeat IPC: 0.388237 cumulative IPC: 0.39882 (Simulation time: 3 hr 58 min 12 sec) 
Heartbeat CPU 0 instructions: 118000001 cycles: 201929465 heartbeat IPC: 0.399117 cumulative IPC: 0.398824 (Simulation time: 4 hr 1 min 20 sec) 
Heartbeat CPU 0 instructions: 119000000 cycles: 203925633 heartbeat IPC: 0.500959 cumulative IPC: 0.400006 (Simulation time: 4 hr 3 min 57 sec) 
Heartbeat CPU 0 instructions: 120000000 cycles: 206805835 heartbeat IPC: 0.347198 cumulative IPC: 0.399139 (Simulation time: 4 hr 6 min 50 sec) 
Heartbeat CPU 0 instructions: 121000001 cycles: 209459686 heartbeat IPC: 0.376811 cumulative IPC: 0.398806 (Simulation time: 4 hr 10 min 7 sec) 
Heartbeat CPU 0 instructions: 122000002 cycles: 212317528 heartbeat IPC: 0.349915 cumulative IPC: 0.398033 (Simulation time: 4 hr 13 min 7 sec) 
Heartbeat CPU 0 instructions: 123000001 cycles: 215111829 heartbeat IPC: 0.357871 cumulative IPC: 0.397422 (Simulation time: 4 hr 15 min 47 sec) 
Heartbeat CPU 0 instructions: 124000000 cycles: 217652849 heartbeat IPC: 0.393542 cumulative IPC: 0.39737 (Simulation time: 4 hr 18 min 50 sec) 
Heartbeat CPU 0 instructions: 125000003 cycles: 219619208 heartbeat IPC: 0.508556 cumulative IPC: 0.398531 (Simulation time: 4 hr 21 min 33 sec) 
Heartbeat CPU 0 instructions: 126000000 cycles: 221540946 heartbeat IPC: 0.520361 cumulative IPC: 0.399763 (Simulation time: 4 hr 24 min 52 sec) 
Heartbeat CPU 0 instructions: 127000001 cycles: 223943383 heartbeat IPC: 0.416244 cumulative IPC: 0.399968 (Simulation time: 4 hr 28 min 14 sec) 
Heartbeat CPU 0 instructions: 128000000 cycles: 225930505 heartbeat IPC: 0.50324 cumulative IPC: 0.401024 (Simulation time: 4 hr 31 min 42 sec) 
Heartbeat CPU 0 instructions: 129000000 cycles: 227853284 heartbeat IPC: 0.520081 cumulative IPC: 0.402189 (Simulation time: 4 hr 34 min 55 sec) 
Heartbeat CPU 0 instructions: 130000001 cycles: 230644016 heartbeat IPC: 0.358329 cumulative IPC: 0.401575 (Simulation time: 4 hr 38 min 34 sec) 
Heartbeat CPU 0 instructions: 131000003 cycles: 233316964 heartbeat IPC: 0.37412 cumulative IPC: 0.401211 (Simulation time: 4 hr 41 min 52 sec) 
Heartbeat CPU 0 instructions: 132000000 cycles: 236055231 heartbeat IPC: 0.365193 cumulative IPC: 0.400729 (Simulation time: 4 hr 44 min 39 sec) 
Heartbeat CPU 0 instructions: 133000002 cycles: 239013728 heartbeat IPC: 0.33801 cumulative IPC: 0.399835 (Simulation time: 4 hr 47 min 21 sec) 
Heartbeat CPU 0 instructions: 134000000 cycles: 242057919 heartbeat IPC: 0.328494 cumulative IPC: 0.398804 (Simulation time: 4 hr 50 min 34 sec) 
Heartbeat CPU 0 instructions: 135000002 cycles: 244614406 heartbeat IPC: 0.391163 cumulative IPC: 0.398712 (Simulation time: 4 hr 53 min 37 sec) 
Heartbeat CPU 0 instructions: 136000000 cycles: 247455398 heartbeat IPC: 0.351989 cumulative IPC: 0.398098 (Simulation time: 4 hr 56 min 22 sec) 
Heartbeat CPU 0 instructions: 137000003 cycles: 250225923 heartbeat IPC: 0.360943 cumulative IPC: 0.397628 (Simulation time: 4 hr 59 min 12 sec) 
Heartbeat CPU 0 instructions: 138000000 cycles: 252954491 heartbeat IPC: 0.366491 cumulative IPC: 0.397244 (Simulation time: 5 hr 1 min 48 sec) 
Heartbeat CPU 0 instructions: 139000001 cycles: 255225785 heartbeat IPC: 0.440278 cumulative IPC: 0.397681 (Simulation time: 5 hr 4 min 25 sec) 
Heartbeat CPU 0 instructions: 140000000 cycles: 257879504 heartbeat IPC: 0.376829 cumulative IPC: 0.397436 (Simulation time: 5 hr 7 min 11 sec) 
Heartbeat CPU 0 instructions: 141000000 cycles: 260643719 heartbeat IPC: 0.361766 cumulative IPC: 0.397006 (Simulation time: 5 hr 9 min 35 sec) 
Heartbeat CPU 0 instructions: 142000000 cycles: 263398588 heartbeat IPC: 0.362994 cumulative IPC: 0.396602 (Simulation time: 5 hr 12 min 4 sec) 
Heartbeat CPU 0 instructions: 143000000 cycles: 266045160 heartbeat IPC: 0.377847 cumulative IPC: 0.396391 (Simulation time: 5 hr 14 min 42 sec) 
Heartbeat CPU 0 instructions: 144000000 cycles: 268242993 heartbeat IPC: 0.454994 cumulative IPC: 0.396935 (Simulation time: 5 hr 17 min 14 sec) 
Heartbeat CPU 0 instructions: 145000002 cycles: 270458094 heartbeat IPC: 0.451448 cumulative IPC: 0.39744 (Simulation time: 5 hr 19 min 38 sec) 
Heartbeat CPU 0 instructions: 146000001 cycles: 272472300 heartbeat IPC: 0.496473 cumulative IPC: 0.398267 (Simulation time: 5 hr 21 min 27 sec) 
Heartbeat CPU 0 instructions: 147000001 cycles: 275198040 heartbeat IPC: 0.366873 cumulative IPC: 0.397916 (Simulation time: 5 hr 23 min 55 sec) 
Heartbeat CPU 0 instructions: 148000000 cycles: 277778807 heartbeat IPC: 0.387481 cumulative IPC: 0.397807 (Simulation time: 5 hr 26 min 37 sec) 
Heartbeat CPU 0 instructions: 149000000 cycles: 280423215 heartbeat IPC: 0.378156 cumulative IPC: 0.397598 (Simulation time: 5 hr 28 min 52 sec) 
Heartbeat CPU 0 instructions: 150000001 cycles: 283165624 heartbeat IPC: 0.364643 cumulative IPC: 0.397239 (Simulation time: 5 hr 31 min 5 sec) 
Finished CPU 0 instructions: 100000000 cycles: 251737421 cummulative IPC: 0.397239 (Simulation time: 5 hr 31 min 5 sec) 

ChampSim completed all CPUs

Region of Interest Statistics

CPU 0 cummulative IPC: 0.397239 instructions: 100000000 cycles: 251737421
LLC TOTAL     ACCESS:     694177  HIT:     638706  MISS:      55471
LLC LOAD      ACCESS:     325694  HIT:     300761  MISS:      24933
LLC RFO       ACCESS:      31879  HIT:      26543  MISS:       5336
LLC PREFETCH  ACCESS:     223585  HIT:     198807  MISS:      24778
LLC WRITEBACK ACCESS:     113019  HIT:     112595  MISS:        424
