Initialize SIGNATURE TABLE
ST_SET: 1
ST_WAY: 256
ST_TAG_BIT: 16
ST_TAG_MASK: ffff

Initialize PATTERN TABLE
PT_SET: 512
PT_WAY: 4
SIG_DELTA_BIT: 7
C_SIG_BIT: 4
C_DELTA_BIT: 4

Initialize PREFETCH FILTER
FILTER_SET: 1024

*** ChampSim Multicore Out-of-Order Simulator ***

Warmup Instructions: 50000000
Simulation Instructions: 50000000
Number of CPUs: 1
LLC sets: 2048
LLC ways: 16
Off-chip DRAM Size: 4096 MB Channels: 1 Width: 64-bit Data Rate: 3200 MT/s

CPU 0 runs /Users/gandhardeshpande/Desktop/CSE240C/HW1/ChampSim/ipc1_public/client_002.champsimtrace.xz
CPU 0 L1I next line prefetcher
Running FNL-MMA for L1I
CPU 0 L1D next line prefetcher
Heartbeat CPU 0 instructions: 10000000 cycles: 3404859 heartbeat IPC: 2.93698 cumulative IPC: 2.93698 (Simulation time: 0 hr 0 min 13 sec) 
Heartbeat CPU 0 instructions: 20000002 cycles: 6860409 heartbeat IPC: 2.8939 cumulative IPC: 2.91528 (Simulation time: 0 hr 0 min 27 sec) 
Heartbeat CPU 0 instructions: 30000001 cycles: 10293095 heartbeat IPC: 2.91317 cumulative IPC: 2.91458 (Simulation time: 0 hr 0 min 40 sec) 
Heartbeat CPU 0 instructions: 40000002 cycles: 13725878 heartbeat IPC: 2.91309 cumulative IPC: 2.9142 (Simulation time: 0 hr 0 min 54 sec) 
Heartbeat CPU 0 instructions: 50000002 cycles: 17166669 heartbeat IPC: 2.90631 cumulative IPC: 2.91262 (Simulation time: 0 hr 1 min 8 sec) 

Warmup complete CPU 0 instructions: 50000002 cycles: 17166669 (Simulation time: 0 hr 1 min 8 sec) 

Heartbeat CPU 0 instructions: 60000002 cycles: 23089788 heartbeat IPC: 1.6883 cumulative IPC: 1.6883 (Simulation time: 0 hr 1 min 20 sec) 
Heartbeat CPU 0 instructions: 70000001 cycles: 29074720 heartbeat IPC: 1.67086 cumulative IPC: 1.67954 (Simulation time: 0 hr 1 min 32 sec) 
Heartbeat CPU 0 instructions: 80000002 cycles: 34939003 heartbeat IPC: 1.70524 cumulative IPC: 1.68802 (Simulation time: 0 hr 1 min 44 sec) 
Heartbeat CPU 0 instructions: 90000000 cycles: 41348039 heartbeat IPC: 1.5603 cumulative IPC: 1.65417 (Simulation time: 0 hr 1 min 56 sec) 
Heartbeat CPU 0 instructions: 100000003 cycles: 47260472 heartbeat IPC: 1.69135 cumulative IPC: 1.66147 (Simulation time: 0 hr 2 min 8 sec) 
Finished CPU 0 instructions: 50000001 cycles: 30093803 cumulative IPC: 1.66147 (Simulation time: 0 hr 2 min 8 sec) 

ChampSim completed all CPUs

Region of Interest Statistics

CPU 0 cumulative IPC: 1.66147 instructions: 50000001 cycles: 30093803
L1D TOTAL     ACCESS:   19090111  HIT:   18750886  MISS:     339225
L1D LOAD      ACCESS:    6465663  HIT:    6348690  MISS:     116973
L1D RFO       ACCESS:    6418902  HIT:    6329169  MISS:      89733
L1D PREFETCH  ACCESS:    6205546  HIT:    6073027  MISS:     132519
L1D WRITEBACK ACCESS:          0  HIT:          0  MISS:          0
L1D PREFETCH  REQUESTED:    6475517  ISSUED:    6274330  USEFUL:      53722  USELESS:      78939
L1D AVERAGE MISS LATENCY: 48.9481 cycles
L1I TOTAL     ACCESS:   12785339  HIT:   11564713  MISS:    1220626
L1I LOAD      ACCESS:    9545364  HIT:    9492209  MISS:      53155
L1I RFO       ACCESS:          0  HIT:          0  MISS:          0
L1I PREFETCH  ACCESS:    3239975  HIT:    2072504  MISS:    1167471
L1I WRITEBACK ACCESS:          0  HIT:          0  MISS:          0
L1I PREFETCH  REQUESTED:    3323534  ISSUED:    3323455  USEFUL:     735031  USELESS:     432431
L1I AVERAGE MISS LATENCY: 17.4502 cycles
L2C TOTAL     ACCESS:    2177525  HIT:    1932578  MISS:     244947
L2C LOAD      ACCESS:     148329  HIT:     107285  MISS:      41044
L2C RFO       ACCESS:      88803  HIT:      22799  MISS:      66004
L2C PREFETCH  ACCESS:    1814889  HIT:    1677458  MISS:     137431
L2C WRITEBACK ACCESS:     125504  HIT:     125036  MISS:        468
L2C PREFETCH  REQUESTED:    1750661  ISSUED:    1749624  USEFUL:      13553  USELESS:     123209
L2C AVERAGE MISS LATENCY: 64.2253 cycles
LLC TOTAL     ACCESS:     712081  HIT:     647302  MISS:      64779
LLC LOAD      ACCESS:      41042  HIT:      35272  MISS:       5770
LLC RFO       ACCESS:      66004  HIT:      36725  MISS:      29279
LLC PREFETCH  ACCESS:     520401  HIT:     490973  MISS:      29428
LLC WRITEBACK ACCESS:      84634  HIT:      84332  MISS:        302
LLC PREFETCH  REQUESTED:          0  ISSUED:          0  USEFUL:       6351  USELESS:      21871
LLC AVERAGE MISS LATENCY: 179.094 cycles
Major fault: 0 Minor fault: 3091
I-Shadow cache 408 bytes
Touched + WorthPF tables 196608 bytes 
MMA filter 174 bytes 
FNL filter 272 bytes 
TOTAL PREFETCHER STORAGE SIZE: 779094 bytes
CPU 0 L1I next line prefetcher final stats
CPU 0 L1D next line prefetcher final stats

DRAM Statistics
 CHANNEL 0
 RQ ROW_BUFFER_HIT:      22358  ROW_BUFFER_MISS:      42117
 DBUS_CONGESTED:      44453
 WQ ROW_BUFFER_HIT:       8922  ROW_BUFFER_MISS:      28244  FULL:          0

 AVG_CONGESTED_CYCLE: 6

CPU 0 Branch Prediction Accuracy: 99.2117% MPKI: 1.49752 Average ROB Occupancy at Mispredict: 117.658

Branch types
NOT_BRANCH: 40501616 81.0032%
BRANCH_DIRECT_JUMP: 517397 1.03479%
BRANCH_INDIRECT: 112348 0.224696%
BRANCH_CONDITIONAL: 6698737 13.3975%
BRANCH_DIRECT_CALL: 960974 1.92195%
BRANCH_INDIRECT_CALL: 123707 0.247414%
BRANCH_RETURN: 1084929 2.16986%
BRANCH_OTHER: 0 0%

