Initialize SIGNATURE TABLE
ST_SET: 1
ST_WAY: 256
ST_TAG_BIT: 16
ST_TAG_MASK: ffff

Initialize PATTERN TABLE
PT_SET: 512
PT_WAY: 4
SIG_DELTA_BIT: 7
C_SIG_BIT: 4
C_DELTA_BIT: 4

Initialize PREFETCH FILTER
FILTER_SET: 1024

*** ChampSim Multicore Out-of-Order Simulator ***

Warmup Instructions: 50000000
Simulation Instructions: 50000000
Number of CPUs: 1
LLC sets: 2048
LLC ways: 16
Off-chip DRAM Size: 4096 MB Channels: 1 Width: 64-bit Data Rate: 3200 MT/s

CPU 0 runs /Users/gandhardeshpande/Desktop/CSE240C/HW1/ChampSim/ipc1_public/server_013.champsimtrace.xz
CPU 0 L1I next line prefetcher
Running FNL-MMA for L1I
CPU 0 L1D next line prefetcher
Heartbeat CPU 0 instructions: 10000000 cycles: 3210471 heartbeat IPC: 3.11481 cumulative IPC: 3.11481 (Simulation time: 0 hr 0 min 13 sec) 
Heartbeat CPU 0 instructions: 20000001 cycles: 6410191 heartbeat IPC: 3.12527 cumulative IPC: 3.12003 (Simulation time: 0 hr 0 min 27 sec) 
Heartbeat CPU 0 instructions: 30000002 cycles: 9613162 heartbeat IPC: 3.1221 cumulative IPC: 3.12072 (Simulation time: 0 hr 0 min 40 sec) 
Heartbeat CPU 0 instructions: 40000002 cycles: 12811310 heartbeat IPC: 3.12681 cumulative IPC: 3.12224 (Simulation time: 0 hr 0 min 54 sec) 
Heartbeat CPU 0 instructions: 50000000 cycles: 16009330 heartbeat IPC: 3.12693 cumulative IPC: 3.12318 (Simulation time: 0 hr 1 min 7 sec) 

Warmup complete CPU 0 instructions: 50000004 cycles: 16009331 (Simulation time: 0 hr 1 min 7 sec) 

Heartbeat CPU 0 instructions: 60000000 cycles: 23470885 heartbeat IPC: 1.3402 cumulative IPC: 1.3402 (Simulation time: 0 hr 1 min 20 sec) 
Heartbeat CPU 0 instructions: 70000002 cycles: 31115463 heartbeat IPC: 1.30812 cumulative IPC: 1.32397 (Simulation time: 0 hr 1 min 32 sec) 
Heartbeat CPU 0 instructions: 80000003 cycles: 38226414 heartbeat IPC: 1.40628 cumulative IPC: 1.35031 (Simulation time: 0 hr 1 min 44 sec) 
Heartbeat CPU 0 instructions: 90000003 cycles: 45535319 heartbeat IPC: 1.36819 cumulative IPC: 1.35474 (Simulation time: 0 hr 1 min 57 sec) 
Heartbeat CPU 0 instructions: 100000003 cycles: 52851598 heartbeat IPC: 1.36681 cumulative IPC: 1.35714 (Simulation time: 0 hr 2 min 9 sec) 
Finished CPU 0 instructions: 50000003 cycles: 36842268 cumulative IPC: 1.35714 (Simulation time: 0 hr 2 min 9 sec) 

ChampSim completed all CPUs

Region of Interest Statistics

CPU 0 cumulative IPC: 1.35714 instructions: 50000003 cycles: 36842268
L1D TOTAL     ACCESS:   17284399  HIT:   16218063  MISS:    1066336
L1D LOAD      ACCESS:    6299675  HIT:    5797029  MISS:     502646
L1D RFO       ACCESS:    4927707  HIT:    4847558  MISS:      80149
L1D PREFETCH  ACCESS:    6057017  HIT:    5573476  MISS:     483541
L1D WRITEBACK ACCESS:          0  HIT:          0  MISS:          0
L1D PREFETCH  REQUESTED:    6334729  ISSUED:    6240616  USEFUL:     131977  USELESS:     351573
L1D AVERAGE MISS LATENCY: 42.3082 cycles
L1I TOTAL     ACCESS:   12110566  HIT:   10165174  MISS:    1945392
L1I LOAD      ACCESS:    8686476  HIT:    8551777  MISS:     134699
L1I RFO       ACCESS:          0  HIT:          0  MISS:          0
L1I PREFETCH  ACCESS:    3424090  HIT:    1613397  MISS:    1810693
L1I WRITEBACK ACCESS:          0  HIT:          0  MISS:          0
L1I PREFETCH  REQUESTED:    3606893  ISSUED:    3606725  USEFUL:    1323354  USELESS:     487314
L1I AVERAGE MISS LATENCY: 30.1399 cycles
L2C TOTAL     ACCESS:    3728728  HIT:    2350306  MISS:    1378422
L2C LOAD      ACCESS:     505656  HIT:     236986  MISS:     268670
L2C RFO       ACCESS:      78840  HIT:      30951  MISS:      47889
L2C PREFETCH  ACCESS:    2868446  HIT:    1807966  MISS:    1060480
L2C WRITEBACK ACCESS:     275786  HIT:     274403  MISS:       1383
L2C PREFETCH  REQUESTED:    3033859  ISSUED:    3032568  USEFUL:      24977  USELESS:    1035595
L2C AVERAGE MISS LATENCY: 46.8148 cycles
LLC TOTAL     ACCESS:    2404218  HIT:    2254141  MISS:     150077
LLC LOAD      ACCESS:     268526  HIT:     246743  MISS:      21783
LLC RFO       ACCESS:      47877  HIT:      38135  MISS:       9742
LLC PREFETCH  ACCESS:    1915440  HIT:    1797095  MISS:     118345
LLC WRITEBACK ACCESS:     172375  HIT:     172168  MISS:        207
LLC PREFETCH  REQUESTED:          0  ISSUED:          0  USEFUL:       9947  USELESS:     107401
LLC AVERAGE MISS LATENCY: 173.443 cycles
Major fault: 0 Minor fault: 6200
I-Shadow cache 408 bytes
Touched + WorthPF tables 196608 bytes 
MMA filter 174 bytes 
FNL filter 272 bytes 
TOTAL PREFETCHER STORAGE SIZE: 779094 bytes
CPU 0 L1I next line prefetcher final stats
CPU 0 L1D next line prefetcher final stats

DRAM Statistics
 CHANNEL 0
 RQ ROW_BUFFER_HIT:      24977  ROW_BUFFER_MISS:     124881
 DBUS_CONGESTED:      66293
 WQ ROW_BUFFER_HIT:      11587  ROW_BUFFER_MISS:      50437  FULL:          0

 AVG_CONGESTED_CYCLE: 5

CPU 0 Branch Prediction Accuracy: 99.4114% MPKI: 1.0933 Average ROB Occupancy at Mispredict: 124.954

Branch types
NOT_BRANCH: 40713270 81.4265%
BRANCH_DIRECT_JUMP: 463701 0.927402%
BRANCH_INDIRECT: 146544 0.293088%
BRANCH_CONDITIONAL: 6981955 13.9639%
BRANCH_DIRECT_CALL: 665005 1.33001%
BRANCH_INDIRECT_CALL: 165152 0.330304%
BRANCH_RETURN: 864314 1.72863%
BRANCH_OTHER: 0 0%

