Initialize SIGNATURE TABLE
ST_SET: 1
ST_WAY: 256
ST_TAG_BIT: 16
ST_TAG_MASK: ffff

Initialize PATTERN TABLE
PT_SET: 512
PT_WAY: 4
SIG_DELTA_BIT: 7
C_SIG_BIT: 4
C_DELTA_BIT: 4

Initialize PREFETCH FILTER
FILTER_SET: 1024

*** ChampSim Multicore Out-of-Order Simulator ***

Warmup Instructions: 50000000
Simulation Instructions: 50000000
Number of CPUs: 1
LLC sets: 2048
LLC ways: 16
Off-chip DRAM Size: 4096 MB Channels: 1 Width: 64-bit Data Rate: 3200 MT/s

CPU 0 runs /Users/gandhardeshpande/Desktop/CSE240C/HW1/ChampSim/ipc1_public/server_012.champsimtrace.xz
CPU 0 L1I next line prefetcher
Running FNL-MMA for L1I
CPU 0 L1D next line prefetcher
Heartbeat CPU 0 instructions: 10000002 cycles: 3191719 heartbeat IPC: 3.13311 cumulative IPC: 3.13311 (Simulation time: 0 hr 0 min 13 sec) 
Heartbeat CPU 0 instructions: 20000002 cycles: 6386118 heartbeat IPC: 3.13048 cumulative IPC: 3.13179 (Simulation time: 0 hr 0 min 27 sec) 
Heartbeat CPU 0 instructions: 30000001 cycles: 9581827 heartbeat IPC: 3.1292 cumulative IPC: 3.13093 (Simulation time: 0 hr 0 min 40 sec) 
Heartbeat CPU 0 instructions: 40000000 cycles: 12783331 heartbeat IPC: 3.12353 cumulative IPC: 3.12907 (Simulation time: 0 hr 0 min 53 sec) 
Heartbeat CPU 0 instructions: 50000003 cycles: 15977403 heartbeat IPC: 3.1308 cumulative IPC: 3.12942 (Simulation time: 0 hr 1 min 7 sec) 

Warmup complete CPU 0 instructions: 50000003 cycles: 15977403 (Simulation time: 0 hr 1 min 7 sec) 

Heartbeat CPU 0 instructions: 60000002 cycles: 23034697 heartbeat IPC: 1.41697 cumulative IPC: 1.41697 (Simulation time: 0 hr 1 min 19 sec) 
Heartbeat CPU 0 instructions: 70000000 cycles: 30130367 heartbeat IPC: 1.40931 cumulative IPC: 1.41313 (Simulation time: 0 hr 1 min 31 sec) 
Heartbeat CPU 0 instructions: 80000003 cycles: 37238742 heartbeat IPC: 1.40679 cumulative IPC: 1.41101 (Simulation time: 0 hr 1 min 43 sec) 
Heartbeat CPU 0 instructions: 90000001 cycles: 44545732 heartbeat IPC: 1.36855 cumulative IPC: 1.40015 (Simulation time: 0 hr 1 min 55 sec) 
Heartbeat CPU 0 instructions: 100000002 cycles: 51761445 heartbeat IPC: 1.38586 cumulative IPC: 1.39727 (Simulation time: 0 hr 2 min 8 sec) 
Finished CPU 0 instructions: 50000001 cycles: 35784043 cumulative IPC: 1.39727 (Simulation time: 0 hr 2 min 8 sec) 

ChampSim completed all CPUs

Region of Interest Statistics

CPU 0 cumulative IPC: 1.39727 instructions: 50000001 cycles: 35784043
L1D TOTAL     ACCESS:   17297061  HIT:   16254257  MISS:    1042804
L1D LOAD      ACCESS:    6290115  HIT:    5801468  MISS:     488647
L1D RFO       ACCESS:    4959874  HIT:    4878098  MISS:      81776
L1D PREFETCH  ACCESS:    6047072  HIT:    5574691  MISS:     472381
L1D WRITEBACK ACCESS:          0  HIT:          0  MISS:          0
L1D PREFETCH  REQUESTED:    6324197  ISSUED:    6225158  USEFUL:     131833  USELESS:     340569
L1D AVERAGE MISS LATENCY: 40.3169 cycles
L1I TOTAL     ACCESS:   11774044  HIT:    9869245  MISS:    1904799
L1I LOAD      ACCESS:    8719720  HIT:    8595502  MISS:     124218
L1I RFO       ACCESS:          0  HIT:          0  MISS:          0
L1I PREFETCH  ACCESS:    3054324  HIT:    1273743  MISS:    1780581
L1I WRITEBACK ACCESS:          0  HIT:          0  MISS:          0
L1I PREFETCH  REQUESTED:    3231086  ISSUED:    3230931  USEFUL:    1297083  USELESS:     483492
L1I AVERAGE MISS LATENCY: 28.9028 cycles
L2C TOTAL     ACCESS:    3674368  HIT:    2398728  MISS:    1275640
L2C LOAD      ACCESS:     489912  HIT:     241576  MISS:     248336
L2C RFO       ACCESS:      80625  HIT:      32502  MISS:      48123
L2C PREFETCH  ACCESS:    2828353  HIT:    1850224  MISS:     978129
L2C WRITEBACK ACCESS:     275478  HIT:     274426  MISS:       1052
L2C PREFETCH  REQUESTED:    3025136  ISSUED:    3022797  USEFUL:      24593  USELESS:     953634
L2C AVERAGE MISS LATENCY: 45.7997 cycles
LLC TOTAL     ACCESS:    2308283  HIT:    2170052  MISS:     138231
LLC LOAD      ACCESS:     248218  HIT:     230189  MISS:      18029
LLC RFO       ACCESS:      48118  HIT:      37994  MISS:      10124
LLC PREFETCH  ACCESS:    1847155  HIT:    1737311  MISS:     109844
LLC WRITEBACK ACCESS:     164792  HIT:     164558  MISS:        234
LLC PREFETCH  REQUESTED:          0  ISSUED:          0  USEFUL:       9297  USELESS:     100158
LLC AVERAGE MISS LATENCY: 174.604 cycles
Major fault: 0 Minor fault: 5596
I-Shadow cache 408 bytes
Touched + WorthPF tables 196608 bytes 
MMA filter 174 bytes 
FNL filter 272 bytes 
TOTAL PREFETCHER STORAGE SIZE: 779094 bytes
CPU 0 L1I next line prefetcher final stats
CPU 0 L1D next line prefetcher final stats

DRAM Statistics
 CHANNEL 0
 RQ ROW_BUFFER_HIT:      21957  ROW_BUFFER_MISS:     116030
 DBUS_CONGESTED:      60436
 WQ ROW_BUFFER_HIT:      11515  ROW_BUFFER_MISS:      48526  FULL:          0

 AVG_CONGESTED_CYCLE: 5

CPU 0 Branch Prediction Accuracy: 99.4607% MPKI: 1.00288 Average ROB Occupancy at Mispredict: 124.942

Branch types
NOT_BRANCH: 40701152 81.4023%
BRANCH_DIRECT_JUMP: 469810 0.93962%
BRANCH_INDIRECT: 153732 0.307464%
BRANCH_CONDITIONAL: 6944088 13.8882%
BRANCH_DIRECT_CALL: 679880 1.35976%
BRANCH_INDIRECT_CALL: 168745 0.33749%
BRANCH_RETURN: 882493 1.76499%
BRANCH_OTHER: 0 0%

