Initialize SIGNATURE TABLE
ST_SET: 1
ST_WAY: 256
ST_TAG_BIT: 16
ST_TAG_MASK: ffff

Initialize PATTERN TABLE
PT_SET: 512
PT_WAY: 4
SIG_DELTA_BIT: 7
C_SIG_BIT: 4
C_DELTA_BIT: 4

Initialize PREFETCH FILTER
FILTER_SET: 1024

*** ChampSim Multicore Out-of-Order Simulator ***

Warmup Instructions: 50000000
Simulation Instructions: 50000000
Number of CPUs: 1
LLC sets: 2048
LLC ways: 16
Off-chip DRAM Size: 4096 MB Channels: 1 Width: 64-bit Data Rate: 3200 MT/s

CPU 0 runs /Users/gandhardeshpande/Desktop/CSE240C/HW1/ChampSim/ipc1_public/spec_gobmk_002.champsimtrace.xz
CPU 0 L1I next line prefetcher
Running FNL-MMA for L1I
CPU 0 L1D next line prefetcher
Heartbeat CPU 0 instructions: 10000001 cycles: 3287509 heartbeat IPC: 3.04182 cumulative IPC: 3.04182 (Simulation time: 0 hr 0 min 12 sec) 
Heartbeat CPU 0 instructions: 20000000 cycles: 6619056 heartbeat IPC: 3.00161 cumulative IPC: 3.02158 (Simulation time: 0 hr 0 min 25 sec) 
Heartbeat CPU 0 instructions: 30000000 cycles: 9957027 heartbeat IPC: 2.99583 cumulative IPC: 3.01295 (Simulation time: 0 hr 0 min 37 sec) 
Heartbeat CPU 0 instructions: 40000000 cycles: 13266420 heartbeat IPC: 3.0217 cumulative IPC: 3.01513 (Simulation time: 0 hr 0 min 49 sec) 
Heartbeat CPU 0 instructions: 50000003 cycles: 16529927 heartbeat IPC: 3.06419 cumulative IPC: 3.02482 (Simulation time: 0 hr 1 min 2 sec) 

Warmup complete CPU 0 instructions: 50000003 cycles: 16529927 (Simulation time: 0 hr 1 min 2 sec) 

Heartbeat CPU 0 instructions: 60000003 cycles: 23983333 heartbeat IPC: 1.34167 cumulative IPC: 1.34167 (Simulation time: 0 hr 1 min 11 sec) 
Heartbeat CPU 0 instructions: 70000001 cycles: 31388039 heartbeat IPC: 1.35049 cumulative IPC: 1.34607 (Simulation time: 0 hr 1 min 19 sec) 
Heartbeat CPU 0 instructions: 80000000 cycles: 38637155 heartbeat IPC: 1.37948 cumulative IPC: 1.35702 (Simulation time: 0 hr 1 min 28 sec) 
Heartbeat CPU 0 instructions: 90000001 cycles: 46204301 heartbeat IPC: 1.3215 cumulative IPC: 1.34796 (Simulation time: 0 hr 1 min 36 sec) 
Heartbeat CPU 0 instructions: 100000003 cycles: 54019899 heartbeat IPC: 1.27949 cumulative IPC: 1.33369 (Simulation time: 0 hr 1 min 45 sec) 
Finished CPU 0 instructions: 50000000 cycles: 37489972 cumulative IPC: 1.33369 (Simulation time: 0 hr 1 min 45 sec) 

ChampSim completed all CPUs

Region of Interest Statistics

CPU 0 cumulative IPC: 1.33369 instructions: 50000000 cycles: 37489972
L1D TOTAL     ACCESS:   17647801  HIT:   17524676  MISS:     123125
L1D LOAD      ACCESS:    6669228  HIT:    6635005  MISS:      34223
L1D RFO       ACCESS:    4387869  HIT:    4345178  MISS:      42691
L1D PREFETCH  ACCESS:    6590704  HIT:    6544493  MISS:      46211
L1D WRITEBACK ACCESS:          0  HIT:          0  MISS:          0
L1D PREFETCH  REQUESTED:    6671600  ISSUED:    6604177  USEFUL:      17147  USELESS:      29250
L1D AVERAGE MISS LATENCY: 49.9561 cycles
L1I TOTAL     ACCESS:   13755664  HIT:   12049145  MISS:    1706519
L1I LOAD      ACCESS:    8860835  HIT:    8717452  MISS:     143383
L1I RFO       ACCESS:          0  HIT:          0  MISS:          0
L1I PREFETCH  ACCESS:    4894829  HIT:    3331693  MISS:    1563136
L1I WRITEBACK ACCESS:          0  HIT:          0  MISS:          0
L1I PREFETCH  REQUESTED:    5052191  ISSUED:    5052143  USEFUL:     855973  USELESS:     707174
L1I AVERAGE MISS LATENCY: 14.4838 cycles
L2C TOTAL     ACCESS:    2758357  HIT:    2720890  MISS:      37467
L2C LOAD      ACCESS:     154189  HIT:     140559  MISS:      13630
L2C RFO       ACCESS:      42559  HIT:      39690  MISS:       2869
L2C PREFETCH  ACCESS:    2487406  HIT:    2466559  MISS:      20847
L2C WRITEBACK ACCESS:      74203  HIT:      74082  MISS:        121
L2C PREFETCH  REQUESTED:    2212899  ISSUED:    2212840  USEFUL:       2256  USELESS:      19087
L2C AVERAGE MISS LATENCY: 122.835 cycles
LLC TOTAL     ACCESS:     179264  HIT:     143611  MISS:      35653
LLC LOAD      ACCESS:      13630  HIT:       5139  MISS:       8491
LLC RFO       ACCESS:       2869  HIT:       1265  MISS:       1604
LLC PREFETCH  ACCESS:     144747  HIT:     119671  MISS:      25076
LLC WRITEBACK ACCESS:      18018  HIT:      17536  MISS:        482
LLC PREFETCH  REQUESTED:          0  ISSUED:          0  USEFUL:       2490  USELESS:      22046
LLC AVERAGE MISS LATENCY: 185.066 cycles
Major fault: 0 Minor fault: 2776
I-Shadow cache 408 bytes
Touched + WorthPF tables 196608 bytes 
MMA filter 174 bytes 
FNL filter 272 bytes 
TOTAL PREFETCHER STORAGE SIZE: 779094 bytes
CPU 0 L1I next line prefetcher final stats
CPU 0 L1D next line prefetcher final stats

DRAM Statistics
 CHANNEL 0
 RQ ROW_BUFFER_HIT:       2885  ROW_BUFFER_MISS:      32286
 DBUS_CONGESTED:      19211
 WQ ROW_BUFFER_HIT:        765  ROW_BUFFER_MISS:      13879  FULL:          0

 AVG_CONGESTED_CYCLE: 4

CPU 0 Branch Prediction Accuracy: 93.9974% MPKI: 10.2447 Average ROB Occupancy at Mispredict: 39.6243

Branch types
NOT_BRANCH: 41466063 82.9321%
BRANCH_DIRECT_JUMP: 464313 0.928626%
BRANCH_INDIRECT: 32 6.4e-05%
BRANCH_CONDITIONAL: 7069454 14.1389%
BRANCH_DIRECT_CALL: 499587 0.999174%
BRANCH_INDIRECT_CALL: 342 0.000684%
BRANCH_RETURN: 499906 0.999812%
BRANCH_OTHER: 0 0%

