
*** ChampSim Multicore Out-of-Order Simulator ***

Warmup Instructions: 10000000
Simulation Instructions: 100000000
Configuration: 2
Number of CPUs: 1
LLC sets: 2048
LLC ways: 16
Off-chip DRAM Channels: 1 Width: 64-bit Data Rate: 1600 MT/s

CPU 0 runs /datasets/cs240c-wi22-a00-public/data/Assignment2-gz/GemsFDTD_712B.trace.gz
CPU 0 L1D next line prefetcher
CPU 0 L2C IP-based stride prefetcher
Initialize SRRIP state
Heartbeat CPU 0 instructions: 1000003 cycles: 634340 heartbeat IPC: 1.57645 cumulative IPC: 1.57645 (Simulation time: 0 hr 0 min 38 sec) 
Heartbeat CPU 0 instructions: 2000000 cycles: 1268254 heartbeat IPC: 1.5775 cumulative IPC: 1.57697 (Simulation time: 0 hr 1 min 14 sec) 
Heartbeat CPU 0 instructions: 3000000 cycles: 1902242 heartbeat IPC: 1.57732 cumulative IPC: 1.57709 (Simulation time: 0 hr 1 min 55 sec) 
Heartbeat CPU 0 instructions: 4000000 cycles: 2535942 heartbeat IPC: 1.57803 cumulative IPC: 1.57732 (Simulation time: 0 hr 2 min 31 sec) 
Heartbeat CPU 0 instructions: 5000003 cycles: 3170088 heartbeat IPC: 1.57693 cumulative IPC: 1.57724 (Simulation time: 0 hr 3 min 8 sec) 
Heartbeat CPU 0 instructions: 6000002 cycles: 3803969 heartbeat IPC: 1.57758 cumulative IPC: 1.5773 (Simulation time: 0 hr 3 min 45 sec) 
Heartbeat CPU 0 instructions: 7000001 cycles: 4438122 heartbeat IPC: 1.5769 cumulative IPC: 1.57724 (Simulation time: 0 hr 4 min 23 sec) 
Heartbeat CPU 0 instructions: 8000000 cycles: 5071965 heartbeat IPC: 1.57768 cumulative IPC: 1.5773 (Simulation time: 0 hr 5 min 0 sec) 
Heartbeat CPU 0 instructions: 9000001 cycles: 5706092 heartbeat IPC: 1.57697 cumulative IPC: 1.57726 (Simulation time: 0 hr 5 min 36 sec) 
Heartbeat CPU 0 instructions: 10000002 cycles: 6339870 heartbeat IPC: 1.57784 cumulative IPC: 1.57732 (Simulation time: 0 hr 6 min 14 sec) 

Warmup complete CPU 0 instructions: 10000002 cycles: 6339870 (Simulation time: 0 hr 6 min 14 sec) 

Heartbeat CPU 0 instructions: 11000001 cycles: 7963347 heartbeat IPC: 0.615961 cumulative IPC: 0.615961 (Simulation time: 0 hr 7 min 3 sec) 
Heartbeat CPU 0 instructions: 12000000 cycles: 9593809 heartbeat IPC: 0.613322 cumulative IPC: 0.614639 (Simulation time: 0 hr 7 min 48 sec) 
Heartbeat CPU 0 instructions: 13000000 cycles: 11218786 heartbeat IPC: 0.615393 cumulative IPC: 0.61489 (Simulation time: 0 hr 8 min 31 sec) 
Heartbeat CPU 0 instructions: 14000001 cycles: 12826390 heartbeat IPC: 0.622044 cumulative IPC: 0.616663 (Simulation time: 0 hr 9 min 15 sec) 
Heartbeat CPU 0 instructions: 15000001 cycles: 14422994 heartbeat IPC: 0.626329 cumulative IPC: 0.618573 (Simulation time: 0 hr 9 min 55 sec) 
Heartbeat CPU 0 instructions: 16000000 cycles: 16049346 heartbeat IPC: 0.614872 cumulative IPC: 0.617953 (Simulation time: 0 hr 10 min 37 sec) 
Heartbeat CPU 0 instructions: 17000000 cycles: 17663033 heartbeat IPC: 0.619699 cumulative IPC: 0.618202 (Simulation time: 0 hr 11 min 16 sec) 
Heartbeat CPU 0 instructions: 18000001 cycles: 19301387 heartbeat IPC: 0.610369 cumulative IPC: 0.617212 (Simulation time: 0 hr 12 min 3 sec) 
Heartbeat CPU 0 instructions: 19000003 cycles: 20909117 heartbeat IPC: 0.621996 cumulative IPC: 0.61774 (Simulation time: 0 hr 12 min 45 sec) 
Heartbeat CPU 0 instructions: 20000000 cycles: 22508975 heartbeat IPC: 0.625054 cumulative IPC: 0.618463 (Simulation time: 0 hr 13 min 30 sec) 
Heartbeat CPU 0 instructions: 21000002 cycles: 24126731 heartbeat IPC: 0.618141 cumulative IPC: 0.618434 (Simulation time: 0 hr 14 min 15 sec) 
Heartbeat CPU 0 instructions: 22000003 cycles: 25758367 heartbeat IPC: 0.612882 cumulative IPC: 0.617968 (Simulation time: 0 hr 15 min 1 sec) 
Heartbeat CPU 0 instructions: 23000002 cycles: 27367548 heartbeat IPC: 0.621433 cumulative IPC: 0.618233 (Simulation time: 0 hr 15 min 45 sec) 
Heartbeat CPU 0 instructions: 24000000 cycles: 29014623 heartbeat IPC: 0.607136 cumulative IPC: 0.617427 (Simulation time: 0 hr 16 min 27 sec) 
Heartbeat CPU 0 instructions: 25000000 cycles: 30640855 heartbeat IPC: 0.614918 cumulative IPC: 0.617259 (Simulation time: 0 hr 17 min 8 sec) 
Heartbeat CPU 0 instructions: 26000002 cycles: 32253455 heartbeat IPC: 0.620118 cumulative IPC: 0.617437 (Simulation time: 0 hr 17 min 50 sec) 
Heartbeat CPU 0 instructions: 27000002 cycles: 33886466 heartbeat IPC: 0.612366 cumulative IPC: 0.617136 (Simulation time: 0 hr 18 min 30 sec) 
Heartbeat CPU 0 instructions: 28000000 cycles: 35499269 heartbeat IPC: 0.620037 cumulative IPC: 0.617297 (Simulation time: 0 hr 19 min 16 sec) 
Heartbeat CPU 0 instructions: 29000002 cycles: 37108822 heartbeat IPC: 0.621292 cumulative IPC: 0.617506 (Simulation time: 0 hr 20 min 0 sec) 
Heartbeat CPU 0 instructions: 30000002 cycles: 38714024 heartbeat IPC: 0.622975 cumulative IPC: 0.617777 (Simulation time: 0 hr 20 min 44 sec) 
Heartbeat CPU 0 instructions: 31000001 cycles: 40334718 heartbeat IPC: 0.617019 cumulative IPC: 0.617741 (Simulation time: 0 hr 21 min 27 sec) 
Heartbeat CPU 0 instructions: 32000000 cycles: 41963491 heartbeat IPC: 0.613958 cumulative IPC: 0.617568 (Simulation time: 0 hr 22 min 12 sec) 
Heartbeat CPU 0 instructions: 33000000 cycles: 43581932 heartbeat IPC: 0.617879 cumulative IPC: 0.617581 (Simulation time: 0 hr 22 min 52 sec) 
Heartbeat CPU 0 instructions: 34000003 cycles: 45172396 heartbeat IPC: 0.628749 cumulative IPC: 0.618039 (Simulation time: 0 hr 23 min 34 sec) 
Heartbeat CPU 0 instructions: 35000000 cycles: 46789533 heartbeat IPC: 0.618375 cumulative IPC: 0.618052 (Simulation time: 0 hr 24 min 18 sec) 
Heartbeat CPU 0 instructions: 36000000 cycles: 48409851 heartbeat IPC: 0.617163 cumulative IPC: 0.618018 (Simulation time: 0 hr 24 min 59 sec) 
Heartbeat CPU 0 instructions: 37000001 cycles: 50006630 heartbeat IPC: 0.626261 cumulative IPC: 0.618319 (Simulation time: 0 hr 25 min 41 sec) 
Heartbeat CPU 0 instructions: 38000003 cycles: 51610491 heartbeat IPC: 0.623497 cumulative IPC: 0.618503 (Simulation time: 0 hr 26 min 20 sec) 
Heartbeat CPU 0 instructions: 39000000 cycles: 53240813 heartbeat IPC: 0.613374 cumulative IPC: 0.618324 (Simulation time: 0 hr 26 min 59 sec) 
Heartbeat CPU 0 instructions: 40000000 cycles: 54824633 heartbeat IPC: 0.631385 cumulative IPC: 0.618751 (Simulation time: 0 hr 27 min 40 sec) 
Heartbeat CPU 0 instructions: 41000003 cycles: 56430834 heartbeat IPC: 0.622589 cumulative IPC: 0.618874 (Simulation time: 0 hr 28 min 20 sec) 
Heartbeat CPU 0 instructions: 42000000 cycles: 58054425 heartbeat IPC: 0.615917 cumulative IPC: 0.618781 (Simulation time: 0 hr 29 min 1 sec) 
Heartbeat CPU 0 instructions: 43000001 cycles: 59677215 heartbeat IPC: 0.616223 cumulative IPC: 0.618703 (Simulation time: 0 hr 29 min 42 sec) 
Heartbeat CPU 0 instructions: 44000000 cycles: 61281207 heartbeat IPC: 0.623444 cumulative IPC: 0.618842 (Simulation time: 0 hr 30 min 24 sec) 
Heartbeat CPU 0 instructions: 45000003 cycles: 62885730 heartbeat IPC: 0.62324 cumulative IPC: 0.618967 (Simulation time: 0 hr 31 min 6 sec) 
Heartbeat CPU 0 instructions: 46000002 cycles: 64474257 heartbeat IPC: 0.629513 cumulative IPC: 0.619255 (Simulation time: 0 hr 31 min 46 sec) 
Heartbeat CPU 0 instructions: 47000001 cycles: 66095400 heartbeat IPC: 0.616848 cumulative IPC: 0.61919 (Simulation time: 0 hr 32 min 27 sec) 
Heartbeat CPU 0 instructions: 48000000 cycles: 67710243 heartbeat IPC: 0.619255 cumulative IPC: 0.619191 (Simulation time: 0 hr 33 min 8 sec) 
Heartbeat CPU 0 instructions: 49000000 cycles: 69307700 heartbeat IPC: 0.625995 cumulative IPC: 0.619364 (Simulation time: 0 hr 33 min 55 sec) 
Heartbeat CPU 0 instructions: 50000001 cycles: 70926256 heartbeat IPC: 0.617835 cumulative IPC: 0.619326 (Simulation time: 0 hr 34 min 36 sec) 
Heartbeat CPU 0 instructions: 51000002 cycles: 72558046 heartbeat IPC: 0.612825 cumulative IPC: 0.619165 (Simulation time: 0 hr 35 min 17 sec) 
Heartbeat CPU 0 instructions: 52000000 cycles: 74171890 heartbeat IPC: 0.619637 cumulative IPC: 0.619177 (Simulation time: 0 hr 35 min 57 sec) 
Heartbeat CPU 0 instructions: 53000000 cycles: 75817471 heartbeat IPC: 0.607688 cumulative IPC: 0.618904 (Simulation time: 0 hr 36 min 40 sec) 
Heartbeat CPU 0 instructions: 54000000 cycles: 77408822 heartbeat IPC: 0.628397 cumulative IPC: 0.619117 (Simulation time: 0 hr 37 min 20 sec) 
Heartbeat CPU 0 instructions: 55000003 cycles: 78998531 heartbeat IPC: 0.629048 cumulative IPC: 0.619334 (Simulation time: 0 hr 38 min 2 sec) 
Heartbeat CPU 0 instructions: 56000000 cycles: 80621163 heartbeat IPC: 0.616281 cumulative IPC: 0.619268 (Simulation time: 0 hr 38 min 43 sec) 
Heartbeat CPU 0 instructions: 57000000 cycles: 82276526 heartbeat IPC: 0.604097 cumulative IPC: 0.618937 (Simulation time: 0 hr 39 min 22 sec) 
Heartbeat CPU 0 instructions: 58000001 cycles: 83898958 heartbeat IPC: 0.616359 cumulative IPC: 0.618883 (Simulation time: 0 hr 40 min 3 sec) 
Heartbeat CPU 0 instructions: 59000001 cycles: 85519920 heartbeat IPC: 0.616918 cumulative IPC: 0.618843 (Simulation time: 0 hr 40 min 43 sec) 
Heartbeat CPU 0 instructions: 60000000 cycles: 87154433 heartbeat IPC: 0.611802 cumulative IPC: 0.6187 (Simulation time: 0 hr 41 min 28 sec) 
Heartbeat CPU 0 instructions: 61000001 cycles: 88744920 heartbeat IPC: 0.628739 cumulative IPC: 0.618894 (Simulation time: 0 hr 42 min 7 sec) 
Heartbeat CPU 0 instructions: 62000000 cycles: 90340810 heartbeat IPC: 0.626609 cumulative IPC: 0.619041 (Simulation time: 0 hr 42 min 47 sec) 
Heartbeat CPU 0 instructions: 63000003 cycles: 91962578 heartbeat IPC: 0.616613 cumulative IPC: 0.618995 (Simulation time: 0 hr 43 min 28 sec) 
Heartbeat CPU 0 instructions: 64000000 cycles: 93584272 heartbeat IPC: 0.616637 cumulative IPC: 0.618951 (Simulation time: 0 hr 44 min 9 sec) 
Heartbeat CPU 0 instructions: 65000003 cycles: 95218730 heartbeat IPC: 0.611825 cumulative IPC: 0.61882 (Simulation time: 0 hr 44 min 50 sec) 
Heartbeat CPU 0 instructions: 66000000 cycles: 96815248 heartbeat IPC: 0.626361 cumulative IPC: 0.618953 (Simulation time: 0 hr 45 min 31 sec) 
Heartbeat CPU 0 instructions: 67000000 cycles: 98420714 heartbeat IPC: 0.622872 cumulative IPC: 0.619021 (Simulation time: 0 hr 46 min 11 sec) 
Heartbeat CPU 0 instructions: 68000000 cycles: 100023773 heartbeat IPC: 0.623807 cumulative IPC: 0.619103 (Simulation time: 0 hr 46 min 51 sec) 
Heartbeat CPU 0 instructions: 69000003 cycles: 101609698 heartbeat IPC: 0.630549 cumulative IPC: 0.619294 (Simulation time: 0 hr 47 min 33 sec) 
Heartbeat CPU 0 instructions: 70000002 cycles: 103245858 heartbeat IPC: 0.611187 cumulative IPC: 0.619157 (Simulation time: 0 hr 48 min 15 sec) 
Heartbeat CPU 0 instructions: 71000002 cycles: 104897011 heartbeat IPC: 0.605637 cumulative IPC: 0.61893 (Simulation time: 0 hr 48 min 55 sec) 
Heartbeat CPU 0 instructions: 72000000 cycles: 106598733 heartbeat IPC: 0.587639 cumulative IPC: 0.618399 (Simulation time: 0 hr 49 min 39 sec) 
Heartbeat CPU 0 instructions: 73000000 cycles: 108297631 heartbeat IPC: 0.588617 cumulative IPC: 0.617903 (Simulation time: 0 hr 50 min 19 sec) 
Heartbeat CPU 0 instructions: 74000001 cycles: 110013417 heartbeat IPC: 0.582824 cumulative IPC: 0.617322 (Simulation time: 0 hr 50 min 59 sec) 
Heartbeat CPU 0 instructions: 75000003 cycles: 111711763 heartbeat IPC: 0.588809 cumulative IPC: 0.616863 (Simulation time: 0 hr 51 min 40 sec) 
Heartbeat CPU 0 instructions: 76000000 cycles: 113412313 heartbeat IPC: 0.588043 cumulative IPC: 0.616405 (Simulation time: 0 hr 52 min 18 sec) 
Heartbeat CPU 0 instructions: 77000000 cycles: 115127857 heartbeat IPC: 0.582905 cumulative IPC: 0.615877 (Simulation time: 0 hr 52 min 55 sec) 
Heartbeat CPU 0 instructions: 78000001 cycles: 116812143 heartbeat IPC: 0.593724 cumulative IPC: 0.615539 (Simulation time: 0 hr 53 min 31 sec) 
Heartbeat CPU 0 instructions: 79000003 cycles: 118503518 heartbeat IPC: 0.591236 cumulative IPC: 0.615173 (Simulation time: 0 hr 54 min 7 sec) 
Heartbeat CPU 0 instructions: 80000000 cycles: 120204332 heartbeat IPC: 0.587952 cumulative IPC: 0.614766 (Simulation time: 0 hr 54 min 40 sec) 
Heartbeat CPU 0 instructions: 81000001 cycles: 121909435 heartbeat IPC: 0.586475 cumulative IPC: 0.614349 (Simulation time: 0 hr 55 min 8 sec) 
Heartbeat CPU 0 instructions: 82000000 cycles: 123614774 heartbeat IPC: 0.586393 cumulative IPC: 0.613942 (Simulation time: 0 hr 55 min 35 sec) 
Heartbeat CPU 0 instructions: 83000001 cycles: 125315701 heartbeat IPC: 0.587915 cumulative IPC: 0.61357 (Simulation time: 0 hr 56 min 2 sec) 
Heartbeat CPU 0 instructions: 84000000 cycles: 127029791 heartbeat IPC: 0.583399 cumulative IPC: 0.613141 (Simulation time: 0 hr 56 min 29 sec) 
Heartbeat CPU 0 instructions: 85000000 cycles: 128732700 heartbeat IPC: 0.58723 cumulative IPC: 0.612781 (Simulation time: 0 hr 56 min 54 sec) 
Heartbeat CPU 0 instructions: 86000000 cycles: 130421356 heartbeat IPC: 0.592187 cumulative IPC: 0.612501 (Simulation time: 0 hr 57 min 20 sec) 
Heartbeat CPU 0 instructions: 87000001 cycles: 132139316 heartbeat IPC: 0.582086 cumulative IPC: 0.612085 (Simulation time: 0 hr 57 min 47 sec) 
Heartbeat CPU 0 instructions: 88000000 cycles: 133853086 heartbeat IPC: 0.583508 cumulative IPC: 0.611701 (Simulation time: 0 hr 58 min 12 sec) 
Heartbeat CPU 0 instructions: 89000003 cycles: 135563591 heartbeat IPC: 0.584624 cumulative IPC: 0.611343 (Simulation time: 0 hr 58 min 37 sec) 
Heartbeat CPU 0 instructions: 90000000 cycles: 137284214 heartbeat IPC: 0.581183 cumulative IPC: 0.610947 (Simulation time: 0 hr 59 min 1 sec) 
Heartbeat CPU 0 instructions: 91000001 cycles: 138995277 heartbeat IPC: 0.584433 cumulative IPC: 0.610605 (Simulation time: 0 hr 59 min 25 sec) 
Heartbeat CPU 0 instructions: 92000000 cycles: 140715443 heartbeat IPC: 0.581339 cumulative IPC: 0.61023 (Simulation time: 0 hr 59 min 46 sec) 
Heartbeat CPU 0 instructions: 93000003 cycles: 142426130 heartbeat IPC: 0.584562 cumulative IPC: 0.609907 (Simulation time: 1 hr 0 min 6 sec) 
Heartbeat CPU 0 instructions: 94000002 cycles: 144141687 heartbeat IPC: 0.5829 cumulative IPC: 0.609571 (Simulation time: 1 hr 0 min 28 sec) 
Heartbeat CPU 0 instructions: 95000001 cycles: 145870095 heartbeat IPC: 0.578566 cumulative IPC: 0.609187 (Simulation time: 1 hr 0 min 49 sec) 
Heartbeat CPU 0 instructions: 96000000 cycles: 147584699 heartbeat IPC: 0.583224 cumulative IPC: 0.608872 (Simulation time: 1 hr 1 min 7 sec) 
Heartbeat CPU 0 instructions: 97000003 cycles: 149302835 heartbeat IPC: 0.582028 cumulative IPC: 0.608549 (Simulation time: 1 hr 1 min 26 sec) 
Heartbeat CPU 0 instructions: 98000000 cycles: 151013371 heartbeat IPC: 0.58461 cumulative IPC: 0.608266 (Simulation time: 1 hr 1 min 46 sec) 
Heartbeat CPU 0 instructions: 99000001 cycles: 152724880 heartbeat IPC: 0.58428 cumulative IPC: 0.607986 (Simulation time: 1 hr 2 min 5 sec) 
Heartbeat CPU 0 instructions: 100000000 cycles: 154443640 heartbeat IPC: 0.581814 cumulative IPC: 0.607682 (Simulation time: 1 hr 2 min 22 sec) 
Heartbeat CPU 0 instructions: 101000001 cycles: 156146466 heartbeat IPC: 0.58726 cumulative IPC: 0.60745 (Simulation time: 1 hr 2 min 36 sec) 
Heartbeat CPU 0 instructions: 102000002 cycles: 157858695 heartbeat IPC: 0.584035 cumulative IPC: 0.607185 (Simulation time: 1 hr 2 min 47 sec) 
Heartbeat CPU 0 instructions: 103000000 cycles: 159558583 heartbeat IPC: 0.588273 cumulative IPC: 0.606975 (Simulation time: 1 hr 2 min 57 sec) 
Heartbeat CPU 0 instructions: 104000000 cycles: 161271672 heartbeat IPC: 0.583741 cumulative IPC: 0.606719 (Simulation time: 1 hr 3 min 7 sec) 
Heartbeat CPU 0 instructions: 105000000 cycles: 162969537 heartbeat IPC: 0.588975 cumulative IPC: 0.606526 (Simulation time: 1 hr 3 min 15 sec) 
Heartbeat CPU 0 instructions: 106000002 cycles: 164658904 heartbeat IPC: 0.591939 cumulative IPC: 0.606371 (Simulation time: 1 hr 3 min 23 sec) 
Heartbeat CPU 0 instructions: 107000000 cycles: 166376509 heartbeat IPC: 0.582205 cumulative IPC: 0.606111 (Simulation time: 1 hr 3 min 32 sec) 
Heartbeat CPU 0 instructions: 108000000 cycles: 168077794 heartbeat IPC: 0.587791 cumulative IPC: 0.605918 (Simulation time: 1 hr 3 min 40 sec) 
Heartbeat CPU 0 instructions: 109000003 cycles: 169783264 heartbeat IPC: 0.58635 cumulative IPC: 0.605714 (Simulation time: 1 hr 3 min 47 sec) 
Heartbeat CPU 0 instructions: 110000001 cycles: 171483993 heartbeat IPC: 0.587982 cumulative IPC: 0.605532 (Simulation time: 1 hr 3 min 55 sec) 
Finished CPU 0 instructions: 100000003 cycles: 165144124 cummulative IPC: 0.605532 (Simulation time: 1 hr 3 min 55 sec) 

ChampSim completed all CPUs

Region of Interest Statistics

CPU 0 cummulative IPC: 0.605532 instructions: 100000003 cycles: 165144124
LLC TOTAL     ACCESS:    5145138  HIT:     252869  MISS:    4892269
LLC LOAD      ACCESS:     521276  HIT:     121253  MISS:     400023
LLC RFO       ACCESS:         18  HIT:          0  MISS:         18
LLC PREFETCH  ACCESS:    3246546  HIT:      53108  MISS:    3193438
LLC WRITEBACK ACCESS:    1377298  HIT:      78508  MISS:    1298790
Insertion Distribution: 
	LOAD 125266 0 12215 279058 
	RFO 0 0 18 0 
	PREF 0 14893 58083 3489338 
	WRITEBACK 0 0 0 1422751 
Total Prefetch Downgrades: 8352
