
*** ChampSim Multicore Out-of-Order Simulator ***

Warmup Instructions: 10000000
Simulation Instructions: 100000000
Configuration: 2
Number of CPUs: 1
LLC sets: 2048
LLC ways: 16
Off-chip DRAM Channels: 1 Width: 64-bit Data Rate: 1600 MT/s

CPU 0 runs /datasets/cs240c-wi22-a00-public/data/Assignment2-gz/lbm_564B.trace.gz
CPU 0 L1D next line prefetcher
CPU 0 L2C IP-based stride prefetcher
Initialize SRRIP state
Heartbeat CPU 0 instructions: 1000000 cycles: 390168 heartbeat IPC: 2.563 cumulative IPC: 2.563 (Simulation time: 0 hr 0 min 29 sec) 
Heartbeat CPU 0 instructions: 2000003 cycles: 785204 heartbeat IPC: 2.53142 cumulative IPC: 2.54711 (Simulation time: 0 hr 0 min 55 sec) 
Heartbeat CPU 0 instructions: 3000002 cycles: 1175398 heartbeat IPC: 2.56283 cumulative IPC: 2.55233 (Simulation time: 0 hr 1 min 21 sec) 
Heartbeat CPU 0 instructions: 4000000 cycles: 1565581 heartbeat IPC: 2.56289 cumulative IPC: 2.55496 (Simulation time: 0 hr 1 min 47 sec) 
Heartbeat CPU 0 instructions: 5000000 cycles: 1960699 heartbeat IPC: 2.53089 cumulative IPC: 2.55011 (Simulation time: 0 hr 2 min 11 sec) 
Heartbeat CPU 0 instructions: 6000002 cycles: 2350856 heartbeat IPC: 2.56308 cumulative IPC: 2.55226 (Simulation time: 0 hr 2 min 36 sec) 
Heartbeat CPU 0 instructions: 7000001 cycles: 2741116 heartbeat IPC: 2.56239 cumulative IPC: 2.5537 (Simulation time: 0 hr 3 min 2 sec) 
Heartbeat CPU 0 instructions: 8000000 cycles: 3136112 heartbeat IPC: 2.53167 cumulative IPC: 2.55093 (Simulation time: 0 hr 3 min 30 sec) 
Heartbeat CPU 0 instructions: 9000000 cycles: 3526370 heartbeat IPC: 2.56241 cumulative IPC: 2.5522 (Simulation time: 0 hr 3 min 58 sec) 
Heartbeat CPU 0 instructions: 10000002 cycles: 3916521 heartbeat IPC: 2.56312 cumulative IPC: 2.55329 (Simulation time: 0 hr 4 min 25 sec) 

Warmup complete CPU 0 instructions: 10000002 cycles: 3916521 (Simulation time: 0 hr 4 min 25 sec) 

Heartbeat CPU 0 instructions: 11000000 cycles: 5394305 heartbeat IPC: 0.676688 cumulative IPC: 0.676688 (Simulation time: 0 hr 5 min 0 sec) 
Heartbeat CPU 0 instructions: 12000000 cycles: 6894603 heartbeat IPC: 0.666534 cumulative IPC: 0.671573 (Simulation time: 0 hr 5 min 33 sec) 
Heartbeat CPU 0 instructions: 13000001 cycles: 8351637 heartbeat IPC: 0.686326 cumulative IPC: 0.676419 (Simulation time: 0 hr 6 min 5 sec) 
Heartbeat CPU 0 instructions: 14000001 cycles: 9883457 heartbeat IPC: 0.652818 cumulative IPC: 0.670361 (Simulation time: 0 hr 6 min 39 sec) 
Heartbeat CPU 0 instructions: 15000000 cycles: 11395255 heartbeat IPC: 0.661463 cumulative IPC: 0.668562 (Simulation time: 0 hr 7 min 14 sec) 
Heartbeat CPU 0 instructions: 16000000 cycles: 12856630 heartbeat IPC: 0.684287 cumulative IPC: 0.671133 (Simulation time: 0 hr 7 min 46 sec) 
Heartbeat CPU 0 instructions: 17000000 cycles: 14331807 heartbeat IPC: 0.677885 cumulative IPC: 0.672089 (Simulation time: 0 hr 8 min 22 sec) 
Heartbeat CPU 0 instructions: 18000000 cycles: 15829317 heartbeat IPC: 0.667775 cumulative IPC: 0.671547 (Simulation time: 0 hr 8 min 58 sec) 
Heartbeat CPU 0 instructions: 19000003 cycles: 17271194 heartbeat IPC: 0.693543 cumulative IPC: 0.673921 (Simulation time: 0 hr 9 min 34 sec) 
Heartbeat CPU 0 instructions: 20000000 cycles: 18783363 heartbeat IPC: 0.6613 cumulative IPC: 0.672638 (Simulation time: 0 hr 10 min 10 sec) 
Heartbeat CPU 0 instructions: 21000003 cycles: 20252101 heartbeat IPC: 0.680859 cumulative IPC: 0.673377 (Simulation time: 0 hr 10 min 46 sec) 
Heartbeat CPU 0 instructions: 22000003 cycles: 22270304 heartbeat IPC: 0.49549 cumulative IPC: 0.653816 (Simulation time: 0 hr 11 min 31 sec) 
Heartbeat CPU 0 instructions: 23000001 cycles: 24599834 heartbeat IPC: 0.42927 cumulative IPC: 0.628526 (Simulation time: 0 hr 12 min 19 sec) 
Heartbeat CPU 0 instructions: 24000000 cycles: 31350461 heartbeat IPC: 0.148134 cumulative IPC: 0.510317 (Simulation time: 0 hr 13 min 40 sec) 
Heartbeat CPU 0 instructions: 25000003 cycles: 34272328 heartbeat IPC: 0.342248 cumulative IPC: 0.494139 (Simulation time: 0 hr 14 min 34 sec) 
Heartbeat CPU 0 instructions: 26000002 cycles: 36686889 heartbeat IPC: 0.414154 cumulative IPC: 0.488246 (Simulation time: 0 hr 15 min 17 sec) 
Heartbeat CPU 0 instructions: 27000001 cycles: 38062390 heartbeat IPC: 0.727007 cumulative IPC: 0.497864 (Simulation time: 0 hr 15 min 51 sec) 
Heartbeat CPU 0 instructions: 28000000 cycles: 39352434 heartbeat IPC: 0.775167 cumulative IPC: 0.507959 (Simulation time: 0 hr 16 min 22 sec) 
Heartbeat CPU 0 instructions: 29000003 cycles: 40850887 heartbeat IPC: 0.667357 cumulative IPC: 0.514426 (Simulation time: 0 hr 16 min 55 sec) 
Heartbeat CPU 0 instructions: 30000000 cycles: 42363488 heartbeat IPC: 0.661111 cumulative IPC: 0.520197 (Simulation time: 0 hr 17 min 27 sec) 
Heartbeat CPU 0 instructions: 31000000 cycles: 43683681 heartbeat IPC: 0.757465 cumulative IPC: 0.528074 (Simulation time: 0 hr 17 min 59 sec) 
Heartbeat CPU 0 instructions: 32000000 cycles: 45099565 heartbeat IPC: 0.706273 cumulative IPC: 0.5342 (Simulation time: 0 hr 18 min 32 sec) 
Heartbeat CPU 0 instructions: 33000001 cycles: 46720718 heartbeat IPC: 0.616846 cumulative IPC: 0.53733 (Simulation time: 0 hr 19 min 8 sec) 
Heartbeat CPU 0 instructions: 34000001 cycles: 48195048 heartbeat IPC: 0.678274 cumulative IPC: 0.542023 (Simulation time: 0 hr 19 min 44 sec) 
Heartbeat CPU 0 instructions: 35000002 cycles: 49669316 heartbeat IPC: 0.678303 cumulative IPC: 0.546415 (Simulation time: 0 hr 20 min 19 sec) 
Heartbeat CPU 0 instructions: 36000000 cycles: 51142587 heartbeat IPC: 0.67876 cumulative IPC: 0.550543 (Simulation time: 0 hr 20 min 52 sec) 
Heartbeat CPU 0 instructions: 37000000 cycles: 52701934 heartbeat IPC: 0.641294 cumulative IPC: 0.553444 (Simulation time: 0 hr 21 min 25 sec) 
Heartbeat CPU 0 instructions: 38000003 cycles: 54143792 heartbeat IPC: 0.693552 cumulative IPC: 0.557466 (Simulation time: 0 hr 21 min 58 sec) 
Heartbeat CPU 0 instructions: 39000002 cycles: 55597889 heartbeat IPC: 0.687711 cumulative IPC: 0.561131 (Simulation time: 0 hr 22 min 33 sec) 
Heartbeat CPU 0 instructions: 40000000 cycles: 57175239 heartbeat IPC: 0.633973 cumulative IPC: 0.563288 (Simulation time: 0 hr 23 min 9 sec) 
Heartbeat CPU 0 instructions: 41000000 cycles: 58593515 heartbeat IPC: 0.705081 cumulative IPC: 0.566966 (Simulation time: 0 hr 23 min 45 sec) 
Heartbeat CPU 0 instructions: 42000002 cycles: 59972562 heartbeat IPC: 0.72514 cumulative IPC: 0.570857 (Simulation time: 0 hr 24 min 18 sec) 
Heartbeat CPU 0 instructions: 43000001 cycles: 61481363 heartbeat IPC: 0.662777 cumulative IPC: 0.573267 (Simulation time: 0 hr 24 min 51 sec) 
Heartbeat CPU 0 instructions: 44000000 cycles: 62956487 heartbeat IPC: 0.677908 cumulative IPC: 0.575881 (Simulation time: 0 hr 25 min 25 sec) 
Heartbeat CPU 0 instructions: 45000001 cycles: 64355654 heartbeat IPC: 0.714712 cumulative IPC: 0.579095 (Simulation time: 0 hr 25 min 59 sec) 
Heartbeat CPU 0 instructions: 46000002 cycles: 65819744 heartbeat IPC: 0.683019 cumulative IPC: 0.581553 (Simulation time: 0 hr 26 min 33 sec) 
Heartbeat CPU 0 instructions: 47000001 cycles: 67350630 heartbeat IPC: 0.653216 cumulative IPC: 0.583282 (Simulation time: 0 hr 27 min 8 sec) 
Heartbeat CPU 0 instructions: 48000000 cycles: 68767390 heartbeat IPC: 0.705835 cumulative IPC: 0.58596 (Simulation time: 0 hr 27 min 41 sec) 
Heartbeat CPU 0 instructions: 49000001 cycles: 70231841 heartbeat IPC: 0.68285 cumulative IPC: 0.588099 (Simulation time: 0 hr 28 min 13 sec) 
Heartbeat CPU 0 instructions: 50000001 cycles: 71812147 heartbeat IPC: 0.632789 cumulative IPC: 0.58914 (Simulation time: 0 hr 28 min 46 sec) 
Heartbeat CPU 0 instructions: 51000002 cycles: 73298542 heartbeat IPC: 0.672769 cumulative IPC: 0.590931 (Simulation time: 0 hr 29 min 19 sec) 
Heartbeat CPU 0 instructions: 52000000 cycles: 74747419 heartbeat IPC: 0.690188 cumulative IPC: 0.592962 (Simulation time: 0 hr 29 min 54 sec) 
Heartbeat CPU 0 instructions: 53000001 cycles: 76249684 heartbeat IPC: 0.665662 cumulative IPC: 0.594471 (Simulation time: 0 hr 30 min 31 sec) 
Heartbeat CPU 0 instructions: 54000001 cycles: 77789522 heartbeat IPC: 0.649419 cumulative IPC: 0.595617 (Simulation time: 0 hr 31 min 6 sec) 
Heartbeat CPU 0 instructions: 55000002 cycles: 79266846 heartbeat IPC: 0.6769 cumulative IPC: 0.59721 (Simulation time: 0 hr 31 min 37 sec) 
Heartbeat CPU 0 instructions: 56000000 cycles: 80713457 heartbeat IPC: 0.691269 cumulative IPC: 0.598982 (Simulation time: 0 hr 32 min 12 sec) 
Heartbeat CPU 0 instructions: 57000001 cycles: 82213279 heartbeat IPC: 0.666746 cumulative IPC: 0.60028 (Simulation time: 0 hr 32 min 46 sec) 
Heartbeat CPU 0 instructions: 58000002 cycles: 83733918 heartbeat IPC: 0.657619 cumulative IPC: 0.601373 (Simulation time: 0 hr 33 min 20 sec) 
Heartbeat CPU 0 instructions: 59000001 cycles: 85171764 heartbeat IPC: 0.695484 cumulative IPC: 0.603038 (Simulation time: 0 hr 33 min 51 sec) 
Heartbeat CPU 0 instructions: 60000000 cycles: 86673940 heartbeat IPC: 0.6657 cumulative IPC: 0.604175 (Simulation time: 0 hr 34 min 24 sec) 
Heartbeat CPU 0 instructions: 61000003 cycles: 88225862 heartbeat IPC: 0.644364 cumulative IPC: 0.604915 (Simulation time: 0 hr 34 min 58 sec) 
Heartbeat CPU 0 instructions: 62000003 cycles: 89710465 heartbeat IPC: 0.673581 cumulative IPC: 0.606103 (Simulation time: 0 hr 35 min 31 sec) 
Heartbeat CPU 0 instructions: 63000000 cycles: 91237287 heartbeat IPC: 0.654953 cumulative IPC: 0.606958 (Simulation time: 0 hr 36 min 11 sec) 
Heartbeat CPU 0 instructions: 64000000 cycles: 92783285 heartbeat IPC: 0.646831 cumulative IPC: 0.607651 (Simulation time: 0 hr 36 min 48 sec) 
Heartbeat CPU 0 instructions: 65000003 cycles: 94342870 heartbeat IPC: 0.641198 cumulative IPC: 0.60823 (Simulation time: 0 hr 37 min 21 sec) 
Heartbeat CPU 0 instructions: 66000001 cycles: 95795472 heartbeat IPC: 0.688418 cumulative IPC: 0.609498 (Simulation time: 0 hr 37 min 54 sec) 
Heartbeat CPU 0 instructions: 67000001 cycles: 97364938 heartbeat IPC: 0.637159 cumulative IPC: 0.609962 (Simulation time: 0 hr 38 min 28 sec) 
Heartbeat CPU 0 instructions: 68000000 cycles: 98962880 heartbeat IPC: 0.625804 cumulative IPC: 0.610229 (Simulation time: 0 hr 39 min 4 sec) 
Heartbeat CPU 0 instructions: 69000003 cycles: 100434858 heartbeat IPC: 0.67936 cumulative IPC: 0.611283 (Simulation time: 0 hr 39 min 37 sec) 
Heartbeat CPU 0 instructions: 70000003 cycles: 101982357 heartbeat IPC: 0.646204 cumulative IPC: 0.611834 (Simulation time: 0 hr 40 min 10 sec) 
Heartbeat CPU 0 instructions: 71000000 cycles: 103606842 heartbeat IPC: 0.615578 cumulative IPC: 0.611895 (Simulation time: 0 hr 40 min 44 sec) 
Heartbeat CPU 0 instructions: 72000000 cycles: 105026219 heartbeat IPC: 0.704534 cumulative IPC: 0.613195 (Simulation time: 0 hr 41 min 20 sec) 
Heartbeat CPU 0 instructions: 73000003 cycles: 106549519 heartbeat IPC: 0.656471 cumulative IPC: 0.613838 (Simulation time: 0 hr 41 min 56 sec) 
Heartbeat CPU 0 instructions: 74000002 cycles: 108185412 heartbeat IPC: 0.611286 cumulative IPC: 0.613798 (Simulation time: 0 hr 42 min 33 sec) 
Heartbeat CPU 0 instructions: 75000002 cycles: 109622835 heartbeat IPC: 0.695689 cumulative IPC: 0.614911 (Simulation time: 0 hr 43 min 16 sec) 
Heartbeat CPU 0 instructions: 76000000 cycles: 111159252 heartbeat IPC: 0.650864 cumulative IPC: 0.615426 (Simulation time: 0 hr 43 min 53 sec) 
Heartbeat CPU 0 instructions: 77000001 cycles: 112817845 heartbeat IPC: 0.602921 cumulative IPC: 0.615236 (Simulation time: 0 hr 44 min 31 sec) 
Heartbeat CPU 0 instructions: 78000002 cycles: 114301676 heartbeat IPC: 0.673932 cumulative IPC: 0.616025 (Simulation time: 0 hr 45 min 7 sec) 
Heartbeat CPU 0 instructions: 79000000 cycles: 115830205 heartbeat IPC: 0.654222 cumulative IPC: 0.616547 (Simulation time: 0 hr 45 min 43 sec) 
Heartbeat CPU 0 instructions: 80000000 cycles: 117507586 heartbeat IPC: 0.596168 cumulative IPC: 0.616246 (Simulation time: 0 hr 46 min 17 sec) 
Heartbeat CPU 0 instructions: 81000003 cycles: 119001878 heartbeat IPC: 0.669215 cumulative IPC: 0.616933 (Simulation time: 0 hr 46 min 51 sec) 
Heartbeat CPU 0 instructions: 82000001 cycles: 120503309 heartbeat IPC: 0.66603 cumulative IPC: 0.617566 (Simulation time: 0 hr 47 min 27 sec) 
Heartbeat CPU 0 instructions: 83000001 cycles: 122175306 heartbeat IPC: 0.598087 cumulative IPC: 0.61729 (Simulation time: 0 hr 48 min 4 sec) 
Heartbeat CPU 0 instructions: 84000000 cycles: 123725634 heartbeat IPC: 0.645024 cumulative IPC: 0.617649 (Simulation time: 0 hr 48 min 44 sec) 
Heartbeat CPU 0 instructions: 85000002 cycles: 125170005 heartbeat IPC: 0.692344 cumulative IPC: 0.618539 (Simulation time: 0 hr 49 min 17 sec) 
Heartbeat CPU 0 instructions: 86000001 cycles: 126908162 heartbeat IPC: 0.575321 cumulative IPC: 0.617928 (Simulation time: 0 hr 49 min 50 sec) 
Heartbeat CPU 0 instructions: 87000003 cycles: 128460156 heartbeat IPC: 0.644334 cumulative IPC: 0.618257 (Simulation time: 0 hr 50 min 21 sec) 
Heartbeat CPU 0 instructions: 88000000 cycles: 129875607 heartbeat IPC: 0.706486 cumulative IPC: 0.619249 (Simulation time: 0 hr 50 min 50 sec) 
Heartbeat CPU 0 instructions: 89000003 cycles: 131628521 heartbeat IPC: 0.57048 cumulative IPC: 0.618579 (Simulation time: 0 hr 51 min 24 sec) 
Heartbeat CPU 0 instructions: 90000001 cycles: 133218209 heartbeat IPC: 0.629053 cumulative IPC: 0.618708 (Simulation time: 0 hr 51 min 55 sec) 
Heartbeat CPU 0 instructions: 91000000 cycles: 134658568 heartbeat IPC: 0.694271 cumulative IPC: 0.619541 (Simulation time: 0 hr 52 min 21 sec) 
Heartbeat CPU 0 instructions: 92000000 cycles: 136380884 heartbeat IPC: 0.580614 cumulative IPC: 0.619034 (Simulation time: 0 hr 52 min 51 sec) 
Heartbeat CPU 0 instructions: 93000003 cycles: 138025276 heartbeat IPC: 0.608129 cumulative IPC: 0.618901 (Simulation time: 0 hr 53 min 20 sec) 
Heartbeat CPU 0 instructions: 94000002 cycles: 139454976 heartbeat IPC: 0.699447 cumulative IPC: 0.61975 (Simulation time: 0 hr 53 min 48 sec) 
Heartbeat CPU 0 instructions: 95000001 cycles: 141124904 heartbeat IPC: 0.598828 cumulative IPC: 0.619496 (Simulation time: 0 hr 54 min 16 sec) 
Heartbeat CPU 0 instructions: 96000000 cycles: 142767389 heartbeat IPC: 0.608833 cumulative IPC: 0.61937 (Simulation time: 0 hr 54 min 40 sec) 
Heartbeat CPU 0 instructions: 97000002 cycles: 144231079 heartbeat IPC: 0.683206 cumulative IPC: 0.620035 (Simulation time: 0 hr 55 min 2 sec) 
Heartbeat CPU 0 instructions: 98000000 cycles: 145932704 heartbeat IPC: 0.587672 cumulative IPC: 0.619648 (Simulation time: 0 hr 55 min 24 sec) 
Heartbeat CPU 0 instructions: 99000001 cycles: 147538676 heartbeat IPC: 0.622676 cumulative IPC: 0.619682 (Simulation time: 0 hr 55 min 45 sec) 
Heartbeat CPU 0 instructions: 100000000 cycles: 148956310 heartbeat IPC: 0.7054 cumulative IPC: 0.620519 (Simulation time: 0 hr 56 min 4 sec) 
Heartbeat CPU 0 instructions: 101000002 cycles: 150701735 heartbeat IPC: 0.572928 cumulative IPC: 0.619953 (Simulation time: 0 hr 56 min 26 sec) 
Heartbeat CPU 0 instructions: 102000002 cycles: 152309089 heartbeat IPC: 0.62214 cumulative IPC: 0.619977 (Simulation time: 0 hr 56 min 45 sec) 
Heartbeat CPU 0 instructions: 103000001 cycles: 153739299 heartbeat IPC: 0.699197 cumulative IPC: 0.620733 (Simulation time: 0 hr 57 min 3 sec) 
Heartbeat CPU 0 instructions: 104000000 cycles: 155509106 heartbeat IPC: 0.565033 cumulative IPC: 0.620083 (Simulation time: 0 hr 57 min 24 sec) 
Heartbeat CPU 0 instructions: 105000001 cycles: 157136765 heartbeat IPC: 0.61438 cumulative IPC: 0.620022 (Simulation time: 0 hr 57 min 45 sec) 
Heartbeat CPU 0 instructions: 106000001 cycles: 158589641 heartbeat IPC: 0.68829 cumulative IPC: 0.620664 (Simulation time: 0 hr 58 min 6 sec) 
Heartbeat CPU 0 instructions: 107000001 cycles: 160383996 heartbeat IPC: 0.557303 cumulative IPC: 0.619937 (Simulation time: 0 hr 58 min 27 sec) 
Heartbeat CPU 0 instructions: 108000000 cycles: 161989595 heartbeat IPC: 0.62282 cumulative IPC: 0.619966 (Simulation time: 0 hr 58 min 48 sec) 
Heartbeat CPU 0 instructions: 109000003 cycles: 163415855 heartbeat IPC: 0.701137 cumulative IPC: 0.620692 (Simulation time: 0 hr 59 min 9 sec) 
Heartbeat CPU 0 instructions: 110000001 cycles: 165231621 heartbeat IPC: 0.550731 cumulative IPC: 0.619905 (Simulation time: 0 hr 59 min 29 sec) 
Finished CPU 0 instructions: 100000003 cycles: 161315101 cummulative IPC: 0.619905 (Simulation time: 0 hr 59 min 29 sec) 

ChampSim completed all CPUs

Region of Interest Statistics

CPU 0 cummulative IPC: 0.619905 instructions: 100000003 cycles: 161315101
LLC TOTAL     ACCESS:    6072483  HIT:    1535722  MISS:    4536761
LLC LOAD      ACCESS:     447498  HIT:      20460  MISS:     427038
LLC RFO       ACCESS:    2591732  HIT:     383662  MISS:    2208070
LLC PREFETCH  ACCESS:     441284  HIT:      24882  MISS:     416402
LLC WRITEBACK ACCESS:    2591969  HIT:    1106718  MISS:    1485251
Insertion Distribution: 
	LOAD 0 0 2429 454941 
	RFO 164623 0 542850 1693540 
	PREF 0 14003 56399 389716 
	WRITEBACK 0 0 0 1597684 
Total Prefetch Downgrades: 20354
