
*** ChampSim Multicore Out-of-Order Simulator ***

Warmup Instructions: 10000000
Simulation Instructions: 100000000
Configuration: 2
Number of CPUs: 1
LLC sets: 2048
LLC ways: 16
Off-chip DRAM Channels: 1 Width: 64-bit Data Rate: 1600 MT/s

CPU 0 runs /datasets/cs240c-wi22-a00-public/data/Assignment2-gz/perlbench_135B.trace.gz
CPU 0 L1D next line prefetcher
CPU 0 L2C IP-based stride prefetcher
Initialize SRRIP state
Heartbeat CPU 0 instructions: 1000000 cycles: 600033 heartbeat IPC: 1.66657 cumulative IPC: 1.66657 (Simulation time: 0 hr 0 min 35 sec) 
Heartbeat CPU 0 instructions: 2000000 cycles: 1209304 heartbeat IPC: 1.64131 cumulative IPC: 1.65384 (Simulation time: 0 hr 1 min 11 sec) 
Heartbeat CPU 0 instructions: 3000000 cycles: 1832837 heartbeat IPC: 1.60376 cumulative IPC: 1.63681 (Simulation time: 0 hr 1 min 46 sec) 
Heartbeat CPU 0 instructions: 4000000 cycles: 2492645 heartbeat IPC: 1.51559 cumulative IPC: 1.60472 (Simulation time: 0 hr 2 min 23 sec) 
Heartbeat CPU 0 instructions: 5000001 cycles: 3079308 heartbeat IPC: 1.70456 cumulative IPC: 1.62374 (Simulation time: 0 hr 2 min 54 sec) 
Heartbeat CPU 0 instructions: 6000002 cycles: 3681733 heartbeat IPC: 1.65996 cumulative IPC: 1.62967 (Simulation time: 0 hr 3 min 27 sec) 
Heartbeat CPU 0 instructions: 7000001 cycles: 4282494 heartbeat IPC: 1.66455 cumulative IPC: 1.63456 (Simulation time: 0 hr 4 min 2 sec) 
Heartbeat CPU 0 instructions: 8000000 cycles: 4892986 heartbeat IPC: 1.63802 cumulative IPC: 1.63499 (Simulation time: 0 hr 4 min 35 sec) 
Heartbeat CPU 0 instructions: 9000001 cycles: 5534101 heartbeat IPC: 1.55978 cumulative IPC: 1.62628 (Simulation time: 0 hr 5 min 12 sec) 
Heartbeat CPU 0 instructions: 10000000 cycles: 6192790 heartbeat IPC: 1.51817 cumulative IPC: 1.61478 (Simulation time: 0 hr 5 min 49 sec) 

Warmup complete CPU 0 instructions: 10000004 cycles: 6192791 (Simulation time: 0 hr 5 min 49 sec) 

Heartbeat CPU 0 instructions: 11000003 cycles: 8935491 heartbeat IPC: 0.364605 cumulative IPC: 0.364604 (Simulation time: 0 hr 6 min 36 sec) 
Heartbeat CPU 0 instructions: 12000000 cycles: 11272768 heartbeat IPC: 0.427847 cumulative IPC: 0.393702 (Simulation time: 0 hr 7 min 19 sec) 
Heartbeat CPU 0 instructions: 13000000 cycles: 13823448 heartbeat IPC: 0.392052 cumulative IPC: 0.39315 (Simulation time: 0 hr 8 min 3 sec) 
Heartbeat CPU 0 instructions: 14000000 cycles: 16832144 heartbeat IPC: 0.33237 cumulative IPC: 0.375962 (Simulation time: 0 hr 8 min 43 sec) 
Heartbeat CPU 0 instructions: 15000003 cycles: 19511141 heartbeat IPC: 0.373275 cumulative IPC: 0.375422 (Simulation time: 0 hr 9 min 22 sec) 
Heartbeat CPU 0 instructions: 16000000 cycles: 22145019 heartbeat IPC: 0.379667 cumulative IPC: 0.376123 (Simulation time: 0 hr 10 min 1 sec) 
Heartbeat CPU 0 instructions: 17000000 cycles: 24847439 heartbeat IPC: 0.370039 cumulative IPC: 0.375241 (Simulation time: 0 hr 10 min 42 sec) 
Heartbeat CPU 0 instructions: 18000000 cycles: 27530368 heartbeat IPC: 0.372727 cumulative IPC: 0.374925 (Simulation time: 0 hr 11 min 26 sec) 
Heartbeat CPU 0 instructions: 19000003 cycles: 30161240 heartbeat IPC: 0.380103 cumulative IPC: 0.375494 (Simulation time: 0 hr 12 min 6 sec) 
Heartbeat CPU 0 instructions: 20000000 cycles: 32799154 heartbeat IPC: 0.379086 cumulative IPC: 0.37585 (Simulation time: 0 hr 12 min 45 sec) 
Heartbeat CPU 0 instructions: 21000000 cycles: 35424870 heartbeat IPC: 0.380848 cumulative IPC: 0.376299 (Simulation time: 0 hr 13 min 24 sec) 
Heartbeat CPU 0 instructions: 22000002 cycles: 38052605 heartbeat IPC: 0.380557 cumulative IPC: 0.37665 (Simulation time: 0 hr 14 min 4 sec) 
Heartbeat CPU 0 instructions: 23000003 cycles: 40709925 heartbeat IPC: 0.376319 cumulative IPC: 0.376625 (Simulation time: 0 hr 14 min 51 sec) 
Heartbeat CPU 0 instructions: 24000000 cycles: 42807891 heartbeat IPC: 0.476651 cumulative IPC: 0.382356 (Simulation time: 0 hr 15 min 29 sec) 
Heartbeat CPU 0 instructions: 25000000 cycles: 45413769 heartbeat IPC: 0.383748 cumulative IPC: 0.382448 (Simulation time: 0 hr 16 min 15 sec) 
Heartbeat CPU 0 instructions: 26000001 cycles: 47970228 heartbeat IPC: 0.391166 cumulative IPC: 0.382982 (Simulation time: 0 hr 16 min 55 sec) 
Heartbeat CPU 0 instructions: 27000000 cycles: 50634600 heartbeat IPC: 0.375323 cumulative IPC: 0.382523 (Simulation time: 0 hr 17 min 34 sec) 
Heartbeat CPU 0 instructions: 28000000 cycles: 53274535 heartbeat IPC: 0.378797 cumulative IPC: 0.382314 (Simulation time: 0 hr 18 min 13 sec) 
Heartbeat CPU 0 instructions: 29000000 cycles: 55900947 heartbeat IPC: 0.380748 cumulative IPC: 0.382231 (Simulation time: 0 hr 18 min 55 sec) 
Heartbeat CPU 0 instructions: 30000000 cycles: 58615894 heartbeat IPC: 0.368331 cumulative IPC: 0.381511 (Simulation time: 0 hr 19 min 36 sec) 
Heartbeat CPU 0 instructions: 31000001 cycles: 61252812 heartbeat IPC: 0.379231 cumulative IPC: 0.381402 (Simulation time: 0 hr 20 min 14 sec) 
Heartbeat CPU 0 instructions: 32000000 cycles: 63903902 heartbeat IPC: 0.377203 cumulative IPC: 0.381209 (Simulation time: 0 hr 20 min 54 sec) 
Heartbeat CPU 0 instructions: 33000000 cycles: 66531341 heartbeat IPC: 0.380599 cumulative IPC: 0.381182 (Simulation time: 0 hr 21 min 35 sec) 
Heartbeat CPU 0 instructions: 34000001 cycles: 69141093 heartbeat IPC: 0.383179 cumulative IPC: 0.381265 (Simulation time: 0 hr 22 min 16 sec) 
Heartbeat CPU 0 instructions: 35000003 cycles: 71792233 heartbeat IPC: 0.377197 cumulative IPC: 0.381101 (Simulation time: 0 hr 22 min 58 sec) 
Heartbeat CPU 0 instructions: 36000000 cycles: 74094213 heartbeat IPC: 0.434407 cumulative IPC: 0.382908 (Simulation time: 0 hr 23 min 40 sec) 
Heartbeat CPU 0 instructions: 37000000 cycles: 76382717 heartbeat IPC: 0.436967 cumulative IPC: 0.384671 (Simulation time: 0 hr 24 min 24 sec) 
Heartbeat CPU 0 instructions: 38000000 cycles: 78470437 heartbeat IPC: 0.478991 cumulative IPC: 0.387395 (Simulation time: 0 hr 25 min 3 sec) 
Heartbeat CPU 0 instructions: 39000000 cycles: 80765503 heartbeat IPC: 0.435717 cumulative IPC: 0.388882 (Simulation time: 0 hr 25 min 42 sec) 
Heartbeat CPU 0 instructions: 40000000 cycles: 82718886 heartbeat IPC: 0.511932 cumulative IPC: 0.392023 (Simulation time: 0 hr 26 min 16 sec) 
Heartbeat CPU 0 instructions: 41000001 cycles: 84799817 heartbeat IPC: 0.480555 cumulative IPC: 0.394367 (Simulation time: 0 hr 26 min 53 sec) 
Heartbeat CPU 0 instructions: 42000003 cycles: 87418970 heartbeat IPC: 0.381804 cumulative IPC: 0.393962 (Simulation time: 0 hr 27 min 36 sec) 
Heartbeat CPU 0 instructions: 43000001 cycles: 89981471 heartbeat IPC: 0.390243 cumulative IPC: 0.393848 (Simulation time: 0 hr 28 min 20 sec) 
Heartbeat CPU 0 instructions: 44000000 cycles: 92275929 heartbeat IPC: 0.435832 cumulative IPC: 0.394967 (Simulation time: 0 hr 29 min 3 sec) 
Heartbeat CPU 0 instructions: 45000003 cycles: 94907780 heartbeat IPC: 0.379962 cumulative IPC: 0.394522 (Simulation time: 0 hr 29 min 47 sec) 
Heartbeat CPU 0 instructions: 46000003 cycles: 97578430 heartbeat IPC: 0.374441 cumulative IPC: 0.393935 (Simulation time: 0 hr 30 min 24 sec) 
Heartbeat CPU 0 instructions: 47000000 cycles: 100205389 heartbeat IPC: 0.380667 cumulative IPC: 0.393564 (Simulation time: 0 hr 31 min 4 sec) 
Heartbeat CPU 0 instructions: 48000000 cycles: 102818692 heartbeat IPC: 0.382657 cumulative IPC: 0.393269 (Simulation time: 0 hr 31 min 43 sec) 
Heartbeat CPU 0 instructions: 49000000 cycles: 105485729 heartbeat IPC: 0.374948 cumulative IPC: 0.392777 (Simulation time: 0 hr 32 min 23 sec) 
Heartbeat CPU 0 instructions: 50000001 cycles: 108111116 heartbeat IPC: 0.380897 cumulative IPC: 0.392471 (Simulation time: 0 hr 33 min 3 sec) 
Heartbeat CPU 0 instructions: 51000000 cycles: 110729497 heartbeat IPC: 0.381915 cumulative IPC: 0.392207 (Simulation time: 0 hr 33 min 39 sec) 
Heartbeat CPU 0 instructions: 52000000 cycles: 113340153 heartbeat IPC: 0.383045 cumulative IPC: 0.391983 (Simulation time: 0 hr 34 min 16 sec) 
Heartbeat CPU 0 instructions: 53000000 cycles: 115924029 heartbeat IPC: 0.387015 cumulative IPC: 0.391867 (Simulation time: 0 hr 34 min 54 sec) 
Heartbeat CPU 0 instructions: 54000001 cycles: 118562395 heartbeat IPC: 0.379023 cumulative IPC: 0.391565 (Simulation time: 0 hr 35 min 35 sec) 
Heartbeat CPU 0 instructions: 55000001 cycles: 121008732 heartbeat IPC: 0.408774 cumulative IPC: 0.391932 (Simulation time: 0 hr 36 min 18 sec) 
Heartbeat CPU 0 instructions: 56000000 cycles: 123132210 heartbeat IPC: 0.470925 cumulative IPC: 0.393366 (Simulation time: 0 hr 36 min 58 sec) 
Heartbeat CPU 0 instructions: 57000000 cycles: 125333426 heartbeat IPC: 0.454294 cumulative IPC: 0.394492 (Simulation time: 0 hr 37 min 38 sec) 
Heartbeat CPU 0 instructions: 58000002 cycles: 127281215 heartbeat IPC: 0.513404 cumulative IPC: 0.396405 (Simulation time: 0 hr 38 min 14 sec) 
Heartbeat CPU 0 instructions: 59000003 cycles: 129399663 heartbeat IPC: 0.472044 cumulative IPC: 0.397705 (Simulation time: 0 hr 38 min 53 sec) 
Heartbeat CPU 0 instructions: 60000000 cycles: 132357547 heartbeat IPC: 0.338078 cumulative IPC: 0.396307 (Simulation time: 0 hr 39 min 34 sec) 
Heartbeat CPU 0 instructions: 61000000 cycles: 134770680 heartbeat IPC: 0.414399 cumulative IPC: 0.396647 (Simulation time: 0 hr 40 min 13 sec) 
Heartbeat CPU 0 instructions: 62000001 cycles: 137559036 heartbeat IPC: 0.358635 cumulative IPC: 0.39584 (Simulation time: 0 hr 40 min 53 sec) 
Heartbeat CPU 0 instructions: 63000000 cycles: 140498913 heartbeat IPC: 0.34015 cumulative IPC: 0.394621 (Simulation time: 0 hr 41 min 34 sec) 
Heartbeat CPU 0 instructions: 64000000 cycles: 143407107 heartbeat IPC: 0.343856 cumulative IPC: 0.393545 (Simulation time: 0 hr 42 min 12 sec) 
Heartbeat CPU 0 instructions: 65000001 cycles: 146293236 heartbeat IPC: 0.346485 cumulative IPC: 0.392575 (Simulation time: 0 hr 42 min 51 sec) 
Heartbeat CPU 0 instructions: 66000001 cycles: 149152226 heartbeat IPC: 0.349774 cumulative IPC: 0.391719 (Simulation time: 0 hr 43 min 32 sec) 
Heartbeat CPU 0 instructions: 67000001 cycles: 151876426 heartbeat IPC: 0.36708 cumulative IPC: 0.391259 (Simulation time: 0 hr 44 min 9 sec) 
Heartbeat CPU 0 instructions: 68000000 cycles: 154606704 heartbeat IPC: 0.366263 cumulative IPC: 0.390799 (Simulation time: 0 hr 44 min 49 sec) 
Heartbeat CPU 0 instructions: 69000002 cycles: 157551720 heartbeat IPC: 0.339557 cumulative IPC: 0.389802 (Simulation time: 0 hr 45 min 32 sec) 
Heartbeat CPU 0 instructions: 70000003 cycles: 159353764 heartbeat IPC: 0.554926 cumulative IPC: 0.391745 (Simulation time: 0 hr 46 min 3 sec) 
Heartbeat CPU 0 instructions: 71000000 cycles: 161273509 heartbeat IPC: 0.520901 cumulative IPC: 0.393344 (Simulation time: 0 hr 46 min 37 sec) 
Heartbeat CPU 0 instructions: 72000000 cycles: 163259970 heartbeat IPC: 0.503408 cumulative IPC: 0.394736 (Simulation time: 0 hr 47 min 11 sec) 
Heartbeat CPU 0 instructions: 73000000 cycles: 165528853 heartbeat IPC: 0.440746 cumulative IPC: 0.395391 (Simulation time: 0 hr 47 min 49 sec) 
Heartbeat CPU 0 instructions: 74000000 cycles: 167447399 heartbeat IPC: 0.521228 cumulative IPC: 0.396888 (Simulation time: 0 hr 48 min 25 sec) 
Heartbeat CPU 0 instructions: 75000003 cycles: 169679887 heartbeat IPC: 0.447932 cumulative IPC: 0.397585 (Simulation time: 0 hr 48 min 59 sec) 
Heartbeat CPU 0 instructions: 76000000 cycles: 172417246 heartbeat IPC: 0.365315 cumulative IPC: 0.397053 (Simulation time: 0 hr 49 min 37 sec) 
Heartbeat CPU 0 instructions: 77000000 cycles: 175108531 heartbeat IPC: 0.37157 cumulative IPC: 0.396647 (Simulation time: 0 hr 50 min 15 sec) 
Heartbeat CPU 0 instructions: 78000000 cycles: 178052852 heartbeat IPC: 0.339637 cumulative IPC: 0.395671 (Simulation time: 0 hr 50 min 53 sec) 
Heartbeat CPU 0 instructions: 79000000 cycles: 179908496 heartbeat IPC: 0.538896 cumulative IPC: 0.397201 (Simulation time: 0 hr 51 min 25 sec) 
Heartbeat CPU 0 instructions: 80000000 cycles: 181692442 heartbeat IPC: 0.560555 cumulative IPC: 0.398861 (Simulation time: 0 hr 51 min 54 sec) 
Heartbeat CPU 0 instructions: 81000000 cycles: 183613838 heartbeat IPC: 0.520455 cumulative IPC: 0.400178 (Simulation time: 0 hr 52 min 24 sec) 
Heartbeat CPU 0 instructions: 82000000 cycles: 185531377 heartbeat IPC: 0.521502 cumulative IPC: 0.401475 (Simulation time: 0 hr 52 min 54 sec) 
Heartbeat CPU 0 instructions: 83000000 cycles: 187856055 heartbeat IPC: 0.430167 cumulative IPC: 0.401842 (Simulation time: 0 hr 53 min 25 sec) 
Heartbeat CPU 0 instructions: 84000000 cycles: 189807662 heartbeat IPC: 0.512398 cumulative IPC: 0.403017 (Simulation time: 0 hr 53 min 53 sec) 
Heartbeat CPU 0 instructions: 85000000 cycles: 191728786 heartbeat IPC: 0.520529 cumulative IPC: 0.404234 (Simulation time: 0 hr 54 min 17 sec) 
Heartbeat CPU 0 instructions: 86000002 cycles: 193647315 heartbeat IPC: 0.521234 cumulative IPC: 0.405432 (Simulation time: 0 hr 54 min 41 sec) 
Heartbeat CPU 0 instructions: 87000003 cycles: 195810203 heartbeat IPC: 0.462345 cumulative IPC: 0.406081 (Simulation time: 0 hr 55 min 3 sec) 
Heartbeat CPU 0 instructions: 88000000 cycles: 198579212 heartbeat IPC: 0.361139 cumulative IPC: 0.405434 (Simulation time: 0 hr 55 min 26 sec) 
Heartbeat CPU 0 instructions: 89000003 cycles: 201142302 heartbeat IPC: 0.390155 cumulative IPC: 0.405233 (Simulation time: 0 hr 55 min 51 sec) 
Heartbeat CPU 0 instructions: 90000001 cycles: 204012771 heartbeat IPC: 0.348374 cumulative IPC: 0.404408 (Simulation time: 0 hr 56 min 16 sec) 
Heartbeat CPU 0 instructions: 91000000 cycles: 206488800 heartbeat IPC: 0.403872 cumulative IPC: 0.404401 (Simulation time: 0 hr 56 min 36 sec) 
Heartbeat CPU 0 instructions: 92000000 cycles: 208941014 heartbeat IPC: 0.407795 cumulative IPC: 0.404442 (Simulation time: 0 hr 56 min 57 sec) 
Heartbeat CPU 0 instructions: 93000000 cycles: 211632744 heartbeat IPC: 0.371508 cumulative IPC: 0.404011 (Simulation time: 0 hr 57 min 18 sec) 
Heartbeat CPU 0 instructions: 94000001 cycles: 214292753 heartbeat IPC: 0.375939 cumulative IPC: 0.403652 (Simulation time: 0 hr 57 min 40 sec) 
Heartbeat CPU 0 instructions: 95000000 cycles: 217138903 heartbeat IPC: 0.351351 cumulative IPC: 0.402947 (Simulation time: 0 hr 58 min 3 sec) 
Heartbeat CPU 0 instructions: 96000000 cycles: 220172995 heartbeat IPC: 0.329588 cumulative IPC: 0.401906 (Simulation time: 0 hr 58 min 26 sec) 
Heartbeat CPU 0 instructions: 97000001 cycles: 223107146 heartbeat IPC: 0.340814 cumulative IPC: 0.40108 (Simulation time: 0 hr 58 min 51 sec) 
Heartbeat CPU 0 instructions: 98000000 cycles: 225763773 heartbeat IPC: 0.376417 cumulative IPC: 0.400782 (Simulation time: 0 hr 59 min 12 sec) 
Heartbeat CPU 0 instructions: 99000000 cycles: 228362634 heartbeat IPC: 0.384784 cumulative IPC: 0.400594 (Simulation time: 0 hr 59 min 33 sec) 
Heartbeat CPU 0 instructions: 100000000 cycles: 230986747 heartbeat IPC: 0.381081 cumulative IPC: 0.400367 (Simulation time: 0 hr 59 min 52 sec) 
Heartbeat CPU 0 instructions: 101000001 cycles: 233587657 heartbeat IPC: 0.384481 cumulative IPC: 0.400185 (Simulation time: 1 hr 0 min 10 sec) 
Heartbeat CPU 0 instructions: 102000000 cycles: 236215559 heartbeat IPC: 0.380531 cumulative IPC: 0.39996 (Simulation time: 1 hr 0 min 27 sec) 
Heartbeat CPU 0 instructions: 103000000 cycles: 238862071 heartbeat IPC: 0.377856 cumulative IPC: 0.399709 (Simulation time: 1 hr 0 min 46 sec) 
Heartbeat CPU 0 instructions: 104000000 cycles: 241589972 heartbeat IPC: 0.366582 cumulative IPC: 0.399325 (Simulation time: 1 hr 1 min 2 sec) 
Heartbeat CPU 0 instructions: 105000001 cycles: 244194287 heartbeat IPC: 0.383979 cumulative IPC: 0.399157 (Simulation time: 1 hr 1 min 18 sec) 
Heartbeat CPU 0 instructions: 106000001 cycles: 246812313 heartbeat IPC: 0.381967 cumulative IPC: 0.39897 (Simulation time: 1 hr 1 min 35 sec) 
Heartbeat CPU 0 instructions: 107000000 cycles: 249426889 heartbeat IPC: 0.382471 cumulative IPC: 0.398793 (Simulation time: 1 hr 1 min 51 sec) 
Heartbeat CPU 0 instructions: 108000000 cycles: 252037809 heartbeat IPC: 0.383007 cumulative IPC: 0.398625 (Simulation time: 1 hr 2 min 5 sec) 
Heartbeat CPU 0 instructions: 109000001 cycles: 254612373 heartbeat IPC: 0.388416 cumulative IPC: 0.398519 (Simulation time: 1 hr 2 min 20 sec) 
Heartbeat CPU 0 instructions: 110000003 cycles: 256765858 heartbeat IPC: 0.464364 cumulative IPC: 0.399085 (Simulation time: 1 hr 2 min 32 sec) 
Finished CPU 0 instructions: 100000003 cycles: 250573068 cummulative IPC: 0.399085 (Simulation time: 1 hr 2 min 32 sec) 

ChampSim completed all CPUs

Region of Interest Statistics

CPU 0 cummulative IPC: 0.399085 instructions: 100000003 cycles: 250573068
LLC TOTAL     ACCESS:     635548  HIT:     578591  MISS:      56957
LLC LOAD      ACCESS:     295086  HIT:     285356  MISS:       9730
LLC RFO       ACCESS:      30363  HIT:      25466  MISS:       4897
LLC PREFETCH  ACCESS:     206818  HIT:     166182  MISS:      40636
LLC WRITEBACK ACCESS:     103281  HIT:     101587  MISS:       1694
Insertion Distribution: 
	LOAD 5045 0 18227 636 
	RFO 217 0 4565 1879 
	PREF 0 2381 25227 25856 
	WRITEBACK 0 0 0 2000 
Total Prefetch Downgrades: 3423
