
*** ChampSim Multicore Out-of-Order Simulator ***

Warmup Instructions: 10000000
Simulation Instructions: 100000000
Configuration: 2
Number of CPUs: 1
LLC sets: 2048
LLC ways: 16
Off-chip DRAM Channels: 1 Width: 64-bit Data Rate: 1600 MT/s

CPU 0 runs /datasets/cs240c-wi22-a00-public/data/Assignment2-gz/wrf_1650B.trace.gz
CPU 0 L1D next line prefetcher
CPU 0 L2C IP-based stride prefetcher
Initialize SRRIP state
Heartbeat CPU 0 instructions: 1000000 cycles: 514299 heartbeat IPC: 1.94439 cumulative IPC: 1.94439 (Simulation time: 0 hr 0 min 28 sec) 
Heartbeat CPU 0 instructions: 2000000 cycles: 1028473 heartbeat IPC: 1.94487 cumulative IPC: 1.94463 (Simulation time: 0 hr 0 min 54 sec) 
Heartbeat CPU 0 instructions: 3000001 cycles: 1546184 heartbeat IPC: 1.93158 cumulative IPC: 1.94026 (Simulation time: 0 hr 1 min 21 sec) 
Heartbeat CPU 0 instructions: 4000000 cycles: 2063940 heartbeat IPC: 1.93141 cumulative IPC: 1.93804 (Simulation time: 0 hr 1 min 48 sec) 
Heartbeat CPU 0 instructions: 5000001 cycles: 2581687 heartbeat IPC: 1.93145 cumulative IPC: 1.93672 (Simulation time: 0 hr 2 min 16 sec) 
Heartbeat CPU 0 instructions: 6000003 cycles: 3099505 heartbeat IPC: 1.93118 cumulative IPC: 1.93579 (Simulation time: 0 hr 2 min 43 sec) 
Heartbeat CPU 0 instructions: 7000000 cycles: 3617214 heartbeat IPC: 1.93158 cumulative IPC: 1.93519 (Simulation time: 0 hr 3 min 12 sec) 
Heartbeat CPU 0 instructions: 8000000 cycles: 4135023 heartbeat IPC: 1.93121 cumulative IPC: 1.93469 (Simulation time: 0 hr 3 min 39 sec) 
Heartbeat CPU 0 instructions: 9000001 cycles: 4649336 heartbeat IPC: 1.94434 cumulative IPC: 1.93576 (Simulation time: 0 hr 4 min 6 sec) 
Heartbeat CPU 0 instructions: 10000001 cycles: 5163453 heartbeat IPC: 1.94508 cumulative IPC: 1.93669 (Simulation time: 0 hr 4 min 33 sec) 

Warmup complete CPU 0 instructions: 10000001 cycles: 5163453 (Simulation time: 0 hr 4 min 33 sec) 

Heartbeat CPU 0 instructions: 11000000 cycles: 6646675 heartbeat IPC: 0.674207 cumulative IPC: 0.674207 (Simulation time: 0 hr 5 min 8 sec) 
Heartbeat CPU 0 instructions: 12000000 cycles: 8135729 heartbeat IPC: 0.671567 cumulative IPC: 0.672885 (Simulation time: 0 hr 5 min 44 sec) 
Heartbeat CPU 0 instructions: 13000002 cycles: 9629724 heartbeat IPC: 0.669348 cumulative IPC: 0.671701 (Simulation time: 0 hr 6 min 24 sec) 
Heartbeat CPU 0 instructions: 14000002 cycles: 11124015 heartbeat IPC: 0.669214 cumulative IPC: 0.671078 (Simulation time: 0 hr 7 min 2 sec) 
Heartbeat CPU 0 instructions: 15000001 cycles: 12618833 heartbeat IPC: 0.668977 cumulative IPC: 0.670657 (Simulation time: 0 hr 7 min 39 sec) 
Heartbeat CPU 0 instructions: 16000000 cycles: 14113265 heartbeat IPC: 0.66915 cumulative IPC: 0.670405 (Simulation time: 0 hr 8 min 19 sec) 
Heartbeat CPU 0 instructions: 17000000 cycles: 15607540 heartbeat IPC: 0.669221 cumulative IPC: 0.670236 (Simulation time: 0 hr 9 min 0 sec) 
Heartbeat CPU 0 instructions: 18000001 cycles: 17095469 heartbeat IPC: 0.672076 cumulative IPC: 0.670465 (Simulation time: 0 hr 9 min 41 sec) 
Heartbeat CPU 0 instructions: 19000003 cycles: 18577611 heartbeat IPC: 0.674701 cumulative IPC: 0.670933 (Simulation time: 0 hr 10 min 20 sec) 
Heartbeat CPU 0 instructions: 20000000 cycles: 20060902 heartbeat IPC: 0.674175 cumulative IPC: 0.671256 (Simulation time: 0 hr 10 min 57 sec) 
Heartbeat CPU 0 instructions: 21000000 cycles: 21544828 heartbeat IPC: 0.673888 cumulative IPC: 0.671494 (Simulation time: 0 hr 11 min 37 sec) 
Heartbeat CPU 0 instructions: 22000000 cycles: 23038725 heartbeat IPC: 0.66939 cumulative IPC: 0.671318 (Simulation time: 0 hr 12 min 17 sec) 
Heartbeat CPU 0 instructions: 23000003 cycles: 24534147 heartbeat IPC: 0.66871 cumulative IPC: 0.671117 (Simulation time: 0 hr 12 min 57 sec) 
Heartbeat CPU 0 instructions: 24000000 cycles: 26027753 heartbeat IPC: 0.669519 cumulative IPC: 0.671003 (Simulation time: 0 hr 13 min 34 sec) 
Heartbeat CPU 0 instructions: 25000000 cycles: 27522674 heartbeat IPC: 0.668932 cumulative IPC: 0.670864 (Simulation time: 0 hr 14 min 13 sec) 
Heartbeat CPU 0 instructions: 26000001 cycles: 29017430 heartbeat IPC: 0.669006 cumulative IPC: 0.670748 (Simulation time: 0 hr 14 min 51 sec) 
Heartbeat CPU 0 instructions: 27000003 cycles: 30510699 heartbeat IPC: 0.669673 cumulative IPC: 0.670684 (Simulation time: 0 hr 15 min 32 sec) 
Heartbeat CPU 0 instructions: 28000000 cycles: 31993185 heartbeat IPC: 0.674541 cumulative IPC: 0.670897 (Simulation time: 0 hr 16 min 10 sec) 
Heartbeat CPU 0 instructions: 29000001 cycles: 33476106 heartbeat IPC: 0.674345 cumulative IPC: 0.671078 (Simulation time: 0 hr 16 min 48 sec) 
Heartbeat CPU 0 instructions: 30000001 cycles: 34959461 heartbeat IPC: 0.674147 cumulative IPC: 0.671231 (Simulation time: 0 hr 17 min 25 sec) 
Heartbeat CPU 0 instructions: 31000000 cycles: 36450338 heartbeat IPC: 0.670745 cumulative IPC: 0.671208 (Simulation time: 0 hr 18 min 4 sec) 
Heartbeat CPU 0 instructions: 32000000 cycles: 37944204 heartbeat IPC: 0.669404 cumulative IPC: 0.671126 (Simulation time: 0 hr 18 min 44 sec) 
Heartbeat CPU 0 instructions: 33000001 cycles: 39438164 heartbeat IPC: 0.669363 cumulative IPC: 0.671049 (Simulation time: 0 hr 19 min 21 sec) 
Heartbeat CPU 0 instructions: 34000002 cycles: 40932446 heartbeat IPC: 0.669218 cumulative IPC: 0.670972 (Simulation time: 0 hr 20 min 0 sec) 
Heartbeat CPU 0 instructions: 35000001 cycles: 42427790 heartbeat IPC: 0.668742 cumulative IPC: 0.670883 (Simulation time: 0 hr 20 min 44 sec) 
Heartbeat CPU 0 instructions: 36000000 cycles: 43922707 heartbeat IPC: 0.668933 cumulative IPC: 0.670808 (Simulation time: 0 hr 21 min 27 sec) 
Heartbeat CPU 0 instructions: 37000003 cycles: 45408867 heartbeat IPC: 0.672877 cumulative IPC: 0.670884 (Simulation time: 0 hr 22 min 13 sec) 
Heartbeat CPU 0 instructions: 38000000 cycles: 46891583 heartbeat IPC: 0.674436 cumulative IPC: 0.67101 (Simulation time: 0 hr 22 min 55 sec) 
Heartbeat CPU 0 instructions: 39000001 cycles: 48375462 heartbeat IPC: 0.67391 cumulative IPC: 0.67111 (Simulation time: 0 hr 23 min 33 sec) 
Heartbeat CPU 0 instructions: 40000000 cycles: 49861318 heartbeat IPC: 0.673012 cumulative IPC: 0.671173 (Simulation time: 0 hr 24 min 11 sec) 
Heartbeat CPU 0 instructions: 41000000 cycles: 51355407 heartbeat IPC: 0.669304 cumulative IPC: 0.671113 (Simulation time: 0 hr 24 min 48 sec) 
Heartbeat CPU 0 instructions: 42000001 cycles: 52851226 heartbeat IPC: 0.668531 cumulative IPC: 0.671032 (Simulation time: 0 hr 25 min 28 sec) 
Heartbeat CPU 0 instructions: 43000001 cycles: 54345351 heartbeat IPC: 0.669288 cumulative IPC: 0.670979 (Simulation time: 0 hr 26 min 6 sec) 
Heartbeat CPU 0 instructions: 44000000 cycles: 55840490 heartbeat IPC: 0.668833 cumulative IPC: 0.670915 (Simulation time: 0 hr 26 min 43 sec) 
Heartbeat CPU 0 instructions: 45000000 cycles: 57334881 heartbeat IPC: 0.669169 cumulative IPC: 0.670865 (Simulation time: 0 hr 27 min 22 sec) 
Heartbeat CPU 0 instructions: 46000002 cycles: 59609383 heartbeat IPC: 0.439658 cumulative IPC: 0.661206 (Simulation time: 0 hr 28 min 5 sec) 
Heartbeat CPU 0 instructions: 47000002 cycles: 61156046 heartbeat IPC: 0.646553 cumulative IPC: 0.660802 (Simulation time: 0 hr 28 min 41 sec) 
Heartbeat CPU 0 instructions: 48000000 cycles: 62817061 heartbeat IPC: 0.60204 cumulative IPC: 0.659109 (Simulation time: 0 hr 29 min 16 sec) 
Heartbeat CPU 0 instructions: 49000001 cycles: 64488052 heartbeat IPC: 0.598448 cumulative IPC: 0.6574 (Simulation time: 0 hr 29 min 55 sec) 
Heartbeat CPU 0 instructions: 50000000 cycles: 66159086 heartbeat IPC: 0.598431 cumulative IPC: 0.655785 (Simulation time: 0 hr 30 min 32 sec) 
Heartbeat CPU 0 instructions: 51000000 cycles: 67945795 heartbeat IPC: 0.559688 cumulative IPC: 0.65305 (Simulation time: 0 hr 31 min 10 sec) 
Heartbeat CPU 0 instructions: 52000000 cycles: 69693499 heartbeat IPC: 0.572179 cumulative IPC: 0.65086 (Simulation time: 0 hr 31 min 47 sec) 
Heartbeat CPU 0 instructions: 53000002 cycles: 70734851 heartbeat IPC: 0.960292 cumulative IPC: 0.655774 (Simulation time: 0 hr 32 min 20 sec) 
Heartbeat CPU 0 instructions: 54000001 cycles: 71656881 heartbeat IPC: 1.08456 cumulative IPC: 0.66172 (Simulation time: 0 hr 32 min 55 sec) 
Heartbeat CPU 0 instructions: 55000000 cycles: 72570348 heartbeat IPC: 1.09473 cumulative IPC: 0.667587 (Simulation time: 0 hr 33 min 29 sec) 
Heartbeat CPU 0 instructions: 56000000 cycles: 73448776 heartbeat IPC: 1.1384 cumulative IPC: 0.673644 (Simulation time: 0 hr 34 min 0 sec) 
Heartbeat CPU 0 instructions: 57000001 cycles: 74334786 heartbeat IPC: 1.12866 cumulative IPC: 0.679472 (Simulation time: 0 hr 34 min 32 sec) 
Heartbeat CPU 0 instructions: 58000002 cycles: 75220007 heartbeat IPC: 1.12966 cumulative IPC: 0.685161 (Simulation time: 0 hr 35 min 5 sec) 
Heartbeat CPU 0 instructions: 59000003 cycles: 76105166 heartbeat IPC: 1.12974 cumulative IPC: 0.690708 (Simulation time: 0 hr 35 min 41 sec) 
Heartbeat CPU 0 instructions: 60000000 cycles: 76993057 heartbeat IPC: 1.12626 cumulative IPC: 0.696092 (Simulation time: 0 hr 36 min 19 sec) 
Heartbeat CPU 0 instructions: 61000003 cycles: 78287741 heartbeat IPC: 0.772392 cumulative IPC: 0.697443 (Simulation time: 0 hr 36 min 53 sec) 
Heartbeat CPU 0 instructions: 62000002 cycles: 79775448 heartbeat IPC: 0.672175 cumulative IPC: 0.696939 (Simulation time: 0 hr 37 min 30 sec) 
Heartbeat CPU 0 instructions: 63000002 cycles: 81261238 heartbeat IPC: 0.673043 cumulative IPC: 0.696472 (Simulation time: 0 hr 38 min 6 sec) 
Heartbeat CPU 0 instructions: 64000000 cycles: 82747072 heartbeat IPC: 0.673021 cumulative IPC: 0.696023 (Simulation time: 0 hr 38 min 46 sec) 
Heartbeat CPU 0 instructions: 65000001 cycles: 84235346 heartbeat IPC: 0.67192 cumulative IPC: 0.69557 (Simulation time: 0 hr 39 min 25 sec) 
Heartbeat CPU 0 instructions: 66000000 cycles: 85720760 heartbeat IPC: 0.673212 cumulative IPC: 0.695157 (Simulation time: 0 hr 40 min 1 sec) 
Heartbeat CPU 0 instructions: 67000001 cycles: 87209596 heartbeat IPC: 0.671666 cumulative IPC: 0.694731 (Simulation time: 0 hr 40 min 37 sec) 
Heartbeat CPU 0 instructions: 68000000 cycles: 88695694 heartbeat IPC: 0.672902 cumulative IPC: 0.694343 (Simulation time: 0 hr 41 min 13 sec) 
Heartbeat CPU 0 instructions: 69000002 cycles: 90181368 heartbeat IPC: 0.673097 cumulative IPC: 0.693971 (Simulation time: 0 hr 41 min 52 sec) 
Heartbeat CPU 0 instructions: 70000000 cycles: 91667868 heartbeat IPC: 0.67272 cumulative IPC: 0.693606 (Simulation time: 0 hr 42 min 26 sec) 
Heartbeat CPU 0 instructions: 71000001 cycles: 93154966 heartbeat IPC: 0.672451 cumulative IPC: 0.693249 (Simulation time: 0 hr 43 min 0 sec) 
Heartbeat CPU 0 instructions: 72000000 cycles: 94642632 heartbeat IPC: 0.672193 cumulative IPC: 0.692899 (Simulation time: 0 hr 43 min 40 sec) 
Heartbeat CPU 0 instructions: 73000000 cycles: 96128794 heartbeat IPC: 0.672874 cumulative IPC: 0.692571 (Simulation time: 0 hr 44 min 20 sec) 
Heartbeat CPU 0 instructions: 74000003 cycles: 97614493 heartbeat IPC: 0.673086 cumulative IPC: 0.692258 (Simulation time: 0 hr 44 min 56 sec) 
Heartbeat CPU 0 instructions: 75000003 cycles: 99100993 heartbeat IPC: 0.672721 cumulative IPC: 0.691949 (Simulation time: 0 hr 45 min 33 sec) 
Heartbeat CPU 0 instructions: 76000000 cycles: 100587221 heartbeat IPC: 0.672842 cumulative IPC: 0.691652 (Simulation time: 0 hr 46 min 7 sec) 
Heartbeat CPU 0 instructions: 77000002 cycles: 102075631 heartbeat IPC: 0.671859 cumulative IPC: 0.691348 (Simulation time: 0 hr 46 min 40 sec) 
Heartbeat CPU 0 instructions: 78000001 cycles: 103562985 heartbeat IPC: 0.672334 cumulative IPC: 0.69106 (Simulation time: 0 hr 47 min 13 sec) 
Heartbeat CPU 0 instructions: 79000001 cycles: 105050980 heartbeat IPC: 0.672045 cumulative IPC: 0.690777 (Simulation time: 0 hr 47 min 47 sec) 
Heartbeat CPU 0 instructions: 80000000 cycles: 106536535 heartbeat IPC: 0.673148 cumulative IPC: 0.690519 (Simulation time: 0 hr 48 min 24 sec) 
Heartbeat CPU 0 instructions: 81000000 cycles: 108024282 heartbeat IPC: 0.672157 cumulative IPC: 0.690253 (Simulation time: 0 hr 49 min 0 sec) 
Heartbeat CPU 0 instructions: 82000003 cycles: 109509668 heartbeat IPC: 0.673228 cumulative IPC: 0.690011 (Simulation time: 0 hr 49 min 32 sec) 
Heartbeat CPU 0 instructions: 83000003 cycles: 110999291 heartbeat IPC: 0.671311 cumulative IPC: 0.689747 (Simulation time: 0 hr 50 min 4 sec) 
Heartbeat CPU 0 instructions: 84000000 cycles: 112485191 heartbeat IPC: 0.672991 cumulative IPC: 0.689515 (Simulation time: 0 hr 50 min 35 sec) 
Heartbeat CPU 0 instructions: 85000002 cycles: 113971444 heartbeat IPC: 0.672834 cumulative IPC: 0.689288 (Simulation time: 0 hr 51 min 7 sec) 
Heartbeat CPU 0 instructions: 86000001 cycles: 115457237 heartbeat IPC: 0.673041 cumulative IPC: 0.689069 (Simulation time: 0 hr 51 min 38 sec) 
Heartbeat CPU 0 instructions: 87000001 cycles: 116943246 heartbeat IPC: 0.672943 cumulative IPC: 0.688854 (Simulation time: 0 hr 52 min 7 sec) 
Heartbeat CPU 0 instructions: 88000000 cycles: 118442918 heartbeat IPC: 0.666812 cumulative IPC: 0.688563 (Simulation time: 0 hr 52 min 36 sec) 
Heartbeat CPU 0 instructions: 89000003 cycles: 119931131 heartbeat IPC: 0.671949 cumulative IPC: 0.688347 (Simulation time: 0 hr 53 min 9 sec) 
Heartbeat CPU 0 instructions: 90000003 cycles: 121430283 heartbeat IPC: 0.667044 cumulative IPC: 0.688072 (Simulation time: 0 hr 53 min 41 sec) 
Heartbeat CPU 0 instructions: 91000001 cycles: 122938558 heartbeat IPC: 0.663008 cumulative IPC: 0.687751 (Simulation time: 0 hr 54 min 10 sec) 
Heartbeat CPU 0 instructions: 92000000 cycles: 124447044 heartbeat IPC: 0.662916 cumulative IPC: 0.687437 (Simulation time: 0 hr 54 min 36 sec) 
Heartbeat CPU 0 instructions: 93000001 cycles: 125956405 heartbeat IPC: 0.662533 cumulative IPC: 0.687126 (Simulation time: 0 hr 54 min 59 sec) 
Heartbeat CPU 0 instructions: 94000001 cycles: 127464225 heartbeat IPC: 0.663209 cumulative IPC: 0.686831 (Simulation time: 0 hr 55 min 22 sec) 
Heartbeat CPU 0 instructions: 95000001 cycles: 128973428 heartbeat IPC: 0.662601 cumulative IPC: 0.686536 (Simulation time: 0 hr 55 min 46 sec) 
Heartbeat CPU 0 instructions: 96000000 cycles: 130486872 heartbeat IPC: 0.660744 cumulative IPC: 0.686224 (Simulation time: 0 hr 56 min 8 sec) 
Heartbeat CPU 0 instructions: 97000000 cycles: 132002740 heartbeat IPC: 0.659688 cumulative IPC: 0.685907 (Simulation time: 0 hr 56 min 30 sec) 
Heartbeat CPU 0 instructions: 98000000 cycles: 133516502 heartbeat IPC: 0.660606 cumulative IPC: 0.685609 (Simulation time: 0 hr 56 min 51 sec) 
Heartbeat CPU 0 instructions: 99000000 cycles: 135028712 heartbeat IPC: 0.661284 cumulative IPC: 0.685326 (Simulation time: 0 hr 57 min 11 sec) 
Heartbeat CPU 0 instructions: 100000000 cycles: 136543915 heartbeat IPC: 0.659978 cumulative IPC: 0.685033 (Simulation time: 0 hr 57 min 34 sec) 
Heartbeat CPU 0 instructions: 101000002 cycles: 138062015 heartbeat IPC: 0.658719 cumulative IPC: 0.684733 (Simulation time: 0 hr 57 min 56 sec) 
Heartbeat CPU 0 instructions: 102000002 cycles: 139575537 heartbeat IPC: 0.660711 cumulative IPC: 0.684462 (Simulation time: 0 hr 58 min 18 sec) 
Heartbeat CPU 0 instructions: 103000002 cycles: 141089758 heartbeat IPC: 0.660406 cumulative IPC: 0.684194 (Simulation time: 0 hr 58 min 41 sec) 
Heartbeat CPU 0 instructions: 104000000 cycles: 142605408 heartbeat IPC: 0.659782 cumulative IPC: 0.683925 (Simulation time: 0 hr 59 min 3 sec) 
Heartbeat CPU 0 instructions: 105000001 cycles: 144120738 heartbeat IPC: 0.659923 cumulative IPC: 0.683663 (Simulation time: 0 hr 59 min 25 sec) 
Heartbeat CPU 0 instructions: 106000001 cycles: 145636606 heartbeat IPC: 0.659688 cumulative IPC: 0.683405 (Simulation time: 0 hr 59 min 44 sec) 
Heartbeat CPU 0 instructions: 107000000 cycles: 147148000 heartbeat IPC: 0.66164 cumulative IPC: 0.683173 (Simulation time: 1 hr 0 min 1 sec) 
Heartbeat CPU 0 instructions: 108000000 cycles: 148662091 heartbeat IPC: 0.660462 cumulative IPC: 0.682933 (Simulation time: 1 hr 0 min 17 sec) 
Heartbeat CPU 0 instructions: 109000000 cycles: 150176312 heartbeat IPC: 0.660406 cumulative IPC: 0.682698 (Simulation time: 1 hr 0 min 32 sec) 
Heartbeat CPU 0 instructions: 110000001 cycles: 151686330 heartbeat IPC: 0.662244 cumulative IPC: 0.682487 (Simulation time: 1 hr 0 min 49 sec) 
Finished CPU 0 instructions: 100000000 cycles: 146522877 cummulative IPC: 0.682487 (Simulation time: 1 hr 0 min 49 sec) 

ChampSim completed all CPUs

Region of Interest Statistics

CPU 0 cummulative IPC: 0.682487 instructions: 100000000 cycles: 146522877
LLC TOTAL     ACCESS:    1088819  HIT:     140131  MISS:     948688
LLC LOAD      ACCESS:      57800  HIT:       9006  MISS:      48794
LLC RFO       ACCESS:     201512  HIT:       1448  MISS:     200064
LLC PREFETCH  ACCESS:     601018  HIT:      48464  MISS:     552554
LLC WRITEBACK ACCESS:     228489  HIT:      81213  MISS:     147276
Insertion Distribution: 
	LOAD 8208 0 20646 20226 
	RFO 0 0 45936 158304 
	PREF 0 5261 93700 464137 
	WRITEBACK 0 0 0 147276 
Total Prefetch Downgrades: 560
