
*** ChampSim Multicore Out-of-Order Simulator ***

Warmup Instructions: 10000000
Simulation Instructions: 100000000
Configuration: 2
Number of CPUs: 1
LLC sets: 2048
LLC ways: 16
Off-chip DRAM Channels: 1 Width: 64-bit Data Rate: 1600 MT/s

CPU 0 runs /datasets/cs240c-wi22-a00-public/data/Assignment2-gz/lbm_1004B.trace.gz
CPU 0 L1D next line prefetcher
CPU 0 L2C IP-based stride prefetcher
Initialize SRRIP state
Heartbeat CPU 0 instructions: 1000002 cycles: 391414 heartbeat IPC: 2.55484 cumulative IPC: 2.55484 (Simulation time: 0 hr 0 min 26 sec) 
Heartbeat CPU 0 instructions: 2000001 cycles: 782838 heartbeat IPC: 2.55477 cumulative IPC: 2.55481 (Simulation time: 0 hr 0 min 56 sec) 
Heartbeat CPU 0 instructions: 3000001 cycles: 1174187 heartbeat IPC: 2.55526 cumulative IPC: 2.55496 (Simulation time: 0 hr 1 min 26 sec) 
Heartbeat CPU 0 instructions: 4000000 cycles: 1570373 heartbeat IPC: 2.52406 cumulative IPC: 2.54717 (Simulation time: 0 hr 1 min 57 sec) 
Heartbeat CPU 0 instructions: 5000002 cycles: 1961792 heartbeat IPC: 2.55481 cumulative IPC: 2.54869 (Simulation time: 0 hr 2 min 26 sec) 
Heartbeat CPU 0 instructions: 6000002 cycles: 2353160 heartbeat IPC: 2.55514 cumulative IPC: 2.54976 (Simulation time: 0 hr 2 min 54 sec) 
Heartbeat CPU 0 instructions: 7000003 cycles: 2749265 heartbeat IPC: 2.52459 cumulative IPC: 2.54614 (Simulation time: 0 hr 3 min 22 sec) 
Heartbeat CPU 0 instructions: 8000000 cycles: 3140612 heartbeat IPC: 2.55527 cumulative IPC: 2.54727 (Simulation time: 0 hr 3 min 51 sec) 
Heartbeat CPU 0 instructions: 9000003 cycles: 3532059 heartbeat IPC: 2.55463 cumulative IPC: 2.54809 (Simulation time: 0 hr 4 min 17 sec) 
Heartbeat CPU 0 instructions: 10000000 cycles: 3923433 heartbeat IPC: 2.55509 cumulative IPC: 2.54879 (Simulation time: 0 hr 4 min 43 sec) 

Warmup complete CPU 0 instructions: 10000004 cycles: 3923434 (Simulation time: 0 hr 4 min 43 sec) 

Heartbeat CPU 0 instructions: 11000002 cycles: 5474346 heartbeat IPC: 0.644783 cumulative IPC: 0.644781 (Simulation time: 0 hr 5 min 18 sec) 
Heartbeat CPU 0 instructions: 12000000 cycles: 6881999 heartbeat IPC: 0.710401 cumulative IPC: 0.676002 (Simulation time: 0 hr 5 min 50 sec) 
Heartbeat CPU 0 instructions: 13000002 cycles: 8374275 heartbeat IPC: 0.670119 cumulative IPC: 0.674029 (Simulation time: 0 hr 6 min 22 sec) 
Heartbeat CPU 0 instructions: 14000003 cycles: 9897261 heartbeat IPC: 0.656605 cumulative IPC: 0.669587 (Simulation time: 0 hr 6 min 54 sec) 
Heartbeat CPU 0 instructions: 15000003 cycles: 11244986 heartbeat IPC: 0.741991 cumulative IPC: 0.682915 (Simulation time: 0 hr 7 min 26 sec) 
Heartbeat CPU 0 instructions: 16000000 cycles: 12716721 heartbeat IPC: 0.679468 cumulative IPC: 0.682338 (Simulation time: 0 hr 7 min 59 sec) 
Heartbeat CPU 0 instructions: 17000000 cycles: 14263405 heartbeat IPC: 0.646544 cumulative IPC: 0.676984 (Simulation time: 0 hr 8 min 31 sec) 
Heartbeat CPU 0 instructions: 18000002 cycles: 15701918 heartbeat IPC: 0.695164 cumulative IPC: 0.679204 (Simulation time: 0 hr 9 min 6 sec) 
Heartbeat CPU 0 instructions: 19000002 cycles: 17155478 heartbeat IPC: 0.687966 cumulative IPC: 0.680167 (Simulation time: 0 hr 9 min 41 sec) 
Heartbeat CPU 0 instructions: 20000000 cycles: 18625976 heartbeat IPC: 0.68004 cumulative IPC: 0.680154 (Simulation time: 0 hr 10 min 15 sec) 
Heartbeat CPU 0 instructions: 21000003 cycles: 20153753 heartbeat IPC: 0.654548 cumulative IPC: 0.677744 (Simulation time: 0 hr 10 min 51 sec) 
Heartbeat CPU 0 instructions: 22000002 cycles: 21541443 heartbeat IPC: 0.720621 cumulative IPC: 0.681121 (Simulation time: 0 hr 11 min 24 sec) 
Heartbeat CPU 0 instructions: 23000001 cycles: 22998959 heartbeat IPC: 0.686098 cumulative IPC: 0.681501 (Simulation time: 0 hr 11 min 58 sec) 
Heartbeat CPU 0 instructions: 24000000 cycles: 24526402 heartbeat IPC: 0.654688 cumulative IPC: 0.679514 (Simulation time: 0 hr 12 min 32 sec) 
Heartbeat CPU 0 instructions: 25000003 cycles: 25962583 heartbeat IPC: 0.696293 cumulative IPC: 0.680607 (Simulation time: 0 hr 13 min 7 sec) 
Heartbeat CPU 0 instructions: 26000003 cycles: 27403840 heartbeat IPC: 0.693839 cumulative IPC: 0.681419 (Simulation time: 0 hr 13 min 40 sec) 
Heartbeat CPU 0 instructions: 27000001 cycles: 28868491 heartbeat IPC: 0.682755 cumulative IPC: 0.681498 (Simulation time: 0 hr 14 min 19 sec) 
Heartbeat CPU 0 instructions: 28000000 cycles: 30413970 heartbeat IPC: 0.647048 cumulative IPC: 0.679488 (Simulation time: 0 hr 14 min 56 sec) 
Heartbeat CPU 0 instructions: 29000002 cycles: 31823803 heartbeat IPC: 0.709305 cumulative IPC: 0.680995 (Simulation time: 0 hr 15 min 32 sec) 
Heartbeat CPU 0 instructions: 30000003 cycles: 33284956 heartbeat IPC: 0.684392 cumulative IPC: 0.681164 (Simulation time: 0 hr 16 min 7 sec) 
Heartbeat CPU 0 instructions: 31000001 cycles: 34780497 heartbeat IPC: 0.668653 cumulative IPC: 0.680557 (Simulation time: 0 hr 16 min 39 sec) 
Heartbeat CPU 0 instructions: 32000000 cycles: 36223433 heartbeat IPC: 0.693031 cumulative IPC: 0.681114 (Simulation time: 0 hr 17 min 11 sec) 
Heartbeat CPU 0 instructions: 33000000 cycles: 37700088 heartbeat IPC: 0.677206 cumulative IPC: 0.680944 (Simulation time: 0 hr 17 min 46 sec) 
Heartbeat CPU 0 instructions: 34000002 cycles: 39231951 heartbeat IPC: 0.652801 cumulative IPC: 0.679723 (Simulation time: 0 hr 18 min 19 sec) 
Heartbeat CPU 0 instructions: 35000001 cycles: 40696139 heartbeat IPC: 0.682972 cumulative IPC: 0.679852 (Simulation time: 0 hr 18 min 54 sec) 
Heartbeat CPU 0 instructions: 36000000 cycles: 42140567 heartbeat IPC: 0.692315 cumulative IPC: 0.680323 (Simulation time: 0 hr 19 min 30 sec) 
Heartbeat CPU 0 instructions: 37000002 cycles: 43602818 heartbeat IPC: 0.683878 cumulative IPC: 0.680454 (Simulation time: 0 hr 20 min 1 sec) 
Heartbeat CPU 0 instructions: 38000000 cycles: 45101270 heartbeat IPC: 0.667354 cumulative IPC: 0.679977 (Simulation time: 0 hr 20 min 38 sec) 
Heartbeat CPU 0 instructions: 39000003 cycles: 46615295 heartbeat IPC: 0.660493 cumulative IPC: 0.679286 (Simulation time: 0 hr 21 min 17 sec) 
Heartbeat CPU 0 instructions: 40000000 cycles: 48009031 heartbeat IPC: 0.717494 cumulative IPC: 0.680494 (Simulation time: 0 hr 21 min 51 sec) 
Heartbeat CPU 0 instructions: 41000002 cycles: 49517021 heartbeat IPC: 0.663136 cumulative IPC: 0.67992 (Simulation time: 0 hr 22 min 27 sec) 
Heartbeat CPU 0 instructions: 42000000 cycles: 50984094 heartbeat IPC: 0.681628 cumulative IPC: 0.679973 (Simulation time: 0 hr 23 min 1 sec) 
Heartbeat CPU 0 instructions: 43000002 cycles: 52430469 heartbeat IPC: 0.691385 cumulative IPC: 0.680314 (Simulation time: 0 hr 23 min 35 sec) 
Heartbeat CPU 0 instructions: 44000000 cycles: 53949595 heartbeat IPC: 0.658272 cumulative IPC: 0.679644 (Simulation time: 0 hr 24 min 11 sec) 
Heartbeat CPU 0 instructions: 45000000 cycles: 55432576 heartbeat IPC: 0.674317 cumulative IPC: 0.679491 (Simulation time: 0 hr 24 min 45 sec) 
Heartbeat CPU 0 instructions: 46000003 cycles: 56888554 heartbeat IPC: 0.686826 cumulative IPC: 0.679693 (Simulation time: 0 hr 25 min 19 sec) 
Heartbeat CPU 0 instructions: 47000002 cycles: 58324951 heartbeat IPC: 0.696186 cumulative IPC: 0.680128 (Simulation time: 0 hr 25 min 53 sec) 
Heartbeat CPU 0 instructions: 48000000 cycles: 59845341 heartbeat IPC: 0.657725 cumulative IPC: 0.679519 (Simulation time: 0 hr 26 min 29 sec) 
Heartbeat CPU 0 instructions: 49000000 cycles: 61277838 heartbeat IPC: 0.698082 cumulative IPC: 0.679983 (Simulation time: 0 hr 27 min 3 sec) 
Heartbeat CPU 0 instructions: 50000003 cycles: 62747189 heartbeat IPC: 0.680575 cumulative IPC: 0.679997 (Simulation time: 0 hr 27 min 35 sec) 
Heartbeat CPU 0 instructions: 51000001 cycles: 64219344 heartbeat IPC: 0.679275 cumulative IPC: 0.67998 (Simulation time: 0 hr 28 min 7 sec) 
Heartbeat CPU 0 instructions: 52000000 cycles: 65657312 heartbeat IPC: 0.695425 cumulative IPC: 0.68034 (Simulation time: 0 hr 28 min 39 sec) 
Heartbeat CPU 0 instructions: 53000002 cycles: 67114994 heartbeat IPC: 0.686022 cumulative IPC: 0.680471 (Simulation time: 0 hr 29 min 10 sec) 
Heartbeat CPU 0 instructions: 54000002 cycles: 68574383 heartbeat IPC: 0.685218 cumulative IPC: 0.680578 (Simulation time: 0 hr 29 min 44 sec) 
Heartbeat CPU 0 instructions: 55000001 cycles: 70071349 heartbeat IPC: 0.668017 cumulative IPC: 0.680294 (Simulation time: 0 hr 30 min 17 sec) 
Heartbeat CPU 0 instructions: 56000000 cycles: 71578465 heartbeat IPC: 0.663518 cumulative IPC: 0.67992 (Simulation time: 0 hr 30 min 52 sec) 
Heartbeat CPU 0 instructions: 57000003 cycles: 73045582 heartbeat IPC: 0.681611 cumulative IPC: 0.679956 (Simulation time: 0 hr 31 min 24 sec) 
Heartbeat CPU 0 instructions: 58000003 cycles: 74561641 heartbeat IPC: 0.659605 cumulative IPC: 0.679519 (Simulation time: 0 hr 31 min 58 sec) 
Heartbeat CPU 0 instructions: 59000002 cycles: 76035975 heartbeat IPC: 0.678272 cumulative IPC: 0.679493 (Simulation time: 0 hr 32 min 31 sec) 
Heartbeat CPU 0 instructions: 60000000 cycles: 77481132 heartbeat IPC: 0.691965 cumulative IPC: 0.679738 (Simulation time: 0 hr 33 min 5 sec) 
Heartbeat CPU 0 instructions: 61000003 cycles: 79020485 heartbeat IPC: 0.649626 cumulative IPC: 0.679121 (Simulation time: 0 hr 33 min 41 sec) 
Heartbeat CPU 0 instructions: 62000001 cycles: 80470208 heartbeat IPC: 0.689786 cumulative IPC: 0.679323 (Simulation time: 0 hr 34 min 15 sec) 
Heartbeat CPU 0 instructions: 63000001 cycles: 81917753 heartbeat IPC: 0.690825 cumulative IPC: 0.679537 (Simulation time: 0 hr 34 min 50 sec) 
Heartbeat CPU 0 instructions: 64000000 cycles: 83382504 heartbeat IPC: 0.682709 cumulative IPC: 0.679595 (Simulation time: 0 hr 35 min 25 sec) 
Heartbeat CPU 0 instructions: 65000000 cycles: 84955977 heartbeat IPC: 0.635537 cumulative IPC: 0.67874 (Simulation time: 0 hr 36 min 2 sec) 
Heartbeat CPU 0 instructions: 66000000 cycles: 86432106 heartbeat IPC: 0.677448 cumulative IPC: 0.678716 (Simulation time: 0 hr 36 min 36 sec) 
Heartbeat CPU 0 instructions: 67000000 cycles: 87881226 heartbeat IPC: 0.690074 cumulative IPC: 0.678913 (Simulation time: 0 hr 37 min 9 sec) 
Heartbeat CPU 0 instructions: 68000000 cycles: 89359474 heartbeat IPC: 0.676476 cumulative IPC: 0.67887 (Simulation time: 0 hr 37 min 41 sec) 
Heartbeat CPU 0 instructions: 69000000 cycles: 90804537 heartbeat IPC: 0.692011 cumulative IPC: 0.679089 (Simulation time: 0 hr 38 min 15 sec) 
Heartbeat CPU 0 instructions: 70000000 cycles: 92276701 heartbeat IPC: 0.679272 cumulative IPC: 0.679092 (Simulation time: 0 hr 38 min 48 sec) 
Heartbeat CPU 0 instructions: 71000002 cycles: 93767478 heartbeat IPC: 0.670792 cumulative IPC: 0.678954 (Simulation time: 0 hr 39 min 24 sec) 
Heartbeat CPU 0 instructions: 72000000 cycles: 96145549 heartbeat IPC: 0.420508 cumulative IPC: 0.67229 (Simulation time: 0 hr 40 min 6 sec) 
Heartbeat CPU 0 instructions: 73000002 cycles: 99445627 heartbeat IPC: 0.303024 cumulative IPC: 0.659533 (Simulation time: 0 hr 40 min 56 sec) 
Heartbeat CPU 0 instructions: 74000002 cycles: 105896122 heartbeat IPC: 0.155027 cumulative IPC: 0.627619 (Simulation time: 0 hr 42 min 13 sec) 
Heartbeat CPU 0 instructions: 75000003 cycles: 108282019 heartbeat IPC: 0.41913 cumulative IPC: 0.622852 (Simulation time: 0 hr 42 min 54 sec) 
Heartbeat CPU 0 instructions: 76000000 cycles: 110344333 heartbeat IPC: 0.484891 cumulative IPC: 0.620179 (Simulation time: 0 hr 43 min 34 sec) 
Heartbeat CPU 0 instructions: 77000000 cycles: 111663540 heartbeat IPC: 0.758031 cumulative IPC: 0.621867 (Simulation time: 0 hr 44 min 7 sec) 
Heartbeat CPU 0 instructions: 78000002 cycles: 113019336 heartbeat IPC: 0.737576 cumulative IPC: 0.623305 (Simulation time: 0 hr 44 min 41 sec) 
Heartbeat CPU 0 instructions: 79000000 cycles: 114544613 heartbeat IPC: 0.655617 cumulative IPC: 0.62375 (Simulation time: 0 hr 45 min 19 sec) 
Heartbeat CPU 0 instructions: 80000000 cycles: 115970904 heartbeat IPC: 0.701119 cumulative IPC: 0.624735 (Simulation time: 0 hr 45 min 52 sec) 
Heartbeat CPU 0 instructions: 81000001 cycles: 117342764 heartbeat IPC: 0.728938 cumulative IPC: 0.625996 (Simulation time: 0 hr 46 min 25 sec) 
Heartbeat CPU 0 instructions: 82000002 cycles: 118800951 heartbeat IPC: 0.685784 cumulative IPC: 0.626754 (Simulation time: 0 hr 46 min 57 sec) 
Heartbeat CPU 0 instructions: 83000003 cycles: 120329410 heartbeat IPC: 0.654254 cumulative IPC: 0.627116 (Simulation time: 0 hr 47 min 33 sec) 
Heartbeat CPU 0 instructions: 84000000 cycles: 121770523 heartbeat IPC: 0.693906 cumulative IPC: 0.627932 (Simulation time: 0 hr 48 min 5 sec) 
Heartbeat CPU 0 instructions: 85000000 cycles: 123245962 heartbeat IPC: 0.677764 cumulative IPC: 0.628549 (Simulation time: 0 hr 48 min 40 sec) 
Heartbeat CPU 0 instructions: 86000002 cycles: 124845781 heartbeat IPC: 0.625072 cumulative IPC: 0.628502 (Simulation time: 0 hr 49 min 14 sec) 
Heartbeat CPU 0 instructions: 87000002 cycles: 126325208 heartbeat IPC: 0.675937 cumulative IPC: 0.629076 (Simulation time: 0 hr 49 min 45 sec) 
Heartbeat CPU 0 instructions: 88000000 cycles: 127778912 heartbeat IPC: 0.687897 cumulative IPC: 0.629766 (Simulation time: 0 hr 50 min 18 sec) 
Heartbeat CPU 0 instructions: 89000003 cycles: 129251247 heartbeat IPC: 0.679195 cumulative IPC: 0.630347 (Simulation time: 0 hr 50 min 50 sec) 
Heartbeat CPU 0 instructions: 90000002 cycles: 130754604 heartbeat IPC: 0.665177 cumulative IPC: 0.63076 (Simulation time: 0 hr 51 min 20 sec) 
Heartbeat CPU 0 instructions: 91000001 cycles: 132190559 heartbeat IPC: 0.6964 cumulative IPC: 0.631495 (Simulation time: 0 hr 51 min 49 sec) 
Heartbeat CPU 0 instructions: 92000000 cycles: 133663889 heartbeat IPC: 0.678734 cumulative IPC: 0.632031 (Simulation time: 0 hr 52 min 17 sec) 
Heartbeat CPU 0 instructions: 93000003 cycles: 135177448 heartbeat IPC: 0.660696 cumulative IPC: 0.632362 (Simulation time: 0 hr 52 min 46 sec) 
Heartbeat CPU 0 instructions: 94000003 cycles: 136618149 heartbeat IPC: 0.694107 cumulative IPC: 0.633032 (Simulation time: 0 hr 53 min 14 sec) 
Heartbeat CPU 0 instructions: 95000000 cycles: 138046248 heartbeat IPC: 0.700229 cumulative IPC: 0.633747 (Simulation time: 0 hr 53 min 42 sec) 
Heartbeat CPU 0 instructions: 96000000 cycles: 139584210 heartbeat IPC: 0.650211 cumulative IPC: 0.633934 (Simulation time: 0 hr 54 min 8 sec) 
Heartbeat CPU 0 instructions: 97000002 cycles: 141064031 heartbeat IPC: 0.675759 cumulative IPC: 0.634385 (Simulation time: 0 hr 54 min 31 sec) 
Heartbeat CPU 0 instructions: 98000001 cycles: 142485993 heartbeat IPC: 0.703253 cumulative IPC: 0.635092 (Simulation time: 0 hr 54 min 52 sec) 
Heartbeat CPU 0 instructions: 99000000 cycles: 143984286 heartbeat IPC: 0.667426 cumulative IPC: 0.635438 (Simulation time: 0 hr 55 min 13 sec) 
Heartbeat CPU 0 instructions: 100000000 cycles: 145526708 heartbeat IPC: 0.648331 cumulative IPC: 0.635579 (Simulation time: 0 hr 55 min 34 sec) 
Heartbeat CPU 0 instructions: 101000000 cycles: 146958834 heartbeat IPC: 0.698263 cumulative IPC: 0.636206 (Simulation time: 0 hr 55 min 55 sec) 
Heartbeat CPU 0 instructions: 102000000 cycles: 148401787 heartbeat IPC: 0.693023 cumulative IPC: 0.636774 (Simulation time: 0 hr 56 min 15 sec) 
Heartbeat CPU 0 instructions: 103000001 cycles: 149959452 heartbeat IPC: 0.641987 cumulative IPC: 0.636829 (Simulation time: 0 hr 56 min 35 sec) 
Heartbeat CPU 0 instructions: 104000000 cycles: 151443526 heartbeat IPC: 0.67382 cumulative IPC: 0.637201 (Simulation time: 0 hr 56 min 54 sec) 
Heartbeat CPU 0 instructions: 105000001 cycles: 152816761 heartbeat IPC: 0.728208 cumulative IPC: 0.638041 (Simulation time: 0 hr 57 min 12 sec) 
Heartbeat CPU 0 instructions: 106000000 cycles: 154234560 heartbeat IPC: 0.705318 cumulative IPC: 0.638675 (Simulation time: 0 hr 57 min 31 sec) 
Heartbeat CPU 0 instructions: 107000000 cycles: 155786826 heartbeat IPC: 0.644219 cumulative IPC: 0.638732 (Simulation time: 0 hr 57 min 51 sec) 
Heartbeat CPU 0 instructions: 108000000 cycles: 157229236 heartbeat IPC: 0.693284 cumulative IPC: 0.639245 (Simulation time: 0 hr 58 min 11 sec) 
Heartbeat CPU 0 instructions: 109000003 cycles: 158671287 heartbeat IPC: 0.693459 cumulative IPC: 0.63975 (Simulation time: 0 hr 58 min 30 sec) 
Heartbeat CPU 0 instructions: 110000001 cycles: 160198674 heartbeat IPC: 0.654712 cumulative IPC: 0.639897 (Simulation time: 0 hr 58 min 49 sec) 
Finished CPU 0 instructions: 100000001 cycles: 156275241 cummulative IPC: 0.639897 (Simulation time: 0 hr 58 min 49 sec) 

ChampSim completed all CPUs

Region of Interest Statistics

CPU 0 cummulative IPC: 0.639897 instructions: 100000001 cycles: 156275241
LLC TOTAL     ACCESS:    5794757  HIT:    1486573  MISS:    4308184
LLC LOAD      ACCESS:     417159  HIT:      18336  MISS:     398823
LLC RFO       ACCESS:    2473101  HIT:     367642  MISS:    2105459
LLC PREFETCH  ACCESS:     431375  HIT:      23928  MISS:     407447
LLC WRITEBACK ACCESS:    2473122  HIT:    1076667  MISS:    1396455
Insertion Distribution: 
	LOAD 0 0 3523 425455 
	RFO 193620 0 498213 1609122 
	PREF 0 9348 56180 385375 
	WRITEBACK 0 0 0 1510510 
Total Prefetch Downgrades: 18312
