
*** ChampSim Multicore Out-of-Order Simulator ***

Warmup Instructions: 10000000
Simulation Instructions: 100000000
Configuration: 2
Number of CPUs: 1
LLC sets: 2048
LLC ways: 16
Off-chip DRAM Channels: 1 Width: 64-bit Data Rate: 1600 MT/s

CPU 0 runs /datasets/cs240c-wi22-a00-public/data/Assignment2-gz/milc_744B.trace.gz
CPU 0 L1D next line prefetcher
CPU 0 L2C IP-based stride prefetcher
Initialize SRRIP state
Heartbeat CPU 0 instructions: 1000000 cycles: 383656 heartbeat IPC: 2.6065 cumulative IPC: 2.6065 (Simulation time: 0 hr 0 min 27 sec) 
Heartbeat CPU 0 instructions: 2000001 cycles: 767293 heartbeat IPC: 2.60663 cumulative IPC: 2.60657 (Simulation time: 0 hr 0 min 53 sec) 
Heartbeat CPU 0 instructions: 3000001 cycles: 1150974 heartbeat IPC: 2.60633 cumulative IPC: 2.60649 (Simulation time: 0 hr 1 min 23 sec) 
Heartbeat CPU 0 instructions: 4000000 cycles: 1534617 heartbeat IPC: 2.60659 cumulative IPC: 2.60651 (Simulation time: 0 hr 1 min 51 sec) 
Heartbeat CPU 0 instructions: 5000001 cycles: 1918298 heartbeat IPC: 2.60633 cumulative IPC: 2.60648 (Simulation time: 0 hr 2 min 19 sec) 
Heartbeat CPU 0 instructions: 6000002 cycles: 2301951 heartbeat IPC: 2.60652 cumulative IPC: 2.60649 (Simulation time: 0 hr 2 min 48 sec) 
Heartbeat CPU 0 instructions: 7000002 cycles: 2685605 heartbeat IPC: 2.60652 cumulative IPC: 2.60649 (Simulation time: 0 hr 3 min 16 sec) 
Heartbeat CPU 0 instructions: 8000000 cycles: 3069239 heartbeat IPC: 2.60665 cumulative IPC: 2.60651 (Simulation time: 0 hr 3 min 43 sec) 
Heartbeat CPU 0 instructions: 9000003 cycles: 3452946 heartbeat IPC: 2.60616 cumulative IPC: 2.60647 (Simulation time: 0 hr 4 min 10 sec) 
Heartbeat CPU 0 instructions: 10000002 cycles: 3836611 heartbeat IPC: 2.60644 cumulative IPC: 2.60647 (Simulation time: 0 hr 4 min 37 sec) 

Warmup complete CPU 0 instructions: 10000002 cycles: 3836611 (Simulation time: 0 hr 4 min 37 sec) 

Heartbeat CPU 0 instructions: 11000003 cycles: 5252067 heartbeat IPC: 0.706487 cumulative IPC: 0.706487 (Simulation time: 0 hr 5 min 7 sec) 
Heartbeat CPU 0 instructions: 12000000 cycles: 6657480 heartbeat IPC: 0.711532 cumulative IPC: 0.709001 (Simulation time: 0 hr 5 min 38 sec) 
Heartbeat CPU 0 instructions: 13000003 cycles: 8071845 heartbeat IPC: 0.707033 cumulative IPC: 0.708344 (Simulation time: 0 hr 6 min 11 sec) 
Heartbeat CPU 0 instructions: 14000000 cycles: 9488566 heartbeat IPC: 0.705853 cumulative IPC: 0.707719 (Simulation time: 0 hr 6 min 43 sec) 
Heartbeat CPU 0 instructions: 15000000 cycles: 10903392 heartbeat IPC: 0.706801 cumulative IPC: 0.707535 (Simulation time: 0 hr 7 min 12 sec) 
Heartbeat CPU 0 instructions: 16000000 cycles: 12317649 heartbeat IPC: 0.707085 cumulative IPC: 0.70746 (Simulation time: 0 hr 7 min 43 sec) 
Heartbeat CPU 0 instructions: 17000001 cycles: 13737914 heartbeat IPC: 0.704095 cumulative IPC: 0.706978 (Simulation time: 0 hr 8 min 19 sec) 
Heartbeat CPU 0 instructions: 18000000 cycles: 15163571 heartbeat IPC: 0.70143 cumulative IPC: 0.706279 (Simulation time: 0 hr 8 min 49 sec) 
Heartbeat CPU 0 instructions: 19000003 cycles: 16580223 heartbeat IPC: 0.705892 cumulative IPC: 0.706236 (Simulation time: 0 hr 9 min 21 sec) 
Heartbeat CPU 0 instructions: 20000000 cycles: 18000600 heartbeat IPC: 0.704036 cumulative IPC: 0.706016 (Simulation time: 0 hr 9 min 53 sec) 
Heartbeat CPU 0 instructions: 21000003 cycles: 19420380 heartbeat IPC: 0.704337 cumulative IPC: 0.705863 (Simulation time: 0 hr 10 min 23 sec) 
Heartbeat CPU 0 instructions: 22000002 cycles: 20844479 heartbeat IPC: 0.702198 cumulative IPC: 0.705556 (Simulation time: 0 hr 10 min 55 sec) 
Heartbeat CPU 0 instructions: 23000000 cycles: 22265473 heartbeat IPC: 0.703731 cumulative IPC: 0.705415 (Simulation time: 0 hr 11 min 27 sec) 
Heartbeat CPU 0 instructions: 24000000 cycles: 23680167 heartbeat IPC: 0.706867 cumulative IPC: 0.705519 (Simulation time: 0 hr 11 min 58 sec) 
Heartbeat CPU 0 instructions: 25000002 cycles: 25105487 heartbeat IPC: 0.701598 cumulative IPC: 0.705256 (Simulation time: 0 hr 12 min 29 sec) 
Heartbeat CPU 0 instructions: 26000001 cycles: 26523864 heartbeat IPC: 0.70503 cumulative IPC: 0.705242 (Simulation time: 0 hr 13 min 1 sec) 
Heartbeat CPU 0 instructions: 27000001 cycles: 27944854 heartbeat IPC: 0.703735 cumulative IPC: 0.705153 (Simulation time: 0 hr 13 min 32 sec) 
Heartbeat CPU 0 instructions: 28000000 cycles: 29362855 heartbeat IPC: 0.705217 cumulative IPC: 0.705157 (Simulation time: 0 hr 14 min 2 sec) 
Heartbeat CPU 0 instructions: 29000000 cycles: 30777884 heartbeat IPC: 0.706699 cumulative IPC: 0.705238 (Simulation time: 0 hr 14 min 34 sec) 
Heartbeat CPU 0 instructions: 30000000 cycles: 32196678 heartbeat IPC: 0.704824 cumulative IPC: 0.705217 (Simulation time: 0 hr 15 min 7 sec) 
Heartbeat CPU 0 instructions: 31000003 cycles: 33620117 heartbeat IPC: 0.702526 cumulative IPC: 0.705088 (Simulation time: 0 hr 15 min 38 sec) 
Heartbeat CPU 0 instructions: 32000000 cycles: 35038020 heartbeat IPC: 0.705265 cumulative IPC: 0.705096 (Simulation time: 0 hr 16 min 9 sec) 
Heartbeat CPU 0 instructions: 33000001 cycles: 36457982 heartbeat IPC: 0.704245 cumulative IPC: 0.705059 (Simulation time: 0 hr 16 min 39 sec) 
Heartbeat CPU 0 instructions: 34000002 cycles: 37880654 heartbeat IPC: 0.702903 cumulative IPC: 0.704969 (Simulation time: 0 hr 17 min 10 sec) 
Heartbeat CPU 0 instructions: 35000000 cycles: 39302477 heartbeat IPC: 0.703321 cumulative IPC: 0.704903 (Simulation time: 0 hr 17 min 44 sec) 
Heartbeat CPU 0 instructions: 36000000 cycles: 40721577 heartbeat IPC: 0.704672 cumulative IPC: 0.704894 (Simulation time: 0 hr 18 min 15 sec) 
Heartbeat CPU 0 instructions: 37000001 cycles: 42153495 heartbeat IPC: 0.698365 cumulative IPC: 0.70465 (Simulation time: 0 hr 18 min 48 sec) 
Heartbeat CPU 0 instructions: 38000001 cycles: 43571515 heartbeat IPC: 0.705209 cumulative IPC: 0.70467 (Simulation time: 0 hr 19 min 18 sec) 
Heartbeat CPU 0 instructions: 39000001 cycles: 44989374 heartbeat IPC: 0.705289 cumulative IPC: 0.704691 (Simulation time: 0 hr 19 min 49 sec) 
Heartbeat CPU 0 instructions: 40000000 cycles: 46409369 heartbeat IPC: 0.704227 cumulative IPC: 0.704676 (Simulation time: 0 hr 20 min 21 sec) 
Heartbeat CPU 0 instructions: 41000000 cycles: 47830233 heartbeat IPC: 0.703797 cumulative IPC: 0.704648 (Simulation time: 0 hr 20 min 57 sec) 
Heartbeat CPU 0 instructions: 42000002 cycles: 49249287 heartbeat IPC: 0.704696 cumulative IPC: 0.704649 (Simulation time: 0 hr 21 min 29 sec) 
Heartbeat CPU 0 instructions: 43000003 cycles: 50666968 heartbeat IPC: 0.705378 cumulative IPC: 0.704671 (Simulation time: 0 hr 22 min 2 sec) 
Heartbeat CPU 0 instructions: 44000000 cycles: 52089295 heartbeat IPC: 0.703071 cumulative IPC: 0.704624 (Simulation time: 0 hr 22 min 33 sec) 
Heartbeat CPU 0 instructions: 45000000 cycles: 53508736 heartbeat IPC: 0.704503 cumulative IPC: 0.70462 (Simulation time: 0 hr 23 min 6 sec) 
Heartbeat CPU 0 instructions: 46000003 cycles: 54929418 heartbeat IPC: 0.703889 cumulative IPC: 0.7046 (Simulation time: 0 hr 23 min 41 sec) 
Heartbeat CPU 0 instructions: 47000002 cycles: 56350171 heartbeat IPC: 0.703851 cumulative IPC: 0.70458 (Simulation time: 0 hr 24 min 15 sec) 
Heartbeat CPU 0 instructions: 48000000 cycles: 57768577 heartbeat IPC: 0.705015 cumulative IPC: 0.704591 (Simulation time: 0 hr 24 min 46 sec) 
Heartbeat CPU 0 instructions: 49000001 cycles: 59189574 heartbeat IPC: 0.703732 cumulative IPC: 0.704569 (Simulation time: 0 hr 25 min 14 sec) 
Heartbeat CPU 0 instructions: 50000001 cycles: 60613779 heartbeat IPC: 0.702146 cumulative IPC: 0.704509 (Simulation time: 0 hr 25 min 43 sec) 
Heartbeat CPU 0 instructions: 51000001 cycles: 62033277 heartbeat IPC: 0.704474 cumulative IPC: 0.704508 (Simulation time: 0 hr 26 min 12 sec) 
Heartbeat CPU 0 instructions: 52000000 cycles: 63447873 heartbeat IPC: 0.706915 cumulative IPC: 0.704565 (Simulation time: 0 hr 26 min 42 sec) 
Heartbeat CPU 0 instructions: 53000000 cycles: 64867875 heartbeat IPC: 0.704224 cumulative IPC: 0.704557 (Simulation time: 0 hr 27 min 11 sec) 
Heartbeat CPU 0 instructions: 54000001 cycles: 66287895 heartbeat IPC: 0.704216 cumulative IPC: 0.704549 (Simulation time: 0 hr 27 min 42 sec) 
Heartbeat CPU 0 instructions: 55000003 cycles: 67710541 heartbeat IPC: 0.702917 cumulative IPC: 0.704513 (Simulation time: 0 hr 28 min 13 sec) 
Heartbeat CPU 0 instructions: 56000000 cycles: 69137166 heartbeat IPC: 0.700953 cumulative IPC: 0.704435 (Simulation time: 0 hr 28 min 46 sec) 
Heartbeat CPU 0 instructions: 57000000 cycles: 70556631 heartbeat IPC: 0.704491 cumulative IPC: 0.704436 (Simulation time: 0 hr 29 min 17 sec) 
Heartbeat CPU 0 instructions: 58000000 cycles: 71976178 heartbeat IPC: 0.70445 cumulative IPC: 0.704436 (Simulation time: 0 hr 29 min 47 sec) 
Heartbeat CPU 0 instructions: 59000002 cycles: 73397420 heartbeat IPC: 0.703611 cumulative IPC: 0.70442 (Simulation time: 0 hr 30 min 17 sec) 
Heartbeat CPU 0 instructions: 60000000 cycles: 74811439 heartbeat IPC: 0.707203 cumulative IPC: 0.704475 (Simulation time: 0 hr 30 min 50 sec) 
Heartbeat CPU 0 instructions: 61000001 cycles: 76232284 heartbeat IPC: 0.703807 cumulative IPC: 0.704462 (Simulation time: 0 hr 31 min 20 sec) 
Heartbeat CPU 0 instructions: 62000003 cycles: 77659727 heartbeat IPC: 0.700555 cumulative IPC: 0.704386 (Simulation time: 0 hr 31 min 51 sec) 
Heartbeat CPU 0 instructions: 63000001 cycles: 79080366 heartbeat IPC: 0.703907 cumulative IPC: 0.704377 (Simulation time: 0 hr 32 min 21 sec) 
Heartbeat CPU 0 instructions: 64000000 cycles: 80499728 heartbeat IPC: 0.704541 cumulative IPC: 0.70438 (Simulation time: 0 hr 32 min 51 sec) 
Heartbeat CPU 0 instructions: 65000002 cycles: 81920280 heartbeat IPC: 0.703953 cumulative IPC: 0.704373 (Simulation time: 0 hr 33 min 23 sec) 
Heartbeat CPU 0 instructions: 66000001 cycles: 83336246 heartbeat IPC: 0.706231 cumulative IPC: 0.704406 (Simulation time: 0 hr 33 min 56 sec) 
Heartbeat CPU 0 instructions: 67000003 cycles: 84758092 heartbeat IPC: 0.703312 cumulative IPC: 0.704387 (Simulation time: 0 hr 34 min 28 sec) 
Heartbeat CPU 0 instructions: 68000000 cycles: 86184756 heartbeat IPC: 0.700934 cumulative IPC: 0.704327 (Simulation time: 0 hr 35 min 1 sec) 
Heartbeat CPU 0 instructions: 69000003 cycles: 87609888 heartbeat IPC: 0.701692 cumulative IPC: 0.704282 (Simulation time: 0 hr 35 min 32 sec) 
Heartbeat CPU 0 instructions: 70000002 cycles: 89028505 heartbeat IPC: 0.704911 cumulative IPC: 0.704292 (Simulation time: 0 hr 36 min 4 sec) 
Heartbeat CPU 0 instructions: 71000002 cycles: 90443664 heartbeat IPC: 0.706634 cumulative IPC: 0.704331 (Simulation time: 0 hr 36 min 36 sec) 
Heartbeat CPU 0 instructions: 72000000 cycles: 91864981 heartbeat IPC: 0.703571 cumulative IPC: 0.704318 (Simulation time: 0 hr 37 min 8 sec) 
Heartbeat CPU 0 instructions: 73000002 cycles: 93286906 heartbeat IPC: 0.703273 cumulative IPC: 0.704302 (Simulation time: 0 hr 37 min 41 sec) 
Heartbeat CPU 0 instructions: 74000002 cycles: 94706615 heartbeat IPC: 0.70437 cumulative IPC: 0.704303 (Simulation time: 0 hr 38 min 11 sec) 
Heartbeat CPU 0 instructions: 75000001 cycles: 96124543 heartbeat IPC: 0.705254 cumulative IPC: 0.704317 (Simulation time: 0 hr 38 min 43 sec) 
Heartbeat CPU 0 instructions: 76000000 cycles: 97547133 heartbeat IPC: 0.702942 cumulative IPC: 0.704297 (Simulation time: 0 hr 39 min 19 sec) 
Heartbeat CPU 0 instructions: 77000002 cycles: 98966102 heartbeat IPC: 0.704738 cumulative IPC: 0.704303 (Simulation time: 0 hr 39 min 51 sec) 
Heartbeat CPU 0 instructions: 78000000 cycles: 100387834 heartbeat IPC: 0.703366 cumulative IPC: 0.704289 (Simulation time: 0 hr 40 min 23 sec) 
Heartbeat CPU 0 instructions: 79000000 cycles: 101811552 heartbeat IPC: 0.702386 cumulative IPC: 0.704262 (Simulation time: 0 hr 40 min 54 sec) 
Heartbeat CPU 0 instructions: 80000000 cycles: 103232892 heartbeat IPC: 0.703561 cumulative IPC: 0.704252 (Simulation time: 0 hr 41 min 23 sec) 
Heartbeat CPU 0 instructions: 81000003 cycles: 104623856 heartbeat IPC: 0.718928 cumulative IPC: 0.704454 (Simulation time: 0 hr 41 min 53 sec) 
Heartbeat CPU 0 instructions: 82000003 cycles: 106040828 heartbeat IPC: 0.70573 cumulative IPC: 0.704472 (Simulation time: 0 hr 42 min 25 sec) 
Heartbeat CPU 0 instructions: 83000002 cycles: 107463073 heartbeat IPC: 0.703113 cumulative IPC: 0.704453 (Simulation time: 0 hr 42 min 54 sec) 
Heartbeat CPU 0 instructions: 84000000 cycles: 108884319 heartbeat IPC: 0.703607 cumulative IPC: 0.704442 (Simulation time: 0 hr 43 min 26 sec) 
Heartbeat CPU 0 instructions: 85000000 cycles: 110303208 heartbeat IPC: 0.704777 cumulative IPC: 0.704446 (Simulation time: 0 hr 43 min 54 sec) 
Heartbeat CPU 0 instructions: 86000001 cycles: 111720867 heartbeat IPC: 0.705389 cumulative IPC: 0.704459 (Simulation time: 0 hr 44 min 26 sec) 
Heartbeat CPU 0 instructions: 87000001 cycles: 113145693 heartbeat IPC: 0.70184 cumulative IPC: 0.704425 (Simulation time: 0 hr 44 min 58 sec) 
Heartbeat CPU 0 instructions: 88000000 cycles: 114566564 heartbeat IPC: 0.703793 cumulative IPC: 0.704416 (Simulation time: 0 hr 45 min 29 sec) 
Heartbeat CPU 0 instructions: 89000001 cycles: 115984722 heartbeat IPC: 0.705141 cumulative IPC: 0.704426 (Simulation time: 0 hr 46 min 0 sec) 
Heartbeat CPU 0 instructions: 90000000 cycles: 117409858 heartbeat IPC: 0.701687 cumulative IPC: 0.704391 (Simulation time: 0 hr 46 min 32 sec) 
Heartbeat CPU 0 instructions: 91000001 cycles: 118831725 heartbeat IPC: 0.703301 cumulative IPC: 0.704378 (Simulation time: 0 hr 47 min 4 sec) 
Heartbeat CPU 0 instructions: 92000000 cycles: 123245393 heartbeat IPC: 0.226569 cumulative IPC: 0.686717 (Simulation time: 0 hr 48 min 5 sec) 
Heartbeat CPU 0 instructions: 93000000 cycles: 127877393 heartbeat IPC: 0.215889 cumulative IPC: 0.669135 (Simulation time: 0 hr 49 min 7 sec) 
Heartbeat CPU 0 instructions: 94000002 cycles: 131024085 heartbeat IPC: 0.317795 cumulative IPC: 0.660442 (Simulation time: 0 hr 49 min 56 sec) 
Heartbeat CPU 0 instructions: 95000000 cycles: 132263401 heartbeat IPC: 0.806895 cumulative IPC: 0.661856 (Simulation time: 0 hr 50 min 26 sec) 
Heartbeat CPU 0 instructions: 96000000 cycles: 133573146 heartbeat IPC: 0.763507 cumulative IPC: 0.662882 (Simulation time: 0 hr 50 min 55 sec) 
Heartbeat CPU 0 instructions: 97000002 cycles: 134812959 heartbeat IPC: 0.806575 cumulative IPC: 0.664242 (Simulation time: 0 hr 51 min 26 sec) 
Heartbeat CPU 0 instructions: 98000003 cycles: 136049406 heartbeat IPC: 0.80877 cumulative IPC: 0.665594 (Simulation time: 0 hr 51 min 53 sec) 
Heartbeat CPU 0 instructions: 99000000 cycles: 137287922 heartbeat IPC: 0.807415 cumulative IPC: 0.66691 (Simulation time: 0 hr 52 min 19 sec) 
Heartbeat CPU 0 instructions: 100000000 cycles: 138517154 heartbeat IPC: 0.813516 cumulative IPC: 0.668248 (Simulation time: 0 hr 52 min 43 sec) 
Heartbeat CPU 0 instructions: 101000001 cycles: 139755328 heartbeat IPC: 0.807642 cumulative IPC: 0.669518 (Simulation time: 0 hr 53 min 6 sec) 
Heartbeat CPU 0 instructions: 102000000 cycles: 141003113 heartbeat IPC: 0.801419 cumulative IPC: 0.670718 (Simulation time: 0 hr 53 min 29 sec) 
Heartbeat CPU 0 instructions: 103000002 cycles: 142251782 heartbeat IPC: 0.800854 cumulative IPC: 0.671892 (Simulation time: 0 hr 53 min 53 sec) 
Heartbeat CPU 0 instructions: 104000000 cycles: 143510338 heartbeat IPC: 0.79456 cumulative IPC: 0.672997 (Simulation time: 0 hr 54 min 16 sec) 
Heartbeat CPU 0 instructions: 105000003 cycles: 144770314 heartbeat IPC: 0.793668 cumulative IPC: 0.674076 (Simulation time: 0 hr 54 min 38 sec) 
Heartbeat CPU 0 instructions: 106000002 cycles: 146024942 heartbeat IPC: 0.797048 cumulative IPC: 0.675161 (Simulation time: 0 hr 54 min 57 sec) 
Heartbeat CPU 0 instructions: 107000002 cycles: 147284082 heartbeat IPC: 0.794193 cumulative IPC: 0.676206 (Simulation time: 0 hr 55 min 16 sec) 
Heartbeat CPU 0 instructions: 108000000 cycles: 148549410 heartbeat IPC: 0.790307 cumulative IPC: 0.677203 (Simulation time: 0 hr 55 min 35 sec) 
Heartbeat CPU 0 instructions: 109000001 cycles: 149804671 heartbeat IPC: 0.796648 cumulative IPC: 0.678231 (Simulation time: 0 hr 55 min 52 sec) 
Heartbeat CPU 0 instructions: 110000001 cycles: 151067436 heartbeat IPC: 0.791913 cumulative IPC: 0.679206 (Simulation time: 0 hr 56 min 9 sec) 
Finished CPU 0 instructions: 100000003 cycles: 147230826 cummulative IPC: 0.679206 (Simulation time: 0 hr 56 min 9 sec) 

ChampSim completed all CPUs

Region of Interest Statistics

CPU 0 cummulative IPC: 0.679206 instructions: 100000003 cycles: 147230826
LLC TOTAL     ACCESS:    2872436  HIT:      69248  MISS:    2803188
LLC LOAD      ACCESS:     739078  HIT:        220  MISS:     738858
LLC RFO       ACCESS:     423298  HIT:       9739  MISS:     413559
LLC PREFETCH  ACCESS:    1009342  HIT:       2565  MISS:    1006777
LLC WRITEBACK ACCESS:     700718  HIT:      56724  MISS:     643994
Insertion Distribution: 
	LOAD 48 0 18460 766468 
	RFO 0 0 25909 387651 
	PREF 0 0 31150 1115307 
	WRITEBACK 0 0 0 666220 
Total Prefetch Downgrades: 204
