
*** ChampSim Multicore Out-of-Order Simulator ***

Warmup Instructions: 10000000
Simulation Instructions: 100000000
Configuration: 2
Number of CPUs: 1
LLC sets: 2048
LLC ways: 16
Off-chip DRAM Channels: 1 Width: 64-bit Data Rate: 1600 MT/s

CPU 0 runs /datasets/cs240c-wi22-a00-public/data/Assignment2-gz/zeusmp_600B.trace.gz
CPU 0 L1D next line prefetcher
CPU 0 L2C IP-based stride prefetcher
Initialize SRRIP state
Heartbeat CPU 0 instructions: 1000000 cycles: 407346 heartbeat IPC: 2.45492 cumulative IPC: 2.45492 (Simulation time: 0 hr 0 min 28 sec) 
Heartbeat CPU 0 instructions: 2000001 cycles: 814284 heartbeat IPC: 2.45738 cumulative IPC: 2.45615 (Simulation time: 0 hr 0 min 54 sec) 
Heartbeat CPU 0 instructions: 3000000 cycles: 1221753 heartbeat IPC: 2.45417 cumulative IPC: 2.45549 (Simulation time: 0 hr 1 min 21 sec) 
Heartbeat CPU 0 instructions: 4000000 cycles: 1629404 heartbeat IPC: 2.45308 cumulative IPC: 2.45489 (Simulation time: 0 hr 1 min 45 sec) 
Heartbeat CPU 0 instructions: 5000001 cycles: 2036967 heartbeat IPC: 2.45361 cumulative IPC: 2.45463 (Simulation time: 0 hr 2 min 11 sec) 
Heartbeat CPU 0 instructions: 6000000 cycles: 2444291 heartbeat IPC: 2.45505 cumulative IPC: 2.4547 (Simulation time: 0 hr 2 min 36 sec) 
Heartbeat CPU 0 instructions: 7000000 cycles: 2851775 heartbeat IPC: 2.45408 cumulative IPC: 2.45461 (Simulation time: 0 hr 3 min 2 sec) 
Heartbeat CPU 0 instructions: 8000000 cycles: 3259377 heartbeat IPC: 2.45337 cumulative IPC: 2.45446 (Simulation time: 0 hr 3 min 26 sec) 
Heartbeat CPU 0 instructions: 9000003 cycles: 3666454 heartbeat IPC: 2.45655 cumulative IPC: 2.45469 (Simulation time: 0 hr 3 min 53 sec) 
Heartbeat CPU 0 instructions: 10000001 cycles: 4073958 heartbeat IPC: 2.45396 cumulative IPC: 2.45462 (Simulation time: 0 hr 4 min 20 sec) 

Warmup complete CPU 0 instructions: 10000001 cycles: 4073958 (Simulation time: 0 hr 4 min 20 sec) 

Heartbeat CPU 0 instructions: 11000000 cycles: 4748303 heartbeat IPC: 1.48292 cumulative IPC: 1.48292 (Simulation time: 0 hr 4 min 51 sec) 
Heartbeat CPU 0 instructions: 12000000 cycles: 5422168 heartbeat IPC: 1.48398 cumulative IPC: 1.48345 (Simulation time: 0 hr 5 min 19 sec) 
Heartbeat CPU 0 instructions: 13000001 cycles: 6096788 heartbeat IPC: 1.48232 cumulative IPC: 1.48307 (Simulation time: 0 hr 5 min 47 sec) 
Heartbeat CPU 0 instructions: 14000001 cycles: 6770530 heartbeat IPC: 1.48425 cumulative IPC: 1.48336 (Simulation time: 0 hr 6 min 17 sec) 
Heartbeat CPU 0 instructions: 15000003 cycles: 7446046 heartbeat IPC: 1.48035 cumulative IPC: 1.48276 (Simulation time: 0 hr 6 min 47 sec) 
Heartbeat CPU 0 instructions: 16000000 cycles: 8168898 heartbeat IPC: 1.3834 cumulative IPC: 1.46522 (Simulation time: 0 hr 7 min 16 sec) 
Heartbeat CPU 0 instructions: 17000001 cycles: 8951978 heartbeat IPC: 1.27701 cumulative IPC: 1.43501 (Simulation time: 0 hr 7 min 44 sec) 
Heartbeat CPU 0 instructions: 18000003 cycles: 9727747 heartbeat IPC: 1.28905 cumulative IPC: 1.41498 (Simulation time: 0 hr 8 min 16 sec) 
Heartbeat CPU 0 instructions: 19000000 cycles: 10502664 heartbeat IPC: 1.29046 cumulative IPC: 1.39997 (Simulation time: 0 hr 8 min 47 sec) 
Heartbeat CPU 0 instructions: 20000000 cycles: 11272898 heartbeat IPC: 1.29831 cumulative IPC: 1.38909 (Simulation time: 0 hr 9 min 14 sec) 
Heartbeat CPU 0 instructions: 21000002 cycles: 12046615 heartbeat IPC: 1.29246 cumulative IPC: 1.37972 (Simulation time: 0 hr 9 min 41 sec) 
Heartbeat CPU 0 instructions: 22000000 cycles: 12813266 heartbeat IPC: 1.30437 cumulative IPC: 1.37311 (Simulation time: 0 hr 10 min 10 sec) 
Heartbeat CPU 0 instructions: 23000000 cycles: 13584383 heartbeat IPC: 1.29682 cumulative IPC: 1.36692 (Simulation time: 0 hr 10 min 39 sec) 
Heartbeat CPU 0 instructions: 24000000 cycles: 14356100 heartbeat IPC: 1.29581 cumulative IPC: 1.36158 (Simulation time: 0 hr 11 min 9 sec) 
Heartbeat CPU 0 instructions: 25000000 cycles: 15123021 heartbeat IPC: 1.30392 cumulative IPC: 1.35758 (Simulation time: 0 hr 11 min 37 sec) 
Heartbeat CPU 0 instructions: 26000000 cycles: 15895806 heartbeat IPC: 1.29402 cumulative IPC: 1.35343 (Simulation time: 0 hr 12 min 4 sec) 
Heartbeat CPU 0 instructions: 27000003 cycles: 16671287 heartbeat IPC: 1.28953 cumulative IPC: 1.34949 (Simulation time: 0 hr 12 min 33 sec) 
Heartbeat CPU 0 instructions: 28000000 cycles: 17454671 heartbeat IPC: 1.27651 cumulative IPC: 1.34522 (Simulation time: 0 hr 13 min 2 sec) 
Heartbeat CPU 0 instructions: 29000000 cycles: 18228796 heartbeat IPC: 1.29178 cumulative IPC: 1.3423 (Simulation time: 0 hr 13 min 33 sec) 
Heartbeat CPU 0 instructions: 30000003 cycles: 19009409 heartbeat IPC: 1.28105 cumulative IPC: 1.3391 (Simulation time: 0 hr 14 min 2 sec) 
Heartbeat CPU 0 instructions: 31000002 cycles: 19796504 heartbeat IPC: 1.27049 cumulative IPC: 1.33566 (Simulation time: 0 hr 14 min 37 sec) 
Heartbeat CPU 0 instructions: 32000000 cycles: 20572878 heartbeat IPC: 1.28804 cumulative IPC: 1.33342 (Simulation time: 0 hr 15 min 7 sec) 
Heartbeat CPU 0 instructions: 33000001 cycles: 21357458 heartbeat IPC: 1.27457 cumulative IPC: 1.33075 (Simulation time: 0 hr 15 min 40 sec) 
Heartbeat CPU 0 instructions: 34000000 cycles: 22137766 heartbeat IPC: 1.28154 cumulative IPC: 1.32862 (Simulation time: 0 hr 16 min 9 sec) 
Heartbeat CPU 0 instructions: 35000000 cycles: 22915326 heartbeat IPC: 1.28607 cumulative IPC: 1.32687 (Simulation time: 0 hr 16 min 37 sec) 
Heartbeat CPU 0 instructions: 36000000 cycles: 23690627 heartbeat IPC: 1.28982 cumulative IPC: 1.3254 (Simulation time: 0 hr 17 min 3 sec) 
Heartbeat CPU 0 instructions: 37000001 cycles: 24471321 heartbeat IPC: 1.28091 cumulative IPC: 1.3237 (Simulation time: 0 hr 17 min 33 sec) 
Heartbeat CPU 0 instructions: 38000001 cycles: 25259825 heartbeat IPC: 1.26822 cumulative IPC: 1.32164 (Simulation time: 0 hr 18 min 1 sec) 
Heartbeat CPU 0 instructions: 39000002 cycles: 26037417 heartbeat IPC: 1.28602 cumulative IPC: 1.32037 (Simulation time: 0 hr 18 min 29 sec) 
Heartbeat CPU 0 instructions: 40000000 cycles: 26817039 heartbeat IPC: 1.28267 cumulative IPC: 1.31908 (Simulation time: 0 hr 18 min 59 sec) 
Heartbeat CPU 0 instructions: 41000002 cycles: 27594420 heartbeat IPC: 1.28637 cumulative IPC: 1.318 (Simulation time: 0 hr 19 min 26 sec) 
Heartbeat CPU 0 instructions: 42000000 cycles: 28372156 heartbeat IPC: 1.28578 cumulative IPC: 1.31697 (Simulation time: 0 hr 19 min 56 sec) 
Heartbeat CPU 0 instructions: 43000002 cycles: 29157298 heartbeat IPC: 1.27366 cumulative IPC: 1.31561 (Simulation time: 0 hr 20 min 26 sec) 
Heartbeat CPU 0 instructions: 44000000 cycles: 29935813 heartbeat IPC: 1.28449 cumulative IPC: 1.31468 (Simulation time: 0 hr 20 min 58 sec) 
Heartbeat CPU 0 instructions: 45000003 cycles: 30708400 heartbeat IPC: 1.29436 cumulative IPC: 1.31409 (Simulation time: 0 hr 21 min 27 sec) 
Heartbeat CPU 0 instructions: 46000000 cycles: 31483209 heartbeat IPC: 1.29064 cumulative IPC: 1.31343 (Simulation time: 0 hr 21 min 58 sec) 
Heartbeat CPU 0 instructions: 47000001 cycles: 32268008 heartbeat IPC: 1.27421 cumulative IPC: 1.31233 (Simulation time: 0 hr 22 min 27 sec) 
Heartbeat CPU 0 instructions: 48000000 cycles: 33048530 heartbeat IPC: 1.28119 cumulative IPC: 1.31149 (Simulation time: 0 hr 22 min 59 sec) 
Heartbeat CPU 0 instructions: 49000000 cycles: 33826595 heartbeat IPC: 1.28524 cumulative IPC: 1.31081 (Simulation time: 0 hr 23 min 30 sec) 
Heartbeat CPU 0 instructions: 50000000 cycles: 34604808 heartbeat IPC: 1.285 cumulative IPC: 1.31015 (Simulation time: 0 hr 24 min 1 sec) 
Heartbeat CPU 0 instructions: 51000001 cycles: 35386152 heartbeat IPC: 1.27985 cumulative IPC: 1.30939 (Simulation time: 0 hr 24 min 31 sec) 
Heartbeat CPU 0 instructions: 52000000 cycles: 36153691 heartbeat IPC: 1.30286 cumulative IPC: 1.30924 (Simulation time: 0 hr 24 min 59 sec) 
Heartbeat CPU 0 instructions: 53000001 cycles: 36937529 heartbeat IPC: 1.27578 cumulative IPC: 1.30844 (Simulation time: 0 hr 25 min 25 sec) 
Heartbeat CPU 0 instructions: 54000000 cycles: 37719455 heartbeat IPC: 1.27889 cumulative IPC: 1.30775 (Simulation time: 0 hr 25 min 52 sec) 
Heartbeat CPU 0 instructions: 55000001 cycles: 38491452 heartbeat IPC: 1.29534 cumulative IPC: 1.30747 (Simulation time: 0 hr 26 min 22 sec) 
Heartbeat CPU 0 instructions: 56000000 cycles: 39265669 heartbeat IPC: 1.29163 cumulative IPC: 1.30713 (Simulation time: 0 hr 26 min 51 sec) 
Heartbeat CPU 0 instructions: 57000003 cycles: 40053654 heartbeat IPC: 1.26906 cumulative IPC: 1.30629 (Simulation time: 0 hr 27 min 19 sec) 
Heartbeat CPU 0 instructions: 58000001 cycles: 40826644 heartbeat IPC: 1.29368 cumulative IPC: 1.30603 (Simulation time: 0 hr 27 min 46 sec) 
Heartbeat CPU 0 instructions: 59000000 cycles: 41605642 heartbeat IPC: 1.2837 cumulative IPC: 1.30556 (Simulation time: 0 hr 28 min 12 sec) 
Heartbeat CPU 0 instructions: 60000000 cycles: 42380888 heartbeat IPC: 1.28991 cumulative IPC: 1.30525 (Simulation time: 0 hr 28 min 40 sec) 
Heartbeat CPU 0 instructions: 61000003 cycles: 43159312 heartbeat IPC: 1.28465 cumulative IPC: 1.30484 (Simulation time: 0 hr 29 min 8 sec) 
Heartbeat CPU 0 instructions: 62000001 cycles: 43940320 heartbeat IPC: 1.28039 cumulative IPC: 1.30436 (Simulation time: 0 hr 29 min 38 sec) 
Heartbeat CPU 0 instructions: 63000000 cycles: 44713567 heartbeat IPC: 1.29325 cumulative IPC: 1.30415 (Simulation time: 0 hr 30 min 6 sec) 
Heartbeat CPU 0 instructions: 64000000 cycles: 45489275 heartbeat IPC: 1.28914 cumulative IPC: 1.30387 (Simulation time: 0 hr 30 min 34 sec) 
Heartbeat CPU 0 instructions: 65000001 cycles: 46275183 heartbeat IPC: 1.27241 cumulative IPC: 1.30328 (Simulation time: 0 hr 31 min 3 sec) 
Heartbeat CPU 0 instructions: 66000000 cycles: 47061433 heartbeat IPC: 1.27186 cumulative IPC: 1.30271 (Simulation time: 0 hr 31 min 31 sec) 
Heartbeat CPU 0 instructions: 67000001 cycles: 47846388 heartbeat IPC: 1.27396 cumulative IPC: 1.30219 (Simulation time: 0 hr 31 min 59 sec) 
Heartbeat CPU 0 instructions: 68000000 cycles: 48623984 heartbeat IPC: 1.28601 cumulative IPC: 1.30191 (Simulation time: 0 hr 32 min 27 sec) 
Heartbeat CPU 0 instructions: 69000002 cycles: 49412317 heartbeat IPC: 1.2685 cumulative IPC: 1.30133 (Simulation time: 0 hr 32 min 58 sec) 
Heartbeat CPU 0 instructions: 70000000 cycles: 50189157 heartbeat IPC: 1.28726 cumulative IPC: 1.30109 (Simulation time: 0 hr 33 min 25 sec) 
Heartbeat CPU 0 instructions: 71000001 cycles: 50975270 heartbeat IPC: 1.27208 cumulative IPC: 1.3006 (Simulation time: 0 hr 33 min 52 sec) 
Heartbeat CPU 0 instructions: 72000000 cycles: 51757172 heartbeat IPC: 1.27893 cumulative IPC: 1.30025 (Simulation time: 0 hr 34 min 18 sec) 
Heartbeat CPU 0 instructions: 73000003 cycles: 52530965 heartbeat IPC: 1.29234 cumulative IPC: 1.30012 (Simulation time: 0 hr 34 min 44 sec) 
Heartbeat CPU 0 instructions: 74000002 cycles: 53307489 heartbeat IPC: 1.28779 cumulative IPC: 1.29993 (Simulation time: 0 hr 35 min 11 sec) 
Heartbeat CPU 0 instructions: 75000003 cycles: 54090353 heartbeat IPC: 1.27736 cumulative IPC: 1.29957 (Simulation time: 0 hr 35 min 38 sec) 
Heartbeat CPU 0 instructions: 76000000 cycles: 54875234 heartbeat IPC: 1.27407 cumulative IPC: 1.29918 (Simulation time: 0 hr 36 min 7 sec) 
Heartbeat CPU 0 instructions: 77000000 cycles: 55651477 heartbeat IPC: 1.28826 cumulative IPC: 1.29902 (Simulation time: 0 hr 36 min 36 sec) 
Heartbeat CPU 0 instructions: 78000003 cycles: 56430561 heartbeat IPC: 1.28356 cumulative IPC: 1.29879 (Simulation time: 0 hr 37 min 4 sec) 
Heartbeat CPU 0 instructions: 79000000 cycles: 57211641 heartbeat IPC: 1.28027 cumulative IPC: 1.29851 (Simulation time: 0 hr 37 min 34 sec) 
Heartbeat CPU 0 instructions: 80000000 cycles: 57994412 heartbeat IPC: 1.27751 cumulative IPC: 1.29821 (Simulation time: 0 hr 38 min 2 sec) 
Heartbeat CPU 0 instructions: 81000002 cycles: 58768093 heartbeat IPC: 1.29252 cumulative IPC: 1.29813 (Simulation time: 0 hr 38 min 31 sec) 
Heartbeat CPU 0 instructions: 82000002 cycles: 59551415 heartbeat IPC: 1.27661 cumulative IPC: 1.29782 (Simulation time: 0 hr 39 min 2 sec) 
Heartbeat CPU 0 instructions: 83000001 cycles: 60325987 heartbeat IPC: 1.29103 cumulative IPC: 1.29773 (Simulation time: 0 hr 39 min 30 sec) 
Heartbeat CPU 0 instructions: 84000000 cycles: 61108047 heartbeat IPC: 1.27867 cumulative IPC: 1.29747 (Simulation time: 0 hr 40 min 0 sec) 
Heartbeat CPU 0 instructions: 85000002 cycles: 61889673 heartbeat IPC: 1.27939 cumulative IPC: 1.29723 (Simulation time: 0 hr 40 min 30 sec) 
Heartbeat CPU 0 instructions: 86000002 cycles: 62664829 heartbeat IPC: 1.29006 cumulative IPC: 1.29713 (Simulation time: 0 hr 41 min 0 sec) 
Heartbeat CPU 0 instructions: 87000000 cycles: 63447409 heartbeat IPC: 1.27782 cumulative IPC: 1.29688 (Simulation time: 0 hr 41 min 29 sec) 
Heartbeat CPU 0 instructions: 88000000 cycles: 64232826 heartbeat IPC: 1.27321 cumulative IPC: 1.29657 (Simulation time: 0 hr 41 min 58 sec) 
Heartbeat CPU 0 instructions: 89000002 cycles: 65010250 heartbeat IPC: 1.2863 cumulative IPC: 1.29644 (Simulation time: 0 hr 42 min 27 sec) 
Heartbeat CPU 0 instructions: 90000002 cycles: 65782049 heartbeat IPC: 1.29567 cumulative IPC: 1.29643 (Simulation time: 0 hr 42 min 59 sec) 
Heartbeat CPU 0 instructions: 91000001 cycles: 66560472 heartbeat IPC: 1.28465 cumulative IPC: 1.29628 (Simulation time: 0 hr 43 min 30 sec) 
Heartbeat CPU 0 instructions: 92000000 cycles: 67347079 heartbeat IPC: 1.27128 cumulative IPC: 1.29597 (Simulation time: 0 hr 43 min 59 sec) 
Heartbeat CPU 0 instructions: 93000000 cycles: 68120162 heartbeat IPC: 1.29352 cumulative IPC: 1.29594 (Simulation time: 0 hr 44 min 28 sec) 
Heartbeat CPU 0 instructions: 94000002 cycles: 68898531 heartbeat IPC: 1.28474 cumulative IPC: 1.2958 (Simulation time: 0 hr 44 min 59 sec) 
Heartbeat CPU 0 instructions: 95000001 cycles: 69678329 heartbeat IPC: 1.28238 cumulative IPC: 1.29565 (Simulation time: 0 hr 45 min 29 sec) 
Heartbeat CPU 0 instructions: 96000000 cycles: 70456505 heartbeat IPC: 1.28506 cumulative IPC: 1.29552 (Simulation time: 0 hr 45 min 56 sec) 
Heartbeat CPU 0 instructions: 97000003 cycles: 71227605 heartbeat IPC: 1.29685 cumulative IPC: 1.29554 (Simulation time: 0 hr 46 min 22 sec) 
Heartbeat CPU 0 instructions: 98000002 cycles: 72002848 heartbeat IPC: 1.28992 cumulative IPC: 1.29547 (Simulation time: 0 hr 46 min 49 sec) 
Heartbeat CPU 0 instructions: 99000000 cycles: 72789720 heartbeat IPC: 1.27085 cumulative IPC: 1.29519 (Simulation time: 0 hr 47 min 16 sec) 
Heartbeat CPU 0 instructions: 100000000 cycles: 73566221 heartbeat IPC: 1.28783 cumulative IPC: 1.29511 (Simulation time: 0 hr 47 min 44 sec) 
Heartbeat CPU 0 instructions: 101000002 cycles: 74336558 heartbeat IPC: 1.29814 cumulative IPC: 1.29514 (Simulation time: 0 hr 48 min 13 sec) 
Heartbeat CPU 0 instructions: 102000002 cycles: 75122647 heartbeat IPC: 1.27212 cumulative IPC: 1.29489 (Simulation time: 0 hr 48 min 42 sec) 
Heartbeat CPU 0 instructions: 103000001 cycles: 75901124 heartbeat IPC: 1.28456 cumulative IPC: 1.29477 (Simulation time: 0 hr 49 min 11 sec) 
Heartbeat CPU 0 instructions: 104000000 cycles: 76683049 heartbeat IPC: 1.27889 cumulative IPC: 1.2946 (Simulation time: 0 hr 49 min 38 sec) 
Heartbeat CPU 0 instructions: 105000001 cycles: 77461390 heartbeat IPC: 1.28479 cumulative IPC: 1.2945 (Simulation time: 0 hr 50 min 7 sec) 
Heartbeat CPU 0 instructions: 106000000 cycles: 78241007 heartbeat IPC: 1.28268 cumulative IPC: 1.29438 (Simulation time: 0 hr 50 min 32 sec) 
Heartbeat CPU 0 instructions: 107000000 cycles: 79022918 heartbeat IPC: 1.27892 cumulative IPC: 1.29421 (Simulation time: 0 hr 51 min 2 sec) 
Heartbeat CPU 0 instructions: 108000000 cycles: 79799779 heartbeat IPC: 1.28723 cumulative IPC: 1.29414 (Simulation time: 0 hr 51 min 31 sec) 
Heartbeat CPU 0 instructions: 109000000 cycles: 80585505 heartbeat IPC: 1.27271 cumulative IPC: 1.29392 (Simulation time: 0 hr 51 min 57 sec) 
Heartbeat CPU 0 instructions: 110000002 cycles: 81370181 heartbeat IPC: 1.27441 cumulative IPC: 1.29372 (Simulation time: 0 hr 52 min 22 sec) 
Finished CPU 0 instructions: 100000001 cycles: 77296223 cummulative IPC: 1.29372 (Simulation time: 0 hr 52 min 22 sec) 

ChampSim completed all CPUs

Region of Interest Statistics

CPU 0 cummulative IPC: 1.29372 instructions: 100000001 cycles: 77296223
LLC TOTAL     ACCESS:     382566  HIT:      17730  MISS:     364836
LLC LOAD      ACCESS:      27921  HIT:        483  MISS:      27438
LLC RFO       ACCESS:       3434  HIT:          3  MISS:       3431
LLC PREFETCH  ACCESS:     287975  HIT:       4552  MISS:     283423
LLC WRITEBACK ACCESS:      63236  HIT:      12692  MISS:      50544
Insertion Distribution: 
	LOAD 0 0 8219 19952 
	RFO 0 0 4236 5190 
	PREF 0 0 42302 267264 
	WRITEBACK 0 0 0 51832 
Total Prefetch Downgrades: 319
