
*** ChampSim Multicore Out-of-Order Simulator ***

Warmup Instructions: 10000000
Simulation Instructions: 100000000
Configuration: 2
Number of CPUs: 1
LLC sets: 2048
LLC ways: 16
Off-chip DRAM Channels: 1 Width: 64-bit Data Rate: 1600 MT/s

CPU 0 runs /datasets/cs240c-wi22-a00-public/data/Assignment2-gz/mcf_46B.trace.gz
CPU 0 L1D next line prefetcher
CPU 0 L2C IP-based stride prefetcher
Initialize SRRIP state
Heartbeat CPU 0 instructions: 1000002 cycles: 492158 heartbeat IPC: 2.03187 cumulative IPC: 2.03187 (Simulation time: 0 hr 0 min 40 sec) 
Heartbeat CPU 0 instructions: 2000002 cycles: 987144 heartbeat IPC: 2.02026 cumulative IPC: 2.02605 (Simulation time: 0 hr 1 min 24 sec) 
Heartbeat CPU 0 instructions: 3000003 cycles: 1512724 heartbeat IPC: 1.90266 cumulative IPC: 1.98318 (Simulation time: 0 hr 2 min 10 sec) 
Heartbeat CPU 0 instructions: 4000000 cycles: 2030380 heartbeat IPC: 1.93178 cumulative IPC: 1.97007 (Simulation time: 0 hr 2 min 51 sec) 
Heartbeat CPU 0 instructions: 5000000 cycles: 2523380 heartbeat IPC: 2.0284 cumulative IPC: 1.98147 (Simulation time: 0 hr 3 min 28 sec) 
Heartbeat CPU 0 instructions: 6000002 cycles: 3026164 heartbeat IPC: 1.98893 cumulative IPC: 1.98271 (Simulation time: 0 hr 4 min 6 sec) 
Heartbeat CPU 0 instructions: 7000001 cycles: 3573699 heartbeat IPC: 1.82637 cumulative IPC: 1.95876 (Simulation time: 0 hr 4 min 47 sec) 
Heartbeat CPU 0 instructions: 8000000 cycles: 4063755 heartbeat IPC: 2.04058 cumulative IPC: 1.96862 (Simulation time: 0 hr 5 min 24 sec) 
Heartbeat CPU 0 instructions: 9000001 cycles: 4546579 heartbeat IPC: 2.07115 cumulative IPC: 1.97951 (Simulation time: 0 hr 6 min 6 sec) 
Heartbeat CPU 0 instructions: 10000001 cycles: 5085929 heartbeat IPC: 1.85408 cumulative IPC: 1.96621 (Simulation time: 0 hr 6 min 44 sec) 

Warmup complete CPU 0 instructions: 10000001 cycles: 5085929 (Simulation time: 0 hr 6 min 44 sec) 

Heartbeat CPU 0 instructions: 11000002 cycles: 15671803 heartbeat IPC: 0.0944656 cumulative IPC: 0.0944656 (Simulation time: 0 hr 7 min 46 sec) 
Heartbeat CPU 0 instructions: 12000000 cycles: 19796479 heartbeat IPC: 0.242443 cumulative IPC: 0.135957 (Simulation time: 0 hr 8 min 32 sec) 
Heartbeat CPU 0 instructions: 13000000 cycles: 27121942 heartbeat IPC: 0.13651 cumulative IPC: 0.136141 (Simulation time: 0 hr 9 min 27 sec) 
Heartbeat CPU 0 instructions: 14000003 cycles: 41532601 heartbeat IPC: 0.0693933 cumulative IPC: 0.109749 (Simulation time: 0 hr 10 min 44 sec) 
Heartbeat CPU 0 instructions: 15000000 cycles: 45759046 heartbeat IPC: 0.236605 cumulative IPC: 0.122931 (Simulation time: 0 hr 11 min 30 sec) 
Heartbeat CPU 0 instructions: 16000000 cycles: 49566858 heartbeat IPC: 0.262618 cumulative IPC: 0.134889 (Simulation time: 0 hr 12 min 21 sec) 
Heartbeat CPU 0 instructions: 17000002 cycles: 65110555 heartbeat IPC: 0.0643349 cumulative IPC: 0.116619 (Simulation time: 0 hr 13 min 35 sec) 
Heartbeat CPU 0 instructions: 18000001 cycles: 70474689 heartbeat IPC: 0.186423 cumulative IPC: 0.122345 (Simulation time: 0 hr 14 min 26 sec) 
Heartbeat CPU 0 instructions: 19000002 cycles: 75064508 heartbeat IPC: 0.217874 cumulative IPC: 0.128611 (Simulation time: 0 hr 15 min 18 sec) 
Heartbeat CPU 0 instructions: 20000000 cycles: 87134503 heartbeat IPC: 0.0828499 cumulative IPC: 0.121879 (Simulation time: 0 hr 16 min 25 sec) 
Heartbeat CPU 0 instructions: 21000002 cycles: 103390240 heartbeat IPC: 0.0615169 cumulative IPC: 0.111897 (Simulation time: 0 hr 17 min 45 sec) 
Heartbeat CPU 0 instructions: 22000002 cycles: 107586390 heartbeat IPC: 0.238314 cumulative IPC: 0.117073 (Simulation time: 0 hr 18 min 33 sec) 
Heartbeat CPU 0 instructions: 23000001 cycles: 111412910 heartbeat IPC: 0.261334 cumulative IPC: 0.122264 (Simulation time: 0 hr 19 min 22 sec) 
Heartbeat CPU 0 instructions: 24000000 cycles: 124459981 heartbeat IPC: 0.0766455 cumulative IPC: 0.117278 (Simulation time: 0 hr 20 min 30 sec) 
Heartbeat CPU 0 instructions: 25000002 cycles: 132247482 heartbeat IPC: 0.128411 cumulative IPC: 0.11796 (Simulation time: 0 hr 21 min 36 sec) 
Heartbeat CPU 0 instructions: 26000001 cycles: 136083776 heartbeat IPC: 0.260668 cumulative IPC: 0.122139 (Simulation time: 0 hr 22 min 26 sec) 
Heartbeat CPU 0 instructions: 27000000 cycles: 145634889 heartbeat IPC: 0.1047 cumulative IPC: 0.120954 (Simulation time: 0 hr 23 min 28 sec) 
Heartbeat CPU 0 instructions: 28000000 cycles: 156961203 heartbeat IPC: 0.08829 cumulative IPC: 0.118518 (Simulation time: 0 hr 24 min 35 sec) 
Heartbeat CPU 0 instructions: 29000001 cycles: 161285123 heartbeat IPC: 0.231272 cumulative IPC: 0.12164 (Simulation time: 0 hr 25 min 21 sec) 
Heartbeat CPU 0 instructions: 30000000 cycles: 168410575 heartbeat IPC: 0.140342 cumulative IPC: 0.122455 (Simulation time: 0 hr 26 min 17 sec) 
Heartbeat CPU 0 instructions: 31000001 cycles: 182047517 heartbeat IPC: 0.0733303 cumulative IPC: 0.11867 (Simulation time: 0 hr 27 min 33 sec) 
Heartbeat CPU 0 instructions: 32000000 cycles: 186354753 heartbeat IPC: 0.232167 cumulative IPC: 0.121367 (Simulation time: 0 hr 28 min 20 sec) 
Heartbeat CPU 0 instructions: 33000000 cycles: 192640502 heartbeat IPC: 0.15909 cumulative IPC: 0.122631 (Simulation time: 0 hr 29 min 9 sec) 
Heartbeat CPU 0 instructions: 34000000 cycles: 207844889 heartbeat IPC: 0.0657705 cumulative IPC: 0.118367 (Simulation time: 0 hr 30 min 22 sec) 
Heartbeat CPU 0 instructions: 35000000 cycles: 213845255 heartbeat IPC: 0.166656 cumulative IPC: 0.119755 (Simulation time: 0 hr 31 min 16 sec) 
Heartbeat CPU 0 instructions: 36000000 cycles: 219826478 heartbeat IPC: 0.16719 cumulative IPC: 0.121076 (Simulation time: 0 hr 32 min 7 sec) 
Heartbeat CPU 0 instructions: 37000002 cycles: 229796071 heartbeat IPC: 0.100305 cumulative IPC: 0.120155 (Simulation time: 0 hr 33 min 6 sec) 
Heartbeat CPU 0 instructions: 38000001 cycles: 240880862 heartbeat IPC: 0.0902136 cumulative IPC: 0.118747 (Simulation time: 0 hr 34 min 12 sec) 
Heartbeat CPU 0 instructions: 39000000 cycles: 244948246 heartbeat IPC: 0.245858 cumulative IPC: 0.120903 (Simulation time: 0 hr 34 min 57 sec) 
Heartbeat CPU 0 instructions: 40000000 cycles: 250755544 heartbeat IPC: 0.172197 cumulative IPC: 0.122115 (Simulation time: 0 hr 35 min 45 sec) 
Heartbeat CPU 0 instructions: 41000000 cycles: 265849352 heartbeat IPC: 0.0662523 cumulative IPC: 0.118882 (Simulation time: 0 hr 37 min 2 sec) 
Heartbeat CPU 0 instructions: 42000001 cycles: 270462649 heartbeat IPC: 0.216765 cumulative IPC: 0.120583 (Simulation time: 0 hr 37 min 47 sec) 
Heartbeat CPU 0 instructions: 43000000 cycles: 274425195 heartbeat IPC: 0.252363 cumulative IPC: 0.122522 (Simulation time: 0 hr 38 min 36 sec) 
Heartbeat CPU 0 instructions: 44000000 cycles: 287791356 heartbeat IPC: 0.0748158 cumulative IPC: 0.120267 (Simulation time: 0 hr 39 min 48 sec) 
Heartbeat CPU 0 instructions: 45000001 cycles: 295223508 heartbeat IPC: 0.134551 cumulative IPC: 0.120632 (Simulation time: 0 hr 40 min 45 sec) 
Heartbeat CPU 0 instructions: 46000001 cycles: 299292890 heartbeat IPC: 0.245738 cumulative IPC: 0.122363 (Simulation time: 0 hr 41 min 32 sec) 
Heartbeat CPU 0 instructions: 47000002 cycles: 308635851 heartbeat IPC: 0.107033 cumulative IPC: 0.121891 (Simulation time: 0 hr 42 min 30 sec) 
Heartbeat CPU 0 instructions: 48000000 cycles: 320364905 heartbeat IPC: 0.0852582 cumulative IPC: 0.120528 (Simulation time: 0 hr 43 min 35 sec) 
Heartbeat CPU 0 instructions: 49000000 cycles: 324816928 heartbeat IPC: 0.224617 cumulative IPC: 0.121978 (Simulation time: 0 hr 44 min 24 sec) 
Heartbeat CPU 0 instructions: 50000001 cycles: 330962473 heartbeat IPC: 0.16272 cumulative IPC: 0.122746 (Simulation time: 0 hr 45 min 15 sec) 
Heartbeat CPU 0 instructions: 51000001 cycles: 345529061 heartbeat IPC: 0.0686503 cumulative IPC: 0.120431 (Simulation time: 0 hr 46 min 26 sec) 
Heartbeat CPU 0 instructions: 52000000 cycles: 350046277 heartbeat IPC: 0.221375 cumulative IPC: 0.121753 (Simulation time: 0 hr 47 min 14 sec) 
Heartbeat CPU 0 instructions: 53000000 cycles: 354121066 heartbeat IPC: 0.245411 cumulative IPC: 0.123197 (Simulation time: 0 hr 48 min 3 sec) 
Heartbeat CPU 0 instructions: 54000002 cycles: 369709466 heartbeat IPC: 0.0641504 cumulative IPC: 0.120672 (Simulation time: 0 hr 49 min 21 sec) 
Heartbeat CPU 0 instructions: 55000002 cycles: 374845058 heartbeat IPC: 0.19472 cumulative IPC: 0.121701 (Simulation time: 0 hr 50 min 7 sec) 
Heartbeat CPU 0 instructions: 56000000 cycles: 379042903 heartbeat IPC: 0.238217 cumulative IPC: 0.123009 (Simulation time: 0 hr 50 min 49 sec) 
Heartbeat CPU 0 instructions: 57000000 cycles: 392499118 heartbeat IPC: 0.0743151 cumulative IPC: 0.121317 (Simulation time: 0 hr 51 min 53 sec) 
Heartbeat CPU 0 instructions: 58000000 cycles: 399988733 heartbeat IPC: 0.133518 cumulative IPC: 0.121549 (Simulation time: 0 hr 52 min 40 sec) 
Heartbeat CPU 0 instructions: 59000002 cycles: 404127292 heartbeat IPC: 0.24163 cumulative IPC: 0.122794 (Simulation time: 0 hr 53 min 19 sec) 
Heartbeat CPU 0 instructions: 60000000 cycles: 415808134 heartbeat IPC: 0.0856101 cumulative IPC: 0.121737 (Simulation time: 0 hr 54 min 12 sec) 
Heartbeat CPU 0 instructions: 61000002 cycles: 425295902 heartbeat IPC: 0.105399 cumulative IPC: 0.121368 (Simulation time: 0 hr 54 min 54 sec) 
Heartbeat CPU 0 instructions: 62000001 cycles: 429408817 heartbeat IPC: 0.243136 cumulative IPC: 0.122548 (Simulation time: 0 hr 55 min 24 sec) 
Heartbeat CPU 0 instructions: 63000001 cycles: 439304956 heartbeat IPC: 0.10105 cumulative IPC: 0.122058 (Simulation time: 0 hr 56 min 3 sec) 
Heartbeat CPU 0 instructions: 64000000 cycles: 450690073 heartbeat IPC: 0.0878339 cumulative IPC: 0.121184 (Simulation time: 0 hr 56 min 42 sec) 
Heartbeat CPU 0 instructions: 65000002 cycles: 456101015 heartbeat IPC: 0.184811 cumulative IPC: 0.121947 (Simulation time: 0 hr 57 min 13 sec) 
Heartbeat CPU 0 instructions: 66000000 cycles: 462405457 heartbeat IPC: 0.158618 cumulative IPC: 0.122453 (Simulation time: 0 hr 57 min 43 sec) 
Heartbeat CPU 0 instructions: 67000002 cycles: 478576764 heartbeat IPC: 0.061838 cumulative IPC: 0.120382 (Simulation time: 0 hr 58 min 30 sec) 
Heartbeat CPU 0 instructions: 68000000 cycles: 482980917 heartbeat IPC: 0.227058 cumulative IPC: 0.121366 (Simulation time: 0 hr 58 min 59 sec) 
Heartbeat CPU 0 instructions: 69000000 cycles: 486975252 heartbeat IPC: 0.250355 cumulative IPC: 0.122435 (Simulation time: 0 hr 59 min 23 sec) 
Heartbeat CPU 0 instructions: 70000001 cycles: 501253946 heartbeat IPC: 0.0700345 cumulative IPC: 0.120927 (Simulation time: 0 hr 59 min 58 sec) 
Heartbeat CPU 0 instructions: 71000002 cycles: 509565956 heartbeat IPC: 0.120308 cumulative IPC: 0.120917 (Simulation time: 1 hr 0 min 26 sec) 
Heartbeat CPU 0 instructions: 72000000 cycles: 514284598 heartbeat IPC: 0.211925 cumulative IPC: 0.12176 (Simulation time: 1 hr 0 min 48 sec) 
Heartbeat CPU 0 instructions: 73000002 cycles: 523310564 heartbeat IPC: 0.110792 cumulative IPC: 0.121569 (Simulation time: 1 hr 1 min 13 sec) 
Heartbeat CPU 0 instructions: 74000001 cycles: 535403462 heartbeat IPC: 0.0826931 cumulative IPC: 0.120682 (Simulation time: 1 hr 1 min 44 sec) 
Heartbeat CPU 0 instructions: 75000002 cycles: 539846364 heartbeat IPC: 0.225078 cumulative IPC: 0.12155 (Simulation time: 1 hr 2 min 3 sec) 
Heartbeat CPU 0 instructions: 76000000 cycles: 545783162 heartbeat IPC: 0.168441 cumulative IPC: 0.122065 (Simulation time: 1 hr 2 min 22 sec) 
Heartbeat CPU 0 instructions: 77000001 cycles: 561773923 heartbeat IPC: 0.0625362 cumulative IPC: 0.120355 (Simulation time: 1 hr 2 min 43 sec) 
Heartbeat CPU 0 instructions: 78000002 cycles: 566469103 heartbeat IPC: 0.212985 cumulative IPC: 0.121129 (Simulation time: 1 hr 2 min 55 sec) 
Heartbeat CPU 0 instructions: 79000001 cycles: 570725771 heartbeat IPC: 0.234925 cumulative IPC: 0.121986 (Simulation time: 1 hr 3 min 5 sec) 
Heartbeat CPU 0 instructions: 80000000 cycles: 584135347 heartbeat IPC: 0.0745735 cumulative IPC: 0.120888 (Simulation time: 1 hr 3 min 20 sec) 
Heartbeat CPU 0 instructions: 81000000 cycles: 591526532 heartbeat IPC: 0.135296 cumulative IPC: 0.121069 (Simulation time: 1 hr 3 min 30 sec) 
Heartbeat CPU 0 instructions: 82000000 cycles: 596296025 heartbeat IPC: 0.209666 cumulative IPC: 0.121784 (Simulation time: 1 hr 3 min 39 sec) 
Heartbeat CPU 0 instructions: 83000001 cycles: 605892507 heartbeat IPC: 0.104205 cumulative IPC: 0.121503 (Simulation time: 1 hr 3 min 49 sec) 
Heartbeat CPU 0 instructions: 84000000 cycles: 617367718 heartbeat IPC: 0.0871443 cumulative IPC: 0.120859 (Simulation time: 1 hr 3 min 59 sec) 
Heartbeat CPU 0 instructions: 85000001 cycles: 621535469 heartbeat IPC: 0.239938 cumulative IPC: 0.121664 (Simulation time: 1 hr 4 min 5 sec) 
Heartbeat CPU 0 instructions: 86000000 cycles: 629453187 heartbeat IPC: 0.126299 cumulative IPC: 0.121723 (Simulation time: 1 hr 4 min 12 sec) 
Heartbeat CPU 0 instructions: 87000000 cycles: 644394925 heartbeat IPC: 0.0669266 cumulative IPC: 0.120443 (Simulation time: 1 hr 4 min 21 sec) 
Heartbeat CPU 0 instructions: 88000000 cycles: 650520093 heartbeat IPC: 0.163261 cumulative IPC: 0.120849 (Simulation time: 1 hr 4 min 27 sec) 
Heartbeat CPU 0 instructions: 89000000 cycles: 654605677 heartbeat IPC: 0.244763 cumulative IPC: 0.121628 (Simulation time: 1 hr 4 min 32 sec) 
Heartbeat CPU 0 instructions: 90000003 cycles: 666587301 heartbeat IPC: 0.0834614 cumulative IPC: 0.120937 (Simulation time: 1 hr 4 min 40 sec) 
Heartbeat CPU 0 instructions: 91000000 cycles: 675491446 heartbeat IPC: 0.112307 cumulative IPC: 0.120822 (Simulation time: 1 hr 4 min 47 sec) 
Heartbeat CPU 0 instructions: 92000000 cycles: 679638226 heartbeat IPC: 0.241151 cumulative IPC: 0.121562 (Simulation time: 1 hr 4 min 52 sec) 
Heartbeat CPU 0 instructions: 93000002 cycles: 688589124 heartbeat IPC: 0.111721 cumulative IPC: 0.121433 (Simulation time: 1 hr 4 min 58 sec) 
Heartbeat CPU 0 instructions: 94000002 cycles: 700421427 heartbeat IPC: 0.0845144 cumulative IPC: 0.120805 (Simulation time: 1 hr 5 min 6 sec) 
Heartbeat CPU 0 instructions: 95000000 cycles: 706141347 heartbeat IPC: 0.174827 cumulative IPC: 0.121246 (Simulation time: 1 hr 5 min 11 sec) 
Heartbeat CPU 0 instructions: 96000000 cycles: 711603934 heartbeat IPC: 0.183063 cumulative IPC: 0.121724 (Simulation time: 1 hr 5 min 16 sec) 
Heartbeat CPU 0 instructions: 97000000 cycles: 726877095 heartbeat IPC: 0.0654743 cumulative IPC: 0.120533 (Simulation time: 1 hr 5 min 25 sec) 
Heartbeat CPU 0 instructions: 98000002 cycles: 731523578 heartbeat IPC: 0.215217 cumulative IPC: 0.121139 (Simulation time: 1 hr 5 min 30 sec) 
Heartbeat CPU 0 instructions: 99000002 cycles: 736042930 heartbeat IPC: 0.221271 cumulative IPC: 0.121758 (Simulation time: 1 hr 5 min 36 sec) 
Heartbeat CPU 0 instructions: 100000000 cycles: 750272001 heartbeat IPC: 0.0702785 cumulative IPC: 0.120775 (Simulation time: 1 hr 5 min 44 sec) 
Heartbeat CPU 0 instructions: 101000000 cycles: 756962439 heartbeat IPC: 0.149467 cumulative IPC: 0.121031 (Simulation time: 1 hr 5 min 50 sec) 
Heartbeat CPU 0 instructions: 102000003 cycles: 761094672 heartbeat IPC: 0.242001 cumulative IPC: 0.121692 (Simulation time: 1 hr 5 min 55 sec) 
Heartbeat CPU 0 instructions: 103000003 cycles: 773233573 heartbeat IPC: 0.0823798 cumulative IPC: 0.12107 (Simulation time: 1 hr 6 min 2 sec) 
Heartbeat CPU 0 instructions: 104000000 cycles: 784495512 heartbeat IPC: 0.0887944 cumulative IPC: 0.120604 (Simulation time: 1 hr 6 min 9 sec) 
Heartbeat CPU 0 instructions: 105000000 cycles: 789136438 heartbeat IPC: 0.215474 cumulative IPC: 0.121166 (Simulation time: 1 hr 6 min 14 sec) 
Heartbeat CPU 0 instructions: 106000000 cycles: 793182316 heartbeat IPC: 0.247165 cumulative IPC: 0.121813 (Simulation time: 1 hr 6 min 19 sec) 
Heartbeat CPU 0 instructions: 107000002 cycles: 808928959 heartbeat IPC: 0.0635057 cumulative IPC: 0.12067 (Simulation time: 1 hr 6 min 28 sec) 
Heartbeat CPU 0 instructions: 108000000 cycles: 814203275 heartbeat IPC: 0.189598 cumulative IPC: 0.12112 (Simulation time: 1 hr 6 min 33 sec) 
Heartbeat CPU 0 instructions: 109000001 cycles: 818434617 heartbeat IPC: 0.236332 cumulative IPC: 0.121719 (Simulation time: 1 hr 6 min 38 sec) 
Heartbeat CPU 0 instructions: 110000002 cycles: 828224030 heartbeat IPC: 0.102151 cumulative IPC: 0.121486 (Simulation time: 1 hr 6 min 45 sec) 
Finished CPU 0 instructions: 100000001 cycles: 823138101 cummulative IPC: 0.121486 (Simulation time: 1 hr 6 min 45 sec) 

ChampSim completed all CPUs

Region of Interest Statistics

CPU 0 cummulative IPC: 0.121486 instructions: 100000001 cycles: 823138101
LLC TOTAL     ACCESS:   18753200  HIT:    8256225  MISS:   10496975
LLC LOAD      ACCESS:    8468924  HIT:    4429393  MISS:    4039531
LLC RFO       ACCESS:     206422  HIT:      68108  MISS:     138314
LLC PREFETCH  ACCESS:    7970377  HIT:    2094926  MISS:    5875451
LLC WRITEBACK ACCESS:    2107477  HIT:    1663798  MISS:     443679
Insertion Distribution: 
	LOAD 830531 0 582403 2949193 
	RFO 84083 0 54453 12610 
	PREF 0 1488902 922251 4086105 
	WRITEBACK 0 0 0 491824 
Total Prefetch Downgrades: 1202079
