
*** ChampSim Multicore Out-of-Order Simulator ***

Warmup Instructions: 10000000
Simulation Instructions: 100000000
Configuration: 2
Number of CPUs: 1
LLC sets: 2048
LLC ways: 16
Off-chip DRAM Channels: 1 Width: 64-bit Data Rate: 1600 MT/s

CPU 0 runs /datasets/cs240c-wi22-a00-public/data/Assignment2-gz/milc_360B.trace.gz
CPU 0 L1D next line prefetcher
CPU 0 L2C IP-based stride prefetcher
Initialize SRRIP state
Heartbeat CPU 0 instructions: 1000001 cycles: 549511 heartbeat IPC: 1.8198 cumulative IPC: 1.8198 (Simulation time: 0 hr 0 min 45 sec) 
Heartbeat CPU 0 instructions: 2000003 cycles: 1099026 heartbeat IPC: 1.81979 cumulative IPC: 1.8198 (Simulation time: 0 hr 1 min 40 sec) 
Heartbeat CPU 0 instructions: 3000001 cycles: 1648486 heartbeat IPC: 1.81997 cumulative IPC: 1.81985 (Simulation time: 0 hr 2 min 38 sec) 
Heartbeat CPU 0 instructions: 4000000 cycles: 2197959 heartbeat IPC: 1.81992 cumulative IPC: 1.81987 (Simulation time: 0 hr 3 min 26 sec) 
Heartbeat CPU 0 instructions: 5000002 cycles: 2747468 heartbeat IPC: 1.81981 cumulative IPC: 1.81986 (Simulation time: 0 hr 4 min 23 sec) 
Heartbeat CPU 0 instructions: 6000001 cycles: 3296983 heartbeat IPC: 1.81978 cumulative IPC: 1.81985 (Simulation time: 0 hr 5 min 20 sec) 
Heartbeat CPU 0 instructions: 7000000 cycles: 3846462 heartbeat IPC: 1.8199 cumulative IPC: 1.81985 (Simulation time: 0 hr 6 min 11 sec) 
Heartbeat CPU 0 instructions: 8000000 cycles: 4395923 heartbeat IPC: 1.81997 cumulative IPC: 1.81987 (Simulation time: 0 hr 7 min 6 sec) 
Heartbeat CPU 0 instructions: 9000001 cycles: 4945436 heartbeat IPC: 1.8198 cumulative IPC: 1.81986 (Simulation time: 0 hr 8 min 1 sec) 
Heartbeat CPU 0 instructions: 10000001 cycles: 5494911 heartbeat IPC: 1.81992 cumulative IPC: 1.81987 (Simulation time: 0 hr 8 min 53 sec) 

Warmup complete CPU 0 instructions: 10000001 cycles: 5494911 (Simulation time: 0 hr 8 min 53 sec) 

Heartbeat CPU 0 instructions: 11000001 cycles: 7197509 heartbeat IPC: 0.587338 cumulative IPC: 0.587338 (Simulation time: 0 hr 9 min 52 sec) 
Heartbeat CPU 0 instructions: 12000000 cycles: 8900816 heartbeat IPC: 0.587093 cumulative IPC: 0.587215 (Simulation time: 0 hr 10 min 52 sec) 
Heartbeat CPU 0 instructions: 13000001 cycles: 10602277 heartbeat IPC: 0.587731 cumulative IPC: 0.587387 (Simulation time: 0 hr 11 min 50 sec) 
Heartbeat CPU 0 instructions: 14000001 cycles: 12300553 heartbeat IPC: 0.588832 cumulative IPC: 0.587748 (Simulation time: 0 hr 12 min 47 sec) 
Heartbeat CPU 0 instructions: 15000003 cycles: 14000677 heartbeat IPC: 0.588194 cumulative IPC: 0.587837 (Simulation time: 0 hr 13 min 45 sec) 
Heartbeat CPU 0 instructions: 16000000 cycles: 15708657 heartbeat IPC: 0.585485 cumulative IPC: 0.587444 (Simulation time: 0 hr 14 min 44 sec) 
Heartbeat CPU 0 instructions: 17000003 cycles: 17408959 heartbeat IPC: 0.588133 cumulative IPC: 0.587542 (Simulation time: 0 hr 15 min 37 sec) 
Heartbeat CPU 0 instructions: 18000002 cycles: 19109619 heartbeat IPC: 0.588006 cumulative IPC: 0.5876 (Simulation time: 0 hr 16 min 17 sec) 
Heartbeat CPU 0 instructions: 19000000 cycles: 20811791 heartbeat IPC: 0.587484 cumulative IPC: 0.587587 (Simulation time: 0 hr 16 min 52 sec) 
Heartbeat CPU 0 instructions: 20000000 cycles: 22513269 heartbeat IPC: 0.587724 cumulative IPC: 0.587601 (Simulation time: 0 hr 17 min 30 sec) 
Heartbeat CPU 0 instructions: 21000002 cycles: 24208472 heartbeat IPC: 0.589901 cumulative IPC: 0.587809 (Simulation time: 0 hr 18 min 8 sec) 
Heartbeat CPU 0 instructions: 22000003 cycles: 25899586 heartbeat IPC: 0.591327 cumulative IPC: 0.588101 (Simulation time: 0 hr 18 min 44 sec) 
Heartbeat CPU 0 instructions: 23000001 cycles: 27598036 heartbeat IPC: 0.588771 cumulative IPC: 0.588152 (Simulation time: 0 hr 19 min 23 sec) 
Heartbeat CPU 0 instructions: 24000000 cycles: 29290893 heartbeat IPC: 0.590717 cumulative IPC: 0.588335 (Simulation time: 0 hr 20 min 3 sec) 
Heartbeat CPU 0 instructions: 25000003 cycles: 30989103 heartbeat IPC: 0.588857 cumulative IPC: 0.588369 (Simulation time: 0 hr 20 min 41 sec) 
Heartbeat CPU 0 instructions: 26000001 cycles: 32685062 heartbeat IPC: 0.589636 cumulative IPC: 0.588448 (Simulation time: 0 hr 21 min 18 sec) 
Heartbeat CPU 0 instructions: 27000001 cycles: 34376259 heartbeat IPC: 0.591297 cumulative IPC: 0.588615 (Simulation time: 0 hr 21 min 53 sec) 
Heartbeat CPU 0 instructions: 28000000 cycles: 36064258 heartbeat IPC: 0.592417 cumulative IPC: 0.588825 (Simulation time: 0 hr 22 min 28 sec) 
Heartbeat CPU 0 instructions: 29000001 cycles: 37755872 heartbeat IPC: 0.591152 cumulative IPC: 0.588947 (Simulation time: 0 hr 23 min 2 sec) 
Heartbeat CPU 0 instructions: 30000000 cycles: 39448264 heartbeat IPC: 0.590879 cumulative IPC: 0.589043 (Simulation time: 0 hr 23 min 42 sec) 
Heartbeat CPU 0 instructions: 31000003 cycles: 41140752 heartbeat IPC: 0.590848 cumulative IPC: 0.589129 (Simulation time: 0 hr 24 min 19 sec) 
Heartbeat CPU 0 instructions: 32000000 cycles: 42834030 heartbeat IPC: 0.590569 cumulative IPC: 0.589194 (Simulation time: 0 hr 25 min 11 sec) 
Heartbeat CPU 0 instructions: 33000000 cycles: 44526078 heartbeat IPC: 0.591 cumulative IPC: 0.589273 (Simulation time: 0 hr 25 min 57 sec) 
Heartbeat CPU 0 instructions: 34000003 cycles: 46213859 heartbeat IPC: 0.592496 cumulative IPC: 0.589406 (Simulation time: 0 hr 26 min 42 sec) 
Heartbeat CPU 0 instructions: 35000001 cycles: 47909024 heartbeat IPC: 0.589912 cumulative IPC: 0.589426 (Simulation time: 0 hr 27 min 41 sec) 
Heartbeat CPU 0 instructions: 36000000 cycles: 49603507 heartbeat IPC: 0.59015 cumulative IPC: 0.589454 (Simulation time: 0 hr 28 min 33 sec) 
Heartbeat CPU 0 instructions: 37000000 cycles: 51293110 heartbeat IPC: 0.591855 cumulative IPC: 0.589543 (Simulation time: 0 hr 29 min 23 sec) 
Heartbeat CPU 0 instructions: 38000001 cycles: 52983046 heartbeat IPC: 0.591739 cumulative IPC: 0.589621 (Simulation time: 0 hr 30 min 18 sec) 
Heartbeat CPU 0 instructions: 39000000 cycles: 54679438 heartbeat IPC: 0.589486 cumulative IPC: 0.589616 (Simulation time: 0 hr 31 min 18 sec) 
Heartbeat CPU 0 instructions: 40000000 cycles: 56371390 heartbeat IPC: 0.591033 cumulative IPC: 0.589663 (Simulation time: 0 hr 32 min 20 sec) 
Heartbeat CPU 0 instructions: 41000001 cycles: 58060409 heartbeat IPC: 0.59206 cumulative IPC: 0.58974 (Simulation time: 0 hr 33 min 17 sec) 
Heartbeat CPU 0 instructions: 42000001 cycles: 59758470 heartbeat IPC: 0.588907 cumulative IPC: 0.589714 (Simulation time: 0 hr 34 min 15 sec) 
Heartbeat CPU 0 instructions: 43000000 cycles: 61451565 heartbeat IPC: 0.590634 cumulative IPC: 0.589742 (Simulation time: 0 hr 35 min 18 sec) 
Heartbeat CPU 0 instructions: 44000000 cycles: 63314416 heartbeat IPC: 0.536812 cumulative IPC: 0.588037 (Simulation time: 0 hr 36 min 16 sec) 
Heartbeat CPU 0 instructions: 45000002 cycles: 65539374 heartbeat IPC: 0.449448 cumulative IPC: 0.582901 (Simulation time: 0 hr 37 min 8 sec) 
Heartbeat CPU 0 instructions: 46000000 cycles: 67759887 heartbeat IPC: 0.450345 cumulative IPC: 0.578174 (Simulation time: 0 hr 38 min 13 sec) 
Heartbeat CPU 0 instructions: 47000002 cycles: 70020127 heartbeat IPC: 0.442432 cumulative IPC: 0.573419 (Simulation time: 0 hr 39 min 25 sec) 
Heartbeat CPU 0 instructions: 48000000 cycles: 72235445 heartbeat IPC: 0.451402 cumulative IPC: 0.569369 (Simulation time: 0 hr 40 min 30 sec) 
Heartbeat CPU 0 instructions: 49000003 cycles: 74414957 heartbeat IPC: 0.45882 cumulative IPC: 0.565873 (Simulation time: 0 hr 41 min 36 sec) 
Heartbeat CPU 0 instructions: 50000002 cycles: 76404120 heartbeat IPC: 0.502724 cumulative IPC: 0.564102 (Simulation time: 0 hr 42 min 40 sec) 
Heartbeat CPU 0 instructions: 51000002 cycles: 77543186 heartbeat IPC: 0.877912 cumulative IPC: 0.569063 (Simulation time: 0 hr 43 min 31 sec) 
Heartbeat CPU 0 instructions: 52000000 cycles: 79412614 heartbeat IPC: 0.534922 cumulative IPC: 0.568199 (Simulation time: 0 hr 44 min 24 sec) 
Heartbeat CPU 0 instructions: 53000002 cycles: 81671466 heartbeat IPC: 0.442704 cumulative IPC: 0.564478 (Simulation time: 0 hr 45 min 18 sec) 
Heartbeat CPU 0 instructions: 54000003 cycles: 83932467 heartbeat IPC: 0.442282 cumulative IPC: 0.560956 (Simulation time: 0 hr 46 min 5 sec) 
Heartbeat CPU 0 instructions: 55000003 cycles: 86171795 heartbeat IPC: 0.446563 cumulative IPC: 0.557781 (Simulation time: 0 hr 47 min 2 sec) 
Heartbeat CPU 0 instructions: 56000000 cycles: 88408467 heartbeat IPC: 0.447091 cumulative IPC: 0.554795 (Simulation time: 0 hr 47 min 52 sec) 
Heartbeat CPU 0 instructions: 57000000 cycles: 90645938 heartbeat IPC: 0.446933 cumulative IPC: 0.55196 (Simulation time: 0 hr 48 min 49 sec) 
Heartbeat CPU 0 instructions: 58000000 cycles: 92881375 heartbeat IPC: 0.44734 cumulative IPC: 0.549284 (Simulation time: 0 hr 49 min 40 sec) 
Heartbeat CPU 0 instructions: 59000001 cycles: 95115015 heartbeat IPC: 0.4477 cumulative IPC: 0.546752 (Simulation time: 0 hr 50 min 28 sec) 
Heartbeat CPU 0 instructions: 60000000 cycles: 97341496 heartbeat IPC: 0.449139 cumulative IPC: 0.544386 (Simulation time: 0 hr 51 min 8 sec) 
Heartbeat CPU 0 instructions: 61000000 cycles: 99571141 heartbeat IPC: 0.448502 cumulative IPC: 0.542114 (Simulation time: 0 hr 51 min 53 sec) 
Heartbeat CPU 0 instructions: 62000003 cycles: 101800137 heartbeat IPC: 0.448634 cumulative IPC: 0.53995 (Simulation time: 0 hr 52 min 38 sec) 
Heartbeat CPU 0 instructions: 63000003 cycles: 104035446 heartbeat IPC: 0.447365 cumulative IPC: 0.53785 (Simulation time: 0 hr 53 min 24 sec) 
Heartbeat CPU 0 instructions: 64000000 cycles: 106270495 heartbeat IPC: 0.447416 cumulative IPC: 0.535844 (Simulation time: 0 hr 54 min 6 sec) 
Heartbeat CPU 0 instructions: 65000001 cycles: 108508376 heartbeat IPC: 0.446852 cumulative IPC: 0.533911 (Simulation time: 0 hr 54 min 43 sec) 
Heartbeat CPU 0 instructions: 66000001 cycles: 110733771 heartbeat IPC: 0.449358 cumulative IPC: 0.532123 (Simulation time: 0 hr 55 min 14 sec) 
Heartbeat CPU 0 instructions: 67000002 cycles: 112968584 heartbeat IPC: 0.447465 cumulative IPC: 0.530362 (Simulation time: 0 hr 55 min 40 sec) 
Heartbeat CPU 0 instructions: 68000000 cycles: 115199604 heartbeat IPC: 0.448225 cumulative IPC: 0.528692 (Simulation time: 0 hr 56 min 2 sec) 
Heartbeat CPU 0 instructions: 69000001 cycles: 117433017 heartbeat IPC: 0.447746 cumulative IPC: 0.527077 (Simulation time: 0 hr 56 min 23 sec) 
Heartbeat CPU 0 instructions: 70000000 cycles: 119664497 heartbeat IPC: 0.448133 cumulative IPC: 0.525534 (Simulation time: 0 hr 56 min 42 sec) 
Heartbeat CPU 0 instructions: 71000000 cycles: 121897053 heartbeat IPC: 0.447917 cumulative IPC: 0.524045 (Simulation time: 0 hr 57 min 2 sec) 
Heartbeat CPU 0 instructions: 72000000 cycles: 124126173 heartbeat IPC: 0.448608 cumulative IPC: 0.522628 (Simulation time: 0 hr 57 min 23 sec) 
Heartbeat CPU 0 instructions: 73000001 cycles: 126342041 heartbeat IPC: 0.451291 cumulative IPC: 0.52132 (Simulation time: 0 hr 57 min 42 sec) 
Heartbeat CPU 0 instructions: 74000002 cycles: 127919411 heartbeat IPC: 0.633967 cumulative IPC: 0.522771 (Simulation time: 0 hr 58 min 3 sec) 
Heartbeat CPU 0 instructions: 75000003 cycles: 129496159 heartbeat IPC: 0.634217 cumulative IPC: 0.524188 (Simulation time: 0 hr 58 min 26 sec) 
Heartbeat CPU 0 instructions: 76000000 cycles: 131075331 heartbeat IPC: 0.633241 cumulative IPC: 0.52556 (Simulation time: 0 hr 58 min 47 sec) 
Heartbeat CPU 0 instructions: 77000000 cycles: 132659074 heartbeat IPC: 0.631416 cumulative IPC: 0.526878 (Simulation time: 0 hr 59 min 9 sec) 
Heartbeat CPU 0 instructions: 78000000 cycles: 134250879 heartbeat IPC: 0.628218 cumulative IPC: 0.528131 (Simulation time: 0 hr 59 min 29 sec) 
Heartbeat CPU 0 instructions: 79000000 cycles: 135836721 heartbeat IPC: 0.63058 cumulative IPC: 0.529377 (Simulation time: 0 hr 59 min 48 sec) 
Heartbeat CPU 0 instructions: 80000000 cycles: 137424012 heartbeat IPC: 0.630004 cumulative IPC: 0.530588 (Simulation time: 1 hr 0 min 5 sec) 
Heartbeat CPU 0 instructions: 81000003 cycles: 139010833 heartbeat IPC: 0.630193 cumulative IPC: 0.531772 (Simulation time: 1 hr 0 min 22 sec) 
Heartbeat CPU 0 instructions: 82000003 cycles: 140601555 heartbeat IPC: 0.628645 cumulative IPC: 0.532912 (Simulation time: 1 hr 0 min 37 sec) 
Heartbeat CPU 0 instructions: 83000002 cycles: 142186620 heartbeat IPC: 0.630888 cumulative IPC: 0.534048 (Simulation time: 1 hr 0 min 53 sec) 
Heartbeat CPU 0 instructions: 84000000 cycles: 143778611 heartbeat IPC: 0.628143 cumulative IPC: 0.535132 (Simulation time: 1 hr 1 min 8 sec) 
Heartbeat CPU 0 instructions: 85000000 cycles: 145366629 heartbeat IPC: 0.629716 cumulative IPC: 0.536206 (Simulation time: 1 hr 1 min 22 sec) 
Heartbeat CPU 0 instructions: 86000000 cycles: 146954174 heartbeat IPC: 0.629903 cumulative IPC: 0.537257 (Simulation time: 1 hr 1 min 37 sec) 
Heartbeat CPU 0 instructions: 87000000 cycles: 148540304 heartbeat IPC: 0.630465 cumulative IPC: 0.538291 (Simulation time: 1 hr 1 min 51 sec) 
Heartbeat CPU 0 instructions: 88000000 cycles: 150127313 heartbeat IPC: 0.630116 cumulative IPC: 0.539298 (Simulation time: 1 hr 2 min 6 sec) 
Heartbeat CPU 0 instructions: 89000002 cycles: 151713357 heartbeat IPC: 0.630501 cumulative IPC: 0.540287 (Simulation time: 1 hr 2 min 20 sec) 
Heartbeat CPU 0 instructions: 90000002 cycles: 153299559 heartbeat IPC: 0.630437 cumulative IPC: 0.541255 (Simulation time: 1 hr 2 min 31 sec) 
Heartbeat CPU 0 instructions: 91000003 cycles: 154882521 heartbeat IPC: 0.631728 cumulative IPC: 0.542214 (Simulation time: 1 hr 2 min 41 sec) 
Heartbeat CPU 0 instructions: 92000000 cycles: 156473727 heartbeat IPC: 0.628452 cumulative IPC: 0.543123 (Simulation time: 1 hr 2 min 49 sec) 
Heartbeat CPU 0 instructions: 93000000 cycles: 158056180 heartbeat IPC: 0.63193 cumulative IPC: 0.544044 (Simulation time: 1 hr 2 min 57 sec) 
Heartbeat CPU 0 instructions: 94000000 cycles: 159645080 heartbeat IPC: 0.629366 cumulative IPC: 0.544923 (Simulation time: 1 hr 3 min 5 sec) 
Heartbeat CPU 0 instructions: 95000000 cycles: 161228552 heartbeat IPC: 0.631524 cumulative IPC: 0.545804 (Simulation time: 1 hr 3 min 13 sec) 
Heartbeat CPU 0 instructions: 96000000 cycles: 162819635 heartbeat IPC: 0.628503 cumulative IPC: 0.54664 (Simulation time: 1 hr 3 min 22 sec) 
Heartbeat CPU 0 instructions: 97000002 cycles: 164398273 heartbeat IPC: 0.633459 cumulative IPC: 0.547503 (Simulation time: 1 hr 3 min 29 sec) 
Heartbeat CPU 0 instructions: 98000003 cycles: 165971825 heartbeat IPC: 0.635506 cumulative IPC: 0.548365 (Simulation time: 1 hr 3 min 36 sec) 
Heartbeat CPU 0 instructions: 99000000 cycles: 167545740 heartbeat IPC: 0.635356 cumulative IPC: 0.54921 (Simulation time: 1 hr 3 min 43 sec) 
Heartbeat CPU 0 instructions: 100000000 cycles: 169119192 heartbeat IPC: 0.635545 cumulative IPC: 0.550041 (Simulation time: 1 hr 3 min 49 sec) 
Heartbeat CPU 0 instructions: 101000002 cycles: 170695694 heartbeat IPC: 0.634317 cumulative IPC: 0.550845 (Simulation time: 1 hr 3 min 55 sec) 
Heartbeat CPU 0 instructions: 102000000 cycles: 172275195 heartbeat IPC: 0.63311 cumulative IPC: 0.551624 (Simulation time: 1 hr 4 min 0 sec) 
Heartbeat CPU 0 instructions: 103000002 cycles: 173850085 heartbeat IPC: 0.634966 cumulative IPC: 0.552404 (Simulation time: 1 hr 4 min 5 sec) 
Heartbeat CPU 0 instructions: 104000000 cycles: 175426785 heartbeat IPC: 0.634235 cumulative IPC: 0.553163 (Simulation time: 1 hr 4 min 10 sec) 
Heartbeat CPU 0 instructions: 105000003 cycles: 176998318 heartbeat IPC: 0.636323 cumulative IPC: 0.553925 (Simulation time: 1 hr 4 min 14 sec) 
Heartbeat CPU 0 instructions: 106000002 cycles: 178572479 heartbeat IPC: 0.635258 cumulative IPC: 0.554665 (Simulation time: 1 hr 4 min 19 sec) 
Heartbeat CPU 0 instructions: 107000000 cycles: 180151680 heartbeat IPC: 0.63323 cumulative IPC: 0.555375 (Simulation time: 1 hr 4 min 24 sec) 
Heartbeat CPU 0 instructions: 108000000 cycles: 181723579 heartbeat IPC: 0.636173 cumulative IPC: 0.556096 (Simulation time: 1 hr 4 min 29 sec) 
Heartbeat CPU 0 instructions: 109000002 cycles: 183294657 heartbeat IPC: 0.636507 cumulative IPC: 0.556806 (Simulation time: 1 hr 4 min 34 sec) 
Heartbeat CPU 0 instructions: 110000000 cycles: 184868577 heartbeat IPC: 0.635355 cumulative IPC: 0.557495 (Simulation time: 1 hr 4 min 39 sec) 
Finished CPU 0 instructions: 100000003 cycles: 179373667 cummulative IPC: 0.557495 (Simulation time: 1 hr 4 min 39 sec) 

ChampSim completed all CPUs

Region of Interest Statistics

CPU 0 cummulative IPC: 0.557495 instructions: 100000003 cycles: 179373667
LLC TOTAL     ACCESS:    3481387  HIT:      61748  MISS:    3419639
LLC LOAD      ACCESS:    1002073  HIT:         20  MISS:    1002053
LLC RFO       ACCESS:     140009  HIT:          0  MISS:     140009
LLC PREFETCH  ACCESS:    1596634  HIT:       9787  MISS:    1586847
LLC WRITEBACK ACCESS:     742671  HIT:      51941  MISS:     690730
Insertion Distribution: 
	LOAD 0 0 11922 1094424 
	RFO 0 0 20546 119465 
	PREF 0 0 79206 1627536 
	WRITEBACK 0 0 0 757184 
Total Prefetch Downgrades: 4
