
*** ChampSim Multicore Out-of-Order Simulator ***

Warmup Instructions: 10000000
Simulation Instructions: 100000000
Configuration: 2
Number of CPUs: 1
LLC sets: 2048
LLC ways: 16
Off-chip DRAM Channels: 1 Width: 64-bit Data Rate: 1600 MT/s

CPU 0 runs /datasets/cs240c-wi22-a00-public/data/Assignment2-gz/gcc_56B.trace.gz
CPU 0 L1D next line prefetcher
CPU 0 L2C IP-based stride prefetcher
Initialize SRRIP state
Heartbeat CPU 0 instructions: 1000003 cycles: 954151 heartbeat IPC: 1.04806 cumulative IPC: 1.04806 (Simulation time: 0 hr 0 min 32 sec) 
Heartbeat CPU 0 instructions: 2000001 cycles: 1898349 heartbeat IPC: 1.0591 cumulative IPC: 1.05355 (Simulation time: 0 hr 1 min 3 sec) 
Heartbeat CPU 0 instructions: 3000001 cycles: 2885593 heartbeat IPC: 1.01292 cumulative IPC: 1.03965 (Simulation time: 0 hr 1 min 34 sec) 
Heartbeat CPU 0 instructions: 4000000 cycles: 3848221 heartbeat IPC: 1.03882 cumulative IPC: 1.03944 (Simulation time: 0 hr 2 min 6 sec) 
Heartbeat CPU 0 instructions: 5000002 cycles: 4737701 heartbeat IPC: 1.12425 cumulative IPC: 1.05536 (Simulation time: 0 hr 2 min 38 sec) 
Heartbeat CPU 0 instructions: 6000000 cycles: 5685656 heartbeat IPC: 1.0549 cumulative IPC: 1.05529 (Simulation time: 0 hr 3 min 13 sec) 
Heartbeat CPU 0 instructions: 7000000 cycles: 6649892 heartbeat IPC: 1.03709 cumulative IPC: 1.05265 (Simulation time: 0 hr 3 min 48 sec) 
Heartbeat CPU 0 instructions: 8000000 cycles: 7611115 heartbeat IPC: 1.04034 cumulative IPC: 1.05109 (Simulation time: 0 hr 4 min 24 sec) 
Heartbeat CPU 0 instructions: 9000000 cycles: 8622587 heartbeat IPC: 0.988658 cumulative IPC: 1.04377 (Simulation time: 0 hr 5 min 0 sec) 
Heartbeat CPU 0 instructions: 10000002 cycles: 9583098 heartbeat IPC: 1.04111 cumulative IPC: 1.0435 (Simulation time: 0 hr 5 min 37 sec) 

Warmup complete CPU 0 instructions: 10000002 cycles: 9583098 (Simulation time: 0 hr 5 min 37 sec) 

Heartbeat CPU 0 instructions: 11000000 cycles: 10925644 heartbeat IPC: 0.744852 cumulative IPC: 0.744852 (Simulation time: 0 hr 6 min 10 sec) 
Heartbeat CPU 0 instructions: 12000000 cycles: 12345245 heartbeat IPC: 0.704423 cumulative IPC: 0.724074 (Simulation time: 0 hr 6 min 45 sec) 
Heartbeat CPU 0 instructions: 13000001 cycles: 13726403 heartbeat IPC: 0.724031 cumulative IPC: 0.724059 (Simulation time: 0 hr 7 min 21 sec) 
Heartbeat CPU 0 instructions: 14000000 cycles: 15053234 heartbeat IPC: 0.753675 cumulative IPC: 0.731243 (Simulation time: 0 hr 7 min 56 sec) 
Heartbeat CPU 0 instructions: 15000003 cycles: 16421751 heartbeat IPC: 0.73072 cumulative IPC: 0.731138 (Simulation time: 0 hr 8 min 31 sec) 
Heartbeat CPU 0 instructions: 16000000 cycles: 17740013 heartbeat IPC: 0.758572 cumulative IPC: 0.735572 (Simulation time: 0 hr 9 min 7 sec) 
Heartbeat CPU 0 instructions: 17000001 cycles: 19053238 heartbeat IPC: 0.761485 cumulative IPC: 0.739165 (Simulation time: 0 hr 9 min 42 sec) 
Heartbeat CPU 0 instructions: 18000000 cycles: 20434833 heartbeat IPC: 0.7238 cumulative IPC: 0.737209 (Simulation time: 0 hr 10 min 17 sec) 
Heartbeat CPU 0 instructions: 19000000 cycles: 21803061 heartbeat IPC: 0.730872 cumulative IPC: 0.7365 (Simulation time: 0 hr 10 min 52 sec) 
Heartbeat CPU 0 instructions: 20000000 cycles: 23159440 heartbeat IPC: 0.737257 cumulative IPC: 0.736575 (Simulation time: 0 hr 11 min 28 sec) 
Heartbeat CPU 0 instructions: 21000000 cycles: 24495522 heartbeat IPC: 0.748457 cumulative IPC: 0.73764 (Simulation time: 0 hr 12 min 2 sec) 
Heartbeat CPU 0 instructions: 22000000 cycles: 25813984 heartbeat IPC: 0.758459 cumulative IPC: 0.739331 (Simulation time: 0 hr 12 min 38 sec) 
Heartbeat CPU 0 instructions: 23000000 cycles: 27140870 heartbeat IPC: 0.753644 cumulative IPC: 0.740413 (Simulation time: 0 hr 13 min 12 sec) 
Heartbeat CPU 0 instructions: 24000000 cycles: 28491523 heartbeat IPC: 0.740383 cumulative IPC: 0.740411 (Simulation time: 0 hr 13 min 49 sec) 
Heartbeat CPU 0 instructions: 25000000 cycles: 29852040 heartbeat IPC: 0.735015 cumulative IPC: 0.740048 (Simulation time: 0 hr 14 min 27 sec) 
Heartbeat CPU 0 instructions: 26000002 cycles: 31250909 heartbeat IPC: 0.714865 cumulative IPC: 0.738423 (Simulation time: 0 hr 15 min 2 sec) 
Heartbeat CPU 0 instructions: 27000000 cycles: 32626823 heartbeat IPC: 0.726788 cumulative IPC: 0.737728 (Simulation time: 0 hr 15 min 37 sec) 
Heartbeat CPU 0 instructions: 28000000 cycles: 33954353 heartbeat IPC: 0.753279 cumulative IPC: 0.738575 (Simulation time: 0 hr 16 min 12 sec) 
Heartbeat CPU 0 instructions: 29000000 cycles: 35287285 heartbeat IPC: 0.750226 cumulative IPC: 0.739179 (Simulation time: 0 hr 16 min 47 sec) 
Heartbeat CPU 0 instructions: 30000000 cycles: 36624614 heartbeat IPC: 0.747759 cumulative IPC: 0.739603 (Simulation time: 0 hr 17 min 22 sec) 
Heartbeat CPU 0 instructions: 31000000 cycles: 37970247 heartbeat IPC: 0.743145 cumulative IPC: 0.739771 (Simulation time: 0 hr 17 min 57 sec) 
Heartbeat CPU 0 instructions: 32000000 cycles: 39337896 heartbeat IPC: 0.731182 cumulative IPC: 0.739376 (Simulation time: 0 hr 18 min 32 sec) 
Heartbeat CPU 0 instructions: 33000002 cycles: 40739573 heartbeat IPC: 0.713433 cumulative IPC: 0.738209 (Simulation time: 0 hr 19 min 8 sec) 
Heartbeat CPU 0 instructions: 34000002 cycles: 42097078 heartbeat IPC: 0.736646 cumulative IPC: 0.738144 (Simulation time: 0 hr 19 min 45 sec) 
Heartbeat CPU 0 instructions: 35000002 cycles: 43440950 heartbeat IPC: 0.744119 cumulative IPC: 0.738381 (Simulation time: 0 hr 20 min 22 sec) 
Heartbeat CPU 0 instructions: 36000000 cycles: 44763236 heartbeat IPC: 0.756265 cumulative IPC: 0.739053 (Simulation time: 0 hr 20 min 59 sec) 
Heartbeat CPU 0 instructions: 37000000 cycles: 46071872 heartbeat IPC: 0.764154 cumulative IPC: 0.739954 (Simulation time: 0 hr 21 min 34 sec) 
Heartbeat CPU 0 instructions: 38000002 cycles: 47401071 heartbeat IPC: 0.752334 cumulative IPC: 0.740389 (Simulation time: 0 hr 22 min 9 sec) 
Heartbeat CPU 0 instructions: 39000000 cycles: 48797961 heartbeat IPC: 0.715875 cumulative IPC: 0.739515 (Simulation time: 0 hr 22 min 44 sec) 
Heartbeat CPU 0 instructions: 40000000 cycles: 50157550 heartbeat IPC: 0.735516 cumulative IPC: 0.739381 (Simulation time: 0 hr 23 min 19 sec) 
Heartbeat CPU 0 instructions: 41000001 cycles: 51495626 heartbeat IPC: 0.747342 cumulative IPC: 0.739636 (Simulation time: 0 hr 23 min 53 sec) 
Heartbeat CPU 0 instructions: 42000003 cycles: 52821502 heartbeat IPC: 0.75422 cumulative IPC: 0.740083 (Simulation time: 0 hr 24 min 28 sec) 
Heartbeat CPU 0 instructions: 43000001 cycles: 54154873 heartbeat IPC: 0.749977 cumulative IPC: 0.740379 (Simulation time: 0 hr 25 min 2 sec) 
Heartbeat CPU 0 instructions: 44000000 cycles: 55478951 heartbeat IPC: 0.755242 cumulative IPC: 0.740808 (Simulation time: 0 hr 25 min 36 sec) 
Heartbeat CPU 0 instructions: 45000000 cycles: 56843925 heartbeat IPC: 0.732615 cumulative IPC: 0.740571 (Simulation time: 0 hr 26 min 9 sec) 
Heartbeat CPU 0 instructions: 46000000 cycles: 58233512 heartbeat IPC: 0.719638 cumulative IPC: 0.739973 (Simulation time: 0 hr 26 min 45 sec) 
Heartbeat CPU 0 instructions: 47000002 cycles: 59605196 heartbeat IPC: 0.729032 cumulative IPC: 0.739673 (Simulation time: 0 hr 27 min 20 sec) 
Heartbeat CPU 0 instructions: 48000000 cycles: 60950295 heartbeat IPC: 0.743438 cumulative IPC: 0.739772 (Simulation time: 0 hr 27 min 56 sec) 
Heartbeat CPU 0 instructions: 49000002 cycles: 62275033 heartbeat IPC: 0.754868 cumulative IPC: 0.740151 (Simulation time: 0 hr 28 min 31 sec) 
Heartbeat CPU 0 instructions: 50000000 cycles: 63595004 heartbeat IPC: 0.757591 cumulative IPC: 0.740577 (Simulation time: 0 hr 29 min 5 sec) 
Heartbeat CPU 0 instructions: 51000000 cycles: 64948471 heartbeat IPC: 0.738843 cumulative IPC: 0.740535 (Simulation time: 0 hr 29 min 37 sec) 
Heartbeat CPU 0 instructions: 52000000 cycles: 66339491 heartbeat IPC: 0.718897 cumulative IPC: 0.740005 (Simulation time: 0 hr 30 min 10 sec) 
Heartbeat CPU 0 instructions: 53000001 cycles: 67675837 heartbeat IPC: 0.74831 cumulative IPC: 0.740196 (Simulation time: 0 hr 30 min 44 sec) 
Heartbeat CPU 0 instructions: 54000000 cycles: 68989384 heartbeat IPC: 0.761297 cumulative IPC: 0.740662 (Simulation time: 0 hr 31 min 20 sec) 
Heartbeat CPU 0 instructions: 55000001 cycles: 70294879 heartbeat IPC: 0.765994 cumulative IPC: 0.741207 (Simulation time: 0 hr 31 min 56 sec) 
Heartbeat CPU 0 instructions: 56000000 cycles: 71618668 heartbeat IPC: 0.755407 cumulative IPC: 0.74151 (Simulation time: 0 hr 32 min 31 sec) 
Heartbeat CPU 0 instructions: 57000001 cycles: 72952505 heartbeat IPC: 0.749718 cumulative IPC: 0.741683 (Simulation time: 0 hr 33 min 5 sec) 
Heartbeat CPU 0 instructions: 58000000 cycles: 74325621 heartbeat IPC: 0.72827 cumulative IPC: 0.741398 (Simulation time: 0 hr 33 min 46 sec) 
Heartbeat CPU 0 instructions: 59000000 cycles: 75719349 heartbeat IPC: 0.7175 cumulative IPC: 0.740895 (Simulation time: 0 hr 34 min 24 sec) 
Heartbeat CPU 0 instructions: 60000000 cycles: 77093429 heartbeat IPC: 0.72776 cumulative IPC: 0.740627 (Simulation time: 0 hr 35 min 0 sec) 
Heartbeat CPU 0 instructions: 61000000 cycles: 78422992 heartbeat IPC: 0.752127 cumulative IPC: 0.740849 (Simulation time: 0 hr 35 min 35 sec) 
Heartbeat CPU 0 instructions: 62000002 cycles: 79783311 heartbeat IPC: 0.735123 cumulative IPC: 0.740739 (Simulation time: 0 hr 36 min 14 sec) 
Heartbeat CPU 0 instructions: 63000003 cycles: 81098174 heartbeat IPC: 0.760536 cumulative IPC: 0.741103 (Simulation time: 0 hr 36 min 50 sec) 
Heartbeat CPU 0 instructions: 64000000 cycles: 82415870 heartbeat IPC: 0.758898 cumulative IPC: 0.741424 (Simulation time: 0 hr 37 min 24 sec) 
Heartbeat CPU 0 instructions: 65000000 cycles: 83756801 heartbeat IPC: 0.745751 cumulative IPC: 0.741503 (Simulation time: 0 hr 38 min 1 sec) 
Heartbeat CPU 0 instructions: 66000002 cycles: 85145408 heartbeat IPC: 0.720148 cumulative IPC: 0.74111 (Simulation time: 0 hr 38 min 36 sec) 
Heartbeat CPU 0 instructions: 67000002 cycles: 86530907 heartbeat IPC: 0.721762 cumulative IPC: 0.740762 (Simulation time: 0 hr 39 min 17 sec) 
Heartbeat CPU 0 instructions: 68000000 cycles: 87881621 heartbeat IPC: 0.740348 cumulative IPC: 0.740755 (Simulation time: 0 hr 39 min 56 sec) 
Heartbeat CPU 0 instructions: 69000000 cycles: 89209400 heartbeat IPC: 0.753137 cumulative IPC: 0.740961 (Simulation time: 0 hr 40 min 33 sec) 
Heartbeat CPU 0 instructions: 70000000 cycles: 90535303 heartbeat IPC: 0.754203 cumulative IPC: 0.741178 (Simulation time: 0 hr 41 min 8 sec) 
Heartbeat CPU 0 instructions: 71000003 cycles: 91876223 heartbeat IPC: 0.745759 cumulative IPC: 0.741253 (Simulation time: 0 hr 41 min 45 sec) 
Heartbeat CPU 0 instructions: 72000000 cycles: 93213562 heartbeat IPC: 0.747751 cumulative IPC: 0.741357 (Simulation time: 0 hr 42 min 19 sec) 
Heartbeat CPU 0 instructions: 73000003 cycles: 94579705 heartbeat IPC: 0.73199 cumulative IPC: 0.741206 (Simulation time: 0 hr 42 min 53 sec) 
Heartbeat CPU 0 instructions: 74000001 cycles: 95976286 heartbeat IPC: 0.716033 cumulative IPC: 0.740799 (Simulation time: 0 hr 43 min 26 sec) 
Heartbeat CPU 0 instructions: 75000003 cycles: 97348936 heartbeat IPC: 0.728519 cumulative IPC: 0.740607 (Simulation time: 0 hr 44 min 3 sec) 
Heartbeat CPU 0 instructions: 76000000 cycles: 98690824 heartbeat IPC: 0.745216 cumulative IPC: 0.740677 (Simulation time: 0 hr 44 min 38 sec) 
Heartbeat CPU 0 instructions: 77000003 cycles: 100023034 heartbeat IPC: 0.750635 cumulative IPC: 0.740823 (Simulation time: 0 hr 45 min 13 sec) 
Heartbeat CPU 0 instructions: 78000001 cycles: 101354162 heartbeat IPC: 0.751241 cumulative IPC: 0.740974 (Simulation time: 0 hr 45 min 47 sec) 
Heartbeat CPU 0 instructions: 79000000 cycles: 102707857 heartbeat IPC: 0.738718 cumulative IPC: 0.740941 (Simulation time: 0 hr 46 min 21 sec) 
Heartbeat CPU 0 instructions: 80000000 cycles: 104053122 heartbeat IPC: 0.743348 cumulative IPC: 0.740976 (Simulation time: 0 hr 46 min 55 sec) 
Heartbeat CPU 0 instructions: 81000002 cycles: 105430654 heartbeat IPC: 0.725937 cumulative IPC: 0.74076 (Simulation time: 0 hr 47 min 31 sec) 
Heartbeat CPU 0 instructions: 82000000 cycles: 106800517 heartbeat IPC: 0.729999 cumulative IPC: 0.740608 (Simulation time: 0 hr 48 min 5 sec) 
Heartbeat CPU 0 instructions: 83000003 cycles: 108131508 heartbeat IPC: 0.751322 cumulative IPC: 0.740753 (Simulation time: 0 hr 48 min 39 sec) 
Heartbeat CPU 0 instructions: 84000000 cycles: 109473234 heartbeat IPC: 0.745306 cumulative IPC: 0.740814 (Simulation time: 0 hr 49 min 15 sec) 
Heartbeat CPU 0 instructions: 85000002 cycles: 110786759 heartbeat IPC: 0.761312 cumulative IPC: 0.74108 (Simulation time: 0 hr 49 min 51 sec) 
Heartbeat CPU 0 instructions: 86000003 cycles: 112089012 heartbeat IPC: 0.767901 cumulative IPC: 0.741421 (Simulation time: 0 hr 50 min 25 sec) 
Heartbeat CPU 0 instructions: 87000000 cycles: 113470116 heartbeat IPC: 0.724056 cumulative IPC: 0.74119 (Simulation time: 0 hr 50 min 56 sec) 
Heartbeat CPU 0 instructions: 88000000 cycles: 114819321 heartbeat IPC: 0.741177 cumulative IPC: 0.74119 (Simulation time: 0 hr 51 min 28 sec) 
Heartbeat CPU 0 instructions: 89000000 cycles: 116177421 heartbeat IPC: 0.736323 cumulative IPC: 0.741128 (Simulation time: 0 hr 52 min 0 sec) 
Heartbeat CPU 0 instructions: 90000000 cycles: 117495068 heartbeat IPC: 0.758929 cumulative IPC: 0.741345 (Simulation time: 0 hr 52 min 31 sec) 
Heartbeat CPU 0 instructions: 91000001 cycles: 118801745 heartbeat IPC: 0.765301 cumulative IPC: 0.741632 (Simulation time: 0 hr 53 min 1 sec) 
Heartbeat CPU 0 instructions: 92000000 cycles: 120119143 heartbeat IPC: 0.759071 cumulative IPC: 0.741839 (Simulation time: 0 hr 53 min 29 sec) 
Heartbeat CPU 0 instructions: 93000003 cycles: 121499947 heartbeat IPC: 0.724218 cumulative IPC: 0.741622 (Simulation time: 0 hr 53 min 57 sec) 
Heartbeat CPU 0 instructions: 94000000 cycles: 122843064 heartbeat IPC: 0.744535 cumulative IPC: 0.741657 (Simulation time: 0 hr 54 min 22 sec) 
Heartbeat CPU 0 instructions: 95000000 cycles: 124192690 heartbeat IPC: 0.740946 cumulative IPC: 0.741648 (Simulation time: 0 hr 54 min 44 sec) 
Heartbeat CPU 0 instructions: 96000000 cycles: 125525650 heartbeat IPC: 0.75021 cumulative IPC: 0.741747 (Simulation time: 0 hr 55 min 6 sec) 
Heartbeat CPU 0 instructions: 97000000 cycles: 126835728 heartbeat IPC: 0.763313 cumulative IPC: 0.741988 (Simulation time: 0 hr 55 min 28 sec) 
Heartbeat CPU 0 instructions: 98000003 cycles: 128142925 heartbeat IPC: 0.764998 cumulative IPC: 0.742241 (Simulation time: 0 hr 55 min 50 sec) 
Heartbeat CPU 0 instructions: 99000000 cycles: 129528965 heartbeat IPC: 0.721478 cumulative IPC: 0.742001 (Simulation time: 0 hr 56 min 10 sec) 
Heartbeat CPU 0 instructions: 100000000 cycles: 130870279 heartbeat IPC: 0.745538 cumulative IPC: 0.74204 (Simulation time: 0 hr 56 min 31 sec) 
Heartbeat CPU 0 instructions: 101000000 cycles: 132216803 heartbeat IPC: 0.742653 cumulative IPC: 0.742047 (Simulation time: 0 hr 56 min 50 sec) 
Heartbeat CPU 0 instructions: 102000001 cycles: 133529032 heartbeat IPC: 0.762063 cumulative IPC: 0.742259 (Simulation time: 0 hr 57 min 9 sec) 
Heartbeat CPU 0 instructions: 103000001 cycles: 134830385 heartbeat IPC: 0.768431 cumulative IPC: 0.742531 (Simulation time: 0 hr 57 min 30 sec) 
Heartbeat CPU 0 instructions: 104000000 cycles: 136132193 heartbeat IPC: 0.768162 cumulative IPC: 0.742795 (Simulation time: 0 hr 57 min 51 sec) 
Heartbeat CPU 0 instructions: 105000002 cycles: 137508598 heartbeat IPC: 0.726532 cumulative IPC: 0.74262 (Simulation time: 0 hr 58 min 12 sec) 
Heartbeat CPU 0 instructions: 106000000 cycles: 138913373 heartbeat IPC: 0.711856 cumulative IPC: 0.742286 (Simulation time: 0 hr 58 min 31 sec) 
Heartbeat CPU 0 instructions: 107000002 cycles: 140302255 heartbeat IPC: 0.720005 cumulative IPC: 0.742049 (Simulation time: 0 hr 58 min 51 sec) 
Heartbeat CPU 0 instructions: 108000000 cycles: 141658231 heartbeat IPC: 0.737475 cumulative IPC: 0.742002 (Simulation time: 0 hr 59 min 10 sec) 
Heartbeat CPU 0 instructions: 109000000 cycles: 142994326 heartbeat IPC: 0.74845 cumulative IPC: 0.742066 (Simulation time: 0 hr 59 min 28 sec) 
Heartbeat CPU 0 instructions: 110000000 cycles: 144321997 heartbeat IPC: 0.753199 cumulative IPC: 0.742176 (Simulation time: 0 hr 59 min 47 sec) 
Finished CPU 0 instructions: 100000003 cycles: 134738901 cummulative IPC: 0.742176 (Simulation time: 0 hr 59 min 47 sec) 

ChampSim completed all CPUs

Region of Interest Statistics

CPU 0 cummulative IPC: 0.742176 instructions: 100000003 cycles: 134738901
LLC TOTAL     ACCESS:   21346123  HIT:   21272827  MISS:      73296
LLC LOAD      ACCESS:     165900  HIT:     131125  MISS:      34775
LLC RFO       ACCESS:   10463422  HIT:   10457725  MISS:       5697
LLC PREFETCH  ACCESS:     183313  HIT:     150667  MISS:      32646
LLC WRITEBACK ACCESS:   10533488  HIT:   10533310  MISS:        178
Insertion Distribution: 
	LOAD 7044 0 14981 16411 
	RFO 0 0 10507 3437 
	PREF 0 4419 13557 17712 
	WRITEBACK 0 0 0 180 
Total Prefetch Downgrades: 5310
