
*** ChampSim Multicore Out-of-Order Simulator ***

Warmup Instructions: 10000000
Simulation Instructions: 100000000
Configuration: 2
Number of CPUs: 1
LLC sets: 2048
LLC ways: 16
Off-chip DRAM Channels: 1 Width: 64-bit Data Rate: 1600 MT/s

CPU 0 runs /datasets/cs240c-wi22-a00-public/data/Assignment2-gz/omnetpp_340B.trace.gz
CPU 0 L1D next line prefetcher
CPU 0 L2C IP-based stride prefetcher
Initialize SRRIP state
Heartbeat CPU 0 instructions: 1000001 cycles: 576944 heartbeat IPC: 1.73327 cumulative IPC: 1.73327 (Simulation time: 0 hr 0 min 42 sec) 
Heartbeat CPU 0 instructions: 2000000 cycles: 1160914 heartbeat IPC: 1.71241 cumulative IPC: 1.72278 (Simulation time: 0 hr 1 min 20 sec) 
Heartbeat CPU 0 instructions: 3000001 cycles: 1758200 heartbeat IPC: 1.67424 cumulative IPC: 1.70629 (Simulation time: 0 hr 2 min 0 sec) 
Heartbeat CPU 0 instructions: 4000000 cycles: 2379160 heartbeat IPC: 1.61041 cumulative IPC: 1.68127 (Simulation time: 0 hr 2 min 47 sec) 
Heartbeat CPU 0 instructions: 5000002 cycles: 2954497 heartbeat IPC: 1.73812 cumulative IPC: 1.69234 (Simulation time: 0 hr 3 min 27 sec) 
Heartbeat CPU 0 instructions: 6000003 cycles: 3555951 heartbeat IPC: 1.66264 cumulative IPC: 1.68731 (Simulation time: 0 hr 4 min 5 sec) 
Heartbeat CPU 0 instructions: 7000003 cycles: 4205399 heartbeat IPC: 1.53977 cumulative IPC: 1.66453 (Simulation time: 0 hr 4 min 45 sec) 
Heartbeat CPU 0 instructions: 8000000 cycles: 4800057 heartbeat IPC: 1.68163 cumulative IPC: 1.66665 (Simulation time: 0 hr 5 min 22 sec) 
Heartbeat CPU 0 instructions: 9000002 cycles: 5433529 heartbeat IPC: 1.5786 cumulative IPC: 1.65638 (Simulation time: 0 hr 6 min 7 sec) 
Heartbeat CPU 0 instructions: 10000002 cycles: 6028091 heartbeat IPC: 1.68191 cumulative IPC: 1.6589 (Simulation time: 0 hr 6 min 43 sec) 

Warmup complete CPU 0 instructions: 10000002 cycles: 6028091 (Simulation time: 0 hr 6 min 43 sec) 

Heartbeat CPU 0 instructions: 11000000 cycles: 9686834 heartbeat IPC: 0.273317 cumulative IPC: 0.273317 (Simulation time: 0 hr 7 min 27 sec) 
Heartbeat CPU 0 instructions: 12000000 cycles: 13171353 heartbeat IPC: 0.286984 cumulative IPC: 0.279984 (Simulation time: 0 hr 8 min 11 sec) 
Heartbeat CPU 0 instructions: 13000000 cycles: 17042969 heartbeat IPC: 0.25829 cumulative IPC: 0.272359 (Simulation time: 0 hr 8 min 57 sec) 
Heartbeat CPU 0 instructions: 14000001 cycles: 20865854 heartbeat IPC: 0.261583 cumulative IPC: 0.269582 (Simulation time: 0 hr 9 min 47 sec) 
Heartbeat CPU 0 instructions: 15000003 cycles: 24702273 heartbeat IPC: 0.26066 cumulative IPC: 0.267749 (Simulation time: 0 hr 10 min 39 sec) 
Heartbeat CPU 0 instructions: 16000000 cycles: 28809571 heartbeat IPC: 0.243468 cumulative IPC: 0.263372 (Simulation time: 0 hr 11 min 27 sec) 
Heartbeat CPU 0 instructions: 17000000 cycles: 32520635 heartbeat IPC: 0.269464 cumulative IPC: 0.264225 (Simulation time: 0 hr 12 min 20 sec) 
Heartbeat CPU 0 instructions: 18000000 cycles: 36397627 heartbeat IPC: 0.257932 cumulative IPC: 0.263422 (Simulation time: 0 hr 13 min 4 sec) 
Heartbeat CPU 0 instructions: 19000000 cycles: 40700169 heartbeat IPC: 0.232421 cumulative IPC: 0.259575 (Simulation time: 0 hr 13 min 52 sec) 
Heartbeat CPU 0 instructions: 20000000 cycles: 44732894 heartbeat IPC: 0.247971 cumulative IPC: 0.258366 (Simulation time: 0 hr 14 min 41 sec) 
Heartbeat CPU 0 instructions: 21000000 cycles: 48181823 heartbeat IPC: 0.289945 cumulative IPC: 0.26095 (Simulation time: 0 hr 15 min 28 sec) 
Heartbeat CPU 0 instructions: 22000001 cycles: 52063789 heartbeat IPC: 0.257602 cumulative IPC: 0.260667 (Simulation time: 0 hr 16 min 17 sec) 
Heartbeat CPU 0 instructions: 23000001 cycles: 55888671 heartbeat IPC: 0.261446 cumulative IPC: 0.260727 (Simulation time: 0 hr 17 min 5 sec) 
Heartbeat CPU 0 instructions: 24000000 cycles: 59668623 heartbeat IPC: 0.264553 cumulative IPC: 0.260997 (Simulation time: 0 hr 17 min 54 sec) 
Heartbeat CPU 0 instructions: 25000000 cycles: 63714425 heartbeat IPC: 0.24717 cumulative IPC: 0.260027 (Simulation time: 0 hr 18 min 40 sec) 
Heartbeat CPU 0 instructions: 26000001 cycles: 67750859 heartbeat IPC: 0.247744 cumulative IPC: 0.259224 (Simulation time: 0 hr 19 min 26 sec) 
Heartbeat CPU 0 instructions: 27000000 cycles: 71771248 heartbeat IPC: 0.248732 cumulative IPC: 0.258582 (Simulation time: 0 hr 20 min 14 sec) 
Heartbeat CPU 0 instructions: 28000000 cycles: 75813722 heartbeat IPC: 0.247373 cumulative IPC: 0.257933 (Simulation time: 0 hr 21 min 7 sec) 
Heartbeat CPU 0 instructions: 29000003 cycles: 79899237 heartbeat IPC: 0.244768 cumulative IPC: 0.257205 (Simulation time: 0 hr 21 min 54 sec) 
Heartbeat CPU 0 instructions: 30000000 cycles: 83555422 heartbeat IPC: 0.273508 cumulative IPC: 0.257974 (Simulation time: 0 hr 22 min 35 sec) 
Heartbeat CPU 0 instructions: 31000000 cycles: 87398168 heartbeat IPC: 0.260231 cumulative IPC: 0.25808 (Simulation time: 0 hr 23 min 22 sec) 
Heartbeat CPU 0 instructions: 32000000 cycles: 91158663 heartbeat IPC: 0.265922 cumulative IPC: 0.258427 (Simulation time: 0 hr 24 min 16 sec) 
Heartbeat CPU 0 instructions: 33000003 cycles: 94889638 heartbeat IPC: 0.268027 cumulative IPC: 0.25883 (Simulation time: 0 hr 25 min 9 sec) 
Heartbeat CPU 0 instructions: 34000001 cycles: 99020772 heartbeat IPC: 0.242064 cumulative IPC: 0.258085 (Simulation time: 0 hr 25 min 56 sec) 
Heartbeat CPU 0 instructions: 35000002 cycles: 102533174 heartbeat IPC: 0.284706 cumulative IPC: 0.259054 (Simulation time: 0 hr 26 min 42 sec) 
Heartbeat CPU 0 instructions: 36000000 cycles: 106794407 heartbeat IPC: 0.234673 cumulative IPC: 0.258023 (Simulation time: 0 hr 27 min 32 sec) 
Heartbeat CPU 0 instructions: 37000000 cycles: 111136869 heartbeat IPC: 0.230284 cumulative IPC: 0.256877 (Simulation time: 0 hr 28 min 19 sec) 
Heartbeat CPU 0 instructions: 38000000 cycles: 114883851 heartbeat IPC: 0.266881 cumulative IPC: 0.257221 (Simulation time: 0 hr 29 min 2 sec) 
Heartbeat CPU 0 instructions: 39000001 cycles: 119028630 heartbeat IPC: 0.241268 cumulative IPC: 0.256636 (Simulation time: 0 hr 29 min 49 sec) 
Heartbeat CPU 0 instructions: 40000000 cycles: 122498431 heartbeat IPC: 0.288201 cumulative IPC: 0.257576 (Simulation time: 0 hr 30 min 33 sec) 
Heartbeat CPU 0 instructions: 41000000 cycles: 126190976 heartbeat IPC: 0.270816 cumulative IPC: 0.257983 (Simulation time: 0 hr 31 min 22 sec) 
Heartbeat CPU 0 instructions: 42000001 cycles: 130455412 heartbeat IPC: 0.234498 cumulative IPC: 0.257178 (Simulation time: 0 hr 32 min 8 sec) 
Heartbeat CPU 0 instructions: 43000001 cycles: 134580306 heartbeat IPC: 0.24243 cumulative IPC: 0.256705 (Simulation time: 0 hr 32 min 53 sec) 
Heartbeat CPU 0 instructions: 44000000 cycles: 138271810 heartbeat IPC: 0.270892 cumulative IPC: 0.257101 (Simulation time: 0 hr 33 min 37 sec) 
Heartbeat CPU 0 instructions: 45000003 cycles: 142153406 heartbeat IPC: 0.257627 cumulative IPC: 0.257116 (Simulation time: 0 hr 34 min 24 sec) 
Heartbeat CPU 0 instructions: 46000003 cycles: 146301051 heartbeat IPC: 0.241101 cumulative IPC: 0.256642 (Simulation time: 0 hr 35 min 10 sec) 
Heartbeat CPU 0 instructions: 47000000 cycles: 149610030 heartbeat IPC: 0.302207 cumulative IPC: 0.257693 (Simulation time: 0 hr 35 min 54 sec) 
Heartbeat CPU 0 instructions: 48000000 cycles: 153625129 heartbeat IPC: 0.24906 cumulative IPC: 0.257458 (Simulation time: 0 hr 36 min 40 sec) 
Heartbeat CPU 0 instructions: 49000000 cycles: 156712037 heartbeat IPC: 0.323949 cumulative IPC: 0.25882 (Simulation time: 0 hr 37 min 21 sec) 
Heartbeat CPU 0 instructions: 50000001 cycles: 160784218 heartbeat IPC: 0.245569 cumulative IPC: 0.258471 (Simulation time: 0 hr 38 min 5 sec) 
Heartbeat CPU 0 instructions: 51000003 cycles: 164553778 heartbeat IPC: 0.265283 cumulative IPC: 0.258633 (Simulation time: 0 hr 38 min 58 sec) 
Heartbeat CPU 0 instructions: 52000000 cycles: 168559493 heartbeat IPC: 0.249643 cumulative IPC: 0.258412 (Simulation time: 0 hr 39 min 53 sec) 
Heartbeat CPU 0 instructions: 53000000 cycles: 173033895 heartbeat IPC: 0.223494 cumulative IPC: 0.257476 (Simulation time: 0 hr 40 min 40 sec) 
Heartbeat CPU 0 instructions: 54000002 cycles: 177150159 heartbeat IPC: 0.242939 cumulative IPC: 0.257126 (Simulation time: 0 hr 41 min 30 sec) 
Heartbeat CPU 0 instructions: 55000001 cycles: 181038801 heartbeat IPC: 0.257159 cumulative IPC: 0.257127 (Simulation time: 0 hr 42 min 18 sec) 
Heartbeat CPU 0 instructions: 56000000 cycles: 185296830 heartbeat IPC: 0.23485 cumulative IPC: 0.256598 (Simulation time: 0 hr 43 min 4 sec) 
Heartbeat CPU 0 instructions: 57000001 cycles: 189352782 heartbeat IPC: 0.246551 cumulative IPC: 0.256376 (Simulation time: 0 hr 43 min 52 sec) 
Heartbeat CPU 0 instructions: 58000000 cycles: 192642595 heartbeat IPC: 0.303968 cumulative IPC: 0.257215 (Simulation time: 0 hr 44 min 35 sec) 
Heartbeat CPU 0 instructions: 59000003 cycles: 196525822 heartbeat IPC: 0.257519 cumulative IPC: 0.257221 (Simulation time: 0 hr 45 min 25 sec) 
Heartbeat CPU 0 instructions: 60000000 cycles: 200868949 heartbeat IPC: 0.230248 cumulative IPC: 0.25662 (Simulation time: 0 hr 46 min 12 sec) 
Heartbeat CPU 0 instructions: 61000001 cycles: 205114251 heartbeat IPC: 0.235555 cumulative IPC: 0.25617 (Simulation time: 0 hr 46 min 59 sec) 
Heartbeat CPU 0 instructions: 62000000 cycles: 209363912 heartbeat IPC: 0.235313 cumulative IPC: 0.255735 (Simulation time: 0 hr 47 min 43 sec) 
Heartbeat CPU 0 instructions: 63000001 cycles: 213008039 heartbeat IPC: 0.274414 cumulative IPC: 0.256063 (Simulation time: 0 hr 48 min 25 sec) 
Heartbeat CPU 0 instructions: 64000000 cycles: 216806329 heartbeat IPC: 0.263276 cumulative IPC: 0.256193 (Simulation time: 0 hr 49 min 6 sec) 
Heartbeat CPU 0 instructions: 65000001 cycles: 220322784 heartbeat IPC: 0.284378 cumulative IPC: 0.256656 (Simulation time: 0 hr 49 min 45 sec) 
Heartbeat CPU 0 instructions: 66000002 cycles: 224430699 heartbeat IPC: 0.243433 cumulative IPC: 0.256407 (Simulation time: 0 hr 50 min 23 sec) 
Heartbeat CPU 0 instructions: 67000002 cycles: 228306180 heartbeat IPC: 0.258033 cumulative IPC: 0.256436 (Simulation time: 0 hr 51 min 1 sec) 
Heartbeat CPU 0 instructions: 68000000 cycles: 232144594 heartbeat IPC: 0.260524 cumulative IPC: 0.256505 (Simulation time: 0 hr 51 min 40 sec) 
Heartbeat CPU 0 instructions: 69000000 cycles: 236144386 heartbeat IPC: 0.250013 cumulative IPC: 0.256392 (Simulation time: 0 hr 52 min 19 sec) 
Heartbeat CPU 0 instructions: 70000001 cycles: 239816425 heartbeat IPC: 0.272329 cumulative IPC: 0.256642 (Simulation time: 0 hr 52 min 56 sec) 
Heartbeat CPU 0 instructions: 71000003 cycles: 243715641 heartbeat IPC: 0.256462 cumulative IPC: 0.256639 (Simulation time: 0 hr 53 min 36 sec) 
Heartbeat CPU 0 instructions: 72000000 cycles: 248122318 heartbeat IPC: 0.226928 cumulative IPC: 0.256099 (Simulation time: 0 hr 54 min 13 sec) 
Heartbeat CPU 0 instructions: 73000002 cycles: 252138925 heartbeat IPC: 0.248967 cumulative IPC: 0.255982 (Simulation time: 0 hr 54 min 46 sec) 
Heartbeat CPU 0 instructions: 74000000 cycles: 256008470 heartbeat IPC: 0.258428 cumulative IPC: 0.25602 (Simulation time: 0 hr 55 min 17 sec) 
Heartbeat CPU 0 instructions: 75000003 cycles: 260054300 heartbeat IPC: 0.247169 cumulative IPC: 0.255879 (Simulation time: 0 hr 55 min 48 sec) 
Heartbeat CPU 0 instructions: 76000000 cycles: 263854243 heartbeat IPC: 0.263161 cumulative IPC: 0.255986 (Simulation time: 0 hr 56 min 17 sec) 
Heartbeat CPU 0 instructions: 77000002 cycles: 268328176 heartbeat IPC: 0.223517 cumulative IPC: 0.255433 (Simulation time: 0 hr 56 min 44 sec) 
Heartbeat CPU 0 instructions: 78000003 cycles: 272133117 heartbeat IPC: 0.262816 cumulative IPC: 0.255538 (Simulation time: 0 hr 57 min 10 sec) 
Heartbeat CPU 0 instructions: 79000002 cycles: 275997686 heartbeat IPC: 0.258761 cumulative IPC: 0.255584 (Simulation time: 0 hr 57 min 35 sec) 
Heartbeat CPU 0 instructions: 80000000 cycles: 279835579 heartbeat IPC: 0.260559 cumulative IPC: 0.255654 (Simulation time: 0 hr 58 min 0 sec) 
Heartbeat CPU 0 instructions: 81000002 cycles: 283958486 heartbeat IPC: 0.242548 cumulative IPC: 0.25546 (Simulation time: 0 hr 58 min 27 sec) 
Heartbeat CPU 0 instructions: 82000000 cycles: 288393701 heartbeat IPC: 0.225468 cumulative IPC: 0.254989 (Simulation time: 0 hr 58 min 54 sec) 
Heartbeat CPU 0 instructions: 83000002 cycles: 292134901 heartbeat IPC: 0.267294 cumulative IPC: 0.255149 (Simulation time: 0 hr 59 min 19 sec) 
Heartbeat CPU 0 instructions: 84000000 cycles: 296093371 heartbeat IPC: 0.252622 cumulative IPC: 0.255115 (Simulation time: 0 hr 59 min 42 sec) 
Heartbeat CPU 0 instructions: 85000000 cycles: 299989134 heartbeat IPC: 0.256689 cumulative IPC: 0.255136 (Simulation time: 1 hr 0 min 2 sec) 
Heartbeat CPU 0 instructions: 86000000 cycles: 304035193 heartbeat IPC: 0.247154 cumulative IPC: 0.255027 (Simulation time: 1 hr 0 min 24 sec) 
Heartbeat CPU 0 instructions: 87000001 cycles: 307816347 heartbeat IPC: 0.26447 cumulative IPC: 0.255146 (Simulation time: 1 hr 0 min 44 sec) 
Heartbeat CPU 0 instructions: 88000000 cycles: 311628406 heartbeat IPC: 0.262325 cumulative IPC: 0.255235 (Simulation time: 1 hr 1 min 4 sec) 
Heartbeat CPU 0 instructions: 89000003 cycles: 315181540 heartbeat IPC: 0.281443 cumulative IPC: 0.255537 (Simulation time: 1 hr 1 min 24 sec) 
Heartbeat CPU 0 instructions: 90000000 cycles: 319067756 heartbeat IPC: 0.257319 cumulative IPC: 0.255559 (Simulation time: 1 hr 1 min 42 sec) 
Heartbeat CPU 0 instructions: 91000001 cycles: 322610043 heartbeat IPC: 0.282304 cumulative IPC: 0.255858 (Simulation time: 1 hr 1 min 59 sec) 
Heartbeat CPU 0 instructions: 92000000 cycles: 326635713 heartbeat IPC: 0.248406 cumulative IPC: 0.255764 (Simulation time: 1 hr 2 min 17 sec) 
Heartbeat CPU 0 instructions: 93000001 cycles: 331015917 heartbeat IPC: 0.2283 cumulative IPC: 0.255394 (Simulation time: 1 hr 2 min 33 sec) 
Heartbeat CPU 0 instructions: 94000001 cycles: 334814788 heartbeat IPC: 0.263236 cumulative IPC: 0.255485 (Simulation time: 1 hr 2 min 45 sec) 
Heartbeat CPU 0 instructions: 95000000 cycles: 338775901 heartbeat IPC: 0.252454 cumulative IPC: 0.255449 (Simulation time: 1 hr 2 min 57 sec) 
Heartbeat CPU 0 instructions: 96000000 cycles: 343071594 heartbeat IPC: 0.232791 cumulative IPC: 0.25516 (Simulation time: 1 hr 3 min 8 sec) 
Heartbeat CPU 0 instructions: 97000000 cycles: 346723620 heartbeat IPC: 0.273821 cumulative IPC: 0.25536 (Simulation time: 1 hr 3 min 17 sec) 
Heartbeat CPU 0 instructions: 98000000 cycles: 350900279 heartbeat IPC: 0.239426 cumulative IPC: 0.255167 (Simulation time: 1 hr 3 min 27 sec) 
Heartbeat CPU 0 instructions: 99000000 cycles: 355293627 heartbeat IPC: 0.227617 cumulative IPC: 0.25482 (Simulation time: 1 hr 3 min 37 sec) 
Heartbeat CPU 0 instructions: 100000000 cycles: 359369588 heartbeat IPC: 0.245341 cumulative IPC: 0.254711 (Simulation time: 1 hr 3 min 46 sec) 
Heartbeat CPU 0 instructions: 101000000 cycles: 363303534 heartbeat IPC: 0.254198 cumulative IPC: 0.254705 (Simulation time: 1 hr 3 min 54 sec) 
Heartbeat CPU 0 instructions: 102000003 cycles: 367451876 heartbeat IPC: 0.241061 cumulative IPC: 0.254549 (Simulation time: 1 hr 4 min 2 sec) 
Heartbeat CPU 0 instructions: 103000000 cycles: 371329783 heartbeat IPC: 0.25787 cumulative IPC: 0.254584 (Simulation time: 1 hr 4 min 8 sec) 
Heartbeat CPU 0 instructions: 104000000 cycles: 375129865 heartbeat IPC: 0.263152 cumulative IPC: 0.254672 (Simulation time: 1 hr 4 min 13 sec) 
Heartbeat CPU 0 instructions: 105000003 cycles: 379215696 heartbeat IPC: 0.244749 cumulative IPC: 0.254564 (Simulation time: 1 hr 4 min 19 sec) 
Heartbeat CPU 0 instructions: 106000001 cycles: 382839700 heartbeat IPC: 0.275937 cumulative IPC: 0.254769 (Simulation time: 1 hr 4 min 25 sec) 
Heartbeat CPU 0 instructions: 107000000 cycles: 386995538 heartbeat IPC: 0.240625 cumulative IPC: 0.254615 (Simulation time: 1 hr 4 min 31 sec) 
Heartbeat CPU 0 instructions: 108000000 cycles: 390914285 heartbeat IPC: 0.255184 cumulative IPC: 0.254621 (Simulation time: 1 hr 4 min 37 sec) 
Heartbeat CPU 0 instructions: 109000000 cycles: 395296326 heartbeat IPC: 0.228204 cumulative IPC: 0.254323 (Simulation time: 1 hr 4 min 43 sec) 
Heartbeat CPU 0 instructions: 110000000 cycles: 398944685 heartbeat IPC: 0.274096 cumulative IPC: 0.254507 (Simulation time: 1 hr 4 min 48 sec) 
Finished CPU 0 instructions: 100000000 cycles: 392916598 cummulative IPC: 0.254507 (Simulation time: 1 hr 4 min 48 sec) 

ChampSim completed all CPUs

Region of Interest Statistics

CPU 0 cummulative IPC: 0.254507 instructions: 100000000 cycles: 392916598
LLC TOTAL     ACCESS:    4309304  HIT:    1396965  MISS:    2912339
LLC LOAD      ACCESS:    1523195  HIT:     446136  MISS:    1077059
LLC RFO       ACCESS:     250288  HIT:      92656  MISS:     157632
LLC PREFETCH  ACCESS:    1529781  HIT:     183785  MISS:    1345996
LLC WRITEBACK ACCESS:    1006040  HIT:     674388  MISS:     331652
Insertion Distribution: 
	LOAD 201498 0 183510 790191 
	RFO 77816 0 56599 39981 
	PREF 0 14259 65768 1412446 
	WRITEBACK 0 0 0 361886 
Total Prefetch Downgrades: 19012
