
*** ChampSim Multicore Out-of-Order Simulator ***

Warmup Instructions: 10000000
Simulation Instructions: 100000000
Configuration: 2
Number of CPUs: 1
LLC sets: 2048
LLC ways: 16
Off-chip DRAM Channels: 1 Width: 64-bit Data Rate: 1600 MT/s

CPU 0 runs /datasets/cs240c-wi22-a00-public/data/Assignment2-gz/cactusADM_734B.trace.gz
CPU 0 L1D next line prefetcher
CPU 0 L2C IP-based stride prefetcher
Initialize SRRIP state
Heartbeat CPU 0 instructions: 1000003 cycles: 592726 heartbeat IPC: 1.68713 cumulative IPC: 1.68713 (Simulation time: 0 hr 0 min 37 sec) 
Heartbeat CPU 0 instructions: 2000001 cycles: 1185927 heartbeat IPC: 1.68577 cumulative IPC: 1.68645 (Simulation time: 0 hr 1 min 12 sec) 
Heartbeat CPU 0 instructions: 3000003 cycles: 1778979 heartbeat IPC: 1.6862 cumulative IPC: 1.68636 (Simulation time: 0 hr 1 min 49 sec) 
Heartbeat CPU 0 instructions: 4000000 cycles: 2371929 heartbeat IPC: 1.68648 cumulative IPC: 1.68639 (Simulation time: 0 hr 2 min 28 sec) 
Heartbeat CPU 0 instructions: 5000000 cycles: 2965279 heartbeat IPC: 1.68535 cumulative IPC: 1.68618 (Simulation time: 0 hr 3 min 3 sec) 
Heartbeat CPU 0 instructions: 6000002 cycles: 3558551 heartbeat IPC: 1.68557 cumulative IPC: 1.68608 (Simulation time: 0 hr 3 min 39 sec) 
Heartbeat CPU 0 instructions: 7000000 cycles: 4151394 heartbeat IPC: 1.68678 cumulative IPC: 1.68618 (Simulation time: 0 hr 4 min 17 sec) 
Heartbeat CPU 0 instructions: 8000000 cycles: 4744343 heartbeat IPC: 1.68649 cumulative IPC: 1.68622 (Simulation time: 0 hr 4 min 51 sec) 
Heartbeat CPU 0 instructions: 9000001 cycles: 5337493 heartbeat IPC: 1.68592 cumulative IPC: 1.68619 (Simulation time: 0 hr 5 min 26 sec) 
Heartbeat CPU 0 instructions: 10000003 cycles: 5958967 heartbeat IPC: 1.60908 cumulative IPC: 1.67814 (Simulation time: 0 hr 6 min 2 sec) 

Warmup complete CPU 0 instructions: 10000003 cycles: 5958967 (Simulation time: 0 hr 6 min 2 sec) 

Heartbeat CPU 0 instructions: 11000002 cycles: 12570736 heartbeat IPC: 0.151245 cumulative IPC: 0.151245 (Simulation time: 0 hr 6 min 44 sec) 
Heartbeat CPU 0 instructions: 12000000 cycles: 14313180 heartbeat IPC: 0.573905 cumulative IPC: 0.2394 (Simulation time: 0 hr 7 min 24 sec) 
Heartbeat CPU 0 instructions: 13000002 cycles: 16001122 heartbeat IPC: 0.592439 cumulative IPC: 0.298741 (Simulation time: 0 hr 8 min 2 sec) 
Heartbeat CPU 0 instructions: 14000000 cycles: 17686174 heartbeat IPC: 0.593452 cumulative IPC: 0.341087 (Simulation time: 0 hr 8 min 41 sec) 
Heartbeat CPU 0 instructions: 15000003 cycles: 19425933 heartbeat IPC: 0.574794 cumulative IPC: 0.371279 (Simulation time: 0 hr 9 min 19 sec) 
Heartbeat CPU 0 instructions: 16000000 cycles: 21168676 heartbeat IPC: 0.573806 cumulative IPC: 0.394485 (Simulation time: 0 hr 9 min 58 sec) 
Heartbeat CPU 0 instructions: 17000002 cycles: 22902435 heartbeat IPC: 0.576783 cumulative IPC: 0.413139 (Simulation time: 0 hr 10 min 35 sec) 
Heartbeat CPU 0 instructions: 18000001 cycles: 24560616 heartbeat IPC: 0.60307 cumulative IPC: 0.430069 (Simulation time: 0 hr 11 min 13 sec) 
Heartbeat CPU 0 instructions: 19000000 cycles: 26277507 heartbeat IPC: 0.582448 cumulative IPC: 0.442945 (Simulation time: 0 hr 11 min 51 sec) 
Heartbeat CPU 0 instructions: 20000000 cycles: 28020259 heartbeat IPC: 0.573805 cumulative IPC: 0.453282 (Simulation time: 0 hr 12 min 28 sec) 
Heartbeat CPU 0 instructions: 21000002 cycles: 29763574 heartbeat IPC: 0.573621 cumulative IPC: 0.462095 (Simulation time: 0 hr 13 min 3 sec) 
Heartbeat CPU 0 instructions: 22000000 cycles: 31472615 heartbeat IPC: 0.585122 cumulative IPC: 0.470336 (Simulation time: 0 hr 13 min 37 sec) 
Heartbeat CPU 0 instructions: 23000001 cycles: 33136692 heartbeat IPC: 0.600934 cumulative IPC: 0.478333 (Simulation time: 0 hr 14 min 13 sec) 
Heartbeat CPU 0 instructions: 24000000 cycles: 40709630 heartbeat IPC: 0.132049 cumulative IPC: 0.40287 (Simulation time: 0 hr 14 min 59 sec) 
Heartbeat CPU 0 instructions: 25000000 cycles: 42448864 heartbeat IPC: 0.574966 cumulative IPC: 0.411073 (Simulation time: 0 hr 15 min 36 sec) 
Heartbeat CPU 0 instructions: 26000002 cycles: 44180796 heartbeat IPC: 0.577391 cumulative IPC: 0.418609 (Simulation time: 0 hr 16 min 14 sec) 
Heartbeat CPU 0 instructions: 27000002 cycles: 45841255 heartbeat IPC: 0.602243 cumulative IPC: 0.426254 (Simulation time: 0 hr 16 min 51 sec) 
Heartbeat CPU 0 instructions: 28000000 cycles: 47563955 heartbeat IPC: 0.580483 cumulative IPC: 0.43264 (Simulation time: 0 hr 17 min 26 sec) 
Heartbeat CPU 0 instructions: 29000001 cycles: 49320032 heartbeat IPC: 0.569452 cumulative IPC: 0.438181 (Simulation time: 0 hr 18 min 5 sec) 
Heartbeat CPU 0 instructions: 30000001 cycles: 51058655 heartbeat IPC: 0.575168 cumulative IPC: 0.443462 (Simulation time: 0 hr 18 min 44 sec) 
Heartbeat CPU 0 instructions: 31000003 cycles: 52768940 heartbeat IPC: 0.584699 cumulative IPC: 0.448622 (Simulation time: 0 hr 19 min 24 sec) 
Heartbeat CPU 0 instructions: 32000000 cycles: 54425754 heartbeat IPC: 0.603566 cumulative IPC: 0.453919 (Simulation time: 0 hr 20 min 1 sec) 
Heartbeat CPU 0 instructions: 33000000 cycles: 56158892 heartbeat IPC: 0.576988 cumulative IPC: 0.458168 (Simulation time: 0 hr 20 min 40 sec) 
Heartbeat CPU 0 instructions: 34000001 cycles: 57900193 heartbeat IPC: 0.574284 cumulative IPC: 0.462061 (Simulation time: 0 hr 21 min 18 sec) 
Heartbeat CPU 0 instructions: 35000000 cycles: 59636722 heartbeat IPC: 0.575861 cumulative IPC: 0.465742 (Simulation time: 0 hr 21 min 57 sec) 
Heartbeat CPU 0 instructions: 36000000 cycles: 61318721 heartbeat IPC: 0.594531 cumulative IPC: 0.469655 (Simulation time: 0 hr 22 min 35 sec) 
Heartbeat CPU 0 instructions: 37000003 cycles: 68837110 heartbeat IPC: 0.133008 cumulative IPC: 0.429402 (Simulation time: 0 hr 23 min 20 sec) 
Heartbeat CPU 0 instructions: 38000001 cycles: 70573832 heartbeat IPC: 0.575796 cumulative IPC: 0.433337 (Simulation time: 0 hr 24 min 1 sec) 
Heartbeat CPU 0 instructions: 39000001 cycles: 72311905 heartbeat IPC: 0.57535 cumulative IPC: 0.437057 (Simulation time: 0 hr 24 min 37 sec) 
Heartbeat CPU 0 instructions: 40000000 cycles: 74027459 heartbeat IPC: 0.582901 cumulative IPC: 0.440733 (Simulation time: 0 hr 25 min 15 sec) 
Heartbeat CPU 0 instructions: 41000001 cycles: 75679445 heartbeat IPC: 0.605333 cumulative IPC: 0.444633 (Simulation time: 0 hr 25 min 52 sec) 
Heartbeat CPU 0 instructions: 42000002 cycles: 77412248 heartbeat IPC: 0.5771 cumulative IPC: 0.447845 (Simulation time: 0 hr 26 min 27 sec) 
Heartbeat CPU 0 instructions: 43000000 cycles: 79150529 heartbeat IPC: 0.57528 cumulative IPC: 0.450872 (Simulation time: 0 hr 27 min 6 sec) 
Heartbeat CPU 0 instructions: 44000000 cycles: 80888744 heartbeat IPC: 0.575303 cumulative IPC: 0.453758 (Simulation time: 0 hr 27 min 44 sec) 
Heartbeat CPU 0 instructions: 45000000 cycles: 82570810 heartbeat IPC: 0.594507 cumulative IPC: 0.456848 (Simulation time: 0 hr 28 min 21 sec) 
Heartbeat CPU 0 instructions: 46000003 cycles: 84252283 heartbeat IPC: 0.594718 cumulative IPC: 0.459809 (Simulation time: 0 hr 28 min 57 sec) 
Heartbeat CPU 0 instructions: 47000001 cycles: 85988546 heartbeat IPC: 0.575948 cumulative IPC: 0.462329 (Simulation time: 0 hr 29 min 34 sec) 
Heartbeat CPU 0 instructions: 48000000 cycles: 87727734 heartbeat IPC: 0.57498 cumulative IPC: 0.464725 (Simulation time: 0 hr 30 min 14 sec) 
Heartbeat CPU 0 instructions: 49000000 cycles: 89462853 heartbeat IPC: 0.576329 cumulative IPC: 0.467044 (Simulation time: 0 hr 30 min 53 sec) 
Heartbeat CPU 0 instructions: 50000001 cycles: 96909745 heartbeat IPC: 0.134284 cumulative IPC: 0.439798 (Simulation time: 0 hr 31 min 39 sec) 
Heartbeat CPU 0 instructions: 51000000 cycles: 98637967 heartbeat IPC: 0.578629 cumulative IPC: 0.442387 (Simulation time: 0 hr 32 min 19 sec) 
Heartbeat CPU 0 instructions: 52000000 cycles: 100375680 heartbeat IPC: 0.575469 cumulative IPC: 0.444836 (Simulation time: 0 hr 32 min 59 sec) 
Heartbeat CPU 0 instructions: 53000003 cycles: 102113731 heartbeat IPC: 0.575359 cumulative IPC: 0.447196 (Simulation time: 0 hr 33 min 37 sec) 
Heartbeat CPU 0 instructions: 54000000 cycles: 103800243 heartbeat IPC: 0.592938 cumulative IPC: 0.449708 (Simulation time: 0 hr 34 min 15 sec) 
Heartbeat CPU 0 instructions: 55000001 cycles: 105475184 heartbeat IPC: 0.597037 cumulative IPC: 0.452188 (Simulation time: 0 hr 34 min 52 sec) 
Heartbeat CPU 0 instructions: 56000000 cycles: 107226535 heartbeat IPC: 0.570987 cumulative IPC: 0.454242 (Simulation time: 0 hr 35 min 33 sec) 
Heartbeat CPU 0 instructions: 57000000 cycles: 108975932 heartbeat IPC: 0.571626 cumulative IPC: 0.456235 (Simulation time: 0 hr 36 min 12 sec) 
Heartbeat CPU 0 instructions: 58000001 cycles: 110708850 heartbeat IPC: 0.577062 cumulative IPC: 0.458234 (Simulation time: 0 hr 36 min 49 sec) 
Heartbeat CPU 0 instructions: 59000000 cycles: 112367118 heartbeat IPC: 0.603038 cumulative IPC: 0.460491 (Simulation time: 0 hr 37 min 26 sec) 
Heartbeat CPU 0 instructions: 60000000 cycles: 114072991 heartbeat IPC: 0.58621 cumulative IPC: 0.462475 (Simulation time: 0 hr 38 min 4 sec) 
Heartbeat CPU 0 instructions: 61000002 cycles: 115812725 heartbeat IPC: 0.574802 cumulative IPC: 0.464254 (Simulation time: 0 hr 38 min 45 sec) 
Heartbeat CPU 0 instructions: 62000002 cycles: 117553005 heartbeat IPC: 0.57462 cumulative IPC: 0.465975 (Simulation time: 0 hr 39 min 24 sec) 
Heartbeat CPU 0 instructions: 63000002 cycles: 124916573 heartbeat IPC: 0.135804 cumulative IPC: 0.445537 (Simulation time: 0 hr 40 min 9 sec) 
Heartbeat CPU 0 instructions: 64000000 cycles: 126865143 heartbeat IPC: 0.513196 cumulative IPC: 0.446627 (Simulation time: 0 hr 40 min 47 sec) 
Heartbeat CPU 0 instructions: 65000003 cycles: 128600954 heartbeat IPC: 0.576101 cumulative IPC: 0.44846 (Simulation time: 0 hr 41 min 24 sec) 
Heartbeat CPU 0 instructions: 66000001 cycles: 130340938 heartbeat IPC: 0.574717 cumulative IPC: 0.450226 (Simulation time: 0 hr 42 min 2 sec) 
Heartbeat CPU 0 instructions: 67000000 cycles: 132076468 heartbeat IPC: 0.576192 cumulative IPC: 0.451959 (Simulation time: 0 hr 42 min 40 sec) 
Heartbeat CPU 0 instructions: 68000000 cycles: 133738354 heartbeat IPC: 0.601726 cumulative IPC: 0.453907 (Simulation time: 0 hr 43 min 17 sec) 
Heartbeat CPU 0 instructions: 69000000 cycles: 135438627 heartbeat IPC: 0.588141 cumulative IPC: 0.45567 (Simulation time: 0 hr 43 min 55 sec) 
Heartbeat CPU 0 instructions: 70000001 cycles: 137178796 heartbeat IPC: 0.574657 cumulative IPC: 0.457248 (Simulation time: 0 hr 44 min 33 sec) 
Heartbeat CPU 0 instructions: 71000001 cycles: 138919882 heartbeat IPC: 0.574354 cumulative IPC: 0.458781 (Simulation time: 0 hr 45 min 11 sec) 
Heartbeat CPU 0 instructions: 72000000 cycles: 140640805 heartbeat IPC: 0.581083 cumulative IPC: 0.460344 (Simulation time: 0 hr 45 min 47 sec) 
Heartbeat CPU 0 instructions: 73000003 cycles: 142290475 heartbeat IPC: 0.606184 cumulative IPC: 0.462109 (Simulation time: 0 hr 46 min 26 sec) 
Heartbeat CPU 0 instructions: 74000002 cycles: 144022837 heartbeat IPC: 0.577246 cumulative IPC: 0.463554 (Simulation time: 0 hr 47 min 3 sec) 
Heartbeat CPU 0 instructions: 75000002 cycles: 145763227 heartbeat IPC: 0.574584 cumulative IPC: 0.464936 (Simulation time: 0 hr 47 min 40 sec) 
Heartbeat CPU 0 instructions: 76000000 cycles: 151935282 heartbeat IPC: 0.16202 cumulative IPC: 0.452128 (Simulation time: 0 hr 48 min 23 sec) 
Heartbeat CPU 0 instructions: 77000000 cycles: 155121203 heartbeat IPC: 0.313881 cumulative IPC: 0.449175 (Simulation time: 0 hr 49 min 2 sec) 
Heartbeat CPU 0 instructions: 78000002 cycles: 156817420 heartbeat IPC: 0.589548 cumulative IPC: 0.450754 (Simulation time: 0 hr 49 min 36 sec) 
Heartbeat CPU 0 instructions: 79000002 cycles: 158557724 heartbeat IPC: 0.574612 cumulative IPC: 0.452166 (Simulation time: 0 hr 50 min 9 sec) 
Heartbeat CPU 0 instructions: 80000000 cycles: 160294012 heartbeat IPC: 0.57594 cumulative IPC: 0.453559 (Simulation time: 0 hr 50 min 41 sec) 
Heartbeat CPU 0 instructions: 81000000 cycles: 162021184 heartbeat IPC: 0.578981 cumulative IPC: 0.454947 (Simulation time: 0 hr 51 min 13 sec) 
Heartbeat CPU 0 instructions: 82000003 cycles: 163665801 heartbeat IPC: 0.608046 cumulative IPC: 0.456543 (Simulation time: 0 hr 51 min 45 sec) 
Heartbeat CPU 0 instructions: 83000003 cycles: 165394486 heartbeat IPC: 0.578474 cumulative IPC: 0.457865 (Simulation time: 0 hr 52 min 17 sec) 
Heartbeat CPU 0 instructions: 84000000 cycles: 167132159 heartbeat IPC: 0.575481 cumulative IPC: 0.459133 (Simulation time: 0 hr 52 min 49 sec) 
Heartbeat CPU 0 instructions: 85000003 cycles: 168872181 heartbeat IPC: 0.574707 cumulative IPC: 0.460368 (Simulation time: 0 hr 53 min 21 sec) 
Heartbeat CPU 0 instructions: 86000000 cycles: 170567062 heartbeat IPC: 0.59001 cumulative IPC: 0.461703 (Simulation time: 0 hr 53 min 52 sec) 
Heartbeat CPU 0 instructions: 87000000 cycles: 172240797 heartbeat IPC: 0.597466 cumulative IPC: 0.463069 (Simulation time: 0 hr 54 min 21 sec) 
Heartbeat CPU 0 instructions: 88000000 cycles: 174007999 heartbeat IPC: 0.565866 cumulative IPC: 0.46415 (Simulation time: 0 hr 54 min 47 sec) 
Heartbeat CPU 0 instructions: 89000002 cycles: 179106449 heartbeat IPC: 0.196138 cumulative IPC: 0.456258 (Simulation time: 0 hr 55 min 14 sec) 
Heartbeat CPU 0 instructions: 90000002 cycles: 183364274 heartbeat IPC: 0.234862 cumulative IPC: 0.450945 (Simulation time: 0 hr 55 min 41 sec) 
Heartbeat CPU 0 instructions: 91000003 cycles: 185013707 heartbeat IPC: 0.60627 cumulative IPC: 0.452376 (Simulation time: 0 hr 56 min 7 sec) 
Heartbeat CPU 0 instructions: 92000000 cycles: 186743008 heartbeat IPC: 0.578267 cumulative IPC: 0.45358 (Simulation time: 0 hr 56 min 31 sec) 
Heartbeat CPU 0 instructions: 93000000 cycles: 188482103 heartbeat IPC: 0.575012 cumulative IPC: 0.454737 (Simulation time: 0 hr 56 min 53 sec) 
Heartbeat CPU 0 instructions: 94000003 cycles: 190224234 heartbeat IPC: 0.574011 cumulative IPC: 0.455865 (Simulation time: 0 hr 57 min 16 sec) 
Heartbeat CPU 0 instructions: 95000000 cycles: 191924731 heartbeat IPC: 0.588062 cumulative IPC: 0.457073 (Simulation time: 0 hr 57 min 38 sec) 
Heartbeat CPU 0 instructions: 96000000 cycles: 193595585 heartbeat IPC: 0.598496 cumulative IPC: 0.458333 (Simulation time: 0 hr 57 min 59 sec) 
Heartbeat CPU 0 instructions: 97000001 cycles: 195332226 heartbeat IPC: 0.575825 cumulative IPC: 0.45941 (Simulation time: 0 hr 58 min 20 sec) 
Heartbeat CPU 0 instructions: 98000000 cycles: 197073609 heartbeat IPC: 0.574256 cumulative IPC: 0.460457 (Simulation time: 0 hr 58 min 41 sec) 
Heartbeat CPU 0 instructions: 99000001 cycles: 198813879 heartbeat IPC: 0.574624 cumulative IPC: 0.461487 (Simulation time: 0 hr 59 min 2 sec) 
Heartbeat CPU 0 instructions: 100000000 cycles: 200484297 heartbeat IPC: 0.598652 cumulative IPC: 0.462665 (Simulation time: 0 hr 59 min 23 sec) 
Heartbeat CPU 0 instructions: 101000000 cycles: 202186936 heartbeat IPC: 0.587324 cumulative IPC: 0.463746 (Simulation time: 0 hr 59 min 42 sec) 
Heartbeat CPU 0 instructions: 102000000 cycles: 206204143 heartbeat IPC: 0.248929 cumulative IPC: 0.459437 (Simulation time: 1 hr 0 min 1 sec) 
Heartbeat CPU 0 instructions: 103000000 cycles: 211552469 heartbeat IPC: 0.186974 cumulative IPC: 0.452349 (Simulation time: 1 hr 0 min 21 sec) 
Heartbeat CPU 0 instructions: 104000000 cycles: 213257019 heartbeat IPC: 0.586665 cumulative IPC: 0.453453 (Simulation time: 1 hr 0 min 40 sec) 
Heartbeat CPU 0 instructions: 105000000 cycles: 214921014 heartbeat IPC: 0.600963 cumulative IPC: 0.454628 (Simulation time: 1 hr 0 min 58 sec) 
Heartbeat CPU 0 instructions: 106000002 cycles: 216655211 heartbeat IPC: 0.576637 cumulative IPC: 0.455632 (Simulation time: 1 hr 1 min 14 sec) 
Heartbeat CPU 0 instructions: 107000001 cycles: 218396303 heartbeat IPC: 0.574352 cumulative IPC: 0.456605 (Simulation time: 1 hr 1 min 31 sec) 
Heartbeat CPU 0 instructions: 108000000 cycles: 220132405 heartbeat IPC: 0.576002 cumulative IPC: 0.457573 (Simulation time: 1 hr 1 min 47 sec) 
Heartbeat CPU 0 instructions: 109000001 cycles: 221806017 heartbeat IPC: 0.597511 cumulative IPC: 0.458658 (Simulation time: 1 hr 2 min 2 sec) 
Heartbeat CPU 0 instructions: 110000003 cycles: 223499463 heartbeat IPC: 0.590513 cumulative IPC: 0.459685 (Simulation time: 1 hr 2 min 17 sec) 
Finished CPU 0 instructions: 100000000 cycles: 217540496 cummulative IPC: 0.459685 (Simulation time: 1 hr 2 min 17 sec) 

ChampSim completed all CPUs

Region of Interest Statistics

CPU 0 cummulative IPC: 0.459685 instructions: 100000000 cycles: 217540496
LLC TOTAL     ACCESS:    1164275  HIT:     330338  MISS:     833937
LLC LOAD      ACCESS:      21885  HIT:       2237  MISS:      19648
LLC RFO       ACCESS:     264086  HIT:      77337  MISS:     186749
LLC PREFETCH  ACCESS:     612200  HIT:     136957  MISS:     475243
LLC WRITEBACK ACCESS:     266104  HIT:     113807  MISS:     152297
Insertion Distribution: 
	LOAD 0 0 10962 9877 
	RFO 11253 0 20198 167782 
	PREF 0 45296 68015 411979 
	WRITEBACK 0 0 0 154701 
Total Prefetch Downgrades: 51017
