
*** ChampSim Multicore Out-of-Order Simulator ***

Warmup Instructions: 10000000
Simulation Instructions: 100000000
Configuration: 2
Number of CPUs: 1
LLC sets: 2048
LLC ways: 16
Off-chip DRAM Channels: 1 Width: 64-bit Data Rate: 1600 MT/s

CPU 0 runs /datasets/cs240c-wi22-a00-public/data/Assignment2-gz/milc_409B.trace.gz
CPU 0 L1D next line prefetcher
CPU 0 L2C IP-based stride prefetcher
Initialize SRRIP state
Heartbeat CPU 0 instructions: 1000002 cycles: 407040 heartbeat IPC: 2.45677 cumulative IPC: 2.45677 (Simulation time: 0 hr 0 min 28 sec) 
Heartbeat CPU 0 instructions: 2000002 cycles: 889868 heartbeat IPC: 2.07113 cumulative IPC: 2.24753 (Simulation time: 0 hr 0 min 59 sec) 
Heartbeat CPU 0 instructions: 3000003 cycles: 1672035 heartbeat IPC: 1.2785 cumulative IPC: 1.79422 (Simulation time: 0 hr 1 min 37 sec) 
Heartbeat CPU 0 instructions: 4000000 cycles: 2454292 heartbeat IPC: 1.27835 cumulative IPC: 1.6298 (Simulation time: 0 hr 2 min 15 sec) 
Heartbeat CPU 0 instructions: 5000000 cycles: 3135412 heartbeat IPC: 1.46817 cumulative IPC: 1.59469 (Simulation time: 0 hr 2 min 48 sec) 
Heartbeat CPU 0 instructions: 6000003 cycles: 3679804 heartbeat IPC: 1.83692 cumulative IPC: 1.63052 (Simulation time: 0 hr 3 min 16 sec) 
Heartbeat CPU 0 instructions: 7000002 cycles: 4224110 heartbeat IPC: 1.8372 cumulative IPC: 1.65715 (Simulation time: 0 hr 3 min 47 sec) 
Heartbeat CPU 0 instructions: 8000000 cycles: 4768518 heartbeat IPC: 1.83685 cumulative IPC: 1.67767 (Simulation time: 0 hr 4 min 17 sec) 
Heartbeat CPU 0 instructions: 9000003 cycles: 5312844 heartbeat IPC: 1.83714 cumulative IPC: 1.69401 (Simulation time: 0 hr 4 min 47 sec) 
Heartbeat CPU 0 instructions: 10000000 cycles: 5857232 heartbeat IPC: 1.83692 cumulative IPC: 1.70729 (Simulation time: 0 hr 5 min 17 sec) 

Warmup complete CPU 0 instructions: 10000002 cycles: 5857233 (Simulation time: 0 hr 5 min 17 sec) 

Heartbeat CPU 0 instructions: 11000002 cycles: 7514448 heartbeat IPC: 0.603423 cumulative IPC: 0.603422 (Simulation time: 0 hr 5 min 51 sec) 
Heartbeat CPU 0 instructions: 12000000 cycles: 9174143 heartbeat IPC: 0.602519 cumulative IPC: 0.60297 (Simulation time: 0 hr 6 min 23 sec) 
Heartbeat CPU 0 instructions: 13000003 cycles: 10831733 heartbeat IPC: 0.603287 cumulative IPC: 0.603076 (Simulation time: 0 hr 6 min 55 sec) 
Heartbeat CPU 0 instructions: 14000002 cycles: 12490285 heartbeat IPC: 0.602935 cumulative IPC: 0.603041 (Simulation time: 0 hr 7 min 31 sec) 
Heartbeat CPU 0 instructions: 15000001 cycles: 14146259 heartbeat IPC: 0.603874 cumulative IPC: 0.603207 (Simulation time: 0 hr 8 min 4 sec) 
Heartbeat CPU 0 instructions: 16000000 cycles: 15806610 heartbeat IPC: 0.602282 cumulative IPC: 0.603053 (Simulation time: 0 hr 8 min 39 sec) 
Heartbeat CPU 0 instructions: 17000002 cycles: 17467376 heartbeat IPC: 0.602133 cumulative IPC: 0.602921 (Simulation time: 0 hr 9 min 12 sec) 
Heartbeat CPU 0 instructions: 18000000 cycles: 19126366 heartbeat IPC: 0.602775 cumulative IPC: 0.602903 (Simulation time: 0 hr 9 min 48 sec) 
Heartbeat CPU 0 instructions: 19000003 cycles: 20783015 heartbeat IPC: 0.60363 cumulative IPC: 0.602984 (Simulation time: 0 hr 10 min 22 sec) 
Heartbeat CPU 0 instructions: 20000000 cycles: 22440139 heartbeat IPC: 0.603453 cumulative IPC: 0.603031 (Simulation time: 0 hr 10 min 56 sec) 
Heartbeat CPU 0 instructions: 21000001 cycles: 24092938 heartbeat IPC: 0.605035 cumulative IPC: 0.603212 (Simulation time: 0 hr 11 min 29 sec) 
Heartbeat CPU 0 instructions: 22000002 cycles: 25752252 heartbeat IPC: 0.602659 cumulative IPC: 0.603166 (Simulation time: 0 hr 12 min 3 sec) 
Heartbeat CPU 0 instructions: 23000002 cycles: 27410702 heartbeat IPC: 0.602973 cumulative IPC: 0.603151 (Simulation time: 0 hr 12 min 36 sec) 
Heartbeat CPU 0 instructions: 24000000 cycles: 29065776 heartbeat IPC: 0.604201 cumulative IPC: 0.603226 (Simulation time: 0 hr 13 min 7 sec) 
Heartbeat CPU 0 instructions: 25000002 cycles: 30726496 heartbeat IPC: 0.60215 cumulative IPC: 0.603154 (Simulation time: 0 hr 13 min 37 sec) 
Heartbeat CPU 0 instructions: 26000000 cycles: 32380814 heartbeat IPC: 0.604477 cumulative IPC: 0.603237 (Simulation time: 0 hr 14 min 9 sec) 
Heartbeat CPU 0 instructions: 27000002 cycles: 34031929 heartbeat IPC: 0.605653 cumulative IPC: 0.603378 (Simulation time: 0 hr 14 min 45 sec) 
Heartbeat CPU 0 instructions: 28000000 cycles: 35693870 heartbeat IPC: 0.601705 cumulative IPC: 0.603285 (Simulation time: 0 hr 15 min 20 sec) 
Heartbeat CPU 0 instructions: 29000002 cycles: 37342542 heartbeat IPC: 0.60655 cumulative IPC: 0.603456 (Simulation time: 0 hr 15 min 57 sec) 
Heartbeat CPU 0 instructions: 30000000 cycles: 38995454 heartbeat IPC: 0.604992 cumulative IPC: 0.603533 (Simulation time: 0 hr 16 min 33 sec) 
Heartbeat CPU 0 instructions: 31000000 cycles: 40652132 heartbeat IPC: 0.603618 cumulative IPC: 0.603537 (Simulation time: 0 hr 17 min 7 sec) 
Heartbeat CPU 0 instructions: 32000000 cycles: 42309301 heartbeat IPC: 0.603439 cumulative IPC: 0.603532 (Simulation time: 0 hr 17 min 42 sec) 
Heartbeat CPU 0 instructions: 33000000 cycles: 43967801 heartbeat IPC: 0.602954 cumulative IPC: 0.603507 (Simulation time: 0 hr 18 min 18 sec) 
Heartbeat CPU 0 instructions: 34000000 cycles: 45628621 heartbeat IPC: 0.602112 cumulative IPC: 0.603449 (Simulation time: 0 hr 18 min 53 sec) 
Heartbeat CPU 0 instructions: 35000002 cycles: 47281786 heartbeat IPC: 0.604901 cumulative IPC: 0.603507 (Simulation time: 0 hr 19 min 27 sec) 
Heartbeat CPU 0 instructions: 36000000 cycles: 48936179 heartbeat IPC: 0.60445 cumulative IPC: 0.603543 (Simulation time: 0 hr 20 min 0 sec) 
Heartbeat CPU 0 instructions: 37000000 cycles: 50593086 heartbeat IPC: 0.603534 cumulative IPC: 0.603543 (Simulation time: 0 hr 20 min 37 sec) 
Heartbeat CPU 0 instructions: 38000002 cycles: 52247160 heartbeat IPC: 0.604569 cumulative IPC: 0.603579 (Simulation time: 0 hr 21 min 13 sec) 
Heartbeat CPU 0 instructions: 39000001 cycles: 53904097 heartbeat IPC: 0.603523 cumulative IPC: 0.603577 (Simulation time: 0 hr 21 min 48 sec) 
Heartbeat CPU 0 instructions: 40000000 cycles: 55562043 heartbeat IPC: 0.603155 cumulative IPC: 0.603563 (Simulation time: 0 hr 22 min 24 sec) 
Heartbeat CPU 0 instructions: 41000002 cycles: 57215418 heartbeat IPC: 0.604825 cumulative IPC: 0.603604 (Simulation time: 0 hr 22 min 58 sec) 
Heartbeat CPU 0 instructions: 42000001 cycles: 58871884 heartbeat IPC: 0.603694 cumulative IPC: 0.603607 (Simulation time: 0 hr 23 min 35 sec) 
Heartbeat CPU 0 instructions: 43000000 cycles: 60527759 heartbeat IPC: 0.60391 cumulative IPC: 0.603616 (Simulation time: 0 hr 24 min 11 sec) 
Heartbeat CPU 0 instructions: 44000000 cycles: 62188347 heartbeat IPC: 0.602196 cumulative IPC: 0.603574 (Simulation time: 0 hr 24 min 45 sec) 
Heartbeat CPU 0 instructions: 45000000 cycles: 63844035 heartbeat IPC: 0.603979 cumulative IPC: 0.603586 (Simulation time: 0 hr 25 min 19 sec) 
Heartbeat CPU 0 instructions: 46000000 cycles: 65500377 heartbeat IPC: 0.60374 cumulative IPC: 0.60359 (Simulation time: 0 hr 25 min 52 sec) 
Heartbeat CPU 0 instructions: 47000002 cycles: 67158830 heartbeat IPC: 0.602973 cumulative IPC: 0.603573 (Simulation time: 0 hr 26 min 25 sec) 
Heartbeat CPU 0 instructions: 48000000 cycles: 68815690 heartbeat IPC: 0.60355 cumulative IPC: 0.603573 (Simulation time: 0 hr 26 min 58 sec) 
Heartbeat CPU 0 instructions: 49000000 cycles: 70466270 heartbeat IPC: 0.605848 cumulative IPC: 0.603631 (Simulation time: 0 hr 27 min 34 sec) 
Heartbeat CPU 0 instructions: 50000001 cycles: 72122941 heartbeat IPC: 0.603621 cumulative IPC: 0.60363 (Simulation time: 0 hr 28 min 8 sec) 
Heartbeat CPU 0 instructions: 51000002 cycles: 73776572 heartbeat IPC: 0.60473 cumulative IPC: 0.603657 (Simulation time: 0 hr 28 min 39 sec) 
Heartbeat CPU 0 instructions: 52000000 cycles: 75621359 heartbeat IPC: 0.542067 cumulative IPC: 0.602029 (Simulation time: 0 hr 29 min 14 sec) 
Heartbeat CPU 0 instructions: 53000001 cycles: 77780403 heartbeat IPC: 0.463168 cumulative IPC: 0.59786 (Simulation time: 0 hr 29 min 53 sec) 
Heartbeat CPU 0 instructions: 54000001 cycles: 79994948 heartbeat IPC: 0.45156 cumulative IPC: 0.59349 (Simulation time: 0 hr 30 min 33 sec) 
Heartbeat CPU 0 instructions: 55000002 cycles: 82238251 heartbeat IPC: 0.445772 cumulative IPC: 0.589152 (Simulation time: 0 hr 31 min 12 sec) 
Heartbeat CPU 0 instructions: 56000000 cycles: 84482947 heartbeat IPC: 0.445494 cumulative IPC: 0.58505 (Simulation time: 0 hr 31 min 52 sec) 
Heartbeat CPU 0 instructions: 57000000 cycles: 86727518 heartbeat IPC: 0.445519 cumulative IPC: 0.581178 (Simulation time: 0 hr 32 min 32 sec) 
Heartbeat CPU 0 instructions: 58000002 cycles: 88937678 heartbeat IPC: 0.452457 cumulative IPC: 0.577753 (Simulation time: 0 hr 33 min 14 sec) 
Heartbeat CPU 0 instructions: 59000001 cycles: 90716956 heartbeat IPC: 0.562025 cumulative IPC: 0.577424 (Simulation time: 0 hr 33 min 52 sec) 
Heartbeat CPU 0 instructions: 60000000 cycles: 92374249 heartbeat IPC: 0.603393 cumulative IPC: 0.577921 (Simulation time: 0 hr 34 min 28 sec) 
Heartbeat CPU 0 instructions: 61000000 cycles: 94031749 heartbeat IPC: 0.603318 cumulative IPC: 0.578398 (Simulation time: 0 hr 35 min 3 sec) 
Heartbeat CPU 0 instructions: 62000000 cycles: 95687569 heartbeat IPC: 0.60393 cumulative IPC: 0.578869 (Simulation time: 0 hr 35 min 40 sec) 
Heartbeat CPU 0 instructions: 63000003 cycles: 97353821 heartbeat IPC: 0.600151 cumulative IPC: 0.579257 (Simulation time: 0 hr 36 min 18 sec) 
Heartbeat CPU 0 instructions: 64000000 cycles: 99019767 heartbeat IPC: 0.600258 cumulative IPC: 0.579632 (Simulation time: 0 hr 36 min 49 sec) 
Heartbeat CPU 0 instructions: 65000002 cycles: 100689539 heartbeat IPC: 0.598885 cumulative IPC: 0.579971 (Simulation time: 0 hr 37 min 20 sec) 
Heartbeat CPU 0 instructions: 66000002 cycles: 102351698 heartbeat IPC: 0.601627 cumulative IPC: 0.580344 (Simulation time: 0 hr 37 min 53 sec) 
Heartbeat CPU 0 instructions: 67000001 cycles: 104017175 heartbeat IPC: 0.600428 cumulative IPC: 0.580685 (Simulation time: 0 hr 38 min 26 sec) 
Heartbeat CPU 0 instructions: 68000000 cycles: 105684664 heartbeat IPC: 0.599703 cumulative IPC: 0.581003 (Simulation time: 0 hr 39 min 2 sec) 
Heartbeat CPU 0 instructions: 69000000 cycles: 107355951 heartbeat IPC: 0.598341 cumulative IPC: 0.581288 (Simulation time: 0 hr 39 min 38 sec) 
Heartbeat CPU 0 instructions: 70000000 cycles: 109022541 heartbeat IPC: 0.600028 cumulative IPC: 0.581591 (Simulation time: 0 hr 40 min 12 sec) 
Heartbeat CPU 0 instructions: 71000002 cycles: 110691130 heartbeat IPC: 0.59931 cumulative IPC: 0.581873 (Simulation time: 0 hr 40 min 50 sec) 
Heartbeat CPU 0 instructions: 72000000 cycles: 112359657 heartbeat IPC: 0.59933 cumulative IPC: 0.582146 (Simulation time: 0 hr 41 min 25 sec) 
Heartbeat CPU 0 instructions: 73000003 cycles: 114024581 heartbeat IPC: 0.60063 cumulative IPC: 0.582431 (Simulation time: 0 hr 41 min 57 sec) 
Heartbeat CPU 0 instructions: 74000002 cycles: 115695362 heartbeat IPC: 0.598522 cumulative IPC: 0.582676 (Simulation time: 0 hr 42 min 30 sec) 
Heartbeat CPU 0 instructions: 75000003 cycles: 117360210 heartbeat IPC: 0.600656 cumulative IPC: 0.582944 (Simulation time: 0 hr 43 min 2 sec) 
Heartbeat CPU 0 instructions: 76000000 cycles: 119031073 heartbeat IPC: 0.598491 cumulative IPC: 0.583174 (Simulation time: 0 hr 43 min 37 sec) 
Heartbeat CPU 0 instructions: 77000003 cycles: 120700332 heartbeat IPC: 0.59907 cumulative IPC: 0.583405 (Simulation time: 0 hr 44 min 11 sec) 
Heartbeat CPU 0 instructions: 78000000 cycles: 122366230 heartbeat IPC: 0.600275 cumulative IPC: 0.583646 (Simulation time: 0 hr 44 min 45 sec) 
Heartbeat CPU 0 instructions: 79000000 cycles: 124033617 heartbeat IPC: 0.599741 cumulative IPC: 0.583873 (Simulation time: 0 hr 45 min 18 sec) 
Heartbeat CPU 0 instructions: 80000000 cycles: 125698205 heartbeat IPC: 0.600749 cumulative IPC: 0.584107 (Simulation time: 0 hr 45 min 52 sec) 
Heartbeat CPU 0 instructions: 81000000 cycles: 127363174 heartbeat IPC: 0.600612 cumulative IPC: 0.584334 (Simulation time: 0 hr 46 min 26 sec) 
Heartbeat CPU 0 instructions: 82000002 cycles: 129023182 heartbeat IPC: 0.602408 cumulative IPC: 0.584577 (Simulation time: 0 hr 47 min 0 sec) 
Heartbeat CPU 0 instructions: 83000003 cycles: 130681795 heartbeat IPC: 0.602914 cumulative IPC: 0.584821 (Simulation time: 0 hr 47 min 33 sec) 
Heartbeat CPU 0 instructions: 84000000 cycles: 132340420 heartbeat IPC: 0.602907 cumulative IPC: 0.585058 (Simulation time: 0 hr 48 min 8 sec) 
Heartbeat CPU 0 instructions: 85000001 cycles: 134002711 heartbeat IPC: 0.60158 cumulative IPC: 0.585272 (Simulation time: 0 hr 48 min 41 sec) 
Heartbeat CPU 0 instructions: 86000002 cycles: 135664210 heartbeat IPC: 0.601867 cumulative IPC: 0.585485 (Simulation time: 0 hr 49 min 14 sec) 
Heartbeat CPU 0 instructions: 87000003 cycles: 137325916 heartbeat IPC: 0.601792 cumulative IPC: 0.585691 (Simulation time: 0 hr 49 min 45 sec) 
Heartbeat CPU 0 instructions: 88000000 cycles: 138991201 heartbeat IPC: 0.600496 cumulative IPC: 0.585876 (Simulation time: 0 hr 50 min 16 sec) 
Heartbeat CPU 0 instructions: 89000001 cycles: 140656821 heartbeat IPC: 0.600378 cumulative IPC: 0.586055 (Simulation time: 0 hr 50 min 46 sec) 
Heartbeat CPU 0 instructions: 90000002 cycles: 142319021 heartbeat IPC: 0.601613 cumulative IPC: 0.586245 (Simulation time: 0 hr 51 min 19 sec) 
Heartbeat CPU 0 instructions: 91000000 cycles: 143977630 heartbeat IPC: 0.602914 cumulative IPC: 0.586445 (Simulation time: 0 hr 51 min 50 sec) 
Heartbeat CPU 0 instructions: 92000000 cycles: 145636384 heartbeat IPC: 0.602862 cumulative IPC: 0.58664 (Simulation time: 0 hr 52 min 20 sec) 
Heartbeat CPU 0 instructions: 93000003 cycles: 147300590 heartbeat IPC: 0.600889 cumulative IPC: 0.586807 (Simulation time: 0 hr 52 min 47 sec) 
Heartbeat CPU 0 instructions: 94000002 cycles: 148964522 heartbeat IPC: 0.600985 cumulative IPC: 0.586972 (Simulation time: 0 hr 53 min 16 sec) 
Heartbeat CPU 0 instructions: 95000003 cycles: 150623247 heartbeat IPC: 0.602873 cumulative IPC: 0.587154 (Simulation time: 0 hr 53 min 43 sec) 
Heartbeat CPU 0 instructions: 96000000 cycles: 152285488 heartbeat IPC: 0.601596 cumulative IPC: 0.587318 (Simulation time: 0 hr 54 min 11 sec) 
Heartbeat CPU 0 instructions: 97000001 cycles: 153948258 heartbeat IPC: 0.601407 cumulative IPC: 0.587476 (Simulation time: 0 hr 54 min 36 sec) 
Heartbeat CPU 0 instructions: 98000002 cycles: 155608335 heartbeat IPC: 0.602382 cumulative IPC: 0.587642 (Simulation time: 0 hr 54 min 59 sec) 
Heartbeat CPU 0 instructions: 99000003 cycles: 157271402 heartbeat IPC: 0.601299 cumulative IPC: 0.587792 (Simulation time: 0 hr 55 min 21 sec) 
Heartbeat CPU 0 instructions: 100000000 cycles: 158931501 heartbeat IPC: 0.602372 cumulative IPC: 0.58795 (Simulation time: 0 hr 55 min 43 sec) 
Heartbeat CPU 0 instructions: 101000001 cycles: 160588663 heartbeat IPC: 0.603442 cumulative IPC: 0.588116 (Simulation time: 0 hr 56 min 5 sec) 
Heartbeat CPU 0 instructions: 102000002 cycles: 162252406 heartbeat IPC: 0.601055 cumulative IPC: 0.588253 (Simulation time: 0 hr 56 min 26 sec) 
Heartbeat CPU 0 instructions: 103000000 cycles: 163914898 heartbeat IPC: 0.601505 cumulative IPC: 0.588393 (Simulation time: 0 hr 56 min 46 sec) 
Heartbeat CPU 0 instructions: 104000000 cycles: 165576186 heartbeat IPC: 0.601943 cumulative IPC: 0.588534 (Simulation time: 0 hr 57 min 8 sec) 
Heartbeat CPU 0 instructions: 105000003 cycles: 167432172 heartbeat IPC: 0.538799 cumulative IPC: 0.587962 (Simulation time: 0 hr 57 min 29 sec) 
Heartbeat CPU 0 instructions: 106000003 cycles: 171265635 heartbeat IPC: 0.260861 cumulative IPC: 0.580382 (Simulation time: 0 hr 58 min 0 sec) 
Heartbeat CPU 0 instructions: 107000000 cycles: 173007591 heartbeat IPC: 0.574066 cumulative IPC: 0.580316 (Simulation time: 0 hr 58 min 18 sec) 
Heartbeat CPU 0 instructions: 108000000 cycles: 174734746 heartbeat IPC: 0.578987 cumulative IPC: 0.580302 (Simulation time: 0 hr 58 min 36 sec) 
Heartbeat CPU 0 instructions: 109000001 cycles: 176458019 heartbeat IPC: 0.580292 cumulative IPC: 0.580302 (Simulation time: 0 hr 58 min 52 sec) 
Heartbeat CPU 0 instructions: 110000001 cycles: 178213522 heartbeat IPC: 0.569637 cumulative IPC: 0.580194 (Simulation time: 0 hr 59 min 9 sec) 
Finished CPU 0 instructions: 100000003 cycles: 172356290 cummulative IPC: 0.580194 (Simulation time: 0 hr 59 min 9 sec) 

ChampSim completed all CPUs

Region of Interest Statistics

CPU 0 cummulative IPC: 0.580194 instructions: 100000003 cycles: 172356290
LLC TOTAL     ACCESS:    3300884  HIT:      71911  MISS:    3228973
LLC LOAD      ACCESS:     970501  HIT:        276  MISS:     970225
LLC RFO       ACCESS:     136847  HIT:      12256  MISS:     124591
LLC PREFETCH  ACCESS:    1335447  HIT:       9384  MISS:    1326063
LLC WRITEBACK ACCESS:     858089  HIT:      49995  MISS:     808094
Insertion Distribution: 
	LOAD 0 0 17310 1000631 
	RFO 0 0 40241 225361 
	PREF 0 0 84539 1467428 
	WRITEBACK 0 0 0 952234 
Total Prefetch Downgrades: 0
