
*** ChampSim Multicore Out-of-Order Simulator ***

Warmup Instructions: 10000000
Simulation Instructions: 100000000
Configuration: 2
Number of CPUs: 1
LLC sets: 2048
LLC ways: 16
Off-chip DRAM Channels: 1 Width: 64-bit Data Rate: 1600 MT/s

CPU 0 runs /datasets/cs240c-wi22-a00-public/data/Assignment2-gz/sphinx3_2520B.trace.gz
CPU 0 L1D next line prefetcher
CPU 0 L2C IP-based stride prefetcher
Initialize SRRIP state
Heartbeat CPU 0 instructions: 1000003 cycles: 338965 heartbeat IPC: 2.95017 cumulative IPC: 2.95017 (Simulation time: 0 hr 0 min 29 sec) 
Heartbeat CPU 0 instructions: 2000000 cycles: 737243 heartbeat IPC: 2.5108 cumulative IPC: 2.71281 (Simulation time: 0 hr 1 min 0 sec) 
Heartbeat CPU 0 instructions: 3000003 cycles: 1185241 heartbeat IPC: 2.23216 cumulative IPC: 2.53113 (Simulation time: 0 hr 1 min 24 sec) 
Heartbeat CPU 0 instructions: 4000000 cycles: 1524269 heartbeat IPC: 2.9496 cumulative IPC: 2.62421 (Simulation time: 0 hr 1 min 50 sec) 
Heartbeat CPU 0 instructions: 5000001 cycles: 1902441 heartbeat IPC: 2.6443 cumulative IPC: 2.6282 (Simulation time: 0 hr 2 min 20 sec) 
Heartbeat CPU 0 instructions: 6000001 cycles: 2367880 heartbeat IPC: 2.14851 cumulative IPC: 2.53391 (Simulation time: 0 hr 2 min 46 sec) 
Heartbeat CPU 0 instructions: 7000001 cycles: 2706821 heartbeat IPC: 2.95037 cumulative IPC: 2.58606 (Simulation time: 0 hr 3 min 15 sec) 
Heartbeat CPU 0 instructions: 8000000 cycles: 3055840 heartbeat IPC: 2.86517 cumulative IPC: 2.61794 (Simulation time: 0 hr 3 min 44 sec) 
Heartbeat CPU 0 instructions: 9000000 cycles: 3509270 heartbeat IPC: 2.20541 cumulative IPC: 2.56464 (Simulation time: 0 hr 4 min 12 sec) 
Heartbeat CPU 0 instructions: 10000000 cycles: 3859427 heartbeat IPC: 2.85586 cumulative IPC: 2.59106 (Simulation time: 0 hr 4 min 39 sec) 

Warmup complete CPU 0 instructions: 10000004 cycles: 3859428 (Simulation time: 0 hr 4 min 39 sec) 

Heartbeat CPU 0 instructions: 11000001 cycles: 4642952 heartbeat IPC: 1.27628 cumulative IPC: 1.27628 (Simulation time: 0 hr 5 min 9 sec) 
Heartbeat CPU 0 instructions: 12000000 cycles: 5507687 heartbeat IPC: 1.15642 cumulative IPC: 1.2134 (Simulation time: 0 hr 5 min 42 sec) 
Heartbeat CPU 0 instructions: 13000002 cycles: 6367861 heartbeat IPC: 1.16256 cumulative IPC: 1.19596 (Simulation time: 0 hr 6 min 17 sec) 
Heartbeat CPU 0 instructions: 14000002 cycles: 7136216 heartbeat IPC: 1.30148 cumulative IPC: 1.22071 (Simulation time: 0 hr 6 min 45 sec) 
Heartbeat CPU 0 instructions: 15000003 cycles: 8014233 heartbeat IPC: 1.13893 cumulative IPC: 1.20343 (Simulation time: 0 hr 7 min 16 sec) 
Heartbeat CPU 0 instructions: 16000000 cycles: 8842273 heartbeat IPC: 1.20767 cumulative IPC: 1.20413 (Simulation time: 0 hr 7 min 45 sec) 
Heartbeat CPU 0 instructions: 17000000 cycles: 9591394 heartbeat IPC: 1.3349 cumulative IPC: 1.22122 (Simulation time: 0 hr 8 min 16 sec) 
Heartbeat CPU 0 instructions: 18000002 cycles: 10446790 heartbeat IPC: 1.16905 cumulative IPC: 1.21445 (Simulation time: 0 hr 8 min 49 sec) 
Heartbeat CPU 0 instructions: 19000001 cycles: 11264074 heartbeat IPC: 1.22356 cumulative IPC: 1.21545 (Simulation time: 0 hr 9 min 20 sec) 
Heartbeat CPU 0 instructions: 20000000 cycles: 12016421 heartbeat IPC: 1.32917 cumulative IPC: 1.22594 (Simulation time: 0 hr 9 min 51 sec) 
Heartbeat CPU 0 instructions: 21000001 cycles: 13184618 heartbeat IPC: 0.856021 cumulative IPC: 1.1796 (Simulation time: 0 hr 10 min 24 sec) 
Heartbeat CPU 0 instructions: 22000002 cycles: 14133563 heartbeat IPC: 1.0538 cumulative IPC: 1.16798 (Simulation time: 0 hr 10 min 56 sec) 
Heartbeat CPU 0 instructions: 23000001 cycles: 14945364 heartbeat IPC: 1.23183 cumulative IPC: 1.17266 (Simulation time: 0 hr 11 min 28 sec) 
Heartbeat CPU 0 instructions: 24000000 cycles: 15732716 heartbeat IPC: 1.27008 cumulative IPC: 1.17912 (Simulation time: 0 hr 12 min 1 sec) 
Heartbeat CPU 0 instructions: 25000003 cycles: 16548120 heartbeat IPC: 1.22639 cumulative IPC: 1.18215 (Simulation time: 0 hr 12 min 34 sec) 
Heartbeat CPU 0 instructions: 26000001 cycles: 17337917 heartbeat IPC: 1.26615 cumulative IPC: 1.18708 (Simulation time: 0 hr 13 min 9 sec) 
Heartbeat CPU 0 instructions: 27000002 cycles: 18111442 heartbeat IPC: 1.29278 cumulative IPC: 1.19281 (Simulation time: 0 hr 13 min 39 sec) 
Heartbeat CPU 0 instructions: 28000000 cycles: 18932761 heartbeat IPC: 1.21755 cumulative IPC: 1.19416 (Simulation time: 0 hr 14 min 10 sec) 
Heartbeat CPU 0 instructions: 29000003 cycles: 19729798 heartbeat IPC: 1.25465 cumulative IPC: 1.1972 (Simulation time: 0 hr 14 min 40 sec) 
Heartbeat CPU 0 instructions: 30000003 cycles: 20498486 heartbeat IPC: 1.30092 cumulative IPC: 1.20199 (Simulation time: 0 hr 15 min 15 sec) 
Heartbeat CPU 0 instructions: 31000001 cycles: 21307257 heartbeat IPC: 1.23644 cumulative IPC: 1.20359 (Simulation time: 0 hr 15 min 47 sec) 
Heartbeat CPU 0 instructions: 32000000 cycles: 22086377 heartbeat IPC: 1.2835 cumulative IPC: 1.207 (Simulation time: 0 hr 16 min 18 sec) 
Heartbeat CPU 0 instructions: 33000000 cycles: 22860307 heartbeat IPC: 1.29211 cumulative IPC: 1.21047 (Simulation time: 0 hr 16 min 47 sec) 
Heartbeat CPU 0 instructions: 34000000 cycles: 23662432 heartbeat IPC: 1.24669 cumulative IPC: 1.21194 (Simulation time: 0 hr 17 min 15 sec) 
Heartbeat CPU 0 instructions: 35000002 cycles: 24446577 heartbeat IPC: 1.27528 cumulative IPC: 1.21435 (Simulation time: 0 hr 17 min 46 sec) 
Heartbeat CPU 0 instructions: 36000000 cycles: 25202726 heartbeat IPC: 1.32249 cumulative IPC: 1.21818 (Simulation time: 0 hr 18 min 16 sec) 
Heartbeat CPU 0 instructions: 37000000 cycles: 26018802 heartbeat IPC: 1.22538 cumulative IPC: 1.21845 (Simulation time: 0 hr 18 min 50 sec) 
Heartbeat CPU 0 instructions: 38000002 cycles: 26807199 heartbeat IPC: 1.2684 cumulative IPC: 1.22016 (Simulation time: 0 hr 19 min 19 sec) 
Heartbeat CPU 0 instructions: 39000000 cycles: 27594963 heartbeat IPC: 1.26941 cumulative IPC: 1.2218 (Simulation time: 0 hr 19 min 48 sec) 
Heartbeat CPU 0 instructions: 40000000 cycles: 28422994 heartbeat IPC: 1.20768 cumulative IPC: 1.22132 (Simulation time: 0 hr 20 min 18 sec) 
Heartbeat CPU 0 instructions: 41000001 cycles: 29205333 heartbeat IPC: 1.27822 cumulative IPC: 1.22308 (Simulation time: 0 hr 20 min 52 sec) 
Heartbeat CPU 0 instructions: 42000002 cycles: 29999138 heartbeat IPC: 1.25976 cumulative IPC: 1.22419 (Simulation time: 0 hr 21 min 25 sec) 
Heartbeat CPU 0 instructions: 43000001 cycles: 30793779 heartbeat IPC: 1.25843 cumulative IPC: 1.2252 (Simulation time: 0 hr 21 min 53 sec) 
Heartbeat CPU 0 instructions: 44000000 cycles: 31568353 heartbeat IPC: 1.29103 cumulative IPC: 1.22704 (Simulation time: 0 hr 22 min 25 sec) 
Heartbeat CPU 0 instructions: 45000001 cycles: 32352241 heartbeat IPC: 1.27569 cumulative IPC: 1.22838 (Simulation time: 0 hr 22 min 53 sec) 
Heartbeat CPU 0 instructions: 46000001 cycles: 33169371 heartbeat IPC: 1.2238 cumulative IPC: 1.22825 (Simulation time: 0 hr 23 min 25 sec) 
Heartbeat CPU 0 instructions: 47000003 cycles: 33940910 heartbeat IPC: 1.29611 cumulative IPC: 1.22999 (Simulation time: 0 hr 24 min 5 sec) 
Heartbeat CPU 0 instructions: 48000000 cycles: 34739246 heartbeat IPC: 1.2526 cumulative IPC: 1.23058 (Simulation time: 0 hr 24 min 38 sec) 
Heartbeat CPU 0 instructions: 49000002 cycles: 35520275 heartbeat IPC: 1.28036 cumulative IPC: 1.23181 (Simulation time: 0 hr 25 min 7 sec) 
Heartbeat CPU 0 instructions: 50000003 cycles: 36280489 heartbeat IPC: 1.31542 cumulative IPC: 1.23377 (Simulation time: 0 hr 25 min 35 sec) 
Heartbeat CPU 0 instructions: 51000001 cycles: 37082765 heartbeat IPC: 1.24645 cumulative IPC: 1.23407 (Simulation time: 0 hr 26 min 4 sec) 
Heartbeat CPU 0 instructions: 52000000 cycles: 37852377 heartbeat IPC: 1.29935 cumulative IPC: 1.23555 (Simulation time: 0 hr 26 min 32 sec) 
Heartbeat CPU 0 instructions: 53000001 cycles: 38616164 heartbeat IPC: 1.30927 cumulative IPC: 1.23717 (Simulation time: 0 hr 27 min 1 sec) 
Heartbeat CPU 0 instructions: 54000001 cycles: 39393336 heartbeat IPC: 1.28672 cumulative IPC: 1.23825 (Simulation time: 0 hr 27 min 35 sec) 
Heartbeat CPU 0 instructions: 55000002 cycles: 40142473 heartbeat IPC: 1.33487 cumulative IPC: 1.24025 (Simulation time: 0 hr 28 min 4 sec) 
Heartbeat CPU 0 instructions: 56000000 cycles: 40907785 heartbeat IPC: 1.30665 cumulative IPC: 1.24162 (Simulation time: 0 hr 28 min 33 sec) 
Heartbeat CPU 0 instructions: 57000000 cycles: 41795771 heartbeat IPC: 1.12614 cumulative IPC: 1.23892 (Simulation time: 0 hr 29 min 4 sec) 
Heartbeat CPU 0 instructions: 58000002 cycles: 42924354 heartbeat IPC: 0.886069 cumulative IPC: 1.22872 (Simulation time: 0 hr 29 min 36 sec) 
Heartbeat CPU 0 instructions: 59000001 cycles: 43720730 heartbeat IPC: 1.25569 cumulative IPC: 1.22926 (Simulation time: 0 hr 30 min 8 sec) 
Heartbeat CPU 0 instructions: 60000000 cycles: 44478009 heartbeat IPC: 1.32052 cumulative IPC: 1.23096 (Simulation time: 0 hr 30 min 38 sec) 
Heartbeat CPU 0 instructions: 61000001 cycles: 45249627 heartbeat IPC: 1.29598 cumulative IPC: 1.23218 (Simulation time: 0 hr 31 min 10 sec) 
Heartbeat CPU 0 instructions: 62000000 cycles: 46020634 heartbeat IPC: 1.297 cumulative IPC: 1.23336 (Simulation time: 0 hr 31 min 38 sec) 
Heartbeat CPU 0 instructions: 63000002 cycles: 46772499 heartbeat IPC: 1.33003 cumulative IPC: 1.23505 (Simulation time: 0 hr 32 min 8 sec) 
Heartbeat CPU 0 instructions: 64000000 cycles: 47559749 heartbeat IPC: 1.27024 cumulative IPC: 1.23569 (Simulation time: 0 hr 32 min 39 sec) 
Heartbeat CPU 0 instructions: 65000003 cycles: 48315916 heartbeat IPC: 1.32246 cumulative IPC: 1.23716 (Simulation time: 0 hr 33 min 13 sec) 
Heartbeat CPU 0 instructions: 66000003 cycles: 49068451 heartbeat IPC: 1.32884 cumulative IPC: 1.23869 (Simulation time: 0 hr 33 min 47 sec) 
Heartbeat CPU 0 instructions: 67000003 cycles: 49890212 heartbeat IPC: 1.2169 cumulative IPC: 1.2383 (Simulation time: 0 hr 34 min 18 sec) 
Heartbeat CPU 0 instructions: 68000000 cycles: 50653188 heartbeat IPC: 1.31065 cumulative IPC: 1.23948 (Simulation time: 0 hr 34 min 47 sec) 
Heartbeat CPU 0 instructions: 69000003 cycles: 51414218 heartbeat IPC: 1.31401 cumulative IPC: 1.24067 (Simulation time: 0 hr 35 min 17 sec) 
Heartbeat CPU 0 instructions: 70000000 cycles: 52219284 heartbeat IPC: 1.24213 cumulative IPC: 1.2407 (Simulation time: 0 hr 35 min 52 sec) 
Heartbeat CPU 0 instructions: 71000002 cycles: 52986943 heartbeat IPC: 1.30266 cumulative IPC: 1.24167 (Simulation time: 0 hr 36 min 27 sec) 
Heartbeat CPU 0 instructions: 72000000 cycles: 53744587 heartbeat IPC: 1.31988 cumulative IPC: 1.24285 (Simulation time: 0 hr 36 min 57 sec) 
Heartbeat CPU 0 instructions: 73000003 cycles: 54536688 heartbeat IPC: 1.26247 cumulative IPC: 1.24316 (Simulation time: 0 hr 37 min 25 sec) 
Heartbeat CPU 0 instructions: 74000003 cycles: 55294957 heartbeat IPC: 1.31879 cumulative IPC: 1.24428 (Simulation time: 0 hr 37 min 54 sec) 
Heartbeat CPU 0 instructions: 75000003 cycles: 56058665 heartbeat IPC: 1.3094 cumulative IPC: 1.24523 (Simulation time: 0 hr 38 min 26 sec) 
Heartbeat CPU 0 instructions: 76000000 cycles: 56844854 heartbeat IPC: 1.27196 cumulative IPC: 1.24563 (Simulation time: 0 hr 38 min 58 sec) 
Heartbeat CPU 0 instructions: 77000003 cycles: 57622725 heartbeat IPC: 1.28556 cumulative IPC: 1.2462 (Simulation time: 0 hr 39 min 27 sec) 
Heartbeat CPU 0 instructions: 78000000 cycles: 58384973 heartbeat IPC: 1.31191 cumulative IPC: 1.24712 (Simulation time: 0 hr 39 min 54 sec) 
Heartbeat CPU 0 instructions: 79000003 cycles: 59168061 heartbeat IPC: 1.277 cumulative IPC: 1.24754 (Simulation time: 0 hr 40 min 23 sec) 
Heartbeat CPU 0 instructions: 80000000 cycles: 59939012 heartbeat IPC: 1.2971 cumulative IPC: 1.24823 (Simulation time: 0 hr 40 min 54 sec) 
Heartbeat CPU 0 instructions: 81000001 cycles: 60704889 heartbeat IPC: 1.30569 cumulative IPC: 1.249 (Simulation time: 0 hr 41 min 26 sec) 
Heartbeat CPU 0 instructions: 82000002 cycles: 61488308 heartbeat IPC: 1.27646 cumulative IPC: 1.24937 (Simulation time: 0 hr 41 min 54 sec) 
Heartbeat CPU 0 instructions: 83000003 cycles: 62269015 heartbeat IPC: 1.28089 cumulative IPC: 1.24979 (Simulation time: 0 hr 42 min 23 sec) 
Heartbeat CPU 0 instructions: 84000000 cycles: 63035258 heartbeat IPC: 1.30507 cumulative IPC: 1.25051 (Simulation time: 0 hr 42 min 52 sec) 
Heartbeat CPU 0 instructions: 85000001 cycles: 63816692 heartbeat IPC: 1.2797 cumulative IPC: 1.25089 (Simulation time: 0 hr 43 min 25 sec) 
Heartbeat CPU 0 instructions: 86000000 cycles: 64569289 heartbeat IPC: 1.32873 cumulative IPC: 1.25186 (Simulation time: 0 hr 43 min 54 sec) 
Heartbeat CPU 0 instructions: 87000000 cycles: 65339307 heartbeat IPC: 1.29867 cumulative IPC: 1.25244 (Simulation time: 0 hr 44 min 22 sec) 
Heartbeat CPU 0 instructions: 88000000 cycles: 66130165 heartbeat IPC: 1.26445 cumulative IPC: 1.25259 (Simulation time: 0 hr 44 min 52 sec) 
Heartbeat CPU 0 instructions: 89000000 cycles: 66883906 heartbeat IPC: 1.32672 cumulative IPC: 1.25348 (Simulation time: 0 hr 45 min 25 sec) 
Heartbeat CPU 0 instructions: 90000001 cycles: 67625104 heartbeat IPC: 1.34917 cumulative IPC: 1.25459 (Simulation time: 0 hr 45 min 54 sec) 
Heartbeat CPU 0 instructions: 91000001 cycles: 68414816 heartbeat IPC: 1.26628 cumulative IPC: 1.25474 (Simulation time: 0 hr 46 min 21 sec) 
Heartbeat CPU 0 instructions: 92000000 cycles: 69167858 heartbeat IPC: 1.32795 cumulative IPC: 1.25558 (Simulation time: 0 hr 46 min 52 sec) 
Heartbeat CPU 0 instructions: 93000002 cycles: 69895922 heartbeat IPC: 1.37351 cumulative IPC: 1.25688 (Simulation time: 0 hr 47 min 21 sec) 
Heartbeat CPU 0 instructions: 94000000 cycles: 70700473 heartbeat IPC: 1.24293 cumulative IPC: 1.25671 (Simulation time: 0 hr 47 min 52 sec) 
Heartbeat CPU 0 instructions: 95000000 cycles: 71451086 heartbeat IPC: 1.33224 cumulative IPC: 1.25755 (Simulation time: 0 hr 48 min 22 sec) 
Heartbeat CPU 0 instructions: 96000000 cycles: 72202186 heartbeat IPC: 1.33138 cumulative IPC: 1.25836 (Simulation time: 0 hr 48 min 52 sec) 
Heartbeat CPU 0 instructions: 97000002 cycles: 73385087 heartbeat IPC: 0.845381 cumulative IPC: 1.25134 (Simulation time: 0 hr 49 min 23 sec) 
Heartbeat CPU 0 instructions: 98000003 cycles: 74312528 heartbeat IPC: 1.07824 cumulative IPC: 1.24906 (Simulation time: 0 hr 49 min 58 sec) 
Heartbeat CPU 0 instructions: 99000001 cycles: 75094260 heartbeat IPC: 1.27921 cumulative IPC: 1.24939 (Simulation time: 0 hr 50 min 27 sec) 
Heartbeat CPU 0 instructions: 100000000 cycles: 75845933 heartbeat IPC: 1.33036 cumulative IPC: 1.25023 (Simulation time: 0 hr 50 min 53 sec) 
Heartbeat CPU 0 instructions: 101000001 cycles: 77199255 heartbeat IPC: 0.738923 cumulative IPC: 1.2408 (Simulation time: 0 hr 51 min 20 sec) 
Heartbeat CPU 0 instructions: 102000002 cycles: 78009772 heartbeat IPC: 1.23378 cumulative IPC: 1.24072 (Simulation time: 0 hr 51 min 45 sec) 
Heartbeat CPU 0 instructions: 103000001 cycles: 78808509 heartbeat IPC: 1.25198 cumulative IPC: 1.24084 (Simulation time: 0 hr 52 min 10 sec) 
Heartbeat CPU 0 instructions: 104000000 cycles: 80041728 heartbeat IPC: 0.810885 cumulative IPC: 1.23388 (Simulation time: 0 hr 52 min 36 sec) 
Heartbeat CPU 0 instructions: 105000002 cycles: 80859496 heartbeat IPC: 1.22284 cumulative IPC: 1.23377 (Simulation time: 0 hr 53 min 1 sec) 
Heartbeat CPU 0 instructions: 106000000 cycles: 81641802 heartbeat IPC: 1.27827 cumulative IPC: 1.23421 (Simulation time: 0 hr 53 min 26 sec) 
Heartbeat CPU 0 instructions: 107000000 cycles: 82715975 heartbeat IPC: 0.930949 cumulative IPC: 1.23008 (Simulation time: 0 hr 53 min 50 sec) 
Heartbeat CPU 0 instructions: 108000000 cycles: 83697852 heartbeat IPC: 1.01846 cumulative IPC: 1.22748 (Simulation time: 0 hr 54 min 15 sec) 
Heartbeat CPU 0 instructions: 109000003 cycles: 84467108 heartbeat IPC: 1.29996 cumulative IPC: 1.22817 (Simulation time: 0 hr 54 min 35 sec) 
Heartbeat CPU 0 instructions: 110000000 cycles: 85313736 heartbeat IPC: 1.18115 cumulative IPC: 1.22768 (Simulation time: 0 hr 54 min 54 sec) 
Finished CPU 0 instructions: 100000003 cycles: 81454312 cummulative IPC: 1.22768 (Simulation time: 0 hr 54 min 54 sec) 

ChampSim completed all CPUs

Region of Interest Statistics

CPU 0 cummulative IPC: 1.22768 instructions: 100000003 cycles: 81454312
LLC TOTAL     ACCESS:    1445933  HIT:     853173  MISS:     592760
LLC LOAD      ACCESS:     118914  HIT:     100279  MISS:      18635
LLC RFO       ACCESS:     121985  HIT:     120574  MISS:       1411
LLC PREFETCH  ACCESS:    1076640  HIT:     504238  MISS:     572402
LLC WRITEBACK ACCESS:     128394  HIT:     128082  MISS:        312
Insertion Distribution: 
	LOAD 10048 0 14087 3328 
	RFO 960 0 3623 0 
	PREF 0 8248 55773 589776 
	WRITEBACK 0 0 0 397 
Total Prefetch Downgrades: 5707
