
*** ChampSim Multicore Out-of-Order Simulator ***

Warmup Instructions: 10000000
Simulation Instructions: 100000000
Configuration: 2
Number of CPUs: 1
LLC sets: 2048
LLC ways: 16
Off-chip DRAM Channels: 1 Width: 64-bit Data Rate: 1600 MT/s

CPU 0 runs /datasets/cs240c-wi22-a00-public/data/Assignment2-gz/bzip2_259B.trace.gz
CPU 0 L1D next line prefetcher
CPU 0 L2C IP-based stride prefetcher
Initialize SRRIP state
Heartbeat CPU 0 instructions: 1000002 cycles: 428875 heartbeat IPC: 2.33169 cumulative IPC: 2.33169 (Simulation time: 0 hr 0 min 31 sec) 
Heartbeat CPU 0 instructions: 2000003 cycles: 861057 heartbeat IPC: 2.31384 cumulative IPC: 2.32273 (Simulation time: 0 hr 1 min 1 sec) 
Heartbeat CPU 0 instructions: 3000001 cycles: 1286790 heartbeat IPC: 2.34889 cumulative IPC: 2.33138 (Simulation time: 0 hr 1 min 32 sec) 
Heartbeat CPU 0 instructions: 4000000 cycles: 1685062 heartbeat IPC: 2.51084 cumulative IPC: 2.3738 (Simulation time: 0 hr 2 min 0 sec) 
Heartbeat CPU 0 instructions: 5000001 cycles: 2103495 heartbeat IPC: 2.38987 cumulative IPC: 2.377 (Simulation time: 0 hr 2 min 29 sec) 
Heartbeat CPU 0 instructions: 6000001 cycles: 2532858 heartbeat IPC: 2.32903 cumulative IPC: 2.36887 (Simulation time: 0 hr 3 min 2 sec) 
Heartbeat CPU 0 instructions: 7000003 cycles: 2961906 heartbeat IPC: 2.33075 cumulative IPC: 2.36334 (Simulation time: 0 hr 3 min 35 sec) 
Heartbeat CPU 0 instructions: 8000000 cycles: 3391719 heartbeat IPC: 2.32659 cumulative IPC: 2.35869 (Simulation time: 0 hr 4 min 4 sec) 
Heartbeat CPU 0 instructions: 9000000 cycles: 3819845 heartbeat IPC: 2.33576 cumulative IPC: 2.35612 (Simulation time: 0 hr 4 min 35 sec) 
Heartbeat CPU 0 instructions: 10000002 cycles: 4193917 heartbeat IPC: 2.67329 cumulative IPC: 2.38441 (Simulation time: 0 hr 5 min 1 sec) 

Warmup complete CPU 0 instructions: 10000002 cycles: 4193917 (Simulation time: 0 hr 5 min 1 sec) 

Heartbeat CPU 0 instructions: 11000002 cycles: 5034789 heartbeat IPC: 1.18924 cumulative IPC: 1.18924 (Simulation time: 0 hr 5 min 31 sec) 
Heartbeat CPU 0 instructions: 12000000 cycles: 6140435 heartbeat IPC: 0.904447 cumulative IPC: 1.02747 (Simulation time: 0 hr 6 min 7 sec) 
Heartbeat CPU 0 instructions: 13000002 cycles: 7084320 heartbeat IPC: 1.05945 cumulative IPC: 1.03792 (Simulation time: 0 hr 6 min 42 sec) 
Heartbeat CPU 0 instructions: 14000003 cycles: 8002058 heartbeat IPC: 1.08964 cumulative IPC: 1.05038 (Simulation time: 0 hr 7 min 19 sec) 
Heartbeat CPU 0 instructions: 15000002 cycles: 9028198 heartbeat IPC: 0.974525 cumulative IPC: 1.03428 (Simulation time: 0 hr 7 min 54 sec) 
Heartbeat CPU 0 instructions: 16000000 cycles: 10014441 heartbeat IPC: 1.01395 cumulative IPC: 1.03083 (Simulation time: 0 hr 8 min 31 sec) 
Heartbeat CPU 0 instructions: 17000002 cycles: 11141396 heartbeat IPC: 0.887349 cumulative IPC: 1.00756 (Simulation time: 0 hr 9 min 7 sec) 
Heartbeat CPU 0 instructions: 18000001 cycles: 12234577 heartbeat IPC: 0.914761 cumulative IPC: 0.994943 (Simulation time: 0 hr 9 min 42 sec) 
Heartbeat CPU 0 instructions: 19000003 cycles: 13197587 heartbeat IPC: 1.03841 cumulative IPC: 0.999592 (Simulation time: 0 hr 10 min 14 sec) 
Heartbeat CPU 0 instructions: 20000000 cycles: 14202514 heartbeat IPC: 0.995094 cumulative IPC: 0.999141 (Simulation time: 0 hr 10 min 43 sec) 
Heartbeat CPU 0 instructions: 21000001 cycles: 15109738 heartbeat IPC: 1.10226 cumulative IPC: 1.00771 (Simulation time: 0 hr 11 min 15 sec) 
Heartbeat CPU 0 instructions: 22000001 cycles: 16021869 heartbeat IPC: 1.09633 cumulative IPC: 1.01455 (Simulation time: 0 hr 11 min 48 sec) 
Heartbeat CPU 0 instructions: 23000002 cycles: 16925280 heartbeat IPC: 1.10692 cumulative IPC: 1.0211 (Simulation time: 0 hr 12 min 18 sec) 
Heartbeat CPU 0 instructions: 24000000 cycles: 17827359 heartbeat IPC: 1.10855 cumulative IPC: 1.02689 (Simulation time: 0 hr 12 min 47 sec) 
Heartbeat CPU 0 instructions: 25000000 cycles: 18729145 heartbeat IPC: 1.10891 cumulative IPC: 1.03198 (Simulation time: 0 hr 13 min 16 sec) 
Heartbeat CPU 0 instructions: 26000000 cycles: 19653791 heartbeat IPC: 1.08149 cumulative IPC: 1.03494 (Simulation time: 0 hr 13 min 47 sec) 
Heartbeat CPU 0 instructions: 27000003 cycles: 20593754 heartbeat IPC: 1.06387 cumulative IPC: 1.0366 (Simulation time: 0 hr 14 min 17 sec) 
Heartbeat CPU 0 instructions: 28000000 cycles: 21507035 heartbeat IPC: 1.09495 cumulative IPC: 1.03967 (Simulation time: 0 hr 14 min 49 sec) 
Heartbeat CPU 0 instructions: 29000000 cycles: 22413345 heartbeat IPC: 1.10338 cumulative IPC: 1.04284 (Simulation time: 0 hr 15 min 17 sec) 
Heartbeat CPU 0 instructions: 30000000 cycles: 23365554 heartbeat IPC: 1.05019 cumulative IPC: 1.04321 (Simulation time: 0 hr 15 min 47 sec) 
Heartbeat CPU 0 instructions: 31000001 cycles: 24265518 heartbeat IPC: 1.11116 cumulative IPC: 1.04625 (Simulation time: 0 hr 16 min 14 sec) 
Heartbeat CPU 0 instructions: 32000000 cycles: 25158474 heartbeat IPC: 1.11987 cumulative IPC: 1.04939 (Simulation time: 0 hr 16 min 40 sec) 
Heartbeat CPU 0 instructions: 33000002 cycles: 26276501 heartbeat IPC: 0.894435 cumulative IPC: 1.04154 (Simulation time: 0 hr 17 min 9 sec) 
Heartbeat CPU 0 instructions: 34000003 cycles: 27484618 heartbeat IPC: 0.827735 cumulative IPC: 1.03045 (Simulation time: 0 hr 17 min 44 sec) 
Heartbeat CPU 0 instructions: 35000001 cycles: 28526145 heartbeat IPC: 0.960127 cumulative IPC: 1.02744 (Simulation time: 0 hr 18 min 18 sec) 
Heartbeat CPU 0 instructions: 36000000 cycles: 29702322 heartbeat IPC: 0.850211 cumulative IPC: 1.01927 (Simulation time: 0 hr 18 min 49 sec) 
Heartbeat CPU 0 instructions: 37000002 cycles: 30745328 heartbeat IPC: 0.958769 cumulative IPC: 1.0169 (Simulation time: 0 hr 19 min 16 sec) 
Heartbeat CPU 0 instructions: 38000003 cycles: 31860581 heartbeat IPC: 0.896658 cumulative IPC: 1.01205 (Simulation time: 0 hr 19 min 46 sec) 
Heartbeat CPU 0 instructions: 39000001 cycles: 33004554 heartbeat IPC: 0.874145 cumulative IPC: 1.00657 (Simulation time: 0 hr 20 min 17 sec) 
Heartbeat CPU 0 instructions: 40000000 cycles: 34074730 heartbeat IPC: 0.934425 cumulative IPC: 1.00399 (Simulation time: 0 hr 20 min 48 sec) 
Heartbeat CPU 0 instructions: 41000001 cycles: 35264300 heartbeat IPC: 0.840641 cumulative IPC: 0.997735 (Simulation time: 0 hr 21 min 18 sec) 
Heartbeat CPU 0 instructions: 42000000 cycles: 36474161 heartbeat IPC: 0.82654 cumulative IPC: 0.991318 (Simulation time: 0 hr 21 min 47 sec) 
Heartbeat CPU 0 instructions: 43000003 cycles: 37690672 heartbeat IPC: 0.822025 cumulative IPC: 0.98517 (Simulation time: 0 hr 22 min 18 sec) 
Heartbeat CPU 0 instructions: 44000000 cycles: 38904599 heartbeat IPC: 0.82377 cumulative IPC: 0.979526 (Simulation time: 0 hr 22 min 45 sec) 
Heartbeat CPU 0 instructions: 45000000 cycles: 40126338 heartbeat IPC: 0.818505 cumulative IPC: 0.974051 (Simulation time: 0 hr 23 min 11 sec) 
Heartbeat CPU 0 instructions: 46000002 cycles: 41365585 heartbeat IPC: 0.806943 cumulative IPC: 0.96848 (Simulation time: 0 hr 23 min 36 sec) 
Heartbeat CPU 0 instructions: 47000000 cycles: 42596649 heartbeat IPC: 0.812304 cumulative IPC: 0.963473 (Simulation time: 0 hr 24 min 3 sec) 
Heartbeat CPU 0 instructions: 48000000 cycles: 43834823 heartbeat IPC: 0.807641 cumulative IPC: 0.958606 (Simulation time: 0 hr 24 min 30 sec) 
Heartbeat CPU 0 instructions: 49000003 cycles: 45105594 heartbeat IPC: 0.786926 cumulative IPC: 0.953273 (Simulation time: 0 hr 24 min 57 sec) 
Heartbeat CPU 0 instructions: 50000001 cycles: 46144884 heartbeat IPC: 0.962193 cumulative IPC: 0.953494 (Simulation time: 0 hr 25 min 25 sec) 
Heartbeat CPU 0 instructions: 51000002 cycles: 47309374 heartbeat IPC: 0.858746 cumulative IPC: 0.950935 (Simulation time: 0 hr 25 min 51 sec) 
Heartbeat CPU 0 instructions: 52000000 cycles: 48427536 heartbeat IPC: 0.894323 cumulative IPC: 0.949504 (Simulation time: 0 hr 26 min 18 sec) 
Heartbeat CPU 0 instructions: 53000001 cycles: 49623494 heartbeat IPC: 0.836151 cumulative IPC: 0.94652 (Simulation time: 0 hr 26 min 46 sec) 
Heartbeat CPU 0 instructions: 54000000 cycles: 50849338 heartbeat IPC: 0.815764 cumulative IPC: 0.943084 (Simulation time: 0 hr 27 min 13 sec) 
Heartbeat CPU 0 instructions: 55000000 cycles: 52000942 heartbeat IPC: 0.868354 cumulative IPC: 0.941284 (Simulation time: 0 hr 27 min 45 sec) 
Heartbeat CPU 0 instructions: 56000000 cycles: 53225623 heartbeat IPC: 0.816539 cumulative IPC: 0.938168 (Simulation time: 0 hr 28 min 13 sec) 
Heartbeat CPU 0 instructions: 57000000 cycles: 54446676 heartbeat IPC: 0.818965 cumulative IPC: 0.935272 (Simulation time: 0 hr 28 min 41 sec) 
Heartbeat CPU 0 instructions: 58000002 cycles: 55479764 heartbeat IPC: 0.967974 cumulative IPC: 0.935931 (Simulation time: 0 hr 29 min 9 sec) 
Heartbeat CPU 0 instructions: 59000000 cycles: 56580852 heartbeat IPC: 0.908191 cumulative IPC: 0.935348 (Simulation time: 0 hr 29 min 40 sec) 
Heartbeat CPU 0 instructions: 60000000 cycles: 57760602 heartbeat IPC: 0.847637 cumulative IPC: 0.933416 (Simulation time: 0 hr 30 min 7 sec) 
Heartbeat CPU 0 instructions: 61000000 cycles: 58905117 heartbeat IPC: 0.873733 cumulative IPC: 0.932167 (Simulation time: 0 hr 30 min 35 sec) 
Heartbeat CPU 0 instructions: 62000002 cycles: 59749176 heartbeat IPC: 1.18475 cumulative IPC: 0.936005 (Simulation time: 0 hr 31 min 4 sec) 
Heartbeat CPU 0 instructions: 63000003 cycles: 60645453 heartbeat IPC: 1.11573 cumulative IPC: 0.938858 (Simulation time: 0 hr 31 min 36 sec) 
Heartbeat CPU 0 instructions: 64000000 cycles: 61713806 heartbeat IPC: 0.936017 cumulative IPC: 0.938806 (Simulation time: 0 hr 32 min 12 sec) 
Heartbeat CPU 0 instructions: 65000003 cycles: 62692555 heartbeat IPC: 1.02172 cumulative IPC: 0.940193 (Simulation time: 0 hr 32 min 48 sec) 
Heartbeat CPU 0 instructions: 66000003 cycles: 63647332 heartbeat IPC: 1.04736 cumulative IPC: 0.941914 (Simulation time: 0 hr 33 min 24 sec) 
Heartbeat CPU 0 instructions: 67000003 cycles: 64699808 heartbeat IPC: 0.95014 cumulative IPC: 0.942057 (Simulation time: 0 hr 33 min 59 sec) 
Heartbeat CPU 0 instructions: 68000000 cycles: 65767873 heartbeat IPC: 0.93627 cumulative IPC: 0.941957 (Simulation time: 0 hr 34 min 34 sec) 
Heartbeat CPU 0 instructions: 69000003 cycles: 66872970 heartbeat IPC: 0.904901 cumulative IPC: 0.941303 (Simulation time: 0 hr 35 min 9 sec) 
Heartbeat CPU 0 instructions: 70000003 cycles: 68113736 heartbeat IPC: 0.805954 cumulative IPC: 0.938676 (Simulation time: 0 hr 35 min 44 sec) 
Heartbeat CPU 0 instructions: 71000000 cycles: 69386158 heartbeat IPC: 0.7859 cumulative IPC: 0.935694 (Simulation time: 0 hr 36 min 16 sec) 
Heartbeat CPU 0 instructions: 72000000 cycles: 70538092 heartbeat IPC: 0.868105 cumulative IPC: 0.934521 (Simulation time: 0 hr 36 min 48 sec) 
Heartbeat CPU 0 instructions: 73000003 cycles: 71829207 heartbeat IPC: 0.774527 cumulative IPC: 0.931466 (Simulation time: 0 hr 37 min 21 sec) 
Heartbeat CPU 0 instructions: 74000001 cycles: 73049321 heartbeat IPC: 0.819594 cumulative IPC: 0.929484 (Simulation time: 0 hr 37 min 54 sec) 
Heartbeat CPU 0 instructions: 75000000 cycles: 74201398 heartbeat IPC: 0.867997 cumulative IPC: 0.928472 (Simulation time: 0 hr 38 min 24 sec) 
Heartbeat CPU 0 instructions: 76000000 cycles: 75278015 heartbeat IPC: 0.928835 cumulative IPC: 0.928478 (Simulation time: 0 hr 38 min 53 sec) 
Heartbeat CPU 0 instructions: 77000003 cycles: 76237156 heartbeat IPC: 1.0426 cumulative IPC: 0.929997 (Simulation time: 0 hr 39 min 20 sec) 
Heartbeat CPU 0 instructions: 78000000 cycles: 77191081 heartbeat IPC: 1.0483 cumulative IPC: 0.931543 (Simulation time: 0 hr 39 min 51 sec) 
Heartbeat CPU 0 instructions: 79000003 cycles: 78264488 heartbeat IPC: 0.931616 cumulative IPC: 0.931544 (Simulation time: 0 hr 40 min 22 sec) 
Heartbeat CPU 0 instructions: 80000000 cycles: 79481138 heartbeat IPC: 0.821927 cumulative IPC: 0.929773 (Simulation time: 0 hr 40 min 55 sec) 
Heartbeat CPU 0 instructions: 81000001 cycles: 80635558 heartbeat IPC: 0.866237 cumulative IPC: 0.928813 (Simulation time: 0 hr 41 min 29 sec) 
Heartbeat CPU 0 instructions: 82000000 cycles: 81742005 heartbeat IPC: 0.903793 cumulative IPC: 0.928456 (Simulation time: 0 hr 42 min 2 sec) 
Heartbeat CPU 0 instructions: 83000002 cycles: 82792496 heartbeat IPC: 0.951938 cumulative IPC: 0.92877 (Simulation time: 0 hr 42 min 33 sec) 
Heartbeat CPU 0 instructions: 84000000 cycles: 83735424 heartbeat IPC: 1.06052 cumulative IPC: 0.930332 (Simulation time: 0 hr 43 min 3 sec) 
Heartbeat CPU 0 instructions: 85000003 cycles: 84677161 heartbeat IPC: 1.06187 cumulative IPC: 0.931871 (Simulation time: 0 hr 43 min 34 sec) 
Heartbeat CPU 0 instructions: 86000003 cycles: 85721682 heartbeat IPC: 0.957377 cumulative IPC: 0.932198 (Simulation time: 0 hr 44 min 3 sec) 
Heartbeat CPU 0 instructions: 87000002 cycles: 86786381 heartbeat IPC: 0.939232 cumulative IPC: 0.932288 (Simulation time: 0 hr 44 min 31 sec) 
Heartbeat CPU 0 instructions: 88000000 cycles: 87892842 heartbeat IPC: 0.903781 cumulative IPC: 0.931912 (Simulation time: 0 hr 44 min 58 sec) 
Heartbeat CPU 0 instructions: 89000002 cycles: 88899211 heartbeat IPC: 0.993673 cumulative IPC: 0.932645 (Simulation time: 0 hr 45 min 23 sec) 
Heartbeat CPU 0 instructions: 90000001 cycles: 90022371 heartbeat IPC: 0.890344 cumulative IPC: 0.932092 (Simulation time: 0 hr 45 min 50 sec) 
Heartbeat CPU 0 instructions: 91000002 cycles: 91136300 heartbeat IPC: 0.897724 cumulative IPC: 0.931651 (Simulation time: 0 hr 46 min 17 sec) 
Heartbeat CPU 0 instructions: 92000000 cycles: 92175085 heartbeat IPC: 0.962661 cumulative IPC: 0.932018 (Simulation time: 0 hr 46 min 45 sec) 
Heartbeat CPU 0 instructions: 93000000 cycles: 93364336 heartbeat IPC: 0.840865 cumulative IPC: 0.930802 (Simulation time: 0 hr 47 min 13 sec) 
Heartbeat CPU 0 instructions: 94000003 cycles: 94540533 heartbeat IPC: 0.8502 cumulative IPC: 0.929753 (Simulation time: 0 hr 47 min 41 sec) 
Heartbeat CPU 0 instructions: 95000002 cycles: 95725391 heartbeat IPC: 0.843982 cumulative IPC: 0.928642 (Simulation time: 0 hr 48 min 8 sec) 
Heartbeat CPU 0 instructions: 96000000 cycles: 96895493 heartbeat IPC: 0.854625 cumulative IPC: 0.927708 (Simulation time: 0 hr 48 min 35 sec) 
Heartbeat CPU 0 instructions: 97000002 cycles: 98112416 heartbeat IPC: 0.821746 cumulative IPC: 0.926335 (Simulation time: 0 hr 49 min 2 sec) 
Heartbeat CPU 0 instructions: 98000000 cycles: 99346266 heartbeat IPC: 0.81047 cumulative IPC: 0.924833 (Simulation time: 0 hr 49 min 25 sec) 
Heartbeat CPU 0 instructions: 99000000 cycles: 100586236 heartbeat IPC: 0.806471 cumulative IPC: 0.92331 (Simulation time: 0 hr 49 min 49 sec) 
Heartbeat CPU 0 instructions: 100000000 cycles: 101828297 heartbeat IPC: 0.805113 cumulative IPC: 0.921806 (Simulation time: 0 hr 50 min 12 sec) 
Heartbeat CPU 0 instructions: 101000003 cycles: 102976137 heartbeat IPC: 0.871204 cumulative IPC: 0.921218 (Simulation time: 0 hr 50 min 34 sec) 
Heartbeat CPU 0 instructions: 102000000 cycles: 104095968 heartbeat IPC: 0.892989 cumulative IPC: 0.920902 (Simulation time: 0 hr 50 min 58 sec) 
Heartbeat CPU 0 instructions: 103000000 cycles: 105197325 heartbeat IPC: 0.907971 cumulative IPC: 0.920761 (Simulation time: 0 hr 51 min 24 sec) 
Heartbeat CPU 0 instructions: 104000000 cycles: 106351052 heartbeat IPC: 0.866756 cumulative IPC: 0.920151 (Simulation time: 0 hr 51 min 47 sec) 
Heartbeat CPU 0 instructions: 105000002 cycles: 107562771 heartbeat IPC: 0.825275 cumulative IPC: 0.919039 (Simulation time: 0 hr 52 min 10 sec) 
Heartbeat CPU 0 instructions: 106000001 cycles: 108696333 heartbeat IPC: 0.882174 cumulative IPC: 0.918639 (Simulation time: 0 hr 52 min 33 sec) 
Heartbeat CPU 0 instructions: 107000000 cycles: 109899580 heartbeat IPC: 0.831084 cumulative IPC: 0.917642 (Simulation time: 0 hr 52 min 54 sec) 
Heartbeat CPU 0 instructions: 108000000 cycles: 111098459 heartbeat IPC: 0.834113 cumulative IPC: 0.916706 (Simulation time: 0 hr 53 min 14 sec) 
Heartbeat CPU 0 instructions: 109000000 cycles: 112110951 heartbeat IPC: 0.987662 cumulative IPC: 0.917371 (Simulation time: 0 hr 53 min 36 sec) 
Heartbeat CPU 0 instructions: 110000000 cycles: 113271904 heartbeat IPC: 0.861361 cumulative IPC: 0.916775 (Simulation time: 0 hr 53 min 57 sec) 
Finished CPU 0 instructions: 100000002 cycles: 109077989 cummulative IPC: 0.916775 (Simulation time: 0 hr 53 min 57 sec) 

ChampSim completed all CPUs

Region of Interest Statistics

CPU 0 cummulative IPC: 0.916775 instructions: 100000002 cycles: 109077989
LLC TOTAL     ACCESS:    1373537  HIT:    1066710  MISS:     306827
LLC LOAD      ACCESS:     396208  HIT:     351204  MISS:      45004
LLC RFO       ACCESS:     104383  HIT:      43941  MISS:      60442
LLC PREFETCH  ACCESS:     675965  HIT:     515405  MISS:     160560
LLC WRITEBACK ACCESS:     196981  HIT:     156160  MISS:      40821
Insertion Distribution: 
	LOAD 36395 0 8468 287 
	RFO 12010 0 26814 37572 
	PREF 0 14404 56431 90205 
	WRITEBACK 0 0 0 40825 
Total Prefetch Downgrades: 27991
