
*** ChampSim Multicore Out-of-Order Simulator ***

Warmup Instructions: 10000000
Simulation Instructions: 100000000
Configuration: 2
Number of CPUs: 1
LLC sets: 2048
LLC ways: 16
Off-chip DRAM Channels: 1 Width: 64-bit Data Rate: 1600 MT/s

CPU 0 runs /datasets/cs240c-wi22-a00-public/data/Assignment2-gz/sphinx3_883B.trace.gz
CPU 0 L1D next line prefetcher
CPU 0 L2C IP-based stride prefetcher
Initialize SRRIP state
Heartbeat CPU 0 instructions: 1000003 cycles: 414388 heartbeat IPC: 2.4132 cumulative IPC: 2.4132 (Simulation time: 0 hr 0 min 32 sec) 
Heartbeat CPU 0 instructions: 2000000 cycles: 823942 heartbeat IPC: 2.44167 cumulative IPC: 2.42736 (Simulation time: 0 hr 1 min 3 sec) 
Heartbeat CPU 0 instructions: 3000003 cycles: 1298782 heartbeat IPC: 2.10598 cumulative IPC: 2.30986 (Simulation time: 0 hr 1 min 29 sec) 
Heartbeat CPU 0 instructions: 4000000 cycles: 1637672 heartbeat IPC: 2.9508 cumulative IPC: 2.44249 (Simulation time: 0 hr 1 min 54 sec) 
Heartbeat CPU 0 instructions: 5000000 cycles: 1992321 heartbeat IPC: 2.81969 cumulative IPC: 2.50964 (Simulation time: 0 hr 2 min 21 sec) 
Heartbeat CPU 0 instructions: 6000003 cycles: 2406755 heartbeat IPC: 2.41294 cumulative IPC: 2.49298 (Simulation time: 0 hr 2 min 49 sec) 
Heartbeat CPU 0 instructions: 7000002 cycles: 2815531 heartbeat IPC: 2.44633 cumulative IPC: 2.48621 (Simulation time: 0 hr 3 min 16 sec) 
Heartbeat CPU 0 instructions: 8000000 cycles: 3291711 heartbeat IPC: 2.10004 cumulative IPC: 2.43035 (Simulation time: 0 hr 3 min 41 sec) 
Heartbeat CPU 0 instructions: 9000001 cycles: 3630712 heartbeat IPC: 2.94985 cumulative IPC: 2.47885 (Simulation time: 0 hr 4 min 6 sec) 
Heartbeat CPU 0 instructions: 10000000 cycles: 3984805 heartbeat IPC: 2.82411 cumulative IPC: 2.50953 (Simulation time: 0 hr 4 min 34 sec) 

Warmup complete CPU 0 instructions: 10000004 cycles: 3984806 (Simulation time: 0 hr 4 min 34 sec) 

Heartbeat CPU 0 instructions: 11000002 cycles: 5684369 heartbeat IPC: 0.588387 cumulative IPC: 0.588385 (Simulation time: 0 hr 5 min 6 sec) 
Heartbeat CPU 0 instructions: 12000000 cycles: 7294657 heartbeat IPC: 0.621006 cumulative IPC: 0.604256 (Simulation time: 0 hr 5 min 37 sec) 
Heartbeat CPU 0 instructions: 13000001 cycles: 8467495 heartbeat IPC: 0.852634 cumulative IPC: 0.66924 (Simulation time: 0 hr 6 min 5 sec) 
Heartbeat CPU 0 instructions: 14000002 cycles: 9224098 heartbeat IPC: 1.3217 cumulative IPC: 0.763462 (Simulation time: 0 hr 6 min 33 sec) 
Heartbeat CPU 0 instructions: 15000000 cycles: 10089960 heartbeat IPC: 1.15492 cumulative IPC: 0.81898 (Simulation time: 0 hr 7 min 3 sec) 
Heartbeat CPU 0 instructions: 16000000 cycles: 11747871 heartbeat IPC: 0.603169 cumulative IPC: 0.77289 (Simulation time: 0 hr 7 min 35 sec) 
Heartbeat CPU 0 instructions: 17000000 cycles: 13328865 heartbeat IPC: 0.632513 cumulative IPC: 0.749139 (Simulation time: 0 hr 8 min 7 sec) 
Heartbeat CPU 0 instructions: 18000002 cycles: 14605539 heartbeat IPC: 0.783287 cumulative IPC: 0.753244 (Simulation time: 0 hr 8 min 37 sec) 
Heartbeat CPU 0 instructions: 19000003 cycles: 15472737 heartbeat IPC: 1.15314 cumulative IPC: 0.783431 (Simulation time: 0 hr 9 min 6 sec) 
Heartbeat CPU 0 instructions: 20000000 cycles: 16290483 heartbeat IPC: 1.22287 cumulative IPC: 0.812633 (Simulation time: 0 hr 9 min 35 sec) 
Heartbeat CPU 0 instructions: 21000000 cycles: 17877413 heartbeat IPC: 0.630148 cumulative IPC: 0.791788 (Simulation time: 0 hr 10 min 5 sec) 
Heartbeat CPU 0 instructions: 22000002 cycles: 19489847 heartbeat IPC: 0.620182 cumulative IPC: 0.773942 (Simulation time: 0 hr 10 min 37 sec) 
Heartbeat CPU 0 instructions: 23000001 cycles: 21001244 heartbeat IPC: 0.661639 cumulative IPC: 0.763967 (Simulation time: 0 hr 11 min 9 sec) 
Heartbeat CPU 0 instructions: 24000000 cycles: 21918750 heartbeat IPC: 1.08991 cumulative IPC: 0.780642 (Simulation time: 0 hr 11 min 39 sec) 
Heartbeat CPU 0 instructions: 25000001 cycles: 22775580 heartbeat IPC: 1.16709 cumulative IPC: 0.798264 (Simulation time: 0 hr 12 min 7 sec) 
Heartbeat CPU 0 instructions: 26000001 cycles: 24023886 heartbeat IPC: 0.801086 cumulative IPC: 0.79844 (Simulation time: 0 hr 12 min 40 sec) 
Heartbeat CPU 0 instructions: 27000001 cycles: 25639824 heartbeat IPC: 0.618836 cumulative IPC: 0.785037 (Simulation time: 0 hr 13 min 12 sec) 
Heartbeat CPU 0 instructions: 28000000 cycles: 27228518 heartbeat IPC: 0.629447 cumulative IPC: 0.774403 (Simulation time: 0 hr 13 min 42 sec) 
Heartbeat CPU 0 instructions: 29000000 cycles: 28237948 heartbeat IPC: 0.990658 cumulative IPC: 0.783404 (Simulation time: 0 hr 14 min 15 sec) 
Heartbeat CPU 0 instructions: 30000002 cycles: 29111648 heartbeat IPC: 1.14456 cumulative IPC: 0.795961 (Simulation time: 0 hr 14 min 42 sec) 
Heartbeat CPU 0 instructions: 31000003 cycles: 30220804 heartbeat IPC: 0.901587 cumulative IPC: 0.800427 (Simulation time: 0 hr 15 min 15 sec) 
Heartbeat CPU 0 instructions: 32000000 cycles: 31813132 heartbeat IPC: 0.628009 cumulative IPC: 0.790561 (Simulation time: 0 hr 15 min 47 sec) 
Heartbeat CPU 0 instructions: 33000000 cycles: 33358485 heartbeat IPC: 0.647101 cumulative IPC: 0.783014 (Simulation time: 0 hr 16 min 18 sec) 
Heartbeat CPU 0 instructions: 34000000 cycles: 34471680 heartbeat IPC: 0.898315 cumulative IPC: 0.787224 (Simulation time: 0 hr 16 min 45 sec) 
Heartbeat CPU 0 instructions: 35000003 cycles: 35342211 heartbeat IPC: 1.14873 cumulative IPC: 0.79726 (Simulation time: 0 hr 17 min 12 sec) 
Heartbeat CPU 0 instructions: 36000000 cycles: 36403401 heartbeat IPC: 0.942335 cumulative IPC: 0.802009 (Simulation time: 0 hr 17 min 38 sec) 
Heartbeat CPU 0 instructions: 37000001 cycles: 38008537 heartbeat IPC: 0.623001 cumulative IPC: 0.793564 (Simulation time: 0 hr 18 min 9 sec) 
Heartbeat CPU 0 instructions: 38000000 cycles: 39555761 heartbeat IPC: 0.646318 cumulative IPC: 0.787159 (Simulation time: 0 hr 18 min 41 sec) 
Heartbeat CPU 0 instructions: 39000003 cycles: 40642770 heartbeat IPC: 0.919958 cumulative IPC: 0.791097 (Simulation time: 0 hr 19 min 10 sec) 
Heartbeat CPU 0 instructions: 40000000 cycles: 41509779 heartbeat IPC: 1.15339 cumulative IPC: 0.799468 (Simulation time: 0 hr 19 min 39 sec) 
Heartbeat CPU 0 instructions: 41000003 cycles: 42560315 heartbeat IPC: 0.951898 cumulative IPC: 0.803619 (Simulation time: 0 hr 20 min 6 sec) 
Heartbeat CPU 0 instructions: 42000000 cycles: 44181689 heartbeat IPC: 0.616759 cumulative IPC: 0.796082 (Simulation time: 0 hr 20 min 36 sec) 
Heartbeat CPU 0 instructions: 43000003 cycles: 45762777 heartbeat IPC: 0.632478 cumulative IPC: 0.78989 (Simulation time: 0 hr 21 min 4 sec) 
Heartbeat CPU 0 instructions: 44000000 cycles: 46786441 heartbeat IPC: 0.97688 cumulative IPC: 0.794362 (Simulation time: 0 hr 21 min 34 sec) 
Heartbeat CPU 0 instructions: 45000002 cycles: 47646369 heartbeat IPC: 1.16289 cumulative IPC: 0.80162 (Simulation time: 0 hr 22 min 0 sec) 
Heartbeat CPU 0 instructions: 46000001 cycles: 48735370 heartbeat IPC: 0.918272 cumulative IPC: 0.804459 (Simulation time: 0 hr 22 min 28 sec) 
Heartbeat CPU 0 instructions: 47000002 cycles: 50350252 heartbeat IPC: 0.619241 cumulative IPC: 0.798008 (Simulation time: 0 hr 22 min 59 sec) 
Heartbeat CPU 0 instructions: 48000000 cycles: 51936014 heartbeat IPC: 0.63061 cumulative IPC: 0.792472 (Simulation time: 0 hr 23 min 30 sec) 
Heartbeat CPU 0 instructions: 49000001 cycles: 52861700 heartbeat IPC: 1.08028 cumulative IPC: 0.797923 (Simulation time: 0 hr 24 min 0 sec) 
Heartbeat CPU 0 instructions: 50000000 cycles: 53684144 heartbeat IPC: 1.21589 cumulative IPC: 0.80484 (Simulation time: 0 hr 24 min 30 sec) 
Heartbeat CPU 0 instructions: 51000003 cycles: 54818638 heartbeat IPC: 0.881453 cumulative IPC: 0.806549 (Simulation time: 0 hr 25 min 1 sec) 
Heartbeat CPU 0 instructions: 52000000 cycles: 56477723 heartbeat IPC: 0.60274 cumulative IPC: 0.800108 (Simulation time: 0 hr 25 min 35 sec) 
Heartbeat CPU 0 instructions: 53000000 cycles: 58258324 heartbeat IPC: 0.561608 cumulative IPC: 0.792283 (Simulation time: 0 hr 26 min 9 sec) 
Heartbeat CPU 0 instructions: 54000003 cycles: 59563116 heartbeat IPC: 0.766408 cumulative IPC: 0.791676 (Simulation time: 0 hr 26 min 41 sec) 
Heartbeat CPU 0 instructions: 55000003 cycles: 60446180 heartbeat IPC: 1.13242 cumulative IPC: 0.797005 (Simulation time: 0 hr 27 min 10 sec) 
Heartbeat CPU 0 instructions: 56000000 cycles: 61285840 heartbeat IPC: 1.19095 cumulative IPC: 0.802778 (Simulation time: 0 hr 27 min 40 sec) 
Heartbeat CPU 0 instructions: 57000002 cycles: 62448034 heartbeat IPC: 0.860443 cumulative IPC: 0.803924 (Simulation time: 0 hr 28 min 9 sec) 
Heartbeat CPU 0 instructions: 58000001 cycles: 63486451 heartbeat IPC: 0.963003 cumulative IPC: 0.8067 (Simulation time: 0 hr 28 min 37 sec) 
Heartbeat CPU 0 instructions: 59000003 cycles: 64306381 heartbeat IPC: 1.21962 cumulative IPC: 0.812313 (Simulation time: 0 hr 29 min 5 sec) 
Heartbeat CPU 0 instructions: 60000000 cycles: 65201134 heartbeat IPC: 1.11762 cumulative IPC: 0.816776 (Simulation time: 0 hr 29 min 35 sec) 
Heartbeat CPU 0 instructions: 61000001 cycles: 66437230 heartbeat IPC: 0.808999 cumulative IPC: 0.816622 (Simulation time: 0 hr 30 min 5 sec) 
Heartbeat CPU 0 instructions: 62000001 cycles: 67255159 heartbeat IPC: 1.2226 cumulative IPC: 0.82187 (Simulation time: 0 hr 30 min 33 sec) 
Heartbeat CPU 0 instructions: 63000003 cycles: 68094533 heartbeat IPC: 1.19137 cumulative IPC: 0.826708 (Simulation time: 0 hr 31 min 10 sec) 
Heartbeat CPU 0 instructions: 64000000 cycles: 69395124 heartbeat IPC: 0.768879 cumulative IPC: 0.825558 (Simulation time: 0 hr 31 min 40 sec) 
Heartbeat CPU 0 instructions: 65000003 cycles: 70246651 heartbeat IPC: 1.17436 cumulative IPC: 0.83004 (Simulation time: 0 hr 32 min 10 sec) 
Heartbeat CPU 0 instructions: 66000002 cycles: 71091365 heartbeat IPC: 1.18383 cumulative IPC: 0.834494 (Simulation time: 0 hr 32 min 38 sec) 
Heartbeat CPU 0 instructions: 67000000 cycles: 72363209 heartbeat IPC: 0.786258 cumulative IPC: 0.833596 (Simulation time: 0 hr 33 min 8 sec) 
Heartbeat CPU 0 instructions: 68000000 cycles: 74001601 heartbeat IPC: 0.610355 cumulative IPC: 0.828373 (Simulation time: 0 hr 33 min 39 sec) 
Heartbeat CPU 0 instructions: 69000003 cycles: 74853635 heartbeat IPC: 1.17367 cumulative IPC: 0.832524 (Simulation time: 0 hr 34 min 8 sec) 
Heartbeat CPU 0 instructions: 70000000 cycles: 75720220 heartbeat IPC: 1.15395 cumulative IPC: 0.836407 (Simulation time: 0 hr 34 min 37 sec) 
Heartbeat CPU 0 instructions: 71000000 cycles: 76906973 heartbeat IPC: 0.842635 cumulative IPC: 0.836508 (Simulation time: 0 hr 35 min 9 sec) 
Heartbeat CPU 0 instructions: 72000000 cycles: 78444783 heartbeat IPC: 0.650275 cumulative IPC: 0.832662 (Simulation time: 0 hr 35 min 39 sec) 
Heartbeat CPU 0 instructions: 73000000 cycles: 79276281 heartbeat IPC: 1.20265 cumulative IPC: 0.836748 (Simulation time: 0 hr 36 min 9 sec) 
Heartbeat CPU 0 instructions: 74000000 cycles: 80085899 heartbeat IPC: 1.23515 cumulative IPC: 0.840987 (Simulation time: 0 hr 36 min 39 sec) 
Heartbeat CPU 0 instructions: 75000000 cycles: 81332242 heartbeat IPC: 0.802347 cumulative IPC: 0.840364 (Simulation time: 0 hr 37 min 8 sec) 
Heartbeat CPU 0 instructions: 76000000 cycles: 82685335 heartbeat IPC: 0.739048 cumulative IPC: 0.838622 (Simulation time: 0 hr 37 min 35 sec) 
Heartbeat CPU 0 instructions: 77000000 cycles: 83515601 heartbeat IPC: 1.20443 cumulative IPC: 0.842441 (Simulation time: 0 hr 38 min 4 sec) 
Heartbeat CPU 0 instructions: 78000000 cycles: 84347560 heartbeat IPC: 1.20198 cumulative IPC: 0.846163 (Simulation time: 0 hr 38 min 32 sec) 
Heartbeat CPU 0 instructions: 79000001 cycles: 85771625 heartbeat IPC: 0.702216 cumulative IPC: 0.843657 (Simulation time: 0 hr 39 min 6 sec) 
Heartbeat CPU 0 instructions: 80000000 cycles: 86967857 heartbeat IPC: 0.835957 cumulative IPC: 0.843546 (Simulation time: 0 hr 39 min 36 sec) 
Heartbeat CPU 0 instructions: 81000000 cycles: 87790769 heartbeat IPC: 1.2152 cumulative IPC: 0.847195 (Simulation time: 0 hr 40 min 4 sec) 
Heartbeat CPU 0 instructions: 82000000 cycles: 88642517 heartbeat IPC: 1.17406 cumulative IPC: 0.850484 (Simulation time: 0 hr 40 min 34 sec) 
Heartbeat CPU 0 instructions: 83000000 cycles: 90212724 heartbeat IPC: 0.636859 cumulative IPC: 0.846593 (Simulation time: 0 hr 41 min 6 sec) 
Heartbeat CPU 0 instructions: 84000000 cycles: 91117598 heartbeat IPC: 1.10513 cumulative IPC: 0.849278 (Simulation time: 0 hr 41 min 35 sec) 
Heartbeat CPU 0 instructions: 85000001 cycles: 91852771 heartbeat IPC: 1.36023 cumulative IPC: 0.853553 (Simulation time: 0 hr 42 min 3 sec) 
Heartbeat CPU 0 instructions: 86000001 cycles: 92940832 heartbeat IPC: 0.919066 cumulative IPC: 0.854355 (Simulation time: 0 hr 42 min 33 sec) 
Heartbeat CPU 0 instructions: 87000000 cycles: 94190164 heartbeat IPC: 0.800427 cumulative IPC: 0.853608 (Simulation time: 0 hr 43 min 3 sec) 
Heartbeat CPU 0 instructions: 88000000 cycles: 94985744 heartbeat IPC: 1.25694 cumulative IPC: 0.857134 (Simulation time: 0 hr 43 min 33 sec) 
Heartbeat CPU 0 instructions: 89000000 cycles: 95744365 heartbeat IPC: 1.31818 cumulative IPC: 0.860946 (Simulation time: 0 hr 44 min 1 sec) 
Heartbeat CPU 0 instructions: 90000000 cycles: 97168082 heartbeat IPC: 0.702387 cumulative IPC: 0.858523 (Simulation time: 0 hr 44 min 30 sec) 
Heartbeat CPU 0 instructions: 91000003 cycles: 98420136 heartbeat IPC: 0.79869 cumulative IPC: 0.85773 (Simulation time: 0 hr 45 min 3 sec) 
Heartbeat CPU 0 instructions: 92000000 cycles: 99374139 heartbeat IPC: 1.04821 cumulative IPC: 0.859635 (Simulation time: 0 hr 45 min 33 sec) 
Heartbeat CPU 0 instructions: 93000000 cycles: 100138394 heartbeat IPC: 1.30846 cumulative IPC: 0.863202 (Simulation time: 0 hr 46 min 2 sec) 
Heartbeat CPU 0 instructions: 94000002 cycles: 100942111 heartbeat IPC: 1.24422 cumulative IPC: 0.866361 (Simulation time: 0 hr 46 min 30 sec) 
Heartbeat CPU 0 instructions: 95000001 cycles: 102427631 heartbeat IPC: 0.673164 cumulative IPC: 0.863445 (Simulation time: 0 hr 47 min 2 sec) 
Heartbeat CPU 0 instructions: 96000000 cycles: 103242458 heartbeat IPC: 1.22725 cumulative IPC: 0.866432 (Simulation time: 0 hr 47 min 32 sec) 
Heartbeat CPU 0 instructions: 97000000 cycles: 103986692 heartbeat IPC: 1.34366 cumulative IPC: 0.869984 (Simulation time: 0 hr 48 min 2 sec) 
Heartbeat CPU 0 instructions: 98000003 cycles: 105248175 heartbeat IPC: 0.79272 cumulative IPC: 0.869021 (Simulation time: 0 hr 48 min 37 sec) 
Heartbeat CPU 0 instructions: 99000000 cycles: 106351272 heartbeat IPC: 0.906536 cumulative IPC: 0.869425 (Simulation time: 0 hr 49 min 8 sec) 
Heartbeat CPU 0 instructions: 100000000 cycles: 107086113 heartbeat IPC: 1.36084 cumulative IPC: 0.872928 (Simulation time: 0 hr 49 min 34 sec) 
Heartbeat CPU 0 instructions: 101000000 cycles: 107893006 heartbeat IPC: 1.23932 cumulative IPC: 0.875773 (Simulation time: 0 hr 50 min 3 sec) 
Heartbeat CPU 0 instructions: 102000003 cycles: 109496771 heartbeat IPC: 0.623535 cumulative IPC: 0.871939 (Simulation time: 0 hr 50 min 33 sec) 
Heartbeat CPU 0 instructions: 103000001 cycles: 110414493 heartbeat IPC: 1.08965 cumulative IPC: 0.873816 (Simulation time: 0 hr 50 min 59 sec) 
Heartbeat CPU 0 instructions: 104000000 cycles: 111156913 heartbeat IPC: 1.34695 cumulative IPC: 0.877094 (Simulation time: 0 hr 51 min 25 sec) 
Heartbeat CPU 0 instructions: 105000002 cycles: 112269526 heartbeat IPC: 0.898787 cumulative IPC: 0.877317 (Simulation time: 0 hr 51 min 52 sec) 
Heartbeat CPU 0 instructions: 106000003 cycles: 113824013 heartbeat IPC: 0.6433 cumulative IPC: 0.874005 (Simulation time: 0 hr 52 min 20 sec) 
Heartbeat CPU 0 instructions: 107000003 cycles: 114649341 heartbeat IPC: 1.21164 cumulative IPC: 0.876523 (Simulation time: 0 hr 52 min 42 sec) 
Heartbeat CPU 0 instructions: 108000000 cycles: 115410618 heartbeat IPC: 1.31358 cumulative IPC: 0.879509 (Simulation time: 0 hr 53 min 4 sec) 
Heartbeat CPU 0 instructions: 109000001 cycles: 116599799 heartbeat IPC: 0.840916 cumulative IPC: 0.879101 (Simulation time: 0 hr 53 min 27 sec) 
Heartbeat CPU 0 instructions: 110000000 cycles: 118035707 heartbeat IPC: 0.696423 cumulative IPC: 0.876801 (Simulation time: 0 hr 53 min 51 sec) 
Finished CPU 0 instructions: 100000000 cycles: 114050902 cummulative IPC: 0.876801 (Simulation time: 0 hr 53 min 51 sec) 

ChampSim completed all CPUs

Region of Interest Statistics

CPU 0 cummulative IPC: 0.876801 instructions: 100000000 cycles: 114050902
LLC TOTAL     ACCESS:    1795747  HIT:     748337  MISS:    1047410
LLC LOAD      ACCESS:     314814  HIT:     198510  MISS:     116304
LLC RFO       ACCESS:      99624  HIT:      79137  MISS:      20487
LLC PREFETCH  ACCESS:    1239888  HIT:     345561  MISS:     894327
LLC WRITEBACK ACCESS:     141421  HIT:     125129  MISS:      16292
Insertion Distribution: 
	LOAD 7132 0 22663 111193 
	RFO 404 0 7707 16325 
	PREF 0 7073 109191 886899 
	WRITEBACK 0 0 0 17503 
Total Prefetch Downgrades: 8093
