
*** ChampSim Multicore Out-of-Order Simulator ***

Warmup Instructions: 10000000
Simulation Instructions: 100000000
Configuration: 2
Number of CPUs: 1
LLC sets: 2048
LLC ways: 16
Off-chip DRAM Channels: 1 Width: 64-bit Data Rate: 1600 MT/s

CPU 0 runs /datasets/cs240c-wi22-a00-public/data/Assignment2-gz/wrf_1212B.trace.gz
CPU 0 L1D next line prefetcher
CPU 0 L2C IP-based stride prefetcher
Initialize SRRIP state
Heartbeat CPU 0 instructions: 1000001 cycles: 598660 heartbeat IPC: 1.6704 cumulative IPC: 1.6704 (Simulation time: 0 hr 0 min 33 sec) 
Heartbeat CPU 0 instructions: 2000000 cycles: 1197118 heartbeat IPC: 1.67096 cumulative IPC: 1.67068 (Simulation time: 0 hr 1 min 5 sec) 
Heartbeat CPU 0 instructions: 3000001 cycles: 1795976 heartbeat IPC: 1.66985 cumulative IPC: 1.6704 (Simulation time: 0 hr 1 min 38 sec) 
Heartbeat CPU 0 instructions: 4000000 cycles: 2394087 heartbeat IPC: 1.67193 cumulative IPC: 1.67078 (Simulation time: 0 hr 2 min 15 sec) 
Heartbeat CPU 0 instructions: 5000000 cycles: 2993053 heartbeat IPC: 1.66954 cumulative IPC: 1.67054 (Simulation time: 0 hr 2 min 48 sec) 
Heartbeat CPU 0 instructions: 6000001 cycles: 3592667 heartbeat IPC: 1.66774 cumulative IPC: 1.67007 (Simulation time: 0 hr 3 min 21 sec) 
Heartbeat CPU 0 instructions: 7000001 cycles: 4190665 heartbeat IPC: 1.67225 cumulative IPC: 1.67038 (Simulation time: 0 hr 3 min 56 sec) 
Heartbeat CPU 0 instructions: 8000000 cycles: 4788873 heartbeat IPC: 1.67166 cumulative IPC: 1.67054 (Simulation time: 0 hr 4 min 31 sec) 
Heartbeat CPU 0 instructions: 9000002 cycles: 5387792 heartbeat IPC: 1.66968 cumulative IPC: 1.67044 (Simulation time: 0 hr 5 min 4 sec) 
Heartbeat CPU 0 instructions: 10000001 cycles: 5987357 heartbeat IPC: 1.66787 cumulative IPC: 1.67019 (Simulation time: 0 hr 5 min 36 sec) 

Warmup complete CPU 0 instructions: 10000001 cycles: 5987357 (Simulation time: 0 hr 5 min 36 sec) 

Heartbeat CPU 0 instructions: 11000003 cycles: 7743719 heartbeat IPC: 0.56936 cumulative IPC: 0.56936 (Simulation time: 0 hr 6 min 18 sec) 
Heartbeat CPU 0 instructions: 12000000 cycles: 9513320 heartbeat IPC: 0.565097 cumulative IPC: 0.567221 (Simulation time: 0 hr 7 min 1 sec) 
Heartbeat CPU 0 instructions: 13000000 cycles: 11298746 heartbeat IPC: 0.56009 cumulative IPC: 0.564824 (Simulation time: 0 hr 7 min 43 sec) 
Heartbeat CPU 0 instructions: 14000002 cycles: 13082020 heartbeat IPC: 0.560767 cumulative IPC: 0.563804 (Simulation time: 0 hr 8 min 23 sec) 
Heartbeat CPU 0 instructions: 15000003 cycles: 14873145 heartbeat IPC: 0.558309 cumulative IPC: 0.562697 (Simulation time: 0 hr 9 min 0 sec) 
Heartbeat CPU 0 instructions: 16000000 cycles: 16621152 heartbeat IPC: 0.572078 cumulative IPC: 0.564239 (Simulation time: 0 hr 9 min 38 sec) 
Heartbeat CPU 0 instructions: 17000000 cycles: 18402583 heartbeat IPC: 0.561346 cumulative IPC: 0.563824 (Simulation time: 0 hr 10 min 18 sec) 
Heartbeat CPU 0 instructions: 18000000 cycles: 20184008 heartbeat IPC: 0.561348 cumulative IPC: 0.563513 (Simulation time: 0 hr 10 min 59 sec) 
Heartbeat CPU 0 instructions: 19000003 cycles: 21962577 heartbeat IPC: 0.562251 cumulative IPC: 0.563373 (Simulation time: 0 hr 11 min 37 sec) 
Heartbeat CPU 0 instructions: 20000000 cycles: 23710870 heartbeat IPC: 0.571985 cumulative IPC: 0.564222 (Simulation time: 0 hr 12 min 14 sec) 
Heartbeat CPU 0 instructions: 21000001 cycles: 25477486 heartbeat IPC: 0.566055 cumulative IPC: 0.564388 (Simulation time: 0 hr 12 min 53 sec) 
Heartbeat CPU 0 instructions: 22000001 cycles: 27260244 heartbeat IPC: 0.560929 cumulative IPC: 0.564098 (Simulation time: 0 hr 13 min 33 sec) 
Heartbeat CPU 0 instructions: 23000000 cycles: 29046641 heartbeat IPC: 0.559785 cumulative IPC: 0.563764 (Simulation time: 0 hr 14 min 13 sec) 
Heartbeat CPU 0 instructions: 24000000 cycles: 30828344 heartbeat IPC: 0.561261 cumulative IPC: 0.563585 (Simulation time: 0 hr 14 min 52 sec) 
Heartbeat CPU 0 instructions: 25000002 cycles: 32575404 heartbeat IPC: 0.572391 cumulative IPC: 0.564163 (Simulation time: 0 hr 15 min 29 sec) 
Heartbeat CPU 0 instructions: 26000000 cycles: 34357448 heartbeat IPC: 0.561152 cumulative IPC: 0.563974 (Simulation time: 0 hr 16 min 8 sec) 
Heartbeat CPU 0 instructions: 27000000 cycles: 36139605 heartbeat IPC: 0.561118 cumulative IPC: 0.563805 (Simulation time: 0 hr 16 min 46 sec) 
Heartbeat CPU 0 instructions: 28000000 cycles: 37918313 heartbeat IPC: 0.562206 cumulative IPC: 0.563716 (Simulation time: 0 hr 17 min 25 sec) 
Heartbeat CPU 0 instructions: 29000000 cycles: 39666806 heartbeat IPC: 0.571921 cumulative IPC: 0.564142 (Simulation time: 0 hr 18 min 2 sec) 
Heartbeat CPU 0 instructions: 30000003 cycles: 41427878 heartbeat IPC: 0.567838 cumulative IPC: 0.564326 (Simulation time: 0 hr 18 min 41 sec) 
Heartbeat CPU 0 instructions: 31000000 cycles: 43210771 heartbeat IPC: 0.560884 cumulative IPC: 0.564161 (Simulation time: 0 hr 19 min 22 sec) 
Heartbeat CPU 0 instructions: 32000000 cycles: 44992070 heartbeat IPC: 0.561388 cumulative IPC: 0.564034 (Simulation time: 0 hr 20 min 0 sec) 
Heartbeat CPU 0 instructions: 33000000 cycles: 46777247 heartbeat IPC: 0.560169 cumulative IPC: 0.563865 (Simulation time: 0 hr 20 min 42 sec) 
Heartbeat CPU 0 instructions: 34000000 cycles: 48515923 heartbeat IPC: 0.57515 cumulative IPC: 0.564327 (Simulation time: 0 hr 21 min 21 sec) 
Heartbeat CPU 0 instructions: 35000003 cycles: 50298962 heartbeat IPC: 0.560842 cumulative IPC: 0.564186 (Simulation time: 0 hr 22 min 2 sec) 
Heartbeat CPU 0 instructions: 36000000 cycles: 52079797 heartbeat IPC: 0.561533 cumulative IPC: 0.564084 (Simulation time: 0 hr 22 min 43 sec) 
Heartbeat CPU 0 instructions: 37000001 cycles: 53863261 heartbeat IPC: 0.560707 cumulative IPC: 0.563958 (Simulation time: 0 hr 23 min 24 sec) 
Heartbeat CPU 0 instructions: 38000000 cycles: 55614255 heartbeat IPC: 0.571104 cumulative IPC: 0.56421 (Simulation time: 0 hr 24 min 6 sec) 
Heartbeat CPU 0 instructions: 39000000 cycles: 57369262 heartbeat IPC: 0.569798 cumulative IPC: 0.564401 (Simulation time: 0 hr 24 min 45 sec) 
Heartbeat CPU 0 instructions: 40000000 cycles: 59150496 heartbeat IPC: 0.561409 cumulative IPC: 0.564301 (Simulation time: 0 hr 25 min 23 sec) 
Heartbeat CPU 0 instructions: 41000001 cycles: 60932764 heartbeat IPC: 0.561083 cumulative IPC: 0.564196 (Simulation time: 0 hr 26 min 1 sec) 
Heartbeat CPU 0 instructions: 42000003 cycles: 62716499 heartbeat IPC: 0.560623 cumulative IPC: 0.564084 (Simulation time: 0 hr 26 min 38 sec) 
Heartbeat CPU 0 instructions: 43000001 cycles: 64444036 heartbeat IPC: 0.578858 cumulative IPC: 0.564521 (Simulation time: 0 hr 27 min 14 sec) 
Heartbeat CPU 0 instructions: 44000000 cycles: 66224837 heartbeat IPC: 0.561544 cumulative IPC: 0.564433 (Simulation time: 0 hr 27 min 54 sec) 
Heartbeat CPU 0 instructions: 45000001 cycles: 68005359 heartbeat IPC: 0.561634 cumulative IPC: 0.564352 (Simulation time: 0 hr 28 min 34 sec) 
Heartbeat CPU 0 instructions: 46000001 cycles: 69784232 heartbeat IPC: 0.562154 cumulative IPC: 0.564291 (Simulation time: 0 hr 29 min 11 sec) 
Heartbeat CPU 0 instructions: 47000000 cycles: 71535790 heartbeat IPC: 0.57092 cumulative IPC: 0.564468 (Simulation time: 0 hr 29 min 50 sec) 
Heartbeat CPU 0 instructions: 48000000 cycles: 73276789 heartbeat IPC: 0.574383 cumulative IPC: 0.564725 (Simulation time: 0 hr 30 min 27 sec) 
Heartbeat CPU 0 instructions: 49000002 cycles: 75058745 heartbeat IPC: 0.561182 cumulative IPC: 0.564633 (Simulation time: 0 hr 31 min 7 sec) 
Heartbeat CPU 0 instructions: 50000002 cycles: 76839088 heartbeat IPC: 0.561689 cumulative IPC: 0.564559 (Simulation time: 0 hr 31 min 46 sec) 
Heartbeat CPU 0 instructions: 51000002 cycles: 78639155 heartbeat IPC: 0.555535 cumulative IPC: 0.564336 (Simulation time: 0 hr 32 min 26 sec) 
Heartbeat CPU 0 instructions: 52000000 cycles: 80361332 heartbeat IPC: 0.580659 cumulative IPC: 0.564714 (Simulation time: 0 hr 33 min 3 sec) 
Heartbeat CPU 0 instructions: 53000002 cycles: 82128550 heartbeat IPC: 0.565862 cumulative IPC: 0.56474 (Simulation time: 0 hr 33 min 40 sec) 
Heartbeat CPU 0 instructions: 54000001 cycles: 83909491 heartbeat IPC: 0.5615 cumulative IPC: 0.564666 (Simulation time: 0 hr 34 min 19 sec) 
Heartbeat CPU 0 instructions: 55000000 cycles: 85689561 heartbeat IPC: 0.561775 cumulative IPC: 0.564602 (Simulation time: 0 hr 34 min 59 sec) 
Heartbeat CPU 0 instructions: 56000000 cycles: 87463522 heartbeat IPC: 0.56371 cumulative IPC: 0.564582 (Simulation time: 0 hr 35 min 38 sec) 
Heartbeat CPU 0 instructions: 57000001 cycles: 89189538 heartbeat IPC: 0.579369 cumulative IPC: 0.564889 (Simulation time: 0 hr 36 min 18 sec) 
Heartbeat CPU 0 instructions: 58000001 cycles: 90971556 heartbeat IPC: 0.561162 cumulative IPC: 0.564811 (Simulation time: 0 hr 36 min 56 sec) 
Heartbeat CPU 0 instructions: 59000000 cycles: 92753132 heartbeat IPC: 0.5613 cumulative IPC: 0.564739 (Simulation time: 0 hr 37 min 35 sec) 
Heartbeat CPU 0 instructions: 60000000 cycles: 94536604 heartbeat IPC: 0.560704 cumulative IPC: 0.564658 (Simulation time: 0 hr 38 min 16 sec) 
Heartbeat CPU 0 instructions: 61000001 cycles: 96276307 heartbeat IPC: 0.574811 cumulative IPC: 0.564853 (Simulation time: 0 hr 38 min 54 sec) 
Heartbeat CPU 0 instructions: 62000001 cycles: 98018774 heartbeat IPC: 0.573899 cumulative IPC: 0.565024 (Simulation time: 0 hr 39 min 41 sec) 
Heartbeat CPU 0 instructions: 63000002 cycles: 99804543 heartbeat IPC: 0.559983 cumulative IPC: 0.564928 (Simulation time: 0 hr 40 min 26 sec) 
Heartbeat CPU 0 instructions: 64000000 cycles: 101587200 heartbeat IPC: 0.560959 cumulative IPC: 0.564855 (Simulation time: 0 hr 41 min 6 sec) 
Heartbeat CPU 0 instructions: 65000000 cycles: 103373416 heartbeat IPC: 0.559843 cumulative IPC: 0.564763 (Simulation time: 0 hr 41 min 47 sec) 
Heartbeat CPU 0 instructions: 66000001 cycles: 105087907 heartbeat IPC: 0.583264 cumulative IPC: 0.565083 (Simulation time: 0 hr 42 min 31 sec) 
Heartbeat CPU 0 instructions: 67000002 cycles: 106844440 heartbeat IPC: 0.569304 cumulative IPC: 0.565156 (Simulation time: 0 hr 43 min 22 sec) 
Heartbeat CPU 0 instructions: 68000000 cycles: 108629966 heartbeat IPC: 0.560058 cumulative IPC: 0.565067 (Simulation time: 0 hr 44 min 0 sec) 
Heartbeat CPU 0 instructions: 69000001 cycles: 110412588 heartbeat IPC: 0.560972 cumulative IPC: 0.564998 (Simulation time: 0 hr 44 min 38 sec) 
Heartbeat CPU 0 instructions: 70000000 cycles: 112181934 heartbeat IPC: 0.56518 cumulative IPC: 0.565001 (Simulation time: 0 hr 45 min 18 sec) 
Heartbeat CPU 0 instructions: 71000001 cycles: 113897255 heartbeat IPC: 0.582982 cumulative IPC: 0.565286 (Simulation time: 0 hr 45 min 59 sec) 
Heartbeat CPU 0 instructions: 72000000 cycles: 115674528 heartbeat IPC: 0.562659 cumulative IPC: 0.565244 (Simulation time: 0 hr 46 min 42 sec) 
Heartbeat CPU 0 instructions: 73000001 cycles: 117462130 heartbeat IPC: 0.559409 cumulative IPC: 0.56515 (Simulation time: 0 hr 47 min 21 sec) 
Heartbeat CPU 0 instructions: 74000000 cycles: 119241580 heartbeat IPC: 0.561971 cumulative IPC: 0.5651 (Simulation time: 0 hr 48 min 2 sec) 
Heartbeat CPU 0 instructions: 75000002 cycles: 120997849 heartbeat IPC: 0.56939 cumulative IPC: 0.565166 (Simulation time: 0 hr 48 min 41 sec) 
Heartbeat CPU 0 instructions: 76000000 cycles: 122731963 heartbeat IPC: 0.576662 cumulative IPC: 0.565337 (Simulation time: 0 hr 49 min 17 sec) 
Heartbeat CPU 0 instructions: 77000003 cycles: 124509023 heartbeat IPC: 0.562729 cumulative IPC: 0.565297 (Simulation time: 0 hr 49 min 53 sec) 
Heartbeat CPU 0 instructions: 78000000 cycles: 126290769 heartbeat IPC: 0.561246 cumulative IPC: 0.565238 (Simulation time: 0 hr 50 min 29 sec) 
Heartbeat CPU 0 instructions: 79000000 cycles: 128088191 heartbeat IPC: 0.556352 cumulative IPC: 0.565107 (Simulation time: 0 hr 51 min 5 sec) 
Heartbeat CPU 0 instructions: 80000000 cycles: 129806263 heartbeat IPC: 0.582048 cumulative IPC: 0.565342 (Simulation time: 0 hr 51 min 38 sec) 
Heartbeat CPU 0 instructions: 81000003 cycles: 131572579 heartbeat IPC: 0.566152 cumulative IPC: 0.565353 (Simulation time: 0 hr 52 min 10 sec) 
Heartbeat CPU 0 instructions: 82000002 cycles: 133362686 heartbeat IPC: 0.558625 cumulative IPC: 0.565259 (Simulation time: 0 hr 52 min 42 sec) 
Heartbeat CPU 0 instructions: 83000001 cycles: 135148256 heartbeat IPC: 0.560045 cumulative IPC: 0.565187 (Simulation time: 0 hr 53 min 16 sec) 
Heartbeat CPU 0 instructions: 84000000 cycles: 136923196 heartbeat IPC: 0.563399 cumulative IPC: 0.565162 (Simulation time: 0 hr 53 min 49 sec) 
Heartbeat CPU 0 instructions: 85000000 cycles: 138640839 heartbeat IPC: 0.582193 cumulative IPC: 0.565383 (Simulation time: 0 hr 54 min 19 sec) 
Heartbeat CPU 0 instructions: 86000001 cycles: 140426747 heartbeat IPC: 0.55994 cumulative IPC: 0.565311 (Simulation time: 0 hr 54 min 45 sec) 
Heartbeat CPU 0 instructions: 87000000 cycles: 142208717 heartbeat IPC: 0.561176 cumulative IPC: 0.565256 (Simulation time: 0 hr 55 min 11 sec) 
Heartbeat CPU 0 instructions: 88000000 cycles: 143985501 heartbeat IPC: 0.562815 cumulative IPC: 0.565225 (Simulation time: 0 hr 55 min 37 sec) 
Heartbeat CPU 0 instructions: 89000000 cycles: 145737090 heartbeat IPC: 0.57091 cumulative IPC: 0.565296 (Simulation time: 0 hr 56 min 3 sec) 
Heartbeat CPU 0 instructions: 90000000 cycles: 147492388 heartbeat IPC: 0.569704 cumulative IPC: 0.565351 (Simulation time: 0 hr 56 min 26 sec) 
Heartbeat CPU 0 instructions: 91000001 cycles: 149272016 heartbeat IPC: 0.561916 cumulative IPC: 0.565308 (Simulation time: 0 hr 56 min 50 sec) 
Heartbeat CPU 0 instructions: 92000000 cycles: 151054682 heartbeat IPC: 0.560957 cumulative IPC: 0.565255 (Simulation time: 0 hr 57 min 13 sec) 
Heartbeat CPU 0 instructions: 93000003 cycles: 152838324 heartbeat IPC: 0.560652 cumulative IPC: 0.565199 (Simulation time: 0 hr 57 min 37 sec) 
Heartbeat CPU 0 instructions: 94000001 cycles: 154564922 heartbeat IPC: 0.579172 cumulative IPC: 0.565361 (Simulation time: 0 hr 58 min 1 sec) 
Heartbeat CPU 0 instructions: 95000001 cycles: 156345602 heartbeat IPC: 0.561583 cumulative IPC: 0.565316 (Simulation time: 0 hr 58 min 24 sec) 
Heartbeat CPU 0 instructions: 96000000 cycles: 158126149 heartbeat IPC: 0.561625 cumulative IPC: 0.565273 (Simulation time: 0 hr 58 min 48 sec) 
Heartbeat CPU 0 instructions: 97000000 cycles: 159906008 heartbeat IPC: 0.561842 cumulative IPC: 0.565234 (Simulation time: 0 hr 59 min 11 sec) 
Heartbeat CPU 0 instructions: 98000000 cycles: 161666535 heartbeat IPC: 0.568012 cumulative IPC: 0.565265 (Simulation time: 0 hr 59 min 32 sec) 
Heartbeat CPU 0 instructions: 99000000 cycles: 163421581 heartbeat IPC: 0.569786 cumulative IPC: 0.565315 (Simulation time: 0 hr 59 min 51 sec) 
Heartbeat CPU 0 instructions: 100000000 cycles: 165200067 heartbeat IPC: 0.562276 cumulative IPC: 0.565282 (Simulation time: 1 hr 0 min 9 sec) 
Heartbeat CPU 0 instructions: 101000000 cycles: 166978267 heartbeat IPC: 0.562366 cumulative IPC: 0.565249 (Simulation time: 1 hr 0 min 27 sec) 
Heartbeat CPU 0 instructions: 102000003 cycles: 168767506 heartbeat IPC: 0.558899 cumulative IPC: 0.565179 (Simulation time: 1 hr 0 min 44 sec) 
Heartbeat CPU 0 instructions: 103000001 cycles: 170498488 heartbeat IPC: 0.577706 cumulative IPC: 0.565311 (Simulation time: 1 hr 1 min 1 sec) 
Heartbeat CPU 0 instructions: 104000000 cycles: 172283690 heartbeat IPC: 0.56016 cumulative IPC: 0.565256 (Simulation time: 1 hr 1 min 19 sec) 
Heartbeat CPU 0 instructions: 105000002 cycles: 174063434 heartbeat IPC: 0.56188 cumulative IPC: 0.56522 (Simulation time: 1 hr 1 min 37 sec) 
Heartbeat CPU 0 instructions: 106000001 cycles: 175841181 heartbeat IPC: 0.562509 cumulative IPC: 0.565192 (Simulation time: 1 hr 1 min 54 sec) 
Heartbeat CPU 0 instructions: 107000003 cycles: 177600418 heartbeat IPC: 0.568429 cumulative IPC: 0.565225 (Simulation time: 1 hr 2 min 9 sec) 
Heartbeat CPU 0 instructions: 108000000 cycles: 179366330 heartbeat IPC: 0.566278 cumulative IPC: 0.565236 (Simulation time: 1 hr 2 min 23 sec) 
Heartbeat CPU 0 instructions: 109000002 cycles: 181150141 heartbeat IPC: 0.560599 cumulative IPC: 0.565189 (Simulation time: 1 hr 2 min 34 sec) 
Heartbeat CPU 0 instructions: 110000003 cycles: 182929159 heartbeat IPC: 0.562108 cumulative IPC: 0.565158 (Simulation time: 1 hr 2 min 43 sec) 
Finished CPU 0 instructions: 100000002 cycles: 176941802 cummulative IPC: 0.565158 (Simulation time: 1 hr 2 min 43 sec) 

ChampSim completed all CPUs

Region of Interest Statistics

CPU 0 cummulative IPC: 0.565158 instructions: 100000002 cycles: 176941802
LLC TOTAL     ACCESS:     134739  HIT:      34730  MISS:     100009
LLC LOAD      ACCESS:      14852  HIT:       4284  MISS:      10568
LLC RFO       ACCESS:       1242  HIT:        337  MISS:        905
LLC PREFETCH  ACCESS:      79537  HIT:       9725  MISS:      69812
LLC WRITEBACK ACCESS:      39108  HIT:      20384  MISS:      18724
Insertion Distribution: 
	LOAD 1229 0 9922 1069 
	RFO 0 0 1108 123 
	PREF 0 0 29875 48133 
	WRITEBACK 0 0 0 18724 
Total Prefetch Downgrades: 301
