
*** ChampSim Multicore Out-of-Order Simulator ***

Warmup Instructions: 10000000
Simulation Instructions: 100000000
Configuration: 2
Number of CPUs: 1
LLC sets: 2048
LLC ways: 16
Off-chip DRAM Channels: 1 Width: 64-bit Data Rate: 1600 MT/s

CPU 0 runs /datasets/cs240c-wi22-a00-public/data/Assignment2-gz/zeusmp_300B.trace.gz
CPU 0 L1D next line prefetcher
CPU 0 L2C IP-based stride prefetcher
Initialize LRU replacement state
Heartbeat CPU 0 instructions: 1000003 cycles: 509580 heartbeat IPC: 1.96241 cumulative IPC: 1.96241 (Simulation time: 0 hr 0 min 30 sec) 
Heartbeat CPU 0 instructions: 2000003 cycles: 1062148 heartbeat IPC: 1.80973 cumulative IPC: 1.88298 (Simulation time: 0 hr 0 min 57 sec) 
Heartbeat CPU 0 instructions: 3000002 cycles: 1606419 heartbeat IPC: 1.83732 cumulative IPC: 1.86751 (Simulation time: 0 hr 1 min 28 sec) 
Heartbeat CPU 0 instructions: 4000000 cycles: 2093208 heartbeat IPC: 2.05427 cumulative IPC: 1.91094 (Simulation time: 0 hr 1 min 56 sec) 
Heartbeat CPU 0 instructions: 5000001 cycles: 2575890 heartbeat IPC: 2.07176 cumulative IPC: 1.94108 (Simulation time: 0 hr 2 min 24 sec) 
Heartbeat CPU 0 instructions: 6000000 cycles: 3062578 heartbeat IPC: 2.0547 cumulative IPC: 1.95913 (Simulation time: 0 hr 2 min 57 sec) 
Heartbeat CPU 0 instructions: 7000001 cycles: 3590723 heartbeat IPC: 1.89342 cumulative IPC: 1.94947 (Simulation time: 0 hr 3 min 26 sec) 
Heartbeat CPU 0 instructions: 8000000 cycles: 4144745 heartbeat IPC: 1.80498 cumulative IPC: 1.93015 (Simulation time: 0 hr 3 min 57 sec) 
Heartbeat CPU 0 instructions: 9000000 cycles: 4672640 heartbeat IPC: 1.89432 cumulative IPC: 1.92611 (Simulation time: 0 hr 4 min 26 sec) 
Heartbeat CPU 0 instructions: 10000002 cycles: 5158931 heartbeat IPC: 2.05639 cumulative IPC: 1.93839 (Simulation time: 0 hr 5 min 2 sec) 

Warmup complete CPU 0 instructions: 10000002 cycles: 5158931 (Simulation time: 0 hr 5 min 2 sec) 

Heartbeat CPU 0 instructions: 11000003 cycles: 5838229 heartbeat IPC: 1.47211 cumulative IPC: 1.47211 (Simulation time: 0 hr 5 min 39 sec) 
Heartbeat CPU 0 instructions: 12000000 cycles: 6512216 heartbeat IPC: 1.4837 cumulative IPC: 1.47788 (Simulation time: 0 hr 6 min 13 sec) 
Heartbeat CPU 0 instructions: 13000000 cycles: 7300152 heartbeat IPC: 1.26914 cumulative IPC: 1.40107 (Simulation time: 0 hr 6 min 46 sec) 
Heartbeat CPU 0 instructions: 14000000 cycles: 8114110 heartbeat IPC: 1.22856 cumulative IPC: 1.35356 (Simulation time: 0 hr 7 min 21 sec) 
Heartbeat CPU 0 instructions: 15000002 cycles: 8834545 heartbeat IPC: 1.38805 cumulative IPC: 1.36032 (Simulation time: 0 hr 7 min 55 sec) 
Heartbeat CPU 0 instructions: 16000000 cycles: 9511952 heartbeat IPC: 1.47621 cumulative IPC: 1.37835 (Simulation time: 0 hr 8 min 34 sec) 
Heartbeat CPU 0 instructions: 17000003 cycles: 10189874 heartbeat IPC: 1.4751 cumulative IPC: 1.39139 (Simulation time: 0 hr 9 min 7 sec) 
Heartbeat CPU 0 instructions: 18000000 cycles: 10872100 heartbeat IPC: 1.46579 cumulative IPC: 1.40027 (Simulation time: 0 hr 9 min 42 sec) 
Heartbeat CPU 0 instructions: 19000002 cycles: 11687500 heartbeat IPC: 1.22639 cumulative IPC: 1.37856 (Simulation time: 0 hr 10 min 19 sec) 
Heartbeat CPU 0 instructions: 20000000 cycles: 12501035 heartbeat IPC: 1.2292 cumulative IPC: 1.36201 (Simulation time: 0 hr 10 min 54 sec) 
Heartbeat CPU 0 instructions: 21000001 cycles: 13188767 heartbeat IPC: 1.45406 cumulative IPC: 1.36989 (Simulation time: 0 hr 11 min 28 sec) 
Heartbeat CPU 0 instructions: 22000000 cycles: 13867024 heartbeat IPC: 1.47437 cumulative IPC: 1.37803 (Simulation time: 0 hr 12 min 6 sec) 
Heartbeat CPU 0 instructions: 23000001 cycles: 14543438 heartbeat IPC: 1.47839 cumulative IPC: 1.38526 (Simulation time: 0 hr 12 min 41 sec) 
Heartbeat CPU 0 instructions: 24000000 cycles: 15259515 heartbeat IPC: 1.3965 cumulative IPC: 1.38606 (Simulation time: 0 hr 13 min 15 sec) 
Heartbeat CPU 0 instructions: 25000000 cycles: 16073087 heartbeat IPC: 1.22915 cumulative IPC: 1.37436 (Simulation time: 0 hr 13 min 52 sec) 
Heartbeat CPU 0 instructions: 26000000 cycles: 16866455 heartbeat IPC: 1.26045 cumulative IPC: 1.36664 (Simulation time: 0 hr 14 min 28 sec) 
Heartbeat CPU 0 instructions: 27000002 cycles: 17543345 heartbeat IPC: 1.47735 cumulative IPC: 1.37269 (Simulation time: 0 hr 15 min 3 sec) 
Heartbeat CPU 0 instructions: 28000000 cycles: 18222493 heartbeat IPC: 1.47243 cumulative IPC: 1.37788 (Simulation time: 0 hr 15 min 33 sec) 
Heartbeat CPU 0 instructions: 29000003 cycles: 18897801 heartbeat IPC: 1.48081 cumulative IPC: 1.38294 (Simulation time: 0 hr 16 min 3 sec) 
Heartbeat CPU 0 instructions: 30000002 cycles: 19642002 heartbeat IPC: 1.34372 cumulative IPC: 1.38092 (Simulation time: 0 hr 16 min 37 sec) 
Heartbeat CPU 0 instructions: 31000001 cycles: 20457283 heartbeat IPC: 1.22657 cumulative IPC: 1.3727 (Simulation time: 0 hr 17 min 5 sec) 
Heartbeat CPU 0 instructions: 32000000 cycles: 21222718 heartbeat IPC: 1.30645 cumulative IPC: 1.36954 (Simulation time: 0 hr 17 min 35 sec) 
Heartbeat CPU 0 instructions: 33000000 cycles: 21898024 heartbeat IPC: 1.48081 cumulative IPC: 1.37403 (Simulation time: 0 hr 18 min 11 sec) 
Heartbeat CPU 0 instructions: 34000000 cycles: 22578462 heartbeat IPC: 1.46964 cumulative IPC: 1.37776 (Simulation time: 0 hr 18 min 44 sec) 
Heartbeat CPU 0 instructions: 35000002 cycles: 23252072 heartbeat IPC: 1.48454 cumulative IPC: 1.38174 (Simulation time: 0 hr 19 min 16 sec) 
Heartbeat CPU 0 instructions: 36000000 cycles: 24028339 heartbeat IPC: 1.28821 cumulative IPC: 1.37789 (Simulation time: 0 hr 19 min 48 sec) 
Heartbeat CPU 0 instructions: 37000003 cycles: 24842988 heartbeat IPC: 1.22753 cumulative IPC: 1.37167 (Simulation time: 0 hr 20 min 26 sec) 
Heartbeat CPU 0 instructions: 38000001 cycles: 25579912 heartbeat IPC: 1.35699 cumulative IPC: 1.37114 (Simulation time: 0 hr 20 min 55 sec) 
Heartbeat CPU 0 instructions: 39000002 cycles: 26255831 heartbeat IPC: 1.47947 cumulative IPC: 1.37461 (Simulation time: 0 hr 21 min 25 sec) 
Heartbeat CPU 0 instructions: 40000000 cycles: 26935832 heartbeat IPC: 1.47058 cumulative IPC: 1.37761 (Simulation time: 0 hr 21 min 52 sec) 
Heartbeat CPU 0 instructions: 41000001 cycles: 27607441 heartbeat IPC: 1.48896 cumulative IPC: 1.38094 (Simulation time: 0 hr 22 min 23 sec) 
Heartbeat CPU 0 instructions: 42000001 cycles: 28420025 heartbeat IPC: 1.23064 cumulative IPC: 1.37569 (Simulation time: 0 hr 22 min 53 sec) 
Heartbeat CPU 0 instructions: 43000000 cycles: 29231454 heartbeat IPC: 1.23239 cumulative IPC: 1.37086 (Simulation time: 0 hr 23 min 25 sec) 
Heartbeat CPU 0 instructions: 44000000 cycles: 29934205 heartbeat IPC: 1.42298 cumulative IPC: 1.37234 (Simulation time: 0 hr 23 min 54 sec) 
Heartbeat CPU 0 instructions: 45000002 cycles: 30612794 heartbeat IPC: 1.47365 cumulative IPC: 1.37504 (Simulation time: 0 hr 24 min 25 sec) 
Heartbeat CPU 0 instructions: 46000002 cycles: 31290363 heartbeat IPC: 1.47586 cumulative IPC: 1.37765 (Simulation time: 0 hr 24 min 57 sec) 
Heartbeat CPU 0 instructions: 47000001 cycles: 31994121 heartbeat IPC: 1.42094 cumulative IPC: 1.37879 (Simulation time: 0 hr 25 min 27 sec) 
Heartbeat CPU 0 instructions: 48000000 cycles: 32805749 heartbeat IPC: 1.23209 cumulative IPC: 1.37448 (Simulation time: 0 hr 25 min 58 sec) 
Heartbeat CPU 0 instructions: 49000003 cycles: 33612246 heartbeat IPC: 1.23993 cumulative IPC: 1.37067 (Simulation time: 0 hr 26 min 29 sec) 
Heartbeat CPU 0 instructions: 50000001 cycles: 34287844 heartbeat IPC: 1.48017 cumulative IPC: 1.37321 (Simulation time: 0 hr 27 min 1 sec) 
Heartbeat CPU 0 instructions: 51000002 cycles: 34963246 heartbeat IPC: 1.4806 cumulative IPC: 1.37564 (Simulation time: 0 hr 27 min 30 sec) 
Heartbeat CPU 0 instructions: 52000000 cycles: 35639584 heartbeat IPC: 1.47855 cumulative IPC: 1.37792 (Simulation time: 0 hr 27 min 58 sec) 
Heartbeat CPU 0 instructions: 53000000 cycles: 36373399 heartbeat IPC: 1.36274 cumulative IPC: 1.37757 (Simulation time: 0 hr 28 min 30 sec) 
Heartbeat CPU 0 instructions: 54000002 cycles: 37185267 heartbeat IPC: 1.23173 cumulative IPC: 1.37387 (Simulation time: 0 hr 28 min 59 sec) 
Heartbeat CPU 0 instructions: 55000001 cycles: 37961018 heartbeat IPC: 1.28907 cumulative IPC: 1.37186 (Simulation time: 0 hr 29 min 31 sec) 
Heartbeat CPU 0 instructions: 56000000 cycles: 38637729 heartbeat IPC: 1.47773 cumulative IPC: 1.374 (Simulation time: 0 hr 29 min 58 sec) 
Heartbeat CPU 0 instructions: 57000000 cycles: 39315781 heartbeat IPC: 1.47481 cumulative IPC: 1.37601 (Simulation time: 0 hr 30 min 27 sec) 
Heartbeat CPU 0 instructions: 58000000 cycles: 39994246 heartbeat IPC: 1.47392 cumulative IPC: 1.37791 (Simulation time: 0 hr 30 min 57 sec) 
Heartbeat CPU 0 instructions: 59000003 cycles: 40756739 heartbeat IPC: 1.31149 cumulative IPC: 1.37649 (Simulation time: 0 hr 31 min 36 sec) 
Heartbeat CPU 0 instructions: 60000000 cycles: 41570509 heartbeat IPC: 1.22884 cumulative IPC: 1.37319 (Simulation time: 0 hr 32 min 15 sec) 
Heartbeat CPU 0 instructions: 61000000 cycles: 42316641 heartbeat IPC: 1.34025 cumulative IPC: 1.37253 (Simulation time: 0 hr 32 min 50 sec) 
Heartbeat CPU 0 instructions: 62000002 cycles: 42992931 heartbeat IPC: 1.47866 cumulative IPC: 1.37443 (Simulation time: 0 hr 33 min 24 sec) 
Heartbeat CPU 0 instructions: 63000003 cycles: 43670842 heartbeat IPC: 1.47512 cumulative IPC: 1.3762 (Simulation time: 0 hr 33 min 58 sec) 
Heartbeat CPU 0 instructions: 64000000 cycles: 44344774 heartbeat IPC: 1.48382 cumulative IPC: 1.37805 (Simulation time: 0 hr 34 min 34 sec) 
Heartbeat CPU 0 instructions: 65000003 cycles: 45141896 heartbeat IPC: 1.25452 cumulative IPC: 1.37559 (Simulation time: 0 hr 35 min 11 sec) 
Heartbeat CPU 0 instructions: 66000003 cycles: 45954953 heartbeat IPC: 1.22993 cumulative IPC: 1.37268 (Simulation time: 0 hr 35 min 48 sec) 
Heartbeat CPU 0 instructions: 67000002 cycles: 46669766 heartbeat IPC: 1.39897 cumulative IPC: 1.37314 (Simulation time: 0 hr 36 min 24 sec) 
Heartbeat CPU 0 instructions: 68000000 cycles: 47344749 heartbeat IPC: 1.48152 cumulative IPC: 1.37487 (Simulation time: 0 hr 37 min 2 sec) 
Heartbeat CPU 0 instructions: 69000000 cycles: 48022359 heartbeat IPC: 1.47578 cumulative IPC: 1.37646 (Simulation time: 0 hr 37 min 36 sec) 
Heartbeat CPU 0 instructions: 70000001 cycles: 48712978 heartbeat IPC: 1.44798 cumulative IPC: 1.3776 (Simulation time: 0 hr 38 min 13 sec) 
Heartbeat CPU 0 instructions: 71000001 cycles: 49521756 heartbeat IPC: 1.23643 cumulative IPC: 1.37503 (Simulation time: 0 hr 38 min 50 sec) 
Heartbeat CPU 0 instructions: 72000000 cycles: 50334195 heartbeat IPC: 1.23086 cumulative IPC: 1.37243 (Simulation time: 0 hr 39 min 27 sec) 
Heartbeat CPU 0 instructions: 73000003 cycles: 51019548 heartbeat IPC: 1.45911 cumulative IPC: 1.37373 (Simulation time: 0 hr 40 min 2 sec) 
Heartbeat CPU 0 instructions: 74000001 cycles: 51695734 heartbeat IPC: 1.47888 cumulative IPC: 1.37526 (Simulation time: 0 hr 40 min 38 sec) 
Heartbeat CPU 0 instructions: 75000003 cycles: 52371768 heartbeat IPC: 1.47922 cumulative IPC: 1.37674 (Simulation time: 0 hr 41 min 13 sec) 
Heartbeat CPU 0 instructions: 76000000 cycles: 53094690 heartbeat IPC: 1.38327 cumulative IPC: 1.37684 (Simulation time: 0 hr 41 min 49 sec) 
Heartbeat CPU 0 instructions: 77000001 cycles: 53907703 heartbeat IPC: 1.22999 cumulative IPC: 1.37439 (Simulation time: 0 hr 42 min 25 sec) 
Heartbeat CPU 0 instructions: 78000003 cycles: 54692829 heartbeat IPC: 1.27368 cumulative IPC: 1.3728 (Simulation time: 0 hr 43 min 2 sec) 
Heartbeat CPU 0 instructions: 79000001 cycles: 55370257 heartbeat IPC: 1.47617 cumulative IPC: 1.37419 (Simulation time: 0 hr 43 min 40 sec) 
Heartbeat CPU 0 instructions: 80000000 cycles: 56046417 heartbeat IPC: 1.47894 cumulative IPC: 1.37558 (Simulation time: 0 hr 44 min 15 sec) 
Heartbeat CPU 0 instructions: 81000000 cycles: 56719277 heartbeat IPC: 1.48619 cumulative IPC: 1.37703 (Simulation time: 0 hr 44 min 51 sec) 
Heartbeat CPU 0 instructions: 82000002 cycles: 57471765 heartbeat IPC: 1.32893 cumulative IPC: 1.37634 (Simulation time: 0 hr 45 min 27 sec) 
Heartbeat CPU 0 instructions: 83000001 cycles: 58283951 heartbeat IPC: 1.23124 cumulative IPC: 1.37412 (Simulation time: 0 hr 46 min 7 sec) 
Heartbeat CPU 0 instructions: 84000000 cycles: 59039709 heartbeat IPC: 1.32317 cumulative IPC: 1.3734 (Simulation time: 0 hr 46 min 45 sec) 
Heartbeat CPU 0 instructions: 85000001 cycles: 59714775 heartbeat IPC: 1.48134 cumulative IPC: 1.37474 (Simulation time: 0 hr 47 min 25 sec) 
Heartbeat CPU 0 instructions: 86000002 cycles: 60393167 heartbeat IPC: 1.47408 cumulative IPC: 1.37596 (Simulation time: 0 hr 48 min 2 sec) 
Heartbeat CPU 0 instructions: 87000000 cycles: 61067540 heartbeat IPC: 1.48286 cumulative IPC: 1.37725 (Simulation time: 0 hr 48 min 39 sec) 
Heartbeat CPU 0 instructions: 88000000 cycles: 61853208 heartbeat IPC: 1.2728 cumulative IPC: 1.3758 (Simulation time: 0 hr 49 min 15 sec) 
Heartbeat CPU 0 instructions: 89000000 cycles: 62666777 heartbeat IPC: 1.22915 cumulative IPC: 1.37373 (Simulation time: 0 hr 49 min 52 sec) 
Heartbeat CPU 0 instructions: 90000002 cycles: 63391164 heartbeat IPC: 1.38048 cumulative IPC: 1.37381 (Simulation time: 0 hr 50 min 28 sec) 
Heartbeat CPU 0 instructions: 91000002 cycles: 64067624 heartbeat IPC: 1.47828 cumulative IPC: 1.37501 (Simulation time: 0 hr 51 min 2 sec) 
Heartbeat CPU 0 instructions: 92000000 cycles: 64744900 heartbeat IPC: 1.4765 cumulative IPC: 1.37616 (Simulation time: 0 hr 51 min 35 sec) 
Heartbeat CPU 0 instructions: 93000001 cycles: 65420699 heartbeat IPC: 1.47973 cumulative IPC: 1.37732 (Simulation time: 0 hr 52 min 9 sec) 
Heartbeat CPU 0 instructions: 94000000 cycles: 66236838 heartbeat IPC: 1.22528 cumulative IPC: 1.37529 (Simulation time: 0 hr 52 min 45 sec) 
Heartbeat CPU 0 instructions: 95000003 cycles: 67049663 heartbeat IPC: 1.23028 cumulative IPC: 1.37339 (Simulation time: 0 hr 53 min 22 sec) 
Heartbeat CPU 0 instructions: 96000000 cycles: 67747290 heartbeat IPC: 1.43343 cumulative IPC: 1.37406 (Simulation time: 0 hr 53 min 55 sec) 
Heartbeat CPU 0 instructions: 97000001 cycles: 68424809 heartbeat IPC: 1.47597 cumulative IPC: 1.37515 (Simulation time: 0 hr 54 min 28 sec) 
Heartbeat CPU 0 instructions: 98000000 cycles: 69101187 heartbeat IPC: 1.47846 cumulative IPC: 1.37624 (Simulation time: 0 hr 55 min 1 sec) 
Heartbeat CPU 0 instructions: 99000001 cycles: 69810143 heartbeat IPC: 1.41053 cumulative IPC: 1.37662 (Simulation time: 0 hr 55 min 32 sec) 
Heartbeat CPU 0 instructions: 100000000 cycles: 70623161 heartbeat IPC: 1.22998 cumulative IPC: 1.3748 (Simulation time: 0 hr 56 min 4 sec) 
Heartbeat CPU 0 instructions: 101000001 cycles: 71425717 heartbeat IPC: 1.24602 cumulative IPC: 1.37324 (Simulation time: 0 hr 56 min 36 sec) 
Heartbeat CPU 0 instructions: 102000003 cycles: 72103900 heartbeat IPC: 1.47453 cumulative IPC: 1.37426 (Simulation time: 0 hr 57 min 7 sec) 
Heartbeat CPU 0 instructions: 103000003 cycles: 72781769 heartbeat IPC: 1.47521 cumulative IPC: 1.37528 (Simulation time: 0 hr 57 min 37 sec) 
Heartbeat CPU 0 instructions: 104000000 cycles: 73457999 heartbeat IPC: 1.47878 cumulative IPC: 1.3763 (Simulation time: 0 hr 58 min 8 sec) 
Heartbeat CPU 0 instructions: 105000001 cycles: 74202142 heartbeat IPC: 1.34383 cumulative IPC: 1.37595 (Simulation time: 0 hr 58 min 39 sec) 
Heartbeat CPU 0 instructions: 106000002 cycles: 75010681 heartbeat IPC: 1.2368 cumulative IPC: 1.37434 (Simulation time: 0 hr 59 min 12 sec) 
Heartbeat CPU 0 instructions: 107000003 cycles: 75779577 heartbeat IPC: 1.30057 cumulative IPC: 1.37354 (Simulation time: 0 hr 59 min 42 sec) 
Heartbeat CPU 0 instructions: 108000000 cycles: 76455727 heartbeat IPC: 1.47896 cumulative IPC: 1.37454 (Simulation time: 1 hr 0 min 10 sec) 
Heartbeat CPU 0 instructions: 109000001 cycles: 77133231 heartbeat IPC: 1.47601 cumulative IPC: 1.37549 (Simulation time: 1 hr 0 min 39 sec) 
Heartbeat CPU 0 instructions: 110000000 cycles: 77808727 heartbeat IPC: 1.48039 cumulative IPC: 1.37647 (Simulation time: 1 hr 1 min 8 sec) 
Finished CPU 0 instructions: 100000002 cycles: 72649797 cummulative IPC: 1.37647 (Simulation time: 1 hr 1 min 8 sec) 

ChampSim completed all CPUs

Region of Interest Statistics

CPU 0 cummulative IPC: 1.37647 instructions: 100000002 cycles: 72649797
LLC TOTAL     ACCESS:     631884  HIT:     367271  MISS:     264613
LLC LOAD      ACCESS:      37032  HIT:      33310  MISS:       3722
LLC RFO       ACCESS:     152074  HIT:      76239  MISS:      75835
LLC PREFETCH  ACCESS:     286972  HIT:     102006  MISS:     184966
LLC WRITEBACK ACCESS:     155806  HIT:     155716  MISS:         90
