
*** ChampSim Multicore Out-of-Order Simulator ***

Warmup Instructions: 10000000
Simulation Instructions: 100000000
Configuration: 2
Number of CPUs: 1
LLC sets: 2048
LLC ways: 16
Off-chip DRAM Channels: 1 Width: 64-bit Data Rate: 1600 MT/s

CPU 0 runs /datasets/cs240c-wi22-a00-public/data/Assignment2-gz/bzip2_259B.trace.gz
CPU 0 L1D next line prefetcher
CPU 0 L2C IP-based stride prefetcher
Initialize LRU replacement state
Heartbeat CPU 0 instructions: 1000002 cycles: 428875 heartbeat IPC: 2.33169 cumulative IPC: 2.33169 (Simulation time: 0 hr 0 min 34 sec) 
Heartbeat CPU 0 instructions: 2000003 cycles: 861057 heartbeat IPC: 2.31384 cumulative IPC: 2.32273 (Simulation time: 0 hr 1 min 6 sec) 
Heartbeat CPU 0 instructions: 3000001 cycles: 1286790 heartbeat IPC: 2.34889 cumulative IPC: 2.33138 (Simulation time: 0 hr 1 min 34 sec) 
Heartbeat CPU 0 instructions: 4000000 cycles: 1685062 heartbeat IPC: 2.51084 cumulative IPC: 2.3738 (Simulation time: 0 hr 2 min 1 sec) 
Heartbeat CPU 0 instructions: 5000001 cycles: 2103495 heartbeat IPC: 2.38987 cumulative IPC: 2.377 (Simulation time: 0 hr 2 min 31 sec) 
Heartbeat CPU 0 instructions: 6000001 cycles: 2532858 heartbeat IPC: 2.32903 cumulative IPC: 2.36887 (Simulation time: 0 hr 3 min 3 sec) 
Heartbeat CPU 0 instructions: 7000003 cycles: 2961906 heartbeat IPC: 2.33075 cumulative IPC: 2.36334 (Simulation time: 0 hr 3 min 34 sec) 
Heartbeat CPU 0 instructions: 8000000 cycles: 3391719 heartbeat IPC: 2.32659 cumulative IPC: 2.35869 (Simulation time: 0 hr 4 min 6 sec) 
Heartbeat CPU 0 instructions: 9000000 cycles: 3819845 heartbeat IPC: 2.33576 cumulative IPC: 2.35612 (Simulation time: 0 hr 4 min 42 sec) 
Heartbeat CPU 0 instructions: 10000002 cycles: 4193917 heartbeat IPC: 2.67329 cumulative IPC: 2.38441 (Simulation time: 0 hr 5 min 15 sec) 

Warmup complete CPU 0 instructions: 10000002 cycles: 4193917 (Simulation time: 0 hr 5 min 15 sec) 

Heartbeat CPU 0 instructions: 11000002 cycles: 5028168 heartbeat IPC: 1.19868 cumulative IPC: 1.19868 (Simulation time: 0 hr 5 min 51 sec) 
Heartbeat CPU 0 instructions: 12000000 cycles: 6135248 heartbeat IPC: 0.903275 cumulative IPC: 1.03022 (Simulation time: 0 hr 6 min 38 sec) 
Heartbeat CPU 0 instructions: 13000002 cycles: 7064593 heartbeat IPC: 1.07603 cumulative IPC: 1.04505 (Simulation time: 0 hr 7 min 24 sec) 
Heartbeat CPU 0 instructions: 14000003 cycles: 7986755 heartbeat IPC: 1.08441 cumulative IPC: 1.05462 (Simulation time: 0 hr 8 min 7 sec) 
Heartbeat CPU 0 instructions: 15000002 cycles: 9013365 heartbeat IPC: 0.974079 cumulative IPC: 1.03746 (Simulation time: 0 hr 8 min 49 sec) 
Heartbeat CPU 0 instructions: 16000000 cycles: 10047077 heartbeat IPC: 0.967385 cumulative IPC: 1.02509 (Simulation time: 0 hr 9 min 30 sec) 
Heartbeat CPU 0 instructions: 17000002 cycles: 11203304 heartbeat IPC: 0.864884 cumulative IPC: 0.998661 (Simulation time: 0 hr 10 min 14 sec) 
Heartbeat CPU 0 instructions: 18000001 cycles: 12310595 heartbeat IPC: 0.903104 cumulative IPC: 0.985625 (Simulation time: 0 hr 10 min 59 sec) 
Heartbeat CPU 0 instructions: 19000003 cycles: 13277753 heartbeat IPC: 1.03396 cumulative IPC: 0.990771 (Simulation time: 0 hr 11 min 36 sec) 
Heartbeat CPU 0 instructions: 20000000 cycles: 14268223 heartbeat IPC: 1.00962 cumulative IPC: 0.992624 (Simulation time: 0 hr 12 min 15 sec) 
Heartbeat CPU 0 instructions: 21000001 cycles: 15166384 heartbeat IPC: 1.11339 cumulative IPC: 1.00251 (Simulation time: 0 hr 12 min 52 sec) 
Heartbeat CPU 0 instructions: 22000001 cycles: 16067917 heartbeat IPC: 1.10922 cumulative IPC: 1.01061 (Simulation time: 0 hr 13 min 25 sec) 
Heartbeat CPU 0 instructions: 23000002 cycles: 16961682 heartbeat IPC: 1.11886 cumulative IPC: 1.01819 (Simulation time: 0 hr 13 min 56 sec) 
Heartbeat CPU 0 instructions: 24000000 cycles: 17858228 heartbeat IPC: 1.11539 cumulative IPC: 1.02457 (Simulation time: 0 hr 14 min 23 sec) 
Heartbeat CPU 0 instructions: 25000000 cycles: 18752303 heartbeat IPC: 1.11847 cumulative IPC: 1.03033 (Simulation time: 0 hr 14 min 54 sec) 
Heartbeat CPU 0 instructions: 26000000 cycles: 19708697 heartbeat IPC: 1.04559 cumulative IPC: 1.03127 (Simulation time: 0 hr 15 min 24 sec) 
Heartbeat CPU 0 instructions: 27000003 cycles: 20641849 heartbeat IPC: 1.07164 cumulative IPC: 1.03356 (Simulation time: 0 hr 15 min 54 sec) 
Heartbeat CPU 0 instructions: 28000000 cycles: 21536879 heartbeat IPC: 1.11728 cumulative IPC: 1.03788 (Simulation time: 0 hr 16 min 24 sec) 
Heartbeat CPU 0 instructions: 29000000 cycles: 22423715 heartbeat IPC: 1.1276 cumulative IPC: 1.04225 (Simulation time: 0 hr 17 min 1 sec) 
Heartbeat CPU 0 instructions: 30000001 cycles: 23418852 heartbeat IPC: 1.00489 cumulative IPC: 1.04032 (Simulation time: 0 hr 17 min 41 sec) 
Heartbeat CPU 0 instructions: 31000001 cycles: 24314536 heartbeat IPC: 1.11647 cumulative IPC: 1.04371 (Simulation time: 0 hr 18 min 10 sec) 
Heartbeat CPU 0 instructions: 32000000 cycles: 25205736 heartbeat IPC: 1.12208 cumulative IPC: 1.04703 (Simulation time: 0 hr 18 min 44 sec) 
Heartbeat CPU 0 instructions: 33000002 cycles: 26419163 heartbeat IPC: 0.824114 cumulative IPC: 1.03486 (Simulation time: 0 hr 19 min 16 sec) 
Heartbeat CPU 0 instructions: 34000003 cycles: 27570054 heartbeat IPC: 0.868893 cumulative IPC: 1.02669 (Simulation time: 0 hr 19 min 52 sec) 
Heartbeat CPU 0 instructions: 35000001 cycles: 28549485 heartbeat IPC: 1.021 cumulative IPC: 1.02646 (Simulation time: 0 hr 20 min 27 sec) 
Heartbeat CPU 0 instructions: 36000000 cycles: 29712874 heartbeat IPC: 0.859557 cumulative IPC: 1.01885 (Simulation time: 0 hr 20 min 55 sec) 
Heartbeat CPU 0 instructions: 37000002 cycles: 30755883 heartbeat IPC: 0.958766 cumulative IPC: 1.01649 (Simulation time: 0 hr 21 min 27 sec) 
Heartbeat CPU 0 instructions: 38000003 cycles: 31870791 heartbeat IPC: 0.896936 cumulative IPC: 1.01168 (Simulation time: 0 hr 21 min 53 sec) 
Heartbeat CPU 0 instructions: 39000001 cycles: 33014762 heartbeat IPC: 0.874146 cumulative IPC: 1.00622 (Simulation time: 0 hr 22 min 22 sec) 
Heartbeat CPU 0 instructions: 40000000 cycles: 34084054 heartbeat IPC: 0.935197 cumulative IPC: 1.00368 (Simulation time: 0 hr 22 min 50 sec) 
Heartbeat CPU 0 instructions: 41000001 cycles: 35272816 heartbeat IPC: 0.841212 cumulative IPC: 0.997461 (Simulation time: 0 hr 23 min 16 sec) 
Heartbeat CPU 0 instructions: 42000000 cycles: 36481594 heartbeat IPC: 0.827281 cumulative IPC: 0.99109 (Simulation time: 0 hr 23 min 47 sec) 
Heartbeat CPU 0 instructions: 43000003 cycles: 37698105 heartbeat IPC: 0.822025 cumulative IPC: 0.984951 (Simulation time: 0 hr 24 min 17 sec) 
Heartbeat CPU 0 instructions: 44000000 cycles: 38911118 heartbeat IPC: 0.824391 cumulative IPC: 0.979342 (Simulation time: 0 hr 24 min 48 sec) 
Heartbeat CPU 0 instructions: 45000000 cycles: 40132859 heartbeat IPC: 0.818504 cumulative IPC: 0.973874 (Simulation time: 0 hr 25 min 17 sec) 
Heartbeat CPU 0 instructions: 46000002 cycles: 41371470 heartbeat IPC: 0.807358 cumulative IPC: 0.968326 (Simulation time: 0 hr 25 min 48 sec) 
Heartbeat CPU 0 instructions: 47000000 cycles: 42601564 heartbeat IPC: 0.812944 cumulative IPC: 0.96335 (Simulation time: 0 hr 26 min 15 sec) 
Heartbeat CPU 0 instructions: 48000000 cycles: 43839452 heartbeat IPC: 0.807828 cumulative IPC: 0.958494 (Simulation time: 0 hr 26 min 48 sec) 
Heartbeat CPU 0 instructions: 49000003 cycles: 45108125 heartbeat IPC: 0.788228 cumulative IPC: 0.953214 (Simulation time: 0 hr 27 min 18 sec) 
Heartbeat CPU 0 instructions: 50000001 cycles: 46146672 heartbeat IPC: 0.962882 cumulative IPC: 0.953453 (Simulation time: 0 hr 27 min 45 sec) 
Heartbeat CPU 0 instructions: 51000002 cycles: 47310257 heartbeat IPC: 0.859414 cumulative IPC: 0.950916 (Simulation time: 0 hr 28 min 13 sec) 
Heartbeat CPU 0 instructions: 52000000 cycles: 48428417 heartbeat IPC: 0.894325 cumulative IPC: 0.949485 (Simulation time: 0 hr 28 min 39 sec) 
Heartbeat CPU 0 instructions: 53000001 cycles: 49623381 heartbeat IPC: 0.836846 cumulative IPC: 0.946522 (Simulation time: 0 hr 29 min 8 sec) 
Heartbeat CPU 0 instructions: 54000000 cycles: 50847525 heartbeat IPC: 0.816897 cumulative IPC: 0.943121 (Simulation time: 0 hr 29 min 35 sec) 
Heartbeat CPU 0 instructions: 55000000 cycles: 51999131 heartbeat IPC: 0.868353 cumulative IPC: 0.94132 (Simulation time: 0 hr 30 min 1 sec) 
Heartbeat CPU 0 instructions: 56000000 cycles: 53223997 heartbeat IPC: 0.816416 cumulative IPC: 0.9382 (Simulation time: 0 hr 30 min 32 sec) 
Heartbeat CPU 0 instructions: 57000000 cycles: 54445055 heartbeat IPC: 0.818962 cumulative IPC: 0.935302 (Simulation time: 0 hr 31 min 4 sec) 
Heartbeat CPU 0 instructions: 58000002 cycles: 55476366 heartbeat IPC: 0.969642 cumulative IPC: 0.935993 (Simulation time: 0 hr 31 min 37 sec) 
Heartbeat CPU 0 instructions: 59000000 cycles: 56577448 heartbeat IPC: 0.908196 cumulative IPC: 0.935408 (Simulation time: 0 hr 32 min 13 sec) 
Heartbeat CPU 0 instructions: 60000000 cycles: 57757362 heartbeat IPC: 0.847519 cumulative IPC: 0.933472 (Simulation time: 0 hr 32 min 46 sec) 
Heartbeat CPU 0 instructions: 61000000 cycles: 58901512 heartbeat IPC: 0.874011 cumulative IPC: 0.932229 (Simulation time: 0 hr 33 min 17 sec) 
Heartbeat CPU 0 instructions: 62000002 cycles: 59746310 heartbeat IPC: 1.18372 cumulative IPC: 0.936053 (Simulation time: 0 hr 33 min 50 sec) 
Heartbeat CPU 0 instructions: 63000001 cycles: 60665646 heartbeat IPC: 1.08774 cumulative IPC: 0.938523 (Simulation time: 0 hr 34 min 32 sec) 
Heartbeat CPU 0 instructions: 64000000 cycles: 61800137 heartbeat IPC: 0.881452 cumulative IPC: 0.937399 (Simulation time: 0 hr 35 min 20 sec) 
Heartbeat CPU 0 instructions: 65000003 cycles: 62839144 heartbeat IPC: 0.96246 cumulative IPC: 0.937843 (Simulation time: 0 hr 36 min 6 sec) 
Heartbeat CPU 0 instructions: 66000003 cycles: 63810413 heartbeat IPC: 1.02958 cumulative IPC: 0.939337 (Simulation time: 0 hr 36 min 53 sec) 
Heartbeat CPU 0 instructions: 67000003 cycles: 64882362 heartbeat IPC: 0.93288 cumulative IPC: 0.939223 (Simulation time: 0 hr 37 min 37 sec) 
Heartbeat CPU 0 instructions: 68000000 cycles: 65984073 heartbeat IPC: 0.907676 cumulative IPC: 0.938661 (Simulation time: 0 hr 38 min 21 sec) 
Heartbeat CPU 0 instructions: 69000003 cycles: 67126075 heartbeat IPC: 0.875658 cumulative IPC: 0.937518 (Simulation time: 0 hr 39 min 3 sec) 
Heartbeat CPU 0 instructions: 70000003 cycles: 68380853 heartbeat IPC: 0.796954 cumulative IPC: 0.93477 (Simulation time: 0 hr 39 min 45 sec) 
Heartbeat CPU 0 instructions: 71000000 cycles: 69577851 heartbeat IPC: 0.835421 cumulative IPC: 0.932951 (Simulation time: 0 hr 40 min 25 sec) 
Heartbeat CPU 0 instructions: 72000000 cycles: 70712616 heartbeat IPC: 0.88124 cumulative IPC: 0.932069 (Simulation time: 0 hr 41 min 1 sec) 
Heartbeat CPU 0 instructions: 73000003 cycles: 72074562 heartbeat IPC: 0.734246 cumulative IPC: 0.9281 (Simulation time: 0 hr 41 min 42 sec) 
Heartbeat CPU 0 instructions: 74000001 cycles: 73288707 heartbeat IPC: 0.823623 cumulative IPC: 0.926264 (Simulation time: 0 hr 42 min 23 sec) 
Heartbeat CPU 0 instructions: 75000000 cycles: 74447102 heartbeat IPC: 0.863263 cumulative IPC: 0.925225 (Simulation time: 0 hr 43 min 6 sec) 
Heartbeat CPU 0 instructions: 76000000 cycles: 75559517 heartbeat IPC: 0.898945 cumulative IPC: 0.924815 (Simulation time: 0 hr 43 min 43 sec) 
Heartbeat CPU 0 instructions: 77000003 cycles: 76543938 heartbeat IPC: 1.01583 cumulative IPC: 0.926054 (Simulation time: 0 hr 44 min 21 sec) 
Heartbeat CPU 0 instructions: 78000000 cycles: 77536999 heartbeat IPC: 1.00698 cumulative IPC: 0.927149 (Simulation time: 0 hr 45 min 0 sec) 
Heartbeat CPU 0 instructions: 79000003 cycles: 78646945 heartbeat IPC: 0.900947 cumulative IPC: 0.926759 (Simulation time: 0 hr 45 min 42 sec) 
Heartbeat CPU 0 instructions: 80000000 cycles: 80003788 heartbeat IPC: 0.737003 cumulative IPC: 0.923363 (Simulation time: 0 hr 46 min 20 sec) 
Heartbeat CPU 0 instructions: 81000001 cycles: 81200018 heartbeat IPC: 0.83596 cumulative IPC: 0.922005 (Simulation time: 0 hr 46 min 59 sec) 
Heartbeat CPU 0 instructions: 82000003 cycles: 82348897 heartbeat IPC: 0.870415 cumulative IPC: 0.921246 (Simulation time: 0 hr 47 min 38 sec) 
Heartbeat CPU 0 instructions: 83000002 cycles: 83443474 heartbeat IPC: 0.913594 cumulative IPC: 0.921141 (Simulation time: 0 hr 48 min 19 sec) 
Heartbeat CPU 0 instructions: 84000000 cycles: 84407490 heartbeat IPC: 1.03733 cumulative IPC: 0.922537 (Simulation time: 0 hr 48 min 56 sec) 
Heartbeat CPU 0 instructions: 85000003 cycles: 85378402 heartbeat IPC: 1.02996 cumulative IPC: 0.923822 (Simulation time: 0 hr 49 min 32 sec) 
Heartbeat CPU 0 instructions: 86000003 cycles: 86420619 heartbeat IPC: 0.959493 cumulative IPC: 0.924274 (Simulation time: 0 hr 50 min 6 sec) 
Heartbeat CPU 0 instructions: 87000002 cycles: 87419846 heartbeat IPC: 1.00077 cumulative IPC: 0.925192 (Simulation time: 0 hr 50 min 44 sec) 
Heartbeat CPU 0 instructions: 88000000 cycles: 88537188 heartbeat IPC: 0.894979 cumulative IPC: 0.924792 (Simulation time: 0 hr 51 min 17 sec) 
Heartbeat CPU 0 instructions: 89000002 cycles: 89543557 heartbeat IPC: 0.993673 cumulative IPC: 0.925604 (Simulation time: 0 hr 51 min 46 sec) 
Heartbeat CPU 0 instructions: 90000001 cycles: 90666501 heartbeat IPC: 0.890515 cumulative IPC: 0.925149 (Simulation time: 0 hr 52 min 17 sec) 
Heartbeat CPU 0 instructions: 91000002 cycles: 91780081 heartbeat IPC: 0.898006 cumulative IPC: 0.924804 (Simulation time: 0 hr 52 min 50 sec) 
Heartbeat CPU 0 instructions: 92000000 cycles: 92818340 heartbeat IPC: 0.963149 cumulative IPC: 0.925253 (Simulation time: 0 hr 53 min 19 sec) 
Heartbeat CPU 0 instructions: 93000000 cycles: 94005885 heartbeat IPC: 0.842073 cumulative IPC: 0.924153 (Simulation time: 0 hr 53 min 50 sec) 
Heartbeat CPU 0 instructions: 94000003 cycles: 95182082 heartbeat IPC: 0.8502 cumulative IPC: 0.923197 (Simulation time: 0 hr 54 min 20 sec) 
Heartbeat CPU 0 instructions: 95000002 cycles: 96366992 heartbeat IPC: 0.843945 cumulative IPC: 0.922178 (Simulation time: 0 hr 54 min 51 sec) 
Heartbeat CPU 0 instructions: 96000000 cycles: 97536985 heartbeat IPC: 0.854704 cumulative IPC: 0.921332 (Simulation time: 0 hr 55 min 19 sec) 
Heartbeat CPU 0 instructions: 97000002 cycles: 98753902 heartbeat IPC: 0.82175 cumulative IPC: 0.920051 (Simulation time: 0 hr 55 min 47 sec) 
Heartbeat CPU 0 instructions: 98000000 cycles: 99986562 heartbeat IPC: 0.811252 cumulative IPC: 0.918651 (Simulation time: 0 hr 56 min 16 sec) 
Heartbeat CPU 0 instructions: 99000000 cycles: 101225905 heartbeat IPC: 0.806879 cumulative IPC: 0.917223 (Simulation time: 0 hr 56 min 45 sec) 
Heartbeat CPU 0 instructions: 100000000 cycles: 102467967 heartbeat IPC: 0.805113 cumulative IPC: 0.915806 (Simulation time: 0 hr 57 min 13 sec) 
Heartbeat CPU 0 instructions: 101000003 cycles: 103615149 heartbeat IPC: 0.871704 cumulative IPC: 0.915297 (Simulation time: 0 hr 57 min 42 sec) 
Heartbeat CPU 0 instructions: 102000000 cycles: 104733726 heartbeat IPC: 0.89399 cumulative IPC: 0.91506 (Simulation time: 0 hr 58 min 12 sec) 
Heartbeat CPU 0 instructions: 103000000 cycles: 105835081 heartbeat IPC: 0.907972 cumulative IPC: 0.914984 (Simulation time: 0 hr 58 min 42 sec) 
Heartbeat CPU 0 instructions: 104000000 cycles: 106987696 heartbeat IPC: 0.867592 cumulative IPC: 0.914452 (Simulation time: 0 hr 59 min 11 sec) 
Heartbeat CPU 0 instructions: 105000002 cycles: 108198164 heartbeat IPC: 0.826128 cumulative IPC: 0.913424 (Simulation time: 0 hr 59 min 37 sec) 
Heartbeat CPU 0 instructions: 106000001 cycles: 109331721 heartbeat IPC: 0.882178 cumulative IPC: 0.913087 (Simulation time: 1 hr 0 min 8 sec) 
Heartbeat CPU 0 instructions: 107000000 cycles: 110534255 heartbeat IPC: 0.831576 cumulative IPC: 0.912166 (Simulation time: 1 hr 0 min 38 sec) 
Heartbeat CPU 0 instructions: 108000000 cycles: 111733336 heartbeat IPC: 0.833972 cumulative IPC: 0.911294 (Simulation time: 1 hr 1 min 4 sec) 
Heartbeat CPU 0 instructions: 109000000 cycles: 112745682 heartbeat IPC: 0.987805 cumulative IPC: 0.912007 (Simulation time: 1 hr 1 min 29 sec) 
Heartbeat CPU 0 instructions: 110000000 cycles: 113907937 heartbeat IPC: 0.860396 cumulative IPC: 0.911461 (Simulation time: 1 hr 1 min 54 sec) 
Finished CPU 0 instructions: 100000002 cycles: 109714022 cummulative IPC: 0.911461 (Simulation time: 1 hr 1 min 54 sec) 

ChampSim completed all CPUs

Region of Interest Statistics

CPU 0 cummulative IPC: 0.911461 instructions: 100000002 cycles: 109714022
LLC TOTAL     ACCESS:    1373526  HIT:    1058150  MISS:     315376
LLC LOAD      ACCESS:     396205  HIT:     341234  MISS:      54971
LLC RFO       ACCESS:     104382  HIT:      34230  MISS:      70152
LLC PREFETCH  ACCESS:     675959  HIT:     485874  MISS:     190085
LLC WRITEBACK ACCESS:     196980  HIT:     196812  MISS:        168
