
*** ChampSim Multicore Out-of-Order Simulator ***

Warmup Instructions: 10000000
Simulation Instructions: 100000000
Configuration: 2
Number of CPUs: 1
LLC sets: 2048
LLC ways: 16
Off-chip DRAM Channels: 1 Width: 64-bit Data Rate: 1600 MT/s

CPU 0 runs /datasets/cs240c-wi22-a00-public/data/Assignment2-gz/libquantum_964B.trace.gz
CPU 0 L1D next line prefetcher
CPU 0 L2C IP-based stride prefetcher
Initialize LRU replacement state
Heartbeat CPU 0 instructions: 1000002 cycles: 333341 heartbeat IPC: 2.99994 cumulative IPC: 2.99994 (Simulation time: 0 hr 0 min 20 sec) 
Heartbeat CPU 0 instructions: 2000001 cycles: 666674 heartbeat IPC: 3 cumulative IPC: 2.99997 (Simulation time: 0 hr 0 min 38 sec) 
Heartbeat CPU 0 instructions: 3000000 cycles: 1000007 heartbeat IPC: 3 cumulative IPC: 2.99998 (Simulation time: 0 hr 1 min 1 sec) 
Heartbeat CPU 0 instructions: 4000000 cycles: 1333341 heartbeat IPC: 2.99999 cumulative IPC: 2.99998 (Simulation time: 0 hr 1 min 20 sec) 
Heartbeat CPU 0 instructions: 5000000 cycles: 1666674 heartbeat IPC: 3 cumulative IPC: 2.99999 (Simulation time: 0 hr 1 min 42 sec) 
Heartbeat CPU 0 instructions: 6000002 cycles: 2000008 heartbeat IPC: 3 cumulative IPC: 2.99999 (Simulation time: 0 hr 2 min 3 sec) 
Heartbeat CPU 0 instructions: 7000001 cycles: 2331518 heartbeat IPC: 3.0165 cumulative IPC: 3.00234 (Simulation time: 0 hr 2 min 23 sec) 
Heartbeat CPU 0 instructions: 8000000 cycles: 2662240 heartbeat IPC: 3.02368 cumulative IPC: 3.00499 (Simulation time: 0 hr 2 min 42 sec) 
Heartbeat CPU 0 instructions: 9000001 cycles: 2992962 heartbeat IPC: 3.02369 cumulative IPC: 3.00705 (Simulation time: 0 hr 3 min 2 sec) 
Heartbeat CPU 0 instructions: 10000001 cycles: 3323684 heartbeat IPC: 3.02369 cumulative IPC: 3.00871 (Simulation time: 0 hr 3 min 22 sec) 

Warmup complete CPU 0 instructions: 10000001 cycles: 3323684 (Simulation time: 0 hr 3 min 22 sec) 

Heartbeat CPU 0 instructions: 11000000 cycles: 5061224 heartbeat IPC: 0.575526 cumulative IPC: 0.575526 (Simulation time: 0 hr 3 min 57 sec) 
Heartbeat CPU 0 instructions: 12000000 cycles: 6817011 heartbeat IPC: 0.569545 cumulative IPC: 0.57252 (Simulation time: 0 hr 4 min 31 sec) 
Heartbeat CPU 0 instructions: 13000001 cycles: 8558035 heartbeat IPC: 0.574375 cumulative IPC: 0.573137 (Simulation time: 0 hr 5 min 9 sec) 
Heartbeat CPU 0 instructions: 14000000 cycles: 10306743 heartbeat IPC: 0.57185 cumulative IPC: 0.572815 (Simulation time: 0 hr 5 min 48 sec) 
Heartbeat CPU 0 instructions: 15000003 cycles: 12056247 heartbeat IPC: 0.571592 cumulative IPC: 0.57257 (Simulation time: 0 hr 6 min 24 sec) 
Heartbeat CPU 0 instructions: 16000000 cycles: 13797375 heartbeat IPC: 0.574339 cumulative IPC: 0.572864 (Simulation time: 0 hr 6 min 58 sec) 
Heartbeat CPU 0 instructions: 17000000 cycles: 15552265 heartbeat IPC: 0.569836 cumulative IPC: 0.572429 (Simulation time: 0 hr 7 min 33 sec) 
Heartbeat CPU 0 instructions: 18000003 cycles: 17288742 heartbeat IPC: 0.57588 cumulative IPC: 0.572859 (Simulation time: 0 hr 8 min 9 sec) 
Heartbeat CPU 0 instructions: 19000002 cycles: 19040435 heartbeat IPC: 0.570876 cumulative IPC: 0.572637 (Simulation time: 0 hr 8 min 47 sec) 
Heartbeat CPU 0 instructions: 20000000 cycles: 20782753 heartbeat IPC: 0.573947 cumulative IPC: 0.572768 (Simulation time: 0 hr 9 min 23 sec) 
Heartbeat CPU 0 instructions: 21000003 cycles: 22525628 heartbeat IPC: 0.573766 cumulative IPC: 0.572859 (Simulation time: 0 hr 9 min 57 sec) 
Heartbeat CPU 0 instructions: 22000002 cycles: 24277298 heartbeat IPC: 0.570883 cumulative IPC: 0.572694 (Simulation time: 0 hr 10 min 33 sec) 
Heartbeat CPU 0 instructions: 23000000 cycles: 26015692 heartbeat IPC: 0.575242 cumulative IPC: 0.572889 (Simulation time: 0 hr 11 min 7 sec) 
Heartbeat CPU 0 instructions: 24000000 cycles: 27775085 heartbeat IPC: 0.568378 cumulative IPC: 0.572564 (Simulation time: 0 hr 11 min 44 sec) 
Heartbeat CPU 0 instructions: 25000000 cycles: 29513524 heartbeat IPC: 0.575229 cumulative IPC: 0.572741 (Simulation time: 0 hr 12 min 20 sec) 
Heartbeat CPU 0 instructions: 26000002 cycles: 31368126 heartbeat IPC: 0.5392 cumulative IPC: 0.570523 (Simulation time: 0 hr 12 min 57 sec) 
Heartbeat CPU 0 instructions: 27000002 cycles: 33861087 heartbeat IPC: 0.401129 cumulative IPC: 0.556694 (Simulation time: 0 hr 13 min 38 sec) 
Heartbeat CPU 0 instructions: 28000000 cycles: 36459803 heartbeat IPC: 0.384805 cumulative IPC: 0.543214 (Simulation time: 0 hr 14 min 16 sec) 
Heartbeat CPU 0 instructions: 29000002 cycles: 39055600 heartbeat IPC: 0.385239 cumulative IPC: 0.531738 (Simulation time: 0 hr 14 min 54 sec) 
Heartbeat CPU 0 instructions: 30000002 cycles: 41653684 heartbeat IPC: 0.384899 cumulative IPC: 0.521785 (Simulation time: 0 hr 15 min 37 sec) 
Heartbeat CPU 0 instructions: 31000002 cycles: 44256874 heartbeat IPC: 0.384144 cumulative IPC: 0.513031 (Simulation time: 0 hr 16 min 15 sec) 
Heartbeat CPU 0 instructions: 32000000 cycles: 46859475 heartbeat IPC: 0.38423 cumulative IPC: 0.505331 (Simulation time: 0 hr 16 min 55 sec) 
Heartbeat CPU 0 instructions: 33000002 cycles: 49455739 heartbeat IPC: 0.38517 cumulative IPC: 0.498569 (Simulation time: 0 hr 17 min 43 sec) 
Heartbeat CPU 0 instructions: 34000002 cycles: 52055981 heartbeat IPC: 0.38458 cumulative IPC: 0.492487 (Simulation time: 0 hr 18 min 23 sec) 
Heartbeat CPU 0 instructions: 35000002 cycles: 54652342 heartbeat IPC: 0.385154 cumulative IPC: 0.487057 (Simulation time: 0 hr 19 min 5 sec) 
Heartbeat CPU 0 instructions: 36000000 cycles: 57130843 heartbeat IPC: 0.403469 cumulative IPC: 0.483207 (Simulation time: 0 hr 19 min 53 sec) 
Heartbeat CPU 0 instructions: 37000001 cycles: 59037985 heartbeat IPC: 0.524345 cumulative IPC: 0.484615 (Simulation time: 0 hr 20 min 32 sec) 
Heartbeat CPU 0 instructions: 38000000 cycles: 60576684 heartbeat IPC: 0.649899 cumulative IPC: 0.489057 (Simulation time: 0 hr 21 min 4 sec) 
Heartbeat CPU 0 instructions: 39000003 cycles: 62042850 heartbeat IPC: 0.682053 cumulative IPC: 0.493876 (Simulation time: 0 hr 21 min 41 sec) 
Heartbeat CPU 0 instructions: 40000000 cycles: 63508932 heartbeat IPC: 0.682088 cumulative IPC: 0.498461 (Simulation time: 0 hr 22 min 15 sec) 
Heartbeat CPU 0 instructions: 41000001 cycles: 64975152 heartbeat IPC: 0.682027 cumulative IPC: 0.502827 (Simulation time: 0 hr 22 min 49 sec) 
Heartbeat CPU 0 instructions: 42000000 cycles: 66441242 heartbeat IPC: 0.682086 cumulative IPC: 0.50699 (Simulation time: 0 hr 23 min 21 sec) 
Heartbeat CPU 0 instructions: 43000001 cycles: 67907405 heartbeat IPC: 0.682053 cumulative IPC: 0.510965 (Simulation time: 0 hr 23 min 53 sec) 
Heartbeat CPU 0 instructions: 44000000 cycles: 69373488 heartbeat IPC: 0.682089 cumulative IPC: 0.514763 (Simulation time: 0 hr 24 min 26 sec) 
Heartbeat CPU 0 instructions: 45000002 cycles: 70839595 heartbeat IPC: 0.68208 cumulative IPC: 0.518396 (Simulation time: 0 hr 25 min 2 sec) 
Heartbeat CPU 0 instructions: 46000001 cycles: 72305776 heartbeat IPC: 0.682043 cumulative IPC: 0.521875 (Simulation time: 0 hr 25 min 34 sec) 
Heartbeat CPU 0 instructions: 47000000 cycles: 73771866 heartbeat IPC: 0.682086 cumulative IPC: 0.525209 (Simulation time: 0 hr 26 min 8 sec) 
Heartbeat CPU 0 instructions: 48000000 cycles: 75238030 heartbeat IPC: 0.682052 cumulative IPC: 0.528406 (Simulation time: 0 hr 26 min 39 sec) 
Heartbeat CPU 0 instructions: 49000002 cycles: 76704465 heartbeat IPC: 0.681927 cumulative IPC: 0.531474 (Simulation time: 0 hr 27 min 18 sec) 
Heartbeat CPU 0 instructions: 50000001 cycles: 78170557 heartbeat IPC: 0.682085 cumulative IPC: 0.534424 (Simulation time: 0 hr 27 min 48 sec) 
Heartbeat CPU 0 instructions: 51000000 cycles: 79636647 heartbeat IPC: 0.682086 cumulative IPC: 0.537261 (Simulation time: 0 hr 28 min 21 sec) 
Heartbeat CPU 0 instructions: 52000000 cycles: 81102912 heartbeat IPC: 0.682005 cumulative IPC: 0.53999 (Simulation time: 0 hr 28 min 52 sec) 
Heartbeat CPU 0 instructions: 53000000 cycles: 82569118 heartbeat IPC: 0.682032 cumulative IPC: 0.542618 (Simulation time: 0 hr 29 min 22 sec) 
Heartbeat CPU 0 instructions: 54000002 cycles: 84035204 heartbeat IPC: 0.68209 cumulative IPC: 0.545151 (Simulation time: 0 hr 29 min 56 sec) 
Heartbeat CPU 0 instructions: 55000002 cycles: 85569235 heartbeat IPC: 0.651877 cumulative IPC: 0.547142 (Simulation time: 0 hr 30 min 23 sec) 
Heartbeat CPU 0 instructions: 56000000 cycles: 87259128 heartbeat IPC: 0.591752 cumulative IPC: 0.54804 (Simulation time: 0 hr 30 min 54 sec) 
Heartbeat CPU 0 instructions: 57000001 cycles: 89004965 heartbeat IPC: 0.572792 cumulative IPC: 0.548545 (Simulation time: 0 hr 31 min 21 sec) 
Heartbeat CPU 0 instructions: 58000000 cycles: 90760534 heartbeat IPC: 0.569615 cumulative IPC: 0.548968 (Simulation time: 0 hr 31 min 57 sec) 
Heartbeat CPU 0 instructions: 59000003 cycles: 92510580 heartbeat IPC: 0.571415 cumulative IPC: 0.549408 (Simulation time: 0 hr 32 min 32 sec) 
Heartbeat CPU 0 instructions: 60000000 cycles: 94263322 heartbeat IPC: 0.570533 cumulative IPC: 0.549815 (Simulation time: 0 hr 32 min 58 sec) 
Heartbeat CPU 0 instructions: 61000002 cycles: 96011549 heartbeat IPC: 0.572009 cumulative IPC: 0.550234 (Simulation time: 0 hr 33 min 35 sec) 
Heartbeat CPU 0 instructions: 62000001 cycles: 97760306 heartbeat IPC: 0.571834 cumulative IPC: 0.550634 (Simulation time: 0 hr 34 min 8 sec) 
Heartbeat CPU 0 instructions: 63000001 cycles: 99507850 heartbeat IPC: 0.572232 cumulative IPC: 0.551026 (Simulation time: 0 hr 34 min 43 sec) 
Heartbeat CPU 0 instructions: 64000000 cycles: 101263668 heartbeat IPC: 0.569535 cumulative IPC: 0.551358 (Simulation time: 0 hr 35 min 19 sec) 
Heartbeat CPU 0 instructions: 65000002 cycles: 103013140 heartbeat IPC: 0.571602 cumulative IPC: 0.551713 (Simulation time: 0 hr 35 min 52 sec) 
Heartbeat CPU 0 instructions: 66000002 cycles: 104766362 heartbeat IPC: 0.570378 cumulative IPC: 0.552036 (Simulation time: 0 hr 36 min 26 sec) 
Heartbeat CPU 0 instructions: 67000000 cycles: 106522546 heartbeat IPC: 0.569415 cumulative IPC: 0.552332 (Simulation time: 0 hr 36 min 59 sec) 
Heartbeat CPU 0 instructions: 68000000 cycles: 108273165 heartbeat IPC: 0.571227 cumulative IPC: 0.552647 (Simulation time: 0 hr 37 min 32 sec) 
Heartbeat CPU 0 instructions: 69000000 cycles: 110024218 heartbeat IPC: 0.571085 cumulative IPC: 0.552949 (Simulation time: 0 hr 38 min 6 sec) 
Heartbeat CPU 0 instructions: 70000002 cycles: 111779458 heartbeat IPC: 0.569724 cumulative IPC: 0.553221 (Simulation time: 0 hr 38 min 39 sec) 
Heartbeat CPU 0 instructions: 71000001 cycles: 113528219 heartbeat IPC: 0.571833 cumulative IPC: 0.553516 (Simulation time: 0 hr 39 min 14 sec) 
Heartbeat CPU 0 instructions: 72000000 cycles: 115283680 heartbeat IPC: 0.56965 cumulative IPC: 0.553769 (Simulation time: 0 hr 39 min 48 sec) 
Heartbeat CPU 0 instructions: 73000000 cycles: 117034380 heartbeat IPC: 0.5712 cumulative IPC: 0.554038 (Simulation time: 0 hr 40 min 23 sec) 
Heartbeat CPU 0 instructions: 74000000 cycles: 118806979 heartbeat IPC: 0.564143 cumulative IPC: 0.554193 (Simulation time: 0 hr 41 min 1 sec) 
Heartbeat CPU 0 instructions: 75000000 cycles: 121045087 heartbeat IPC: 0.446806 cumulative IPC: 0.552151 (Simulation time: 0 hr 41 min 47 sec) 
Heartbeat CPU 0 instructions: 76000000 cycles: 123596791 heartbeat IPC: 0.391895 cumulative IPC: 0.548751 (Simulation time: 0 hr 42 min 32 sec) 
Heartbeat CPU 0 instructions: 77000000 cycles: 126146148 heartbeat IPC: 0.392256 cumulative IPC: 0.545503 (Simulation time: 0 hr 43 min 19 sec) 
Heartbeat CPU 0 instructions: 78000000 cycles: 128695553 heartbeat IPC: 0.392248 cumulative IPC: 0.542386 (Simulation time: 0 hr 44 min 6 sec) 
Heartbeat CPU 0 instructions: 79000000 cycles: 131248048 heartbeat IPC: 0.391774 cumulative IPC: 0.539381 (Simulation time: 0 hr 44 min 53 sec) 
Heartbeat CPU 0 instructions: 80000000 cycles: 133800897 heartbeat IPC: 0.391719 cumulative IPC: 0.536492 (Simulation time: 0 hr 45 min 41 sec) 
Heartbeat CPU 0 instructions: 81000000 cycles: 136351727 heartbeat IPC: 0.392029 cumulative IPC: 0.533722 (Simulation time: 0 hr 46 min 28 sec) 
Heartbeat CPU 0 instructions: 82000000 cycles: 138901031 heartbeat IPC: 0.392264 cumulative IPC: 0.531062 (Simulation time: 0 hr 47 min 16 sec) 
Heartbeat CPU 0 instructions: 83000000 cycles: 141452591 heartbeat IPC: 0.391917 cumulative IPC: 0.528492 (Simulation time: 0 hr 48 min 5 sec) 
Heartbeat CPU 0 instructions: 84000000 cycles: 144002533 heartbeat IPC: 0.392166 cumulative IPC: 0.526021 (Simulation time: 0 hr 48 min 52 sec) 
Heartbeat CPU 0 instructions: 85000001 cycles: 146117077 heartbeat IPC: 0.472916 cumulative IPC: 0.525234 (Simulation time: 0 hr 49 min 37 sec) 
Heartbeat CPU 0 instructions: 86000000 cycles: 147826561 heartbeat IPC: 0.584971 cumulative IPC: 0.525941 (Simulation time: 0 hr 50 min 18 sec) 
Heartbeat CPU 0 instructions: 87000003 cycles: 149337392 heartbeat IPC: 0.661889 cumulative IPC: 0.527348 (Simulation time: 0 hr 50 min 57 sec) 
Heartbeat CPU 0 instructions: 88000000 cycles: 150847384 heartbeat IPC: 0.662253 cumulative IPC: 0.528729 (Simulation time: 0 hr 51 min 35 sec) 
Heartbeat CPU 0 instructions: 89000001 cycles: 152357431 heartbeat IPC: 0.662232 cumulative IPC: 0.530081 (Simulation time: 0 hr 52 min 11 sec) 
Heartbeat CPU 0 instructions: 90000000 cycles: 153867551 heartbeat IPC: 0.662198 cumulative IPC: 0.531407 (Simulation time: 0 hr 52 min 48 sec) 
Heartbeat CPU 0 instructions: 91000001 cycles: 155377474 heartbeat IPC: 0.662286 cumulative IPC: 0.532706 (Simulation time: 0 hr 53 min 23 sec) 
Heartbeat CPU 0 instructions: 92000000 cycles: 156887582 heartbeat IPC: 0.662204 cumulative IPC: 0.53398 (Simulation time: 0 hr 53 min 59 sec) 
Heartbeat CPU 0 instructions: 93000002 cycles: 158397736 heartbeat IPC: 0.662185 cumulative IPC: 0.535228 (Simulation time: 0 hr 54 min 36 sec) 
Heartbeat CPU 0 instructions: 94000001 cycles: 159907656 heartbeat IPC: 0.662286 cumulative IPC: 0.536453 (Simulation time: 0 hr 55 min 13 sec) 
Heartbeat CPU 0 instructions: 95000000 cycles: 161417580 heartbeat IPC: 0.662284 cumulative IPC: 0.537655 (Simulation time: 0 hr 55 min 51 sec) 
Heartbeat CPU 0 instructions: 96000000 cycles: 162927574 heartbeat IPC: 0.662254 cumulative IPC: 0.538834 (Simulation time: 0 hr 56 min 28 sec) 
Heartbeat CPU 0 instructions: 97000002 cycles: 164437620 heartbeat IPC: 0.662233 cumulative IPC: 0.539991 (Simulation time: 0 hr 57 min 6 sec) 
Heartbeat CPU 0 instructions: 98000001 cycles: 165947542 heartbeat IPC: 0.662285 cumulative IPC: 0.541126 (Simulation time: 0 hr 57 min 43 sec) 
Heartbeat CPU 0 instructions: 99000000 cycles: 167457536 heartbeat IPC: 0.662254 cumulative IPC: 0.54224 (Simulation time: 0 hr 58 min 22 sec) 
Heartbeat CPU 0 instructions: 100000000 cycles: 168967457 heartbeat IPC: 0.662286 cumulative IPC: 0.543335 (Simulation time: 0 hr 58 min 58 sec) 
Heartbeat CPU 0 instructions: 101000000 cycles: 170477502 heartbeat IPC: 0.662232 cumulative IPC: 0.544409 (Simulation time: 0 hr 59 min 35 sec) 
Heartbeat CPU 0 instructions: 102000002 cycles: 171987425 heartbeat IPC: 0.662287 cumulative IPC: 0.545464 (Simulation time: 1 hr 0 min 12 sec) 
Heartbeat CPU 0 instructions: 103000001 cycles: 173497423 heartbeat IPC: 0.662252 cumulative IPC: 0.5465 (Simulation time: 1 hr 0 min 46 sec) 
Heartbeat CPU 0 instructions: 104000000 cycles: 175436550 heartbeat IPC: 0.515695 cumulative IPC: 0.546153 (Simulation time: 1 hr 1 min 23 sec) 
Heartbeat CPU 0 instructions: 105000000 cycles: 177991959 heartbeat IPC: 0.391327 cumulative IPC: 0.543888 (Simulation time: 1 hr 2 min 1 sec) 
Heartbeat CPU 0 instructions: 106000000 cycles: 180549250 heartbeat IPC: 0.391039 cumulative IPC: 0.541683 (Simulation time: 1 hr 2 min 35 sec) 
Heartbeat CPU 0 instructions: 107000000 cycles: 183101366 heartbeat IPC: 0.391832 cumulative IPC: 0.539555 (Simulation time: 1 hr 3 min 9 sec) 
Heartbeat CPU 0 instructions: 108000000 cycles: 185658439 heartbeat IPC: 0.391072 cumulative IPC: 0.537473 (Simulation time: 1 hr 3 min 44 sec) 
Heartbeat CPU 0 instructions: 109000000 cycles: 188219468 heartbeat IPC: 0.390468 cumulative IPC: 0.535437 (Simulation time: 1 hr 4 min 16 sec) 
Heartbeat CPU 0 instructions: 110000000 cycles: 190777510 heartbeat IPC: 0.390924 cumulative IPC: 0.533465 (Simulation time: 1 hr 4 min 48 sec) 
Finished CPU 0 instructions: 100000003 cycles: 187453827 cummulative IPC: 0.533465 (Simulation time: 1 hr 4 min 48 sec) 

ChampSim completed all CPUs

Region of Interest Statistics

CPU 0 cummulative IPC: 0.533465 instructions: 100000003 cycles: 187453827
LLC TOTAL     ACCESS:    4917133  HIT:    1526698  MISS:    3390435
LLC LOAD      ACCESS:    1217454  HIT:          0  MISS:    1217454
LLC RFO       ACCESS:         24  HIT:          0  MISS:         24
LLC PREFETCH  ACCESS:    2172957  HIT:          0  MISS:    2172957
LLC WRITEBACK ACCESS:    1526698  HIT:    1526698  MISS:          0
