
*** ChampSim Multicore Out-of-Order Simulator ***

Warmup Instructions: 10000000
Simulation Instructions: 100000000
Configuration: 2
Number of CPUs: 1
LLC sets: 2048
LLC ways: 16
Off-chip DRAM Channels: 1 Width: 64-bit Data Rate: 1600 MT/s

CPU 0 runs /datasets/cs240c-wi22-a00-public/data/Assignment2-gz/soplex_66B.trace.gz
CPU 0 L1D next line prefetcher
CPU 0 L2C IP-based stride prefetcher
Initialize LRU replacement state
Heartbeat CPU 0 instructions: 1000003 cycles: 415066 heartbeat IPC: 2.40926 cumulative IPC: 2.40926 (Simulation time: 0 hr 0 min 47 sec) 
Heartbeat CPU 0 instructions: 2000003 cycles: 837389 heartbeat IPC: 2.36786 cumulative IPC: 2.38838 (Simulation time: 0 hr 1 min 36 sec) 
Heartbeat CPU 0 instructions: 3000003 cycles: 1242532 heartbeat IPC: 2.46826 cumulative IPC: 2.41443 (Simulation time: 0 hr 2 min 23 sec) 
Heartbeat CPU 0 instructions: 4000000 cycles: 1626647 heartbeat IPC: 2.60338 cumulative IPC: 2.45905 (Simulation time: 0 hr 3 min 12 sec) 
Heartbeat CPU 0 instructions: 5000000 cycles: 2036937 heartbeat IPC: 2.4373 cumulative IPC: 2.45467 (Simulation time: 0 hr 4 min 3 sec) 
Heartbeat CPU 0 instructions: 6000000 cycles: 2510549 heartbeat IPC: 2.11143 cumulative IPC: 2.38992 (Simulation time: 0 hr 4 min 49 sec) 
Heartbeat CPU 0 instructions: 7000002 cycles: 2882635 heartbeat IPC: 2.68756 cumulative IPC: 2.42833 (Simulation time: 0 hr 5 min 40 sec) 
Heartbeat CPU 0 instructions: 8000000 cycles: 3308020 heartbeat IPC: 2.35081 cumulative IPC: 2.41837 (Simulation time: 0 hr 6 min 36 sec) 
Heartbeat CPU 0 instructions: 9000001 cycles: 3746525 heartbeat IPC: 2.28048 cumulative IPC: 2.40223 (Simulation time: 0 hr 7 min 25 sec) 
Heartbeat CPU 0 instructions: 10000002 cycles: 4158748 heartbeat IPC: 2.42587 cumulative IPC: 2.40457 (Simulation time: 0 hr 8 min 17 sec) 

Warmup complete CPU 0 instructions: 10000002 cycles: 4158748 (Simulation time: 0 hr 8 min 17 sec) 

Heartbeat CPU 0 instructions: 11000001 cycles: 7508394 heartbeat IPC: 0.298539 cumulative IPC: 0.298539 (Simulation time: 0 hr 9 min 24 sec) 
Heartbeat CPU 0 instructions: 12000000 cycles: 8898254 heartbeat IPC: 0.719496 cumulative IPC: 0.421984 (Simulation time: 0 hr 10 min 7 sec) 
Heartbeat CPU 0 instructions: 13000001 cycles: 11899451 heartbeat IPC: 0.333201 cumulative IPC: 0.387562 (Simulation time: 0 hr 11 min 9 sec) 
Heartbeat CPU 0 instructions: 14000002 cycles: 14247606 heartbeat IPC: 0.425867 cumulative IPC: 0.396477 (Simulation time: 0 hr 12 min 11 sec) 
Heartbeat CPU 0 instructions: 15000002 cycles: 16520980 heartbeat IPC: 0.439875 cumulative IPC: 0.404458 (Simulation time: 0 hr 13 min 0 sec) 
Heartbeat CPU 0 instructions: 16000000 cycles: 19267836 heartbeat IPC: 0.364052 cumulative IPC: 0.397112 (Simulation time: 0 hr 14 min 6 sec) 
Heartbeat CPU 0 instructions: 17000001 cycles: 21848478 heartbeat IPC: 0.387501 cumulative IPC: 0.39571 (Simulation time: 0 hr 15 min 18 sec) 
Heartbeat CPU 0 instructions: 18000000 cycles: 23891830 heartbeat IPC: 0.489391 cumulative IPC: 0.40541 (Simulation time: 0 hr 16 min 23 sec) 
Heartbeat CPU 0 instructions: 19000002 cycles: 27658261 heartbeat IPC: 0.265504 cumulative IPC: 0.382987 (Simulation time: 0 hr 17 min 39 sec) 
Heartbeat CPU 0 instructions: 20000000 cycles: 29047517 heartbeat IPC: 0.719808 cumulative IPC: 0.401788 (Simulation time: 0 hr 18 min 22 sec) 
Heartbeat CPU 0 instructions: 21000000 cycles: 31616279 heartbeat IPC: 0.389293 cumulative IPC: 0.400619 (Simulation time: 0 hr 19 min 22 sec) 
Heartbeat CPU 0 instructions: 22000000 cycles: 34278920 heartbeat IPC: 0.375567 cumulative IPC: 0.398404 (Simulation time: 0 hr 20 min 27 sec) 
Heartbeat CPU 0 instructions: 23000000 cycles: 36548430 heartbeat IPC: 0.440624 cumulative IPC: 0.401362 (Simulation time: 0 hr 21 min 13 sec) 
Heartbeat CPU 0 instructions: 24000000 cycles: 38963905 heartbeat IPC: 0.413997 cumulative IPC: 0.402239 (Simulation time: 0 hr 22 min 3 sec) 
Heartbeat CPU 0 instructions: 25000003 cycles: 41640712 heartbeat IPC: 0.373581 cumulative IPC: 0.400192 (Simulation time: 0 hr 23 min 22 sec) 
Heartbeat CPU 0 instructions: 26000001 cycles: 43986427 heartbeat IPC: 0.426308 cumulative IPC: 0.401731 (Simulation time: 0 hr 24 min 26 sec) 
Heartbeat CPU 0 instructions: 27000002 cycles: 47778848 heartbeat IPC: 0.263684 cumulative IPC: 0.389729 (Simulation time: 0 hr 25 min 45 sec) 
Heartbeat CPU 0 instructions: 28000000 cycles: 49168476 heartbeat IPC: 0.719616 cumulative IPC: 0.399913 (Simulation time: 0 hr 26 min 30 sec) 
Heartbeat CPU 0 instructions: 29000002 cycles: 51264908 heartbeat IPC: 0.477002 cumulative IPC: 0.403344 (Simulation time: 0 hr 27 min 23 sec) 
Heartbeat CPU 0 instructions: 30000000 cycles: 54225287 heartbeat IPC: 0.337794 cumulative IPC: 0.399468 (Simulation time: 0 hr 28 min 26 sec) 
Heartbeat CPU 0 instructions: 31000001 cycles: 56583813 heartbeat IPC: 0.423994 cumulative IPC: 0.400572 (Simulation time: 0 hr 29 min 13 sec) 
Heartbeat CPU 0 instructions: 32000000 cycles: 58861323 heartbeat IPC: 0.439076 cumulative IPC: 0.402175 (Simulation time: 0 hr 30 min 4 sec) 
Heartbeat CPU 0 instructions: 33000001 cycles: 62628793 heartbeat IPC: 0.26543 cumulative IPC: 0.393364 (Simulation time: 0 hr 31 min 29 sec) 
Heartbeat CPU 0 instructions: 34000003 cycles: 64716746 heartbeat IPC: 0.478939 cumulative IPC: 0.396314 (Simulation time: 0 hr 32 min 31 sec) 
Heartbeat CPU 0 instructions: 35000003 cycles: 68057519 heartbeat IPC: 0.299332 cumulative IPC: 0.391244 (Simulation time: 0 hr 33 min 42 sec) 
Heartbeat CPU 0 instructions: 36000000 cycles: 69448363 heartbeat IPC: 0.718986 cumulative IPC: 0.398226 (Simulation time: 0 hr 34 min 28 sec) 
Heartbeat CPU 0 instructions: 37000000 cycles: 72476663 heartbeat IPC: 0.330218 cumulative IPC: 0.395211 (Simulation time: 0 hr 35 min 30 sec) 
Heartbeat CPU 0 instructions: 38000001 cycles: 74803816 heartbeat IPC: 0.42971 cumulative IPC: 0.396348 (Simulation time: 0 hr 36 min 33 sec) 
Heartbeat CPU 0 instructions: 39000003 cycles: 77084545 heartbeat IPC: 0.438457 cumulative IPC: 0.397665 (Simulation time: 0 hr 37 min 22 sec) 
Heartbeat CPU 0 instructions: 40000000 cycles: 79819021 heartbeat IPC: 0.3657 cumulative IPC: 0.396509 (Simulation time: 0 hr 38 min 28 sec) 
Heartbeat CPU 0 instructions: 41000001 cycles: 82378976 heartbeat IPC: 0.390632 cumulative IPC: 0.396317 (Simulation time: 0 hr 39 min 35 sec) 
Heartbeat CPU 0 instructions: 42000003 cycles: 84416307 heartbeat IPC: 0.490839 cumulative IPC: 0.398716 (Simulation time: 0 hr 40 min 35 sec) 
Heartbeat CPU 0 instructions: 43000000 cycles: 88205264 heartbeat IPC: 0.263924 cumulative IPC: 0.39264 (Simulation time: 0 hr 41 min 52 sec) 
Heartbeat CPU 0 instructions: 44000000 cycles: 89586737 heartbeat IPC: 0.723865 cumulative IPC: 0.397996 (Simulation time: 0 hr 42 min 36 sec) 
Heartbeat CPU 0 instructions: 45000003 cycles: 92151823 heartbeat IPC: 0.389852 cumulative IPC: 0.397759 (Simulation time: 0 hr 43 min 30 sec) 
Heartbeat CPU 0 instructions: 46000003 cycles: 94826372 heartbeat IPC: 0.373895 cumulative IPC: 0.397055 (Simulation time: 0 hr 44 min 32 sec) 
Heartbeat CPU 0 instructions: 47000001 cycles: 97092524 heartbeat IPC: 0.441276 cumulative IPC: 0.398133 (Simulation time: 0 hr 45 min 17 sec) 
Heartbeat CPU 0 instructions: 48000000 cycles: 99487012 heartbeat IPC: 0.417625 cumulative IPC: 0.398623 (Simulation time: 0 hr 46 min 12 sec) 
Heartbeat CPU 0 instructions: 49000000 cycles: 102967181 heartbeat IPC: 0.287342 cumulative IPC: 0.394703 (Simulation time: 0 hr 47 min 40 sec) 
Heartbeat CPU 0 instructions: 50000003 cycles: 108138507 heartbeat IPC: 0.193375 cumulative IPC: 0.38469 (Simulation time: 0 hr 49 min 0 sec) 
Heartbeat CPU 0 instructions: 51000002 cycles: 110618958 heartbeat IPC: 0.403152 cumulative IPC: 0.38512 (Simulation time: 0 hr 50 min 17 sec) 
Heartbeat CPU 0 instructions: 52000000 cycles: 114335017 heartbeat IPC: 0.269102 cumulative IPC: 0.381207 (Simulation time: 0 hr 51 min 13 sec) 
Heartbeat CPU 0 instructions: 53000003 cycles: 116928221 heartbeat IPC: 0.385624 cumulative IPC: 0.381309 (Simulation time: 0 hr 52 min 0 sec) 
Heartbeat CPU 0 instructions: 54000000 cycles: 119533688 heartbeat IPC: 0.383807 cumulative IPC: 0.381365 (Simulation time: 0 hr 52 min 50 sec) 
Heartbeat CPU 0 instructions: 55000002 cycles: 122980446 heartbeat IPC: 0.290128 cumulative IPC: 0.378719 (Simulation time: 0 hr 53 min 35 sec) 
Heartbeat CPU 0 instructions: 56000000 cycles: 126229924 heartbeat IPC: 0.307741 cumulative IPC: 0.376829 (Simulation time: 0 hr 54 min 19 sec) 
Heartbeat CPU 0 instructions: 57000003 cycles: 128767191 heartbeat IPC: 0.394126 cumulative IPC: 0.377182 (Simulation time: 0 hr 55 min 0 sec) 
Heartbeat CPU 0 instructions: 58000002 cycles: 130911982 heartbeat IPC: 0.466245 cumulative IPC: 0.378689 (Simulation time: 0 hr 55 min 43 sec) 
Heartbeat CPU 0 instructions: 59000002 cycles: 132420766 heartbeat IPC: 0.662785 cumulative IPC: 0.38203 (Simulation time: 0 hr 56 min 23 sec) 
Heartbeat CPU 0 instructions: 60000000 cycles: 133823387 heartbeat IPC: 0.71295 cumulative IPC: 0.38561 (Simulation time: 0 hr 57 min 2 sec) 
Heartbeat CPU 0 instructions: 61000002 cycles: 136539128 heartbeat IPC: 0.368224 cumulative IPC: 0.385253 (Simulation time: 0 hr 57 min 48 sec) 
Heartbeat CPU 0 instructions: 62000000 cycles: 138915148 heartbeat IPC: 0.420871 cumulative IPC: 0.385881 (Simulation time: 0 hr 58 min 35 sec) 
Heartbeat CPU 0 instructions: 63000002 cycles: 140795300 heartbeat IPC: 0.531873 cumulative IPC: 0.38789 (Simulation time: 0 hr 59 min 20 sec) 
Heartbeat CPU 0 instructions: 64000000 cycles: 143349290 heartbeat IPC: 0.391543 cumulative IPC: 0.387957 (Simulation time: 1 hr 0 min 2 sec) 
Heartbeat CPU 0 instructions: 65000000 cycles: 147087533 heartbeat IPC: 0.267505 cumulative IPC: 0.384807 (Simulation time: 1 hr 0 min 51 sec) 
Heartbeat CPU 0 instructions: 66000001 cycles: 148475605 heartbeat IPC: 0.720424 cumulative IPC: 0.388035 (Simulation time: 1 hr 1 min 16 sec) 
Heartbeat CPU 0 instructions: 67000000 cycles: 149893715 heartbeat IPC: 0.705163 cumulative IPC: 0.391121 (Simulation time: 1 hr 1 min 41 sec) 
Heartbeat CPU 0 instructions: 68000000 cycles: 153388348 heartbeat IPC: 0.286153 cumulative IPC: 0.388663 (Simulation time: 1 hr 2 min 19 sec) 
Heartbeat CPU 0 instructions: 69000000 cycles: 155820861 heartbeat IPC: 0.411097 cumulative IPC: 0.389023 (Simulation time: 1 hr 2 min 43 sec) 
Heartbeat CPU 0 instructions: 70000003 cycles: 158024411 heartbeat IPC: 0.453815 cumulative IPC: 0.389951 (Simulation time: 1 hr 3 min 8 sec) 
Heartbeat CPU 0 instructions: 71000000 cycles: 160530553 heartbeat IPC: 0.399018 cumulative IPC: 0.390096 (Simulation time: 1 hr 3 min 44 sec) 
Heartbeat CPU 0 instructions: 72000000 cycles: 163575629 heartbeat IPC: 0.328399 cumulative IPC: 0.388917 (Simulation time: 1 hr 4 min 16 sec) 
Heartbeat CPU 0 instructions: 73000001 cycles: 166681789 heartbeat IPC: 0.321941 cumulative IPC: 0.387637 (Simulation time: 1 hr 4 min 50 sec) 
Heartbeat CPU 0 instructions: 74000000 cycles: 168747591 heartbeat IPC: 0.484073 cumulative IPC: 0.388848 (Simulation time: 1 hr 5 min 12 sec) 
Heartbeat CPU 0 instructions: 75000002 cycles: 170146063 heartbeat IPC: 0.715068 cumulative IPC: 0.391596 (Simulation time: 1 hr 5 min 30 sec) 
Heartbeat CPU 0 instructions: 76000000 cycles: 173638318 heartbeat IPC: 0.286347 cumulative IPC: 0.389427 (Simulation time: 1 hr 5 min 59 sec) 
Heartbeat CPU 0 instructions: 77000000 cycles: 175893568 heartbeat IPC: 0.44341 cumulative IPC: 0.390136 (Simulation time: 1 hr 6 min 19 sec) 
Heartbeat CPU 0 instructions: 78000003 cycles: 178101493 heartbeat IPC: 0.452915 cumulative IPC: 0.390933 (Simulation time: 1 hr 6 min 37 sec) 
Heartbeat CPU 0 instructions: 79000001 cycles: 181258235 heartbeat IPC: 0.316782 cumulative IPC: 0.389612 (Simulation time: 1 hr 7 min 9 sec) 
Heartbeat CPU 0 instructions: 80000000 cycles: 184147840 heartbeat IPC: 0.346068 cumulative IPC: 0.388912 (Simulation time: 1 hr 7 min 36 sec) 
Heartbeat CPU 0 instructions: 81000003 cycles: 187539289 heartbeat IPC: 0.29486 cumulative IPC: 0.387173 (Simulation time: 1 hr 8 min 5 sec) 
Heartbeat CPU 0 instructions: 82000000 cycles: 189343048 heartbeat IPC: 0.554396 cumulative IPC: 0.388802 (Simulation time: 1 hr 8 min 23 sec) 
Heartbeat CPU 0 instructions: 83000001 cycles: 190740881 heartbeat IPC: 0.715394 cumulative IPC: 0.391249 (Simulation time: 1 hr 8 min 39 sec) 
Heartbeat CPU 0 instructions: 84000000 cycles: 194246026 heartbeat IPC: 0.285295 cumulative IPC: 0.389295 (Simulation time: 1 hr 9 min 4 sec) 
Heartbeat CPU 0 instructions: 85000002 cycles: 196527635 heartbeat IPC: 0.438288 cumulative IPC: 0.389876 (Simulation time: 1 hr 9 min 23 sec) 
Heartbeat CPU 0 instructions: 86000000 cycles: 198785250 heartbeat IPC: 0.442944 cumulative IPC: 0.390492 (Simulation time: 1 hr 9 min 40 sec) 
Heartbeat CPU 0 instructions: 87000001 cycles: 201956071 heartbeat IPC: 0.315376 cumulative IPC: 0.389287 (Simulation time: 1 hr 10 min 9 sec) 
Heartbeat CPU 0 instructions: 88000000 cycles: 204448120 heartbeat IPC: 0.401276 cumulative IPC: 0.389437 (Simulation time: 1 hr 10 min 31 sec) 
Heartbeat CPU 0 instructions: 89000001 cycles: 208181552 heartbeat IPC: 0.26785 cumulative IPC: 0.387212 (Simulation time: 1 hr 10 min 58 sec) 
Heartbeat CPU 0 instructions: 90000002 cycles: 209571169 heartbeat IPC: 0.719623 cumulative IPC: 0.38946 (Simulation time: 1 hr 11 min 12 sec) 
Heartbeat CPU 0 instructions: 91000000 cycles: 211096424 heartbeat IPC: 0.655627 cumulative IPC: 0.391422 (Simulation time: 1 hr 11 min 27 sec) 
Heartbeat CPU 0 instructions: 92000000 cycles: 214480868 heartbeat IPC: 0.295469 cumulative IPC: 0.389878 (Simulation time: 1 hr 11 min 48 sec) 
Heartbeat CPU 0 instructions: 93000000 cycles: 216932034 heartbeat IPC: 0.407969 cumulative IPC: 0.390087 (Simulation time: 1 hr 12 min 3 sec) 
Heartbeat CPU 0 instructions: 94000001 cycles: 219145927 heartbeat IPC: 0.451693 cumulative IPC: 0.390721 (Simulation time: 1 hr 12 min 18 sec) 
Heartbeat CPU 0 instructions: 95000003 cycles: 222680438 heartbeat IPC: 0.282925 cumulative IPC: 0.388977 (Simulation time: 1 hr 12 min 40 sec) 
Heartbeat CPU 0 instructions: 96000000 cycles: 224738620 heartbeat IPC: 0.485864 cumulative IPC: 0.389881 (Simulation time: 1 hr 12 min 56 sec) 
Heartbeat CPU 0 instructions: 97000003 cycles: 228334057 heartbeat IPC: 0.278131 cumulative IPC: 0.388089 (Simulation time: 1 hr 13 min 12 sec) 
Heartbeat CPU 0 instructions: 98000003 cycles: 229720525 heartbeat IPC: 0.721257 cumulative IPC: 0.390137 (Simulation time: 1 hr 13 min 21 sec) 
Heartbeat CPU 0 instructions: 99000000 cycles: 232466732 heartbeat IPC: 0.364138 cumulative IPC: 0.389824 (Simulation time: 1 hr 13 min 33 sec) 
Heartbeat CPU 0 instructions: 100000000 cycles: 235019581 heartbeat IPC: 0.391719 cumulative IPC: 0.389845 (Simulation time: 1 hr 13 min 45 sec) 
Heartbeat CPU 0 instructions: 101000001 cycles: 237265974 heartbeat IPC: 0.445159 cumulative IPC: 0.390378 (Simulation time: 1 hr 13 min 55 sec) 
Heartbeat CPU 0 instructions: 102000000 cycles: 239779024 heartbeat IPC: 0.397922 cumulative IPC: 0.390459 (Simulation time: 1 hr 14 min 7 sec) 
Heartbeat CPU 0 instructions: 103000002 cycles: 243318643 heartbeat IPC: 0.282517 cumulative IPC: 0.388861 (Simulation time: 1 hr 14 min 21 sec) 
Heartbeat CPU 0 instructions: 104000000 cycles: 245877629 heartbeat IPC: 0.390779 cumulative IPC: 0.388881 (Simulation time: 1 hr 14 min 34 sec) 
Heartbeat CPU 0 instructions: 105000000 cycles: 248475912 heartbeat IPC: 0.38487 cumulative IPC: 0.388839 (Simulation time: 1 hr 14 min 44 sec) 
Heartbeat CPU 0 instructions: 106000001 cycles: 249869450 heartbeat IPC: 0.717599 cumulative IPC: 0.390703 (Simulation time: 1 hr 14 min 52 sec) 
Heartbeat CPU 0 instructions: 107000001 cycles: 253269156 heartbeat IPC: 0.294143 cumulative IPC: 0.389386 (Simulation time: 1 hr 15 min 1 sec) 
Heartbeat CPU 0 instructions: 108000000 cycles: 255376891 heartbeat IPC: 0.474442 cumulative IPC: 0.390099 (Simulation time: 1 hr 15 min 8 sec) 
Heartbeat CPU 0 instructions: 109000003 cycles: 257633210 heartbeat IPC: 0.443201 cumulative IPC: 0.390572 (Simulation time: 1 hr 15 min 14 sec) 
Heartbeat CPU 0 instructions: 110000001 cycles: 260674412 heartbeat IPC: 0.328817 cumulative IPC: 0.38984 (Simulation time: 1 hr 15 min 23 sec) 
Finished CPU 0 instructions: 100000003 cycles: 256515665 cummulative IPC: 0.38984 (Simulation time: 1 hr 15 min 23 sec) 

ChampSim completed all CPUs

Region of Interest Statistics

CPU 0 cummulative IPC: 0.38984 instructions: 100000003 cycles: 256515665
LLC TOTAL     ACCESS:    6620953  HIT:    3144836  MISS:    3476117
LLC LOAD      ACCESS:    1715645  HIT:     567745  MISS:    1147900
LLC RFO       ACCESS:     658480  HIT:     168568  MISS:     489912
LLC PREFETCH  ACCESS:    2686146  HIT:     848031  MISS:    1838115
LLC WRITEBACK ACCESS:    1560682  HIT:    1560492  MISS:        190
