
*** ChampSim Multicore Out-of-Order Simulator ***

Warmup Instructions: 10000000
Simulation Instructions: 100000000
Configuration: 2
Number of CPUs: 1
LLC sets: 2048
LLC ways: 16
Off-chip DRAM Channels: 1 Width: 64-bit Data Rate: 1600 MT/s

CPU 0 runs /datasets/cs240c-wi22-a00-public/data/Assignment2-gz/lbm_564B.trace.gz
CPU 0 L1D next line prefetcher
CPU 0 L2C IP-based stride prefetcher
Initialize SRRIP state
Heartbeat CPU 0 instructions: 1000000 cycles: 390168 heartbeat IPC: 2.563 cumulative IPC: 2.563 (Simulation time: 0 hr 0 min 29 sec) 
Heartbeat CPU 0 instructions: 2000003 cycles: 785204 heartbeat IPC: 2.53142 cumulative IPC: 2.54711 (Simulation time: 0 hr 0 min 58 sec) 
Heartbeat CPU 0 instructions: 3000002 cycles: 1175398 heartbeat IPC: 2.56283 cumulative IPC: 2.55233 (Simulation time: 0 hr 1 min 26 sec) 
Heartbeat CPU 0 instructions: 4000000 cycles: 1565578 heartbeat IPC: 2.56291 cumulative IPC: 2.55497 (Simulation time: 0 hr 1 min 57 sec) 
Heartbeat CPU 0 instructions: 5000000 cycles: 1960703 heartbeat IPC: 2.53084 cumulative IPC: 2.55011 (Simulation time: 0 hr 2 min 28 sec) 
Heartbeat CPU 0 instructions: 6000002 cycles: 2350859 heartbeat IPC: 2.56308 cumulative IPC: 2.55226 (Simulation time: 0 hr 2 min 57 sec) 
Heartbeat CPU 0 instructions: 7000001 cycles: 2741122 heartbeat IPC: 2.56237 cumulative IPC: 2.5537 (Simulation time: 0 hr 3 min 26 sec) 
Heartbeat CPU 0 instructions: 8000000 cycles: 3136117 heartbeat IPC: 2.53168 cumulative IPC: 2.55093 (Simulation time: 0 hr 3 min 55 sec) 
Heartbeat CPU 0 instructions: 9000000 cycles: 3526378 heartbeat IPC: 2.56239 cumulative IPC: 2.55219 (Simulation time: 0 hr 4 min 22 sec) 
Heartbeat CPU 0 instructions: 10000002 cycles: 3916523 heartbeat IPC: 2.56315 cumulative IPC: 2.55329 (Simulation time: 0 hr 4 min 51 sec) 

Warmup complete CPU 0 instructions: 10000002 cycles: 3916523 (Simulation time: 0 hr 4 min 51 sec) 

Heartbeat CPU 0 instructions: 11000000 cycles: 5417061 heartbeat IPC: 0.666426 cumulative IPC: 0.666426 (Simulation time: 0 hr 5 min 28 sec) 
Heartbeat CPU 0 instructions: 12000000 cycles: 6910470 heartbeat IPC: 0.669609 cumulative IPC: 0.668014 (Simulation time: 0 hr 6 min 4 sec) 
Heartbeat CPU 0 instructions: 13000001 cycles: 8406194 heartbeat IPC: 0.668573 cumulative IPC: 0.6682 (Simulation time: 0 hr 6 min 37 sec) 
Heartbeat CPU 0 instructions: 14000001 cycles: 9894997 heartbeat IPC: 0.671681 cumulative IPC: 0.669067 (Simulation time: 0 hr 7 min 10 sec) 
Heartbeat CPU 0 instructions: 15000000 cycles: 11445441 heartbeat IPC: 0.644976 cumulative IPC: 0.664106 (Simulation time: 0 hr 7 min 42 sec) 
Heartbeat CPU 0 instructions: 16000000 cycles: 12918614 heartbeat IPC: 0.678807 cumulative IPC: 0.666512 (Simulation time: 0 hr 8 min 13 sec) 
Heartbeat CPU 0 instructions: 17000000 cycles: 14414020 heartbeat IPC: 0.668715 cumulative IPC: 0.666825 (Simulation time: 0 hr 8 min 45 sec) 
Heartbeat CPU 0 instructions: 18000000 cycles: 15955517 heartbeat IPC: 0.64872 cumulative IPC: 0.664507 (Simulation time: 0 hr 9 min 16 sec) 
Heartbeat CPU 0 instructions: 19000003 cycles: 17378311 heartbeat IPC: 0.702845 cumulative IPC: 0.668559 (Simulation time: 0 hr 9 min 50 sec) 
Heartbeat CPU 0 instructions: 20000000 cycles: 18840736 heartbeat IPC: 0.683794 cumulative IPC: 0.670052 (Simulation time: 0 hr 10 min 25 sec) 
Heartbeat CPU 0 instructions: 21000003 cycles: 20297003 heartbeat IPC: 0.686689 cumulative IPC: 0.671531 (Simulation time: 0 hr 11 min 2 sec) 
Heartbeat CPU 0 instructions: 22000003 cycles: 22363498 heartbeat IPC: 0.483911 cumulative IPC: 0.650513 (Simulation time: 0 hr 11 min 46 sec) 
Heartbeat CPU 0 instructions: 23000001 cycles: 24626198 heartbeat IPC: 0.441949 cumulative IPC: 0.627726 (Simulation time: 0 hr 12 min 35 sec) 
Heartbeat CPU 0 instructions: 24000000 cycles: 31523623 heartbeat IPC: 0.144982 cumulative IPC: 0.507116 (Simulation time: 0 hr 13 min 57 sec) 
Heartbeat CPU 0 instructions: 25000003 cycles: 34400455 heartbeat IPC: 0.347606 cumulative IPC: 0.492063 (Simulation time: 0 hr 14 min 52 sec) 
Heartbeat CPU 0 instructions: 26000002 cycles: 36818789 heartbeat IPC: 0.413507 cumulative IPC: 0.486289 (Simulation time: 0 hr 15 min 46 sec) 
Heartbeat CPU 0 instructions: 27000003 cycles: 38202669 heartbeat IPC: 0.722607 cumulative IPC: 0.495827 (Simulation time: 0 hr 16 min 23 sec) 
Heartbeat CPU 0 instructions: 28000000 cycles: 39542947 heartbeat IPC: 0.746112 cumulative IPC: 0.505243 (Simulation time: 0 hr 16 min 58 sec) 
Heartbeat CPU 0 instructions: 29000003 cycles: 41032760 heartbeat IPC: 0.671227 cumulative IPC: 0.511905 (Simulation time: 0 hr 17 min 33 sec) 
Heartbeat CPU 0 instructions: 30000000 cycles: 42561499 heartbeat IPC: 0.654132 cumulative IPC: 0.517532 (Simulation time: 0 hr 18 min 7 sec) 
Heartbeat CPU 0 instructions: 31000000 cycles: 43949683 heartbeat IPC: 0.720366 cumulative IPC: 0.524565 (Simulation time: 0 hr 18 min 39 sec) 
Heartbeat CPU 0 instructions: 32000000 cycles: 45342323 heartbeat IPC: 0.718061 cumulative IPC: 0.53107 (Simulation time: 0 hr 19 min 12 sec) 
Heartbeat CPU 0 instructions: 33000001 cycles: 46930976 heartbeat IPC: 0.629465 cumulative IPC: 0.534704 (Simulation time: 0 hr 19 min 49 sec) 
Heartbeat CPU 0 instructions: 34000001 cycles: 48384438 heartbeat IPC: 0.688012 cumulative IPC: 0.539715 (Simulation time: 0 hr 20 min 27 sec) 
Heartbeat CPU 0 instructions: 35000002 cycles: 49863713 heartbeat IPC: 0.676008 cumulative IPC: 0.544103 (Simulation time: 0 hr 21 min 5 sec) 
Heartbeat CPU 0 instructions: 36000000 cycles: 51350798 heartbeat IPC: 0.672455 cumulative IPC: 0.548127 (Simulation time: 0 hr 21 min 44 sec) 
Heartbeat CPU 0 instructions: 37000000 cycles: 52943541 heartbeat IPC: 0.627848 cumulative IPC: 0.550717 (Simulation time: 0 hr 22 min 20 sec) 
Heartbeat CPU 0 instructions: 38000003 cycles: 54403011 heartbeat IPC: 0.685182 cumulative IPC: 0.554604 (Simulation time: 0 hr 22 min 55 sec) 
Heartbeat CPU 0 instructions: 39000002 cycles: 55826126 heartbeat IPC: 0.702683 cumulative IPC: 0.558663 (Simulation time: 0 hr 23 min 35 sec) 
Heartbeat CPU 0 instructions: 40000000 cycles: 57344174 heartbeat IPC: 0.658739 cumulative IPC: 0.561507 (Simulation time: 0 hr 24 min 8 sec) 
Heartbeat CPU 0 instructions: 41000000 cycles: 58803521 heartbeat IPC: 0.685238 cumulative IPC: 0.564797 (Simulation time: 0 hr 24 min 42 sec) 
Heartbeat CPU 0 instructions: 42000002 cycles: 60174062 heartbeat IPC: 0.72964 cumulative IPC: 0.568813 (Simulation time: 0 hr 25 min 13 sec) 
Heartbeat CPU 0 instructions: 43000001 cycles: 61597881 heartbeat IPC: 0.702336 cumulative IPC: 0.572109 (Simulation time: 0 hr 25 min 49 sec) 
Heartbeat CPU 0 instructions: 44000000 cycles: 63058582 heartbeat IPC: 0.684602 cumulative IPC: 0.574887 (Simulation time: 0 hr 26 min 23 sec) 
Heartbeat CPU 0 instructions: 45000001 cycles: 64450049 heartbeat IPC: 0.718667 cumulative IPC: 0.578192 (Simulation time: 0 hr 26 min 58 sec) 
Heartbeat CPU 0 instructions: 46000002 cycles: 65842644 heartbeat IPC: 0.718085 cumulative IPC: 0.581338 (Simulation time: 0 hr 27 min 30 sec) 
Heartbeat CPU 0 instructions: 47000001 cycles: 67407999 heartbeat IPC: 0.638832 cumulative IPC: 0.582755 (Simulation time: 0 hr 28 min 4 sec) 
Heartbeat CPU 0 instructions: 48000000 cycles: 68921620 heartbeat IPC: 0.660667 cumulative IPC: 0.58457 (Simulation time: 0 hr 28 min 38 sec) 
Heartbeat CPU 0 instructions: 49000001 cycles: 70366370 heartbeat IPC: 0.692162 cumulative IPC: 0.586909 (Simulation time: 0 hr 29 min 10 sec) 
Heartbeat CPU 0 instructions: 50000001 cycles: 71911517 heartbeat IPC: 0.647188 cumulative IPC: 0.588279 (Simulation time: 0 hr 29 min 43 sec) 
Heartbeat CPU 0 instructions: 51000002 cycles: 73389731 heartbeat IPC: 0.676493 cumulative IPC: 0.590156 (Simulation time: 0 hr 30 min 17 sec) 
Heartbeat CPU 0 instructions: 52000000 cycles: 74804954 heartbeat IPC: 0.706601 cumulative IPC: 0.59248 (Simulation time: 0 hr 30 min 50 sec) 
Heartbeat CPU 0 instructions: 53000001 cycles: 76255639 heartbeat IPC: 0.68933 cumulative IPC: 0.594423 (Simulation time: 0 hr 31 min 24 sec) 
Heartbeat CPU 0 instructions: 54000001 cycles: 77769524 heartbeat IPC: 0.660552 cumulative IPC: 0.595778 (Simulation time: 0 hr 31 min 58 sec) 
Heartbeat CPU 0 instructions: 55000003 cycles: 79207767 heartbeat IPC: 0.695294 cumulative IPC: 0.597679 (Simulation time: 0 hr 32 min 33 sec) 
Heartbeat CPU 0 instructions: 56000000 cycles: 80658319 heartbeat IPC: 0.689391 cumulative IPC: 0.599413 (Simulation time: 0 hr 33 min 7 sec) 
Heartbeat CPU 0 instructions: 57000001 cycles: 82182660 heartbeat IPC: 0.656022 cumulative IPC: 0.600515 (Simulation time: 0 hr 33 min 45 sec) 
Heartbeat CPU 0 instructions: 58000002 cycles: 83689497 heartbeat IPC: 0.663642 cumulative IPC: 0.601708 (Simulation time: 0 hr 34 min 19 sec) 
Heartbeat CPU 0 instructions: 59000001 cycles: 85148267 heartbeat IPC: 0.685508 cumulative IPC: 0.603212 (Simulation time: 0 hr 34 min 51 sec) 
Heartbeat CPU 0 instructions: 60000000 cycles: 86669044 heartbeat IPC: 0.657558 cumulative IPC: 0.604211 (Simulation time: 0 hr 35 min 23 sec) 
Heartbeat CPU 0 instructions: 61000003 cycles: 88223543 heartbeat IPC: 0.643296 cumulative IPC: 0.604932 (Simulation time: 0 hr 35 min 56 sec) 
Heartbeat CPU 0 instructions: 62000003 cycles: 89666776 heartbeat IPC: 0.692889 cumulative IPC: 0.606412 (Simulation time: 0 hr 36 min 29 sec) 
Heartbeat CPU 0 instructions: 63000000 cycles: 91131981 heartbeat IPC: 0.682496 cumulative IPC: 0.60769 (Simulation time: 0 hr 37 min 5 sec) 
Heartbeat CPU 0 instructions: 64000000 cycles: 92693374 heartbeat IPC: 0.640454 cumulative IPC: 0.608267 (Simulation time: 0 hr 37 min 42 sec) 
Heartbeat CPU 0 instructions: 65000003 cycles: 94197139 heartbeat IPC: 0.665 cumulative IPC: 0.609212 (Simulation time: 0 hr 38 min 18 sec) 
Heartbeat CPU 0 instructions: 66000001 cycles: 95600701 heartbeat IPC: 0.712472 cumulative IPC: 0.610792 (Simulation time: 0 hr 38 min 55 sec) 
Heartbeat CPU 0 instructions: 67000001 cycles: 97117871 heartbeat IPC: 0.659122 cumulative IPC: 0.611579 (Simulation time: 0 hr 39 min 30 sec) 
Heartbeat CPU 0 instructions: 68000000 cycles: 98689688 heartbeat IPC: 0.636206 cumulative IPC: 0.611988 (Simulation time: 0 hr 40 min 6 sec) 
Heartbeat CPU 0 instructions: 69000003 cycles: 100151306 heartbeat IPC: 0.684175 cumulative IPC: 0.613084 (Simulation time: 0 hr 40 min 38 sec) 
Heartbeat CPU 0 instructions: 70000003 cycles: 101661908 heartbeat IPC: 0.661988 cumulative IPC: 0.61384 (Simulation time: 0 hr 41 min 15 sec) 
Heartbeat CPU 0 instructions: 71000000 cycles: 103336239 heartbeat IPC: 0.597252 cumulative IPC: 0.61356 (Simulation time: 0 hr 41 min 52 sec) 
Heartbeat CPU 0 instructions: 72000000 cycles: 104806734 heartbeat IPC: 0.680043 cumulative IPC: 0.614529 (Simulation time: 0 hr 42 min 26 sec) 
Heartbeat CPU 0 instructions: 73000003 cycles: 106289608 heartbeat IPC: 0.674368 cumulative IPC: 0.615396 (Simulation time: 0 hr 43 min 3 sec) 
Heartbeat CPU 0 instructions: 74000002 cycles: 107984658 heartbeat IPC: 0.589953 cumulative IPC: 0.614982 (Simulation time: 0 hr 43 min 37 sec) 
Heartbeat CPU 0 instructions: 75000002 cycles: 109445298 heartbeat IPC: 0.684631 cumulative IPC: 0.615946 (Simulation time: 0 hr 44 min 11 sec) 
Heartbeat CPU 0 instructions: 76000000 cycles: 110916711 heartbeat IPC: 0.679617 cumulative IPC: 0.616821 (Simulation time: 0 hr 44 min 50 sec) 
Heartbeat CPU 0 instructions: 77000001 cycles: 112553041 heartbeat IPC: 0.611124 cumulative IPC: 0.616736 (Simulation time: 0 hr 45 min 24 sec) 
Heartbeat CPU 0 instructions: 78000002 cycles: 114005308 heartbeat IPC: 0.688579 cumulative IPC: 0.617683 (Simulation time: 0 hr 46 min 0 sec) 
Heartbeat CPU 0 instructions: 79000000 cycles: 115532038 heartbeat IPC: 0.654993 cumulative IPC: 0.618194 (Simulation time: 0 hr 46 min 40 sec) 
Heartbeat CPU 0 instructions: 80000000 cycles: 117199184 heartbeat IPC: 0.599827 cumulative IPC: 0.617923 (Simulation time: 0 hr 47 min 15 sec) 
Heartbeat CPU 0 instructions: 81000003 cycles: 118693260 heartbeat IPC: 0.669312 cumulative IPC: 0.618592 (Simulation time: 0 hr 47 min 45 sec) 
Heartbeat CPU 0 instructions: 82000001 cycles: 120227087 heartbeat IPC: 0.651963 cumulative IPC: 0.619032 (Simulation time: 0 hr 48 min 20 sec) 
Heartbeat CPU 0 instructions: 83000001 cycles: 121901853 heartbeat IPC: 0.597098 cumulative IPC: 0.618721 (Simulation time: 0 hr 48 min 54 sec) 
Heartbeat CPU 0 instructions: 84000000 cycles: 123486233 heartbeat IPC: 0.631161 cumulative IPC: 0.618886 (Simulation time: 0 hr 49 min 27 sec) 
Heartbeat CPU 0 instructions: 85000002 cycles: 124920167 heartbeat IPC: 0.697384 cumulative IPC: 0.619816 (Simulation time: 0 hr 50 min 1 sec) 
Heartbeat CPU 0 instructions: 86000001 cycles: 126602505 heartbeat IPC: 0.59441 cumulative IPC: 0.619468 (Simulation time: 0 hr 50 min 34 sec) 
Heartbeat CPU 0 instructions: 87000003 cycles: 128226515 heartbeat IPC: 0.615761 cumulative IPC: 0.619419 (Simulation time: 0 hr 51 min 7 sec) 
Heartbeat CPU 0 instructions: 88000000 cycles: 129634025 heartbeat IPC: 0.710472 cumulative IPC: 0.620439 (Simulation time: 0 hr 51 min 40 sec) 
Heartbeat CPU 0 instructions: 89000003 cycles: 131318516 heartbeat IPC: 0.593653 cumulative IPC: 0.620085 (Simulation time: 0 hr 52 min 15 sec) 
Heartbeat CPU 0 instructions: 90000001 cycles: 132927325 heartbeat IPC: 0.621577 cumulative IPC: 0.620103 (Simulation time: 0 hr 52 min 47 sec) 
Heartbeat CPU 0 instructions: 91000000 cycles: 134354739 heartbeat IPC: 0.700567 cumulative IPC: 0.620984 (Simulation time: 0 hr 53 min 19 sec) 
Heartbeat CPU 0 instructions: 92000000 cycles: 136022421 heartbeat IPC: 0.599635 cumulative IPC: 0.620714 (Simulation time: 0 hr 53 min 50 sec) 
Heartbeat CPU 0 instructions: 93000003 cycles: 137671632 heartbeat IPC: 0.606352 cumulative IPC: 0.620537 (Simulation time: 0 hr 54 min 24 sec) 
Heartbeat CPU 0 instructions: 94000002 cycles: 139125287 heartbeat IPC: 0.68792 cumulative IPC: 0.621261 (Simulation time: 0 hr 54 min 56 sec) 
Heartbeat CPU 0 instructions: 95000001 cycles: 140790907 heartbeat IPC: 0.600376 cumulative IPC: 0.621007 (Simulation time: 0 hr 55 min 27 sec) 
Heartbeat CPU 0 instructions: 96000000 cycles: 142461751 heartbeat IPC: 0.598499 cumulative IPC: 0.620736 (Simulation time: 0 hr 55 min 57 sec) 
Heartbeat CPU 0 instructions: 97000002 cycles: 143944015 heartbeat IPC: 0.674645 cumulative IPC: 0.621307 (Simulation time: 0 hr 56 min 25 sec) 
Heartbeat CPU 0 instructions: 98000000 cycles: 145679701 heartbeat IPC: 0.57614 cumulative IPC: 0.620754 (Simulation time: 0 hr 56 min 52 sec) 
Heartbeat CPU 0 instructions: 99000001 cycles: 147293685 heartbeat IPC: 0.619585 cumulative IPC: 0.62074 (Simulation time: 0 hr 57 min 17 sec) 
Heartbeat CPU 0 instructions: 100000000 cycles: 148738654 heartbeat IPC: 0.692056 cumulative IPC: 0.621452 (Simulation time: 0 hr 57 min 41 sec) 
Heartbeat CPU 0 instructions: 101000002 cycles: 150492930 heartbeat IPC: 0.570037 cumulative IPC: 0.620837 (Simulation time: 0 hr 58 min 7 sec) 
Heartbeat CPU 0 instructions: 102000002 cycles: 152128990 heartbeat IPC: 0.611225 cumulative IPC: 0.620731 (Simulation time: 0 hr 58 min 31 sec) 
Heartbeat CPU 0 instructions: 103000001 cycles: 153616392 heartbeat IPC: 0.672313 cumulative IPC: 0.621243 (Simulation time: 0 hr 58 min 53 sec) 
Heartbeat CPU 0 instructions: 104000000 cycles: 155353780 heartbeat IPC: 0.575576 cumulative IPC: 0.620719 (Simulation time: 0 hr 59 min 17 sec) 
Heartbeat CPU 0 instructions: 105000001 cycles: 156992917 heartbeat IPC: 0.610078 cumulative IPC: 0.620605 (Simulation time: 0 hr 59 min 40 sec) 
Heartbeat CPU 0 instructions: 106000001 cycles: 158461290 heartbeat IPC: 0.681026 cumulative IPC: 0.621179 (Simulation time: 1 hr 0 min 4 sec) 
Heartbeat CPU 0 instructions: 107000001 cycles: 160243690 heartbeat IPC: 0.561041 cumulative IPC: 0.620494 (Simulation time: 1 hr 0 min 28 sec) 
Heartbeat CPU 0 instructions: 108000000 cycles: 161881349 heartbeat IPC: 0.610627 cumulative IPC: 0.620391 (Simulation time: 1 hr 0 min 53 sec) 
Heartbeat CPU 0 instructions: 109000003 cycles: 163358226 heartbeat IPC: 0.677106 cumulative IPC: 0.620917 (Simulation time: 1 hr 1 min 16 sec) 
Heartbeat CPU 0 instructions: 110000001 cycles: 165206004 heartbeat IPC: 0.541189 cumulative IPC: 0.620003 (Simulation time: 1 hr 1 min 40 sec) 
Finished CPU 0 instructions: 100000003 cycles: 161289482 cummulative IPC: 0.620003 (Simulation time: 1 hr 1 min 40 sec) 

ChampSim completed all CPUs

Region of Interest Statistics

CPU 0 cummulative IPC: 0.620003 instructions: 100000003 cycles: 161289482
LLC TOTAL     ACCESS:    6072830  HIT:    1658096  MISS:    4414734
LLC LOAD      ACCESS:     447546  HIT:      20511  MISS:     427035
LLC RFO       ACCESS:    2591739  HIT:     387492  MISS:    2204247
LLC PREFETCH  ACCESS:     441580  HIT:      25173  MISS:     416407
LLC WRITEBACK ACCESS:    2591965  HIT:    1224920  MISS:    1367045
Insertion Distribution: 
	LOAD 0 2577 454789 
	RFO 188667 634723 1578311 
	PREF 0 73748 386373 
	WRITEBACK 0 0 1475865 
Total Prefetch Downgrades: 20413
