
*** ChampSim Multicore Out-of-Order Simulator ***

Warmup Instructions: 10000000
Simulation Instructions: 100000000
Configuration: 2
Number of CPUs: 1
LLC sets: 2048
LLC ways: 16
Off-chip DRAM Channels: 1 Width: 64-bit Data Rate: 1600 MT/s

CPU 0 runs /datasets/cs240c-wi22-a00-public/data/Assignment2-gz/leslie3d_1116B.trace.gz
CPU 0 L1D next line prefetcher
CPU 0 L2C IP-based stride prefetcher
Initialize SRRIP state
Heartbeat CPU 0 instructions: 1000003 cycles: 535311 heartbeat IPC: 1.86808 cumulative IPC: 1.86808 (Simulation time: 0 hr 0 min 34 sec) 
Heartbeat CPU 0 instructions: 2000003 cycles: 1071193 heartbeat IPC: 1.86608 cumulative IPC: 1.86708 (Simulation time: 0 hr 1 min 6 sec) 
Heartbeat CPU 0 instructions: 3000003 cycles: 1607887 heartbeat IPC: 1.86326 cumulative IPC: 1.8658 (Simulation time: 0 hr 1 min 39 sec) 
Heartbeat CPU 0 instructions: 4000000 cycles: 2143304 heartbeat IPC: 1.8677 cumulative IPC: 1.86628 (Simulation time: 0 hr 2 min 12 sec) 
Heartbeat CPU 0 instructions: 5000001 cycles: 2678446 heartbeat IPC: 1.86866 cumulative IPC: 1.86675 (Simulation time: 0 hr 2 min 49 sec) 
Heartbeat CPU 0 instructions: 6000001 cycles: 3213902 heartbeat IPC: 1.86757 cumulative IPC: 1.86689 (Simulation time: 0 hr 3 min 23 sec) 
Heartbeat CPU 0 instructions: 7000001 cycles: 3749873 heartbeat IPC: 1.86577 cumulative IPC: 1.86673 (Simulation time: 0 hr 3 min 58 sec) 
Heartbeat CPU 0 instructions: 8000000 cycles: 4285928 heartbeat IPC: 1.86548 cumulative IPC: 1.86657 (Simulation time: 0 hr 4 min 32 sec) 
Heartbeat CPU 0 instructions: 9000003 cycles: 4821088 heartbeat IPC: 1.86861 cumulative IPC: 1.8668 (Simulation time: 0 hr 5 min 7 sec) 
Heartbeat CPU 0 instructions: 10000002 cycles: 5356050 heartbeat IPC: 1.86929 cumulative IPC: 1.86705 (Simulation time: 0 hr 5 min 40 sec) 

Warmup complete CPU 0 instructions: 10000002 cycles: 5356050 (Simulation time: 0 hr 5 min 40 sec) 

Heartbeat CPU 0 instructions: 11000001 cycles: 6443368 heartbeat IPC: 0.919693 cumulative IPC: 0.919693 (Simulation time: 0 hr 6 min 16 sec) 
Heartbeat CPU 0 instructions: 12000000 cycles: 7494963 heartbeat IPC: 0.950935 cumulative IPC: 0.935053 (Simulation time: 0 hr 6 min 52 sec) 
Heartbeat CPU 0 instructions: 13000002 cycles: 8546829 heartbeat IPC: 0.950693 cumulative IPC: 0.940209 (Simulation time: 0 hr 7 min 28 sec) 
Heartbeat CPU 0 instructions: 14000003 cycles: 9593271 heartbeat IPC: 0.95562 cumulative IPC: 0.944015 (Simulation time: 0 hr 8 min 3 sec) 
Heartbeat CPU 0 instructions: 15000000 cycles: 10645584 heartbeat IPC: 0.950285 cumulative IPC: 0.945262 (Simulation time: 0 hr 8 min 36 sec) 
Heartbeat CPU 0 instructions: 16000000 cycles: 11700271 heartbeat IPC: 0.948149 cumulative IPC: 0.945742 (Simulation time: 0 hr 9 min 10 sec) 
Heartbeat CPU 0 instructions: 17000003 cycles: 12739876 heartbeat IPC: 0.961907 cumulative IPC: 0.948018 (Simulation time: 0 hr 9 min 47 sec) 
Heartbeat CPU 0 instructions: 18000001 cycles: 13803046 heartbeat IPC: 0.940581 cumulative IPC: 0.947082 (Simulation time: 0 hr 10 min 28 sec) 
Heartbeat CPU 0 instructions: 19000001 cycles: 14852324 heartbeat IPC: 0.953036 cumulative IPC: 0.94774 (Simulation time: 0 hr 11 min 5 sec) 
Heartbeat CPU 0 instructions: 20000000 cycles: 15906010 heartbeat IPC: 0.949048 cumulative IPC: 0.947871 (Simulation time: 0 hr 11 min 42 sec) 
Heartbeat CPU 0 instructions: 21000000 cycles: 16975837 heartbeat IPC: 0.934731 cumulative IPC: 0.946661 (Simulation time: 0 hr 12 min 20 sec) 
Heartbeat CPU 0 instructions: 22000000 cycles: 18019993 heartbeat IPC: 0.957711 cumulative IPC: 0.947572 (Simulation time: 0 hr 13 min 0 sec) 
Heartbeat CPU 0 instructions: 23000003 cycles: 19084381 heartbeat IPC: 0.93951 cumulative IPC: 0.946947 (Simulation time: 0 hr 13 min 34 sec) 
Heartbeat CPU 0 instructions: 24000000 cycles: 20128247 heartbeat IPC: 0.957974 cumulative IPC: 0.947726 (Simulation time: 0 hr 14 min 11 sec) 
Heartbeat CPU 0 instructions: 25000001 cycles: 21171698 heartbeat IPC: 0.958359 cumulative IPC: 0.948428 (Simulation time: 0 hr 14 min 51 sec) 
Heartbeat CPU 0 instructions: 26000002 cycles: 22240613 heartbeat IPC: 0.935529 cumulative IPC: 0.947611 (Simulation time: 0 hr 15 min 30 sec) 
Heartbeat CPU 0 instructions: 27000001 cycles: 23303860 heartbeat IPC: 0.940514 cumulative IPC: 0.947191 (Simulation time: 0 hr 16 min 9 sec) 
Heartbeat CPU 0 instructions: 28000000 cycles: 24347359 heartbeat IPC: 0.958313 cumulative IPC: 0.947802 (Simulation time: 0 hr 16 min 48 sec) 
Heartbeat CPU 0 instructions: 29000003 cycles: 25411901 heartbeat IPC: 0.939374 cumulative IPC: 0.947354 (Simulation time: 0 hr 17 min 26 sec) 
Heartbeat CPU 0 instructions: 30000002 cycles: 26499239 heartbeat IPC: 0.919676 cumulative IPC: 0.945931 (Simulation time: 0 hr 18 min 2 sec) 
Heartbeat CPU 0 instructions: 31000001 cycles: 27567426 heartbeat IPC: 0.936165 cumulative IPC: 0.945461 (Simulation time: 0 hr 18 min 43 sec) 
Heartbeat CPU 0 instructions: 32000000 cycles: 28627777 heartbeat IPC: 0.943083 cumulative IPC: 0.945353 (Simulation time: 0 hr 19 min 18 sec) 
Heartbeat CPU 0 instructions: 33000002 cycles: 29688297 heartbeat IPC: 0.942936 cumulative IPC: 0.945248 (Simulation time: 0 hr 19 min 55 sec) 
Heartbeat CPU 0 instructions: 34000002 cycles: 30763986 heartbeat IPC: 0.929637 cumulative IPC: 0.944587 (Simulation time: 0 hr 20 min 31 sec) 
Heartbeat CPU 0 instructions: 35000000 cycles: 31834642 heartbeat IPC: 0.934005 cumulative IPC: 0.944159 (Simulation time: 0 hr 21 min 9 sec) 
Heartbeat CPU 0 instructions: 36000000 cycles: 32881047 heartbeat IPC: 0.955653 cumulative IPC: 0.944596 (Simulation time: 0 hr 21 min 52 sec) 
Heartbeat CPU 0 instructions: 37000003 cycles: 34134397 heartbeat IPC: 0.797864 cumulative IPC: 0.938205 (Simulation time: 0 hr 22 min 30 sec) 
Heartbeat CPU 0 instructions: 38000003 cycles: 35610583 heartbeat IPC: 0.677421 cumulative IPC: 0.925481 (Simulation time: 0 hr 23 min 6 sec) 
Heartbeat CPU 0 instructions: 39000003 cycles: 37146544 heartbeat IPC: 0.651058 cumulative IPC: 0.912222 (Simulation time: 0 hr 23 min 43 sec) 
Heartbeat CPU 0 instructions: 40000000 cycles: 38690610 heartbeat IPC: 0.647639 cumulative IPC: 0.899967 (Simulation time: 0 hr 24 min 25 sec) 
Heartbeat CPU 0 instructions: 41000002 cycles: 40220895 heartbeat IPC: 0.653474 cumulative IPC: 0.889148 (Simulation time: 0 hr 25 min 4 sec) 
Heartbeat CPU 0 instructions: 42000001 cycles: 41755922 heartbeat IPC: 0.651454 cumulative IPC: 0.879124 (Simulation time: 0 hr 25 min 41 sec) 
Heartbeat CPU 0 instructions: 43000003 cycles: 43282554 heartbeat IPC: 0.655038 cumulative IPC: 0.870104 (Simulation time: 0 hr 26 min 16 sec) 
Heartbeat CPU 0 instructions: 44000000 cycles: 44808829 heartbeat IPC: 0.655188 cumulative IPC: 0.86179 (Simulation time: 0 hr 26 min 57 sec) 
Heartbeat CPU 0 instructions: 45000002 cycles: 46342871 heartbeat IPC: 0.651874 cumulative IPC: 0.853933 (Simulation time: 0 hr 27 min 33 sec) 
Heartbeat CPU 0 instructions: 46000002 cycles: 47887679 heartbeat IPC: 0.64733 cumulative IPC: 0.846429 (Simulation time: 0 hr 28 min 8 sec) 
Heartbeat CPU 0 instructions: 47000001 cycles: 49421674 heartbeat IPC: 0.651892 cumulative IPC: 0.839657 (Simulation time: 0 hr 28 min 43 sec) 
Heartbeat CPU 0 instructions: 48000000 cycles: 50945970 heartbeat IPC: 0.65604 cumulative IPC: 0.833518 (Simulation time: 0 hr 29 min 17 sec) 
Heartbeat CPU 0 instructions: 49000002 cycles: 53061093 heartbeat IPC: 0.472787 cumulative IPC: 0.817524 (Simulation time: 0 hr 29 min 55 sec) 
Heartbeat CPU 0 instructions: 50000002 cycles: 55436690 heartbeat IPC: 0.420947 cumulative IPC: 0.798712 (Simulation time: 0 hr 30 min 36 sec) 
Heartbeat CPU 0 instructions: 51000003 cycles: 57748698 heartbeat IPC: 0.432525 cumulative IPC: 0.782553 (Simulation time: 0 hr 31 min 16 sec) 
Heartbeat CPU 0 instructions: 52000000 cycles: 60130744 heartbeat IPC: 0.419806 cumulative IPC: 0.766777 (Simulation time: 0 hr 31 min 54 sec) 
Heartbeat CPU 0 instructions: 53000003 cycles: 62537078 heartbeat IPC: 0.415571 cumulative IPC: 0.751998 (Simulation time: 0 hr 32 min 35 sec) 
Heartbeat CPU 0 instructions: 54000000 cycles: 64874363 heartbeat IPC: 0.427846 cumulative IPC: 0.739268 (Simulation time: 0 hr 33 min 22 sec) 
Heartbeat CPU 0 instructions: 55000002 cycles: 67174227 heartbeat IPC: 0.434809 cumulative IPC: 0.727941 (Simulation time: 0 hr 34 min 10 sec) 
Heartbeat CPU 0 instructions: 56000000 cycles: 69519518 heartbeat IPC: 0.426385 cumulative IPC: 0.716919 (Simulation time: 0 hr 34 min 57 sec) 
Heartbeat CPU 0 instructions: 57000001 cycles: 71859880 heartbeat IPC: 0.427285 cumulative IPC: 0.706726 (Simulation time: 0 hr 35 min 44 sec) 
Heartbeat CPU 0 instructions: 58000001 cycles: 74110236 heartbeat IPC: 0.444374 cumulative IPC: 0.698139 (Simulation time: 0 hr 36 min 29 sec) 
Heartbeat CPU 0 instructions: 59000000 cycles: 75383687 heartbeat IPC: 0.785267 cumulative IPC: 0.699724 (Simulation time: 0 hr 37 min 9 sec) 
Heartbeat CPU 0 instructions: 60000000 cycles: 76675579 heartbeat IPC: 0.774059 cumulative IPC: 0.70107 (Simulation time: 0 hr 37 min 46 sec) 
Heartbeat CPU 0 instructions: 61000003 cycles: 78056716 heartbeat IPC: 0.724043 cumulative IPC: 0.701507 (Simulation time: 0 hr 38 min 24 sec) 
Heartbeat CPU 0 instructions: 62000002 cycles: 79385966 heartbeat IPC: 0.752303 cumulative IPC: 0.702419 (Simulation time: 0 hr 39 min 1 sec) 
Heartbeat CPU 0 instructions: 63000003 cycles: 80579834 heartbeat IPC: 0.837614 cumulative IPC: 0.704564 (Simulation time: 0 hr 39 min 42 sec) 
Heartbeat CPU 0 instructions: 64000000 cycles: 81812292 heartbeat IPC: 0.811384 cumulative IPC: 0.706286 (Simulation time: 0 hr 40 min 21 sec) 
Heartbeat CPU 0 instructions: 65000001 cycles: 83348804 heartbeat IPC: 0.650825 cumulative IPC: 0.705194 (Simulation time: 0 hr 40 min 58 sec) 
Heartbeat CPU 0 instructions: 66000000 cycles: 84552708 heartbeat IPC: 0.83063 cumulative IPC: 0.707101 (Simulation time: 0 hr 41 min 37 sec) 
Heartbeat CPU 0 instructions: 67000001 cycles: 85757427 heartbeat IPC: 0.83007 cumulative IPC: 0.708943 (Simulation time: 0 hr 42 min 12 sec) 
Heartbeat CPU 0 instructions: 68000000 cycles: 87175251 heartbeat IPC: 0.705305 cumulative IPC: 0.70888 (Simulation time: 0 hr 42 min 50 sec) 
Heartbeat CPU 0 instructions: 69000002 cycles: 88461085 heartbeat IPC: 0.777707 cumulative IPC: 0.709945 (Simulation time: 0 hr 43 min 29 sec) 
Heartbeat CPU 0 instructions: 70000000 cycles: 89642916 heartbeat IPC: 0.846143 cumulative IPC: 0.711855 (Simulation time: 0 hr 44 min 7 sec) 
Heartbeat CPU 0 instructions: 71000003 cycles: 90847615 heartbeat IPC: 0.830085 cumulative IPC: 0.713521 (Simulation time: 0 hr 44 min 43 sec) 
Heartbeat CPU 0 instructions: 72000000 cycles: 92281087 heartbeat IPC: 0.697605 cumulative IPC: 0.713258 (Simulation time: 0 hr 45 min 21 sec) 
Heartbeat CPU 0 instructions: 73000000 cycles: 93472271 heartbeat IPC: 0.839501 cumulative IPC: 0.714965 (Simulation time: 0 hr 46 min 6 sec) 
Heartbeat CPU 0 instructions: 74000000 cycles: 94659147 heartbeat IPC: 0.842548 cumulative IPC: 0.71666 (Simulation time: 0 hr 46 min 49 sec) 
Heartbeat CPU 0 instructions: 75000002 cycles: 96093958 heartbeat IPC: 0.696957 cumulative IPC: 0.716349 (Simulation time: 0 hr 47 min 25 sec) 
Heartbeat CPU 0 instructions: 76000000 cycles: 97274792 heartbeat IPC: 0.846857 cumulative IPC: 0.718025 (Simulation time: 0 hr 48 min 3 sec) 
Heartbeat CPU 0 instructions: 77000001 cycles: 98439962 heartbeat IPC: 0.858245 cumulative IPC: 0.719781 (Simulation time: 0 hr 48 min 42 sec) 
Heartbeat CPU 0 instructions: 78000000 cycles: 99716264 heartbeat IPC: 0.783513 cumulative IPC: 0.720643 (Simulation time: 0 hr 49 min 20 sec) 
Heartbeat CPU 0 instructions: 79000001 cycles: 101028454 heartbeat IPC: 0.762085 cumulative IPC: 0.721211 (Simulation time: 0 hr 49 min 59 sec) 
Heartbeat CPU 0 instructions: 80000000 cycles: 102206963 heartbeat IPC: 0.848529 cumulative IPC: 0.72276 (Simulation time: 0 hr 50 min 36 sec) 
Heartbeat CPU 0 instructions: 81000003 cycles: 103383897 heartbeat IPC: 0.849668 cumulative IPC: 0.724284 (Simulation time: 0 hr 51 min 14 sec) 
Heartbeat CPU 0 instructions: 82000000 cycles: 104804340 heartbeat IPC: 0.704004 cumulative IPC: 0.723994 (Simulation time: 0 hr 51 min 49 sec) 
Heartbeat CPU 0 instructions: 83000001 cycles: 105986319 heartbeat IPC: 0.84604 cumulative IPC: 0.725428 (Simulation time: 0 hr 52 min 25 sec) 
Heartbeat CPU 0 instructions: 84000000 cycles: 107182231 heartbeat IPC: 0.836181 cumulative IPC: 0.726729 (Simulation time: 0 hr 53 min 0 sec) 
Heartbeat CPU 0 instructions: 85000003 cycles: 108573318 heartbeat IPC: 0.718864 cumulative IPC: 0.726623 (Simulation time: 0 hr 53 min 34 sec) 
Heartbeat CPU 0 instructions: 86000002 cycles: 109773955 heartbeat IPC: 0.83289 cumulative IPC: 0.727845 (Simulation time: 0 hr 54 min 9 sec) 
Heartbeat CPU 0 instructions: 87000001 cycles: 110944096 heartbeat IPC: 0.854597 cumulative IPC: 0.729249 (Simulation time: 0 hr 54 min 49 sec) 
Heartbeat CPU 0 instructions: 88000000 cycles: 112138592 heartbeat IPC: 0.837172 cumulative IPC: 0.730456 (Simulation time: 0 hr 55 min 22 sec) 
Heartbeat CPU 0 instructions: 89000001 cycles: 113531965 heartbeat IPC: 0.717684 cumulative IPC: 0.730292 (Simulation time: 0 hr 55 min 52 sec) 
Heartbeat CPU 0 instructions: 90000003 cycles: 114701695 heartbeat IPC: 0.8549 cumulative IPC: 0.731625 (Simulation time: 0 hr 56 min 22 sec) 
Heartbeat CPU 0 instructions: 91000000 cycles: 115878396 heartbeat IPC: 0.849831 cumulative IPC: 0.732883 (Simulation time: 0 hr 56 min 52 sec) 
Heartbeat CPU 0 instructions: 92000000 cycles: 117288968 heartbeat IPC: 0.708932 cumulative IPC: 0.732582 (Simulation time: 0 hr 57 min 20 sec) 
Heartbeat CPU 0 instructions: 93000002 cycles: 118458744 heartbeat IPC: 0.854866 cumulative IPC: 0.733846 (Simulation time: 0 hr 57 min 49 sec) 
Heartbeat CPU 0 instructions: 94000000 cycles: 119629477 heartbeat IPC: 0.854164 cumulative IPC: 0.735079 (Simulation time: 0 hr 58 min 14 sec) 
Heartbeat CPU 0 instructions: 95000003 cycles: 120933810 heartbeat IPC: 0.766678 cumulative IPC: 0.735436 (Simulation time: 0 hr 58 min 41 sec) 
Heartbeat CPU 0 instructions: 96000000 cycles: 122238076 heartbeat IPC: 0.766712 cumulative IPC: 0.735785 (Simulation time: 0 hr 59 min 8 sec) 
Heartbeat CPU 0 instructions: 97000000 cycles: 123393695 heartbeat IPC: 0.865337 cumulative IPC: 0.737053 (Simulation time: 0 hr 59 min 33 sec) 
Heartbeat CPU 0 instructions: 98000000 cycles: 124576338 heartbeat IPC: 0.845564 cumulative IPC: 0.738129 (Simulation time: 1 hr 0 min 0 sec) 
Heartbeat CPU 0 instructions: 99000003 cycles: 125979570 heartbeat IPC: 0.712643 cumulative IPC: 0.737833 (Simulation time: 1 hr 0 min 23 sec) 
Heartbeat CPU 0 instructions: 100000000 cycles: 127156342 heartbeat IPC: 0.84978 cumulative IPC: 0.738914 (Simulation time: 1 hr 0 min 47 sec) 
Heartbeat CPU 0 instructions: 101000001 cycles: 128344040 heartbeat IPC: 0.841966 cumulative IPC: 0.73991 (Simulation time: 1 hr 1 min 11 sec) 
Heartbeat CPU 0 instructions: 102000003 cycles: 129749184 heartbeat IPC: 0.711672 cumulative IPC: 0.739591 (Simulation time: 1 hr 1 min 33 sec) 
Heartbeat CPU 0 instructions: 103000002 cycles: 130923099 heartbeat IPC: 0.85185 cumulative IPC: 0.74064 (Simulation time: 1 hr 1 min 55 sec) 
Heartbeat CPU 0 instructions: 104000000 cycles: 132105083 heartbeat IPC: 0.846033 cumulative IPC: 0.741623 (Simulation time: 1 hr 2 min 17 sec) 
Heartbeat CPU 0 instructions: 105000000 cycles: 133311749 heartbeat IPC: 0.82873 cumulative IPC: 0.742444 (Simulation time: 1 hr 2 min 39 sec) 
Heartbeat CPU 0 instructions: 106000003 cycles: 134999497 heartbeat IPC: 0.592507 cumulative IPC: 0.740493 (Simulation time: 1 hr 2 min 59 sec) 
Heartbeat CPU 0 instructions: 107000002 cycles: 136656969 heartbeat IPC: 0.603328 cumulative IPC: 0.738761 (Simulation time: 1 hr 3 min 18 sec) 
Heartbeat CPU 0 instructions: 108000000 cycles: 138540116 heartbeat IPC: 0.531025 cumulative IPC: 0.735824 (Simulation time: 1 hr 3 min 39 sec) 
Heartbeat CPU 0 instructions: 109000003 cycles: 140306511 heartbeat IPC: 0.566126 cumulative IPC: 0.733603 (Simulation time: 1 hr 3 min 59 sec) 
Heartbeat CPU 0 instructions: 110000003 cycles: 142082804 heartbeat IPC: 0.56297 cumulative IPC: 0.731386 (Simulation time: 1 hr 4 min 18 sec) 
Finished CPU 0 instructions: 100000001 cycles: 136726754 cummulative IPC: 0.731386 (Simulation time: 1 hr 4 min 18 sec) 

ChampSim completed all CPUs

Region of Interest Statistics

CPU 0 cummulative IPC: 0.731386 instructions: 100000001 cycles: 136726754
LLC TOTAL     ACCESS:    3582830  HIT:     783127  MISS:    2799703
LLC LOAD      ACCESS:     297824  HIT:      69529  MISS:     228295
LLC RFO       ACCESS:     622468  HIT:     116410  MISS:     506058
LLC PREFETCH  ACCESS:    1899129  HIT:     350697  MISS:    1548432
LLC WRITEBACK ACCESS:     763409  HIT:     246491  MISS:     516918
Insertion Distribution: 
	LOAD 16250 46055 168648 
	RFO 228 68362 463861 
	PREF 0 280511 1381836 
	WRITEBACK 0 0 535252 
Total Prefetch Downgrades: 37271
