
*** ChampSim Multicore Out-of-Order Simulator ***

Warmup Instructions: 10000000
Simulation Instructions: 100000000
Configuration: 2
Number of CPUs: 1
LLC sets: 2048
LLC ways: 16
Off-chip DRAM Channels: 1 Width: 64-bit Data Rate: 1600 MT/s

CPU 0 runs /datasets/cs240c-wi22-a00-public/data/Assignment2-gz/zeusmp_300B.trace.gz
CPU 0 L1D next line prefetcher
CPU 0 L2C IP-based stride prefetcher
Initialize SRRIP state
Heartbeat CPU 0 instructions: 1000003 cycles: 509580 heartbeat IPC: 1.96241 cumulative IPC: 1.96241 (Simulation time: 0 hr 0 min 33 sec) 
Heartbeat CPU 0 instructions: 2000003 cycles: 1062148 heartbeat IPC: 1.80973 cumulative IPC: 1.88298 (Simulation time: 0 hr 1 min 4 sec) 
Heartbeat CPU 0 instructions: 3000002 cycles: 1606421 heartbeat IPC: 1.83731 cumulative IPC: 1.86751 (Simulation time: 0 hr 1 min 32 sec) 
Heartbeat CPU 0 instructions: 4000000 cycles: 2093210 heartbeat IPC: 2.05427 cumulative IPC: 1.91094 (Simulation time: 0 hr 2 min 1 sec) 
Heartbeat CPU 0 instructions: 5000001 cycles: 2575892 heartbeat IPC: 2.07176 cumulative IPC: 1.94108 (Simulation time: 0 hr 2 min 32 sec) 
Heartbeat CPU 0 instructions: 6000000 cycles: 3062581 heartbeat IPC: 2.0547 cumulative IPC: 1.95913 (Simulation time: 0 hr 3 min 3 sec) 
Heartbeat CPU 0 instructions: 7000001 cycles: 3590722 heartbeat IPC: 1.89344 cumulative IPC: 1.94947 (Simulation time: 0 hr 3 min 31 sec) 
Heartbeat CPU 0 instructions: 8000000 cycles: 4144746 heartbeat IPC: 1.80497 cumulative IPC: 1.93015 (Simulation time: 0 hr 3 min 57 sec) 
Heartbeat CPU 0 instructions: 9000000 cycles: 4672648 heartbeat IPC: 1.89429 cumulative IPC: 1.9261 (Simulation time: 0 hr 4 min 26 sec) 
Heartbeat CPU 0 instructions: 10000002 cycles: 5158942 heartbeat IPC: 2.05637 cumulative IPC: 1.93838 (Simulation time: 0 hr 4 min 56 sec) 

Warmup complete CPU 0 instructions: 10000002 cycles: 5158942 (Simulation time: 0 hr 4 min 56 sec) 

Heartbeat CPU 0 instructions: 11000003 cycles: 5847448 heartbeat IPC: 1.45242 cumulative IPC: 1.45242 (Simulation time: 0 hr 5 min 30 sec) 
Heartbeat CPU 0 instructions: 12000000 cycles: 6526925 heartbeat IPC: 1.47172 cumulative IPC: 1.46201 (Simulation time: 0 hr 6 min 4 sec) 
Heartbeat CPU 0 instructions: 13000000 cycles: 7325312 heartbeat IPC: 1.25253 cumulative IPC: 1.3848 (Simulation time: 0 hr 6 min 33 sec) 
Heartbeat CPU 0 instructions: 14000000 cycles: 8138713 heartbeat IPC: 1.22941 cumulative IPC: 1.34238 (Simulation time: 0 hr 7 min 3 sec) 
Heartbeat CPU 0 instructions: 15000002 cycles: 8866771 heartbeat IPC: 1.37352 cumulative IPC: 1.3485 (Simulation time: 0 hr 7 min 34 sec) 
Heartbeat CPU 0 instructions: 16000000 cycles: 9552113 heartbeat IPC: 1.45912 cumulative IPC: 1.36576 (Simulation time: 0 hr 8 min 4 sec) 
Heartbeat CPU 0 instructions: 17000003 cycles: 10240349 heartbeat IPC: 1.45299 cumulative IPC: 1.37757 (Simulation time: 0 hr 8 min 35 sec) 
Heartbeat CPU 0 instructions: 18000000 cycles: 10937935 heartbeat IPC: 1.43351 cumulative IPC: 1.38432 (Simulation time: 0 hr 9 min 6 sec) 
Heartbeat CPU 0 instructions: 19000003 cycles: 11756738 heartbeat IPC: 1.2213 cumulative IPC: 1.36409 (Simulation time: 0 hr 9 min 36 sec) 
Heartbeat CPU 0 instructions: 20000000 cycles: 12568862 heartbeat IPC: 1.23134 cumulative IPC: 1.34954 (Simulation time: 0 hr 10 min 7 sec) 
Heartbeat CPU 0 instructions: 21000001 cycles: 13266884 heartbeat IPC: 1.43262 cumulative IPC: 1.35669 (Simulation time: 0 hr 10 min 41 sec) 
Heartbeat CPU 0 instructions: 22000000 cycles: 13958030 heartbeat IPC: 1.44687 cumulative IPC: 1.36378 (Simulation time: 0 hr 11 min 11 sec) 
Heartbeat CPU 0 instructions: 23000001 cycles: 14650906 heartbeat IPC: 1.44326 cumulative IPC: 1.36958 (Simulation time: 0 hr 11 min 42 sec) 
Heartbeat CPU 0 instructions: 24000000 cycles: 15384489 heartbeat IPC: 1.36317 cumulative IPC: 1.36912 (Simulation time: 0 hr 12 min 15 sec) 
Heartbeat CPU 0 instructions: 25000000 cycles: 16197736 heartbeat IPC: 1.22964 cumulative IPC: 1.35884 (Simulation time: 0 hr 12 min 50 sec) 
Heartbeat CPU 0 instructions: 26000000 cycles: 16998990 heartbeat IPC: 1.24804 cumulative IPC: 1.35135 (Simulation time: 0 hr 13 min 23 sec) 
Heartbeat CPU 0 instructions: 27000002 cycles: 17685393 heartbeat IPC: 1.45687 cumulative IPC: 1.35713 (Simulation time: 0 hr 13 min 55 sec) 
Heartbeat CPU 0 instructions: 28000000 cycles: 18375194 heartbeat IPC: 1.44969 cumulative IPC: 1.36196 (Simulation time: 0 hr 14 min 30 sec) 
Heartbeat CPU 0 instructions: 29000003 cycles: 19064968 heartbeat IPC: 1.44975 cumulative IPC: 1.36631 (Simulation time: 0 hr 15 min 5 sec) 
Heartbeat CPU 0 instructions: 30000002 cycles: 19827205 heartbeat IPC: 1.31193 cumulative IPC: 1.36349 (Simulation time: 0 hr 15 min 42 sec) 
Heartbeat CPU 0 instructions: 31000001 cycles: 20643509 heartbeat IPC: 1.22503 cumulative IPC: 1.35619 (Simulation time: 0 hr 16 min 18 sec) 
Heartbeat CPU 0 instructions: 32000000 cycles: 21412727 heartbeat IPC: 1.30002 cumulative IPC: 1.35353 (Simulation time: 0 hr 16 min 52 sec) 
Heartbeat CPU 0 instructions: 33000000 cycles: 22097457 heartbeat IPC: 1.46043 cumulative IPC: 1.35785 (Simulation time: 0 hr 17 min 22 sec) 
Heartbeat CPU 0 instructions: 34000000 cycles: 22793422 heartbeat IPC: 1.43685 cumulative IPC: 1.36097 (Simulation time: 0 hr 17 min 54 sec) 
Heartbeat CPU 0 instructions: 35000002 cycles: 23481936 heartbeat IPC: 1.45241 cumulative IPC: 1.36441 (Simulation time: 0 hr 18 min 23 sec) 
Heartbeat CPU 0 instructions: 36000000 cycles: 24270343 heartbeat IPC: 1.26838 cumulative IPC: 1.36044 (Simulation time: 0 hr 18 min 54 sec) 
Heartbeat CPU 0 instructions: 37000003 cycles: 25085049 heartbeat IPC: 1.22744 cumulative IPC: 1.35501 (Simulation time: 0 hr 19 min 28 sec) 
Heartbeat CPU 0 instructions: 38000001 cycles: 25826839 heartbeat IPC: 1.34809 cumulative IPC: 1.35476 (Simulation time: 0 hr 19 min 58 sec) 
Heartbeat CPU 0 instructions: 39000002 cycles: 26513442 heartbeat IPC: 1.45645 cumulative IPC: 1.35803 (Simulation time: 0 hr 20 min 25 sec) 
Heartbeat CPU 0 instructions: 40000000 cycles: 27207778 heartbeat IPC: 1.44022 cumulative IPC: 1.36062 (Simulation time: 0 hr 20 min 55 sec) 
Heartbeat CPU 0 instructions: 41000001 cycles: 27892701 heartbeat IPC: 1.46002 cumulative IPC: 1.36361 (Simulation time: 0 hr 21 min 28 sec) 
Heartbeat CPU 0 instructions: 42000001 cycles: 28715743 heartbeat IPC: 1.215 cumulative IPC: 1.35842 (Simulation time: 0 hr 22 min 4 sec) 
Heartbeat CPU 0 instructions: 43000000 cycles: 29527461 heartbeat IPC: 1.23195 cumulative IPC: 1.35421 (Simulation time: 0 hr 22 min 35 sec) 
Heartbeat CPU 0 instructions: 44000000 cycles: 30238617 heartbeat IPC: 1.40616 cumulative IPC: 1.35568 (Simulation time: 0 hr 23 min 5 sec) 
Heartbeat CPU 0 instructions: 45000002 cycles: 30929252 heartbeat IPC: 1.44795 cumulative IPC: 1.35815 (Simulation time: 0 hr 23 min 35 sec) 
Heartbeat CPU 0 instructions: 46000002 cycles: 31619364 heartbeat IPC: 1.44904 cumulative IPC: 1.36052 (Simulation time: 0 hr 24 min 5 sec) 
Heartbeat CPU 0 instructions: 47000001 cycles: 32338891 heartbeat IPC: 1.3898 cumulative IPC: 1.3613 (Simulation time: 0 hr 24 min 38 sec) 
Heartbeat CPU 0 instructions: 48000000 cycles: 33151797 heartbeat IPC: 1.23015 cumulative IPC: 1.35749 (Simulation time: 0 hr 25 min 9 sec) 
Heartbeat CPU 0 instructions: 49000003 cycles: 33958265 heartbeat IPC: 1.23998 cumulative IPC: 1.3542 (Simulation time: 0 hr 25 min 45 sec) 
Heartbeat CPU 0 instructions: 50000001 cycles: 34644917 heartbeat IPC: 1.45634 cumulative IPC: 1.35658 (Simulation time: 0 hr 26 min 14 sec) 
Heartbeat CPU 0 instructions: 51000002 cycles: 35333518 heartbeat IPC: 1.45222 cumulative IPC: 1.35876 (Simulation time: 0 hr 26 min 43 sec) 
Heartbeat CPU 0 instructions: 52000000 cycles: 36022875 heartbeat IPC: 1.45062 cumulative IPC: 1.36081 (Simulation time: 0 hr 27 min 12 sec) 
Heartbeat CPU 0 instructions: 53000000 cycles: 36772390 heartbeat IPC: 1.3342 cumulative IPC: 1.36018 (Simulation time: 0 hr 27 min 40 sec) 
Heartbeat CPU 0 instructions: 54000002 cycles: 37584497 heartbeat IPC: 1.23137 cumulative IPC: 1.35695 (Simulation time: 0 hr 28 min 14 sec) 
Heartbeat CPU 0 instructions: 55000001 cycles: 38362814 heartbeat IPC: 1.28482 cumulative IPC: 1.35526 (Simulation time: 0 hr 28 min 43 sec) 
Heartbeat CPU 0 instructions: 56000000 cycles: 39050170 heartbeat IPC: 1.45485 cumulative IPC: 1.35728 (Simulation time: 0 hr 29 min 14 sec) 
Heartbeat CPU 0 instructions: 57000000 cycles: 39740091 heartbeat IPC: 1.44944 cumulative IPC: 1.35912 (Simulation time: 0 hr 29 min 44 sec) 
Heartbeat CPU 0 instructions: 58000000 cycles: 40429161 heartbeat IPC: 1.45123 cumulative IPC: 1.36092 (Simulation time: 0 hr 30 min 13 sec) 
Heartbeat CPU 0 instructions: 59000003 cycles: 41202380 heartbeat IPC: 1.2933 cumulative IPC: 1.35947 (Simulation time: 0 hr 30 min 43 sec) 
Heartbeat CPU 0 instructions: 60000000 cycles: 42015191 heartbeat IPC: 1.23029 cumulative IPC: 1.35662 (Simulation time: 0 hr 31 min 14 sec) 
Heartbeat CPU 0 instructions: 61000000 cycles: 42765808 heartbeat IPC: 1.33224 cumulative IPC: 1.35614 (Simulation time: 0 hr 31 min 44 sec) 
Heartbeat CPU 0 instructions: 62000002 cycles: 43453249 heartbeat IPC: 1.45467 cumulative IPC: 1.3579 (Simulation time: 0 hr 32 min 15 sec) 
Heartbeat CPU 0 instructions: 63000003 cycles: 44142148 heartbeat IPC: 1.45159 cumulative IPC: 1.35956 (Simulation time: 0 hr 32 min 46 sec) 
Heartbeat CPU 0 instructions: 64000000 cycles: 44827914 heartbeat IPC: 1.45822 cumulative IPC: 1.36127 (Simulation time: 0 hr 33 min 17 sec) 
Heartbeat CPU 0 instructions: 65000003 cycles: 45636665 heartbeat IPC: 1.23648 cumulative IPC: 1.35877 (Simulation time: 0 hr 33 min 52 sec) 
Heartbeat CPU 0 instructions: 66000003 cycles: 46449568 heartbeat IPC: 1.23016 cumulative IPC: 1.35624 (Simulation time: 0 hr 34 min 31 sec) 
Heartbeat CPU 0 instructions: 67000002 cycles: 47170964 heartbeat IPC: 1.3862 cumulative IPC: 1.35675 (Simulation time: 0 hr 34 min 58 sec) 
Heartbeat CPU 0 instructions: 68000000 cycles: 47858479 heartbeat IPC: 1.45451 cumulative IPC: 1.35833 (Simulation time: 0 hr 35 min 26 sec) 
Heartbeat CPU 0 instructions: 69000000 cycles: 48549195 heartbeat IPC: 1.44777 cumulative IPC: 1.35975 (Simulation time: 0 hr 35 min 53 sec) 
Heartbeat CPU 0 instructions: 70000001 cycles: 49260044 heartbeat IPC: 1.40677 cumulative IPC: 1.36051 (Simulation time: 0 hr 36 min 20 sec) 
Heartbeat CPU 0 instructions: 71000001 cycles: 50068683 heartbeat IPC: 1.23665 cumulative IPC: 1.35828 (Simulation time: 0 hr 36 min 51 sec) 
Heartbeat CPU 0 instructions: 72000000 cycles: 50880446 heartbeat IPC: 1.23189 cumulative IPC: 1.35604 (Simulation time: 0 hr 37 min 22 sec) 
Heartbeat CPU 0 instructions: 73000003 cycles: 51574689 heartbeat IPC: 1.44042 cumulative IPC: 1.3573 (Simulation time: 0 hr 37 min 48 sec) 
Heartbeat CPU 0 instructions: 74000001 cycles: 52263724 heartbeat IPC: 1.4513 cumulative IPC: 1.35867 (Simulation time: 0 hr 38 min 16 sec) 
Heartbeat CPU 0 instructions: 75000003 cycles: 52954285 heartbeat IPC: 1.4481 cumulative IPC: 1.35997 (Simulation time: 0 hr 38 min 45 sec) 
Heartbeat CPU 0 instructions: 76000000 cycles: 53694007 heartbeat IPC: 1.35186 cumulative IPC: 1.35984 (Simulation time: 0 hr 39 min 14 sec) 
Heartbeat CPU 0 instructions: 77000001 cycles: 54506740 heartbeat IPC: 1.23042 cumulative IPC: 1.35771 (Simulation time: 0 hr 39 min 47 sec) 
Heartbeat CPU 0 instructions: 78000003 cycles: 55293763 heartbeat IPC: 1.27061 cumulative IPC: 1.35634 (Simulation time: 0 hr 40 min 19 sec) 
Heartbeat CPU 0 instructions: 79000001 cycles: 55979991 heartbeat IPC: 1.45724 cumulative IPC: 1.35771 (Simulation time: 0 hr 40 min 49 sec) 
Heartbeat CPU 0 instructions: 80000000 cycles: 56668363 heartbeat IPC: 1.4527 cumulative IPC: 1.35897 (Simulation time: 0 hr 41 min 19 sec) 
Heartbeat CPU 0 instructions: 81000000 cycles: 57355717 heartbeat IPC: 1.45485 cumulative IPC: 1.36024 (Simulation time: 0 hr 41 min 48 sec) 
Heartbeat CPU 0 instructions: 82000002 cycles: 58125229 heartbeat IPC: 1.29953 cumulative IPC: 1.35936 (Simulation time: 0 hr 42 min 20 sec) 
Heartbeat CPU 0 instructions: 83000001 cycles: 58937701 heartbeat IPC: 1.23081 cumulative IPC: 1.35741 (Simulation time: 0 hr 42 min 50 sec) 
Heartbeat CPU 0 instructions: 84000000 cycles: 59697201 heartbeat IPC: 1.31665 cumulative IPC: 1.35685 (Simulation time: 0 hr 43 min 19 sec) 
Heartbeat CPU 0 instructions: 85000001 cycles: 60389318 heartbeat IPC: 1.44484 cumulative IPC: 1.35795 (Simulation time: 0 hr 43 min 51 sec) 
Heartbeat CPU 0 instructions: 86000002 cycles: 61087728 heartbeat IPC: 1.43183 cumulative IPC: 1.35887 (Simulation time: 0 hr 44 min 20 sec) 
Heartbeat CPU 0 instructions: 87000000 cycles: 61781191 heartbeat IPC: 1.44204 cumulative IPC: 1.35989 (Simulation time: 0 hr 44 min 51 sec) 
Heartbeat CPU 0 instructions: 88000000 cycles: 62581071 heartbeat IPC: 1.25019 cumulative IPC: 1.35836 (Simulation time: 0 hr 45 min 21 sec) 
Heartbeat CPU 0 instructions: 89000000 cycles: 63394076 heartbeat IPC: 1.23 cumulative IPC: 1.35657 (Simulation time: 0 hr 45 min 52 sec) 
Heartbeat CPU 0 instructions: 90000002 cycles: 64123958 heartbeat IPC: 1.37009 cumulative IPC: 1.35674 (Simulation time: 0 hr 46 min 27 sec) 
Heartbeat CPU 0 instructions: 91000002 cycles: 64815248 heartbeat IPC: 1.44657 cumulative IPC: 1.35778 (Simulation time: 0 hr 47 min 2 sec) 
Heartbeat CPU 0 instructions: 92000000 cycles: 65511288 heartbeat IPC: 1.4367 cumulative IPC: 1.35869 (Simulation time: 0 hr 47 min 35 sec) 
Heartbeat CPU 0 instructions: 93000001 cycles: 66200574 heartbeat IPC: 1.45078 cumulative IPC: 1.35973 (Simulation time: 0 hr 48 min 9 sec) 
Heartbeat CPU 0 instructions: 94000000 cycles: 67025968 heartbeat IPC: 1.21154 cumulative IPC: 1.35775 (Simulation time: 0 hr 48 min 39 sec) 
Heartbeat CPU 0 instructions: 95000003 cycles: 67838091 heartbeat IPC: 1.23134 cumulative IPC: 1.35611 (Simulation time: 0 hr 49 min 9 sec) 
Heartbeat CPU 0 instructions: 96000000 cycles: 68541147 heartbeat IPC: 1.42236 cumulative IPC: 1.35685 (Simulation time: 0 hr 49 min 40 sec) 
Heartbeat CPU 0 instructions: 97000001 cycles: 69232619 heartbeat IPC: 1.44619 cumulative IPC: 1.35781 (Simulation time: 0 hr 50 min 8 sec) 
Heartbeat CPU 0 instructions: 98000000 cycles: 69927323 heartbeat IPC: 1.43946 cumulative IPC: 1.35869 (Simulation time: 0 hr 50 min 40 sec) 
Heartbeat CPU 0 instructions: 99000001 cycles: 70656956 heartbeat IPC: 1.37055 cumulative IPC: 1.35882 (Simulation time: 0 hr 51 min 9 sec) 
Heartbeat CPU 0 instructions: 100000000 cycles: 71469279 heartbeat IPC: 1.23104 cumulative IPC: 1.35725 (Simulation time: 0 hr 51 min 38 sec) 
Heartbeat CPU 0 instructions: 101000001 cycles: 72271212 heartbeat IPC: 1.24699 cumulative IPC: 1.35594 (Simulation time: 0 hr 52 min 6 sec) 
Heartbeat CPU 0 instructions: 102000003 cycles: 72959606 heartbeat IPC: 1.45266 cumulative IPC: 1.35692 (Simulation time: 0 hr 52 min 34 sec) 
Heartbeat CPU 0 instructions: 103000003 cycles: 73653377 heartbeat IPC: 1.4414 cumulative IPC: 1.35777 (Simulation time: 0 hr 53 min 3 sec) 
Heartbeat CPU 0 instructions: 104000000 cycles: 74345690 heartbeat IPC: 1.44443 cumulative IPC: 1.35864 (Simulation time: 0 hr 53 min 31 sec) 
Heartbeat CPU 0 instructions: 105000001 cycles: 75108735 heartbeat IPC: 1.31054 cumulative IPC: 1.35812 (Simulation time: 0 hr 53 min 59 sec) 
Heartbeat CPU 0 instructions: 106000002 cycles: 75917012 heartbeat IPC: 1.2372 cumulative IPC: 1.35674 (Simulation time: 0 hr 54 min 28 sec) 
Heartbeat CPU 0 instructions: 107000003 cycles: 76688699 heartbeat IPC: 1.29586 cumulative IPC: 1.35608 (Simulation time: 0 hr 54 min 57 sec) 
Heartbeat CPU 0 instructions: 108000000 cycles: 77375218 heartbeat IPC: 1.45662 cumulative IPC: 1.35703 (Simulation time: 0 hr 55 min 24 sec) 
Heartbeat CPU 0 instructions: 109000001 cycles: 78064301 heartbeat IPC: 1.45121 cumulative IPC: 1.35792 (Simulation time: 0 hr 55 min 49 sec) 
Heartbeat CPU 0 instructions: 110000000 cycles: 78750682 heartbeat IPC: 1.45692 cumulative IPC: 1.35885 (Simulation time: 0 hr 56 min 17 sec) 
Finished CPU 0 instructions: 100000002 cycles: 73591741 cummulative IPC: 1.35885 (Simulation time: 0 hr 56 min 17 sec) 

ChampSim completed all CPUs

Region of Interest Statistics

CPU 0 cummulative IPC: 1.35885 instructions: 100000002 cycles: 73591741
LLC TOTAL     ACCESS:     631972  HIT:     292570  MISS:     339402
LLC LOAD      ACCESS:      37163  HIT:      23428  MISS:      13735
LLC RFO       ACCESS:     152073  HIT:      75870  MISS:      76203
LLC PREFETCH  ACCESS:     286924  HIT:      94054  MISS:     192870
LLC WRITEBACK ACCESS:     155812  HIT:      99218  MISS:      56594
Insertion Distribution: 
	LOAD 2900 4004 8430 
	RFO 207 8785 77466 
	PREF 0 64087 151194 
	WRITEBACK 0 0 58335 
Total Prefetch Downgrades: 22222
