
*** ChampSim Multicore Out-of-Order Simulator ***

Warmup Instructions: 10000000
Simulation Instructions: 100000000
Configuration: 2
Number of CPUs: 1
LLC sets: 2048
LLC ways: 16
Off-chip DRAM Channels: 1 Width: 64-bit Data Rate: 1600 MT/s

CPU 0 runs /datasets/cs240c-wi22-a00-public/data/Assignment2-gz/leslie3d_1186B.trace.gz
CPU 0 L1D next line prefetcher
CPU 0 L2C IP-based stride prefetcher
Initialize SRRIP state
Heartbeat CPU 0 instructions: 1000002 cycles: 564509 heartbeat IPC: 1.77145 cumulative IPC: 1.77145 (Simulation time: 0 hr 0 min 39 sec) 
Heartbeat CPU 0 instructions: 2000000 cycles: 1215814 heartbeat IPC: 1.53538 cumulative IPC: 1.64499 (Simulation time: 0 hr 1 min 18 sec) 
Heartbeat CPU 0 instructions: 3000000 cycles: 1867530 heartbeat IPC: 1.53441 cumulative IPC: 1.6064 (Simulation time: 0 hr 1 min 59 sec) 
Heartbeat CPU 0 instructions: 4000000 cycles: 2473057 heartbeat IPC: 1.65145 cumulative IPC: 1.61743 (Simulation time: 0 hr 2 min 37 sec) 
Heartbeat CPU 0 instructions: 5000000 cycles: 3083370 heartbeat IPC: 1.6385 cumulative IPC: 1.6216 (Simulation time: 0 hr 3 min 16 sec) 
Heartbeat CPU 0 instructions: 6000000 cycles: 3735083 heartbeat IPC: 1.53442 cumulative IPC: 1.60639 (Simulation time: 0 hr 3 min 56 sec) 
Heartbeat CPU 0 instructions: 7000001 cycles: 4386325 heartbeat IPC: 1.53553 cumulative IPC: 1.59587 (Simulation time: 0 hr 4 min 36 sec) 
Heartbeat CPU 0 instructions: 8000000 cycles: 4950914 heartbeat IPC: 1.7712 cumulative IPC: 1.61586 (Simulation time: 0 hr 5 min 12 sec) 
Heartbeat CPU 0 instructions: 9000003 cycles: 5602224 heartbeat IPC: 1.53537 cumulative IPC: 1.60651 (Simulation time: 0 hr 5 min 52 sec) 
Heartbeat CPU 0 instructions: 10000001 cycles: 6253394 heartbeat IPC: 1.53569 cumulative IPC: 1.59913 (Simulation time: 0 hr 6 min 29 sec) 

Warmup complete CPU 0 instructions: 10000001 cycles: 6253394 (Simulation time: 0 hr 6 min 29 sec) 

Heartbeat CPU 0 instructions: 11000001 cycles: 7715846 heartbeat IPC: 0.683783 cumulative IPC: 0.683783 (Simulation time: 0 hr 7 min 10 sec) 
Heartbeat CPU 0 instructions: 12000000 cycles: 8968514 heartbeat IPC: 0.798295 cumulative IPC: 0.736615 (Simulation time: 0 hr 7 min 50 sec) 
Heartbeat CPU 0 instructions: 13000000 cycles: 10173662 heartbeat IPC: 0.829774 cumulative IPC: 0.765254 (Simulation time: 0 hr 8 min 29 sec) 
Heartbeat CPU 0 instructions: 14000000 cycles: 11419015 heartbeat IPC: 0.802985 cumulative IPC: 0.77435 (Simulation time: 0 hr 9 min 12 sec) 
Heartbeat CPU 0 instructions: 15000002 cycles: 12860912 heartbeat IPC: 0.693532 cumulative IPC: 0.756714 (Simulation time: 0 hr 9 min 55 sec) 
Heartbeat CPU 0 instructions: 16000000 cycles: 14062462 heartbeat IPC: 0.832257 cumulative IPC: 0.768337 (Simulation time: 0 hr 10 min 39 sec) 
Heartbeat CPU 0 instructions: 17000000 cycles: 15265228 heartbeat IPC: 0.831417 cumulative IPC: 0.776756 (Simulation time: 0 hr 11 min 23 sec) 
Heartbeat CPU 0 instructions: 18000001 cycles: 16718540 heartbeat IPC: 0.688084 cumulative IPC: 0.764442 (Simulation time: 0 hr 12 min 4 sec) 
Heartbeat CPU 0 instructions: 19000003 cycles: 17923213 heartbeat IPC: 0.830102 cumulative IPC: 0.77122 (Simulation time: 0 hr 12 min 49 sec) 
Heartbeat CPU 0 instructions: 20000000 cycles: 19141877 heartbeat IPC: 0.820568 cumulative IPC: 0.775886 (Simulation time: 0 hr 13 min 31 sec) 
Heartbeat CPU 0 instructions: 21000003 cycles: 20453615 heartbeat IPC: 0.76235 cumulative IPC: 0.774636 (Simulation time: 0 hr 14 min 12 sec) 
Heartbeat CPU 0 instructions: 22000003 cycles: 21759343 heartbeat IPC: 0.765856 cumulative IPC: 0.773897 (Simulation time: 0 hr 14 min 57 sec) 
Heartbeat CPU 0 instructions: 23000002 cycles: 22925233 heartbeat IPC: 0.857713 cumulative IPC: 0.779758 (Simulation time: 0 hr 15 min 45 sec) 
Heartbeat CPU 0 instructions: 24000000 cycles: 24093540 heartbeat IPC: 0.855938 cumulative IPC: 0.784747 (Simulation time: 0 hr 16 min 33 sec) 
Heartbeat CPU 0 instructions: 25000000 cycles: 25509410 heartbeat IPC: 0.70628 cumulative IPC: 0.778977 (Simulation time: 0 hr 17 min 15 sec) 
Heartbeat CPU 0 instructions: 26000000 cycles: 26679424 heartbeat IPC: 0.854691 cumulative IPC: 0.783314 (Simulation time: 0 hr 17 min 57 sec) 
Heartbeat CPU 0 instructions: 27000000 cycles: 27851836 heartbeat IPC: 0.852942 cumulative IPC: 0.787094 (Simulation time: 0 hr 18 min 39 sec) 
Heartbeat CPU 0 instructions: 28000000 cycles: 29244090 heartbeat IPC: 0.71826 cumulative IPC: 0.782925 (Simulation time: 0 hr 19 min 21 sec) 
Heartbeat CPU 0 instructions: 29000002 cycles: 30428198 heartbeat IPC: 0.844519 cumulative IPC: 0.785942 (Simulation time: 0 hr 20 min 1 sec) 
Heartbeat CPU 0 instructions: 30000002 cycles: 31598824 heartbeat IPC: 0.854244 cumulative IPC: 0.789097 (Simulation time: 0 hr 20 min 40 sec) 
Heartbeat CPU 0 instructions: 31000002 cycles: 32800959 heartbeat IPC: 0.831853 cumulative IPC: 0.791033 (Simulation time: 0 hr 21 min 25 sec) 
Heartbeat CPU 0 instructions: 32000000 cycles: 34180984 heartbeat IPC: 0.724623 cumulative IPC: 0.787751 (Simulation time: 0 hr 22 min 9 sec) 
Heartbeat CPU 0 instructions: 33000000 cycles: 35341488 heartbeat IPC: 0.861695 cumulative IPC: 0.790702 (Simulation time: 0 hr 22 min 46 sec) 
Heartbeat CPU 0 instructions: 34000000 cycles: 36512393 heartbeat IPC: 0.85404 cumulative IPC: 0.793152 (Simulation time: 0 hr 23 min 26 sec) 
Heartbeat CPU 0 instructions: 35000000 cycles: 37927004 heartbeat IPC: 0.706908 cumulative IPC: 0.789301 (Simulation time: 0 hr 24 min 5 sec) 
Heartbeat CPU 0 instructions: 36000000 cycles: 39135637 heartbeat IPC: 0.827381 cumulative IPC: 0.7907 (Simulation time: 0 hr 24 min 47 sec) 
Heartbeat CPU 0 instructions: 37000003 cycles: 40331766 heartbeat IPC: 0.836033 cumulative IPC: 0.792291 (Simulation time: 0 hr 25 min 27 sec) 
Heartbeat CPU 0 instructions: 38000003 cycles: 41659242 heartbeat IPC: 0.753309 cumulative IPC: 0.79083 (Simulation time: 0 hr 26 min 7 sec) 
Heartbeat CPU 0 instructions: 39000001 cycles: 42954061 heartbeat IPC: 0.772307 cumulative IPC: 0.790176 (Simulation time: 0 hr 26 min 47 sec) 
Heartbeat CPU 0 instructions: 40000000 cycles: 44152648 heartbeat IPC: 0.834315 cumulative IPC: 0.791572 (Simulation time: 0 hr 27 min 27 sec) 
Heartbeat CPU 0 instructions: 41000000 cycles: 45333584 heartbeat IPC: 0.846786 cumulative IPC: 0.793241 (Simulation time: 0 hr 28 min 10 sec) 
Heartbeat CPU 0 instructions: 42000000 cycles: 46764387 heartbeat IPC: 0.698908 cumulative IPC: 0.789909 (Simulation time: 0 hr 28 min 49 sec) 
Heartbeat CPU 0 instructions: 43000002 cycles: 47942413 heartbeat IPC: 0.848879 cumulative IPC: 0.791575 (Simulation time: 0 hr 29 min 29 sec) 
Heartbeat CPU 0 instructions: 44000000 cycles: 49135891 heartbeat IPC: 0.837886 cumulative IPC: 0.792864 (Simulation time: 0 hr 30 min 8 sec) 
Heartbeat CPU 0 instructions: 45000001 cycles: 50616230 heartbeat IPC: 0.675522 cumulative IPC: 0.788949 (Simulation time: 0 hr 30 min 47 sec) 
Heartbeat CPU 0 instructions: 46000001 cycles: 52267416 heartbeat IPC: 0.605625 cumulative IPC: 0.78237 (Simulation time: 0 hr 31 min 25 sec) 
Heartbeat CPU 0 instructions: 47000002 cycles: 54000770 heartbeat IPC: 0.576917 cumulative IPC: 0.774912 (Simulation time: 0 hr 32 min 6 sec) 
Heartbeat CPU 0 instructions: 48000000 cycles: 55717621 heartbeat IPC: 0.582461 cumulative IPC: 0.768232 (Simulation time: 0 hr 32 min 47 sec) 
Heartbeat CPU 0 instructions: 49000002 cycles: 57459645 heartbeat IPC: 0.574046 cumulative IPC: 0.761626 (Simulation time: 0 hr 33 min 28 sec) 
Heartbeat CPU 0 instructions: 50000002 cycles: 59371218 heartbeat IPC: 0.523129 cumulative IPC: 0.753043 (Simulation time: 0 hr 34 min 11 sec) 
Heartbeat CPU 0 instructions: 51000000 cycles: 61280896 heartbeat IPC: 0.523647 cumulative IPC: 0.745082 (Simulation time: 0 hr 34 min 55 sec) 
Heartbeat CPU 0 instructions: 52000000 cycles: 63161774 heartbeat IPC: 0.531667 cumulative IPC: 0.738028 (Simulation time: 0 hr 35 min 40 sec) 
Heartbeat CPU 0 instructions: 53000000 cycles: 65069941 heartbeat IPC: 0.524063 cumulative IPC: 0.731087 (Simulation time: 0 hr 36 min 22 sec) 
Heartbeat CPU 0 instructions: 54000003 cycles: 66956067 heartbeat IPC: 0.530189 cumulative IPC: 0.724845 (Simulation time: 0 hr 37 min 11 sec) 
Heartbeat CPU 0 instructions: 55000001 cycles: 68908368 heartbeat IPC: 0.512215 cumulative IPC: 0.718219 (Simulation time: 0 hr 37 min 54 sec) 
Heartbeat CPU 0 instructions: 56000000 cycles: 71235544 heartbeat IPC: 0.429705 cumulative IPC: 0.707887 (Simulation time: 0 hr 38 min 32 sec) 
Heartbeat CPU 0 instructions: 57000003 cycles: 73573256 heartbeat IPC: 0.42777 cumulative IPC: 0.69816 (Simulation time: 0 hr 39 min 14 sec) 
Heartbeat CPU 0 instructions: 58000001 cycles: 75881329 heartbeat IPC: 0.433261 cumulative IPC: 0.689378 (Simulation time: 0 hr 40 min 1 sec) 
Heartbeat CPU 0 instructions: 59000003 cycles: 78175487 heartbeat IPC: 0.435891 cumulative IPC: 0.681293 (Simulation time: 0 hr 40 min 46 sec) 
Heartbeat CPU 0 instructions: 60000000 cycles: 80502138 heartbeat IPC: 0.429801 cumulative IPC: 0.673412 (Simulation time: 0 hr 41 min 31 sec) 
Heartbeat CPU 0 instructions: 61000003 cycles: 82823450 heartbeat IPC: 0.430792 cumulative IPC: 0.666057 (Simulation time: 0 hr 42 min 20 sec) 
Heartbeat CPU 0 instructions: 62000001 cycles: 85149156 heartbeat IPC: 0.429976 cumulative IPC: 0.659097 (Simulation time: 0 hr 43 min 6 sec) 
Heartbeat CPU 0 instructions: 63000000 cycles: 87130749 heartbeat IPC: 0.504644 cumulative IPC: 0.655313 (Simulation time: 0 hr 43 min 50 sec) 
Heartbeat CPU 0 instructions: 64000000 cycles: 88349822 heartbeat IPC: 0.820295 cumulative IPC: 0.657763 (Simulation time: 0 hr 44 min 28 sec) 
Heartbeat CPU 0 instructions: 65000000 cycles: 89595199 heartbeat IPC: 0.80297 cumulative IPC: 0.659933 (Simulation time: 0 hr 45 min 13 sec) 
Heartbeat CPU 0 instructions: 66000002 cycles: 90843305 heartbeat IPC: 0.801216 cumulative IPC: 0.662018 (Simulation time: 0 hr 45 min 57 sec) 
Heartbeat CPU 0 instructions: 67000001 cycles: 92092428 heartbeat IPC: 0.800561 cumulative IPC: 0.664034 (Simulation time: 0 hr 46 min 47 sec) 
Heartbeat CPU 0 instructions: 68000000 cycles: 93412461 heartbeat IPC: 0.757556 cumulative IPC: 0.66545 (Simulation time: 0 hr 47 min 25 sec) 
Heartbeat CPU 0 instructions: 69000000 cycles: 94664177 heartbeat IPC: 0.798903 cumulative IPC: 0.667339 (Simulation time: 0 hr 48 min 6 sec) 
Heartbeat CPU 0 instructions: 70000000 cycles: 95959957 heartbeat IPC: 0.771736 cumulative IPC: 0.668847 (Simulation time: 0 hr 48 min 48 sec) 
Heartbeat CPU 0 instructions: 71000000 cycles: 97219634 heartbeat IPC: 0.793854 cumulative IPC: 0.670578 (Simulation time: 0 hr 49 min 27 sec) 
Heartbeat CPU 0 instructions: 72000000 cycles: 98503576 heartbeat IPC: 0.778851 cumulative IPC: 0.672085 (Simulation time: 0 hr 50 min 5 sec) 
Heartbeat CPU 0 instructions: 73000000 cycles: 99796094 heartbeat IPC: 0.773684 cumulative IPC: 0.673489 (Simulation time: 0 hr 50 min 44 sec) 
Heartbeat CPU 0 instructions: 74000000 cycles: 101058481 heartbeat IPC: 0.79215 cumulative IPC: 0.675069 (Simulation time: 0 hr 51 min 23 sec) 
Heartbeat CPU 0 instructions: 75000003 cycles: 102365414 heartbeat IPC: 0.765152 cumulative IPC: 0.676294 (Simulation time: 0 hr 52 min 0 sec) 
Heartbeat CPU 0 instructions: 76000000 cycles: 103627066 heartbeat IPC: 0.792609 cumulative IPC: 0.677801 (Simulation time: 0 hr 52 min 34 sec) 
Heartbeat CPU 0 instructions: 77000000 cycles: 104930177 heartbeat IPC: 0.767394 cumulative IPC: 0.678984 (Simulation time: 0 hr 53 min 11 sec) 
Heartbeat CPU 0 instructions: 78000001 cycles: 106211206 heartbeat IPC: 0.780623 cumulative IPC: 0.680287 (Simulation time: 0 hr 53 min 48 sec) 
Heartbeat CPU 0 instructions: 79000002 cycles: 107514199 heartbeat IPC: 0.767465 cumulative IPC: 0.681409 (Simulation time: 0 hr 54 min 26 sec) 
Heartbeat CPU 0 instructions: 80000000 cycles: 108809385 heartbeat IPC: 0.772088 cumulative IPC: 0.682554 (Simulation time: 0 hr 55 min 1 sec) 
Heartbeat CPU 0 instructions: 81000000 cycles: 110070626 heartbeat IPC: 0.79287 cumulative IPC: 0.683894 (Simulation time: 0 hr 55 min 35 sec) 
Heartbeat CPU 0 instructions: 82000003 cycles: 111379583 heartbeat IPC: 0.763969 cumulative IPC: 0.684891 (Simulation time: 0 hr 56 min 11 sec) 
Heartbeat CPU 0 instructions: 83000001 cycles: 112661283 heartbeat IPC: 0.780212 cumulative IPC: 0.686039 (Simulation time: 0 hr 56 min 41 sec) 
Heartbeat CPU 0 instructions: 84000000 cycles: 113956608 heartbeat IPC: 0.772006 cumulative IPC: 0.687073 (Simulation time: 0 hr 57 min 11 sec) 
Heartbeat CPU 0 instructions: 85000001 cycles: 115228668 heartbeat IPC: 0.786127 cumulative IPC: 0.68823 (Simulation time: 0 hr 57 min 39 sec) 
Heartbeat CPU 0 instructions: 86000003 cycles: 116521981 heartbeat IPC: 0.77321 cumulative IPC: 0.689226 (Simulation time: 0 hr 58 min 6 sec) 
Heartbeat CPU 0 instructions: 87000001 cycles: 117794150 heartbeat IPC: 0.786058 cumulative IPC: 0.690331 (Simulation time: 0 hr 58 min 33 sec) 
Heartbeat CPU 0 instructions: 88000000 cycles: 119072412 heartbeat IPC: 0.782311 cumulative IPC: 0.691373 (Simulation time: 0 hr 58 min 58 sec) 
Heartbeat CPU 0 instructions: 89000001 cycles: 120359264 heartbeat IPC: 0.777091 cumulative IPC: 0.692339 (Simulation time: 0 hr 59 min 24 sec) 
Heartbeat CPU 0 instructions: 90000002 cycles: 121634669 heartbeat IPC: 0.784065 cumulative IPC: 0.693353 (Simulation time: 0 hr 59 min 50 sec) 
Heartbeat CPU 0 instructions: 91000000 cycles: 122928091 heartbeat IPC: 0.773141 cumulative IPC: 0.694238 (Simulation time: 1 hr 0 min 13 sec) 
Heartbeat CPU 0 instructions: 92000000 cycles: 124194055 heartbeat IPC: 0.789912 cumulative IPC: 0.695265 (Simulation time: 1 hr 0 min 37 sec) 
Heartbeat CPU 0 instructions: 93000002 cycles: 125504667 heartbeat IPC: 0.763004 cumulative IPC: 0.696009 (Simulation time: 1 hr 1 min 3 sec) 
Heartbeat CPU 0 instructions: 94000000 cycles: 126757159 heartbeat IPC: 0.798407 cumulative IPC: 0.697074 (Simulation time: 1 hr 1 min 29 sec) 
Heartbeat CPU 0 instructions: 95000003 cycles: 128019891 heartbeat IPC: 0.791936 cumulative IPC: 0.698057 (Simulation time: 1 hr 1 min 54 sec) 
Heartbeat CPU 0 instructions: 96000000 cycles: 129315351 heartbeat IPC: 0.771924 cumulative IPC: 0.698835 (Simulation time: 1 hr 2 min 17 sec) 
Heartbeat CPU 0 instructions: 97000001 cycles: 130575286 heartbeat IPC: 0.793693 cumulative IPC: 0.699796 (Simulation time: 1 hr 2 min 38 sec) 
Heartbeat CPU 0 instructions: 98000002 cycles: 131879375 heartbeat IPC: 0.76682 cumulative IPC: 0.700492 (Simulation time: 1 hr 3 min 1 sec) 
Heartbeat CPU 0 instructions: 99000000 cycles: 133147837 heartbeat IPC: 0.788355 cumulative IPC: 0.70137 (Simulation time: 1 hr 3 min 23 sec) 
Heartbeat CPU 0 instructions: 100000000 cycles: 134457794 heartbeat IPC: 0.763384 cumulative IPC: 0.702004 (Simulation time: 1 hr 3 min 43 sec) 
Heartbeat CPU 0 instructions: 101000000 cycles: 135733406 heartbeat IPC: 0.783937 cumulative IPC: 0.702811 (Simulation time: 1 hr 4 min 2 sec) 
Heartbeat CPU 0 instructions: 102000001 cycles: 136994254 heartbeat IPC: 0.793118 cumulative IPC: 0.703682 (Simulation time: 1 hr 4 min 21 sec) 
Heartbeat CPU 0 instructions: 103000002 cycles: 138299725 heartbeat IPC: 0.766008 cumulative IPC: 0.704298 (Simulation time: 1 hr 4 min 39 sec) 
Heartbeat CPU 0 instructions: 104000000 cycles: 139555345 heartbeat IPC: 0.796418 cumulative IPC: 0.705166 (Simulation time: 1 hr 4 min 56 sec) 
Heartbeat CPU 0 instructions: 105000001 cycles: 140871367 heartbeat IPC: 0.759866 cumulative IPC: 0.705701 (Simulation time: 1 hr 5 min 14 sec) 
Heartbeat CPU 0 instructions: 106000002 cycles: 142137917 heartbeat IPC: 0.789547 cumulative IPC: 0.706482 (Simulation time: 1 hr 5 min 31 sec) 
Heartbeat CPU 0 instructions: 107000000 cycles: 143431491 heartbeat IPC: 0.77305 cumulative IPC: 0.70711 (Simulation time: 1 hr 5 min 47 sec) 
Heartbeat CPU 0 instructions: 108000000 cycles: 144704534 heartbeat IPC: 0.785519 cumulative IPC: 0.707831 (Simulation time: 1 hr 6 min 3 sec) 
Heartbeat CPU 0 instructions: 109000003 cycles: 145971446 heartbeat IPC: 0.789323 cumulative IPC: 0.70857 (Simulation time: 1 hr 6 min 20 sec) 
Heartbeat CPU 0 instructions: 110000001 cycles: 147277682 heartbeat IPC: 0.765557 cumulative IPC: 0.709098 (Simulation time: 1 hr 6 min 37 sec) 
Finished CPU 0 instructions: 100000000 cycles: 141024288 cummulative IPC: 0.709098 (Simulation time: 1 hr 6 min 37 sec) 

ChampSim completed all CPUs

Region of Interest Statistics

CPU 0 cummulative IPC: 0.709098 instructions: 100000000 cycles: 141024288
LLC TOTAL     ACCESS:    3757417  HIT:    1219268  MISS:    2538149
LLC LOAD      ACCESS:     404261  HIT:     120858  MISS:     283403
LLC RFO       ACCESS:     463754  HIT:     173908  MISS:     289846
LLC PREFETCH  ACCESS:    2140193  HIT:     583629  MISS:    1556564
LLC WRITEBACK ACCESS:     749209  HIT:     340873  MISS:     408336
Insertion Distribution: 
	LOAD 46766 46292 193961 
	RFO 1112 29011 261982 
	PREF 0 331348 1401736 
	WRITEBACK 0 0 431769 
Total Prefetch Downgrades: 67322
