
*** ChampSim Multicore Out-of-Order Simulator ***

Warmup Instructions: 10000000
Simulation Instructions: 100000000
Configuration: 2
Number of CPUs: 1
LLC sets: 2048
LLC ways: 16
Off-chip DRAM Channels: 1 Width: 64-bit Data Rate: 1600 MT/s

CPU 0 runs /datasets/cs240c-wi22-a00-public/data/Assignment2-gz/zeusmp_600B.trace.gz
CPU 0 L1D next line prefetcher
CPU 0 L2C IP-based stride prefetcher
Initialize SRRIP state
Heartbeat CPU 0 instructions: 1000000 cycles: 407346 heartbeat IPC: 2.45492 cumulative IPC: 2.45492 (Simulation time: 0 hr 0 min 28 sec) 
Heartbeat CPU 0 instructions: 2000001 cycles: 814284 heartbeat IPC: 2.45738 cumulative IPC: 2.45615 (Simulation time: 0 hr 0 min 57 sec) 
Heartbeat CPU 0 instructions: 3000000 cycles: 1221753 heartbeat IPC: 2.45417 cumulative IPC: 2.45549 (Simulation time: 0 hr 1 min 24 sec) 
Heartbeat CPU 0 instructions: 4000000 cycles: 1629404 heartbeat IPC: 2.45308 cumulative IPC: 2.45489 (Simulation time: 0 hr 1 min 52 sec) 
Heartbeat CPU 0 instructions: 5000001 cycles: 2036967 heartbeat IPC: 2.45361 cumulative IPC: 2.45463 (Simulation time: 0 hr 2 min 22 sec) 
Heartbeat CPU 0 instructions: 6000000 cycles: 2444291 heartbeat IPC: 2.45505 cumulative IPC: 2.4547 (Simulation time: 0 hr 2 min 50 sec) 
Heartbeat CPU 0 instructions: 7000000 cycles: 2851775 heartbeat IPC: 2.45408 cumulative IPC: 2.45461 (Simulation time: 0 hr 3 min 18 sec) 
Heartbeat CPU 0 instructions: 8000000 cycles: 3259377 heartbeat IPC: 2.45337 cumulative IPC: 2.45446 (Simulation time: 0 hr 3 min 45 sec) 
Heartbeat CPU 0 instructions: 9000003 cycles: 3666450 heartbeat IPC: 2.45657 cumulative IPC: 2.45469 (Simulation time: 0 hr 4 min 14 sec) 
Heartbeat CPU 0 instructions: 10000001 cycles: 4073953 heartbeat IPC: 2.45396 cumulative IPC: 2.45462 (Simulation time: 0 hr 4 min 40 sec) 

Warmup complete CPU 0 instructions: 10000001 cycles: 4073953 (Simulation time: 0 hr 4 min 40 sec) 

Heartbeat CPU 0 instructions: 11000000 cycles: 4748303 heartbeat IPC: 1.48291 cumulative IPC: 1.48291 (Simulation time: 0 hr 5 min 11 sec) 
Heartbeat CPU 0 instructions: 12000000 cycles: 5421557 heartbeat IPC: 1.48532 cumulative IPC: 1.48411 (Simulation time: 0 hr 5 min 42 sec) 
Heartbeat CPU 0 instructions: 13000001 cycles: 6095324 heartbeat IPC: 1.48419 cumulative IPC: 1.48414 (Simulation time: 0 hr 6 min 13 sec) 
Heartbeat CPU 0 instructions: 14000001 cycles: 6769204 heartbeat IPC: 1.48394 cumulative IPC: 1.48409 (Simulation time: 0 hr 6 min 43 sec) 
Heartbeat CPU 0 instructions: 15000003 cycles: 7444739 heartbeat IPC: 1.48031 cumulative IPC: 1.48333 (Simulation time: 0 hr 7 min 16 sec) 
Heartbeat CPU 0 instructions: 16000000 cycles: 8167693 heartbeat IPC: 1.38321 cumulative IPC: 1.46565 (Simulation time: 0 hr 7 min 48 sec) 
Heartbeat CPU 0 instructions: 17000001 cycles: 8950466 heartbeat IPC: 1.27751 cumulative IPC: 1.43545 (Simulation time: 0 hr 8 min 20 sec) 
Heartbeat CPU 0 instructions: 18000003 cycles: 9727819 heartbeat IPC: 1.28642 cumulative IPC: 1.41496 (Simulation time: 0 hr 8 min 49 sec) 
Heartbeat CPU 0 instructions: 19000000 cycles: 10501320 heartbeat IPC: 1.29282 cumulative IPC: 1.40026 (Simulation time: 0 hr 9 min 20 sec) 
Heartbeat CPU 0 instructions: 20000000 cycles: 11271564 heartbeat IPC: 1.29829 cumulative IPC: 1.38935 (Simulation time: 0 hr 9 min 53 sec) 
Heartbeat CPU 0 instructions: 21000002 cycles: 12045244 heartbeat IPC: 1.29253 cumulative IPC: 1.37995 (Simulation time: 0 hr 10 min 25 sec) 
Heartbeat CPU 0 instructions: 22000000 cycles: 12815140 heartbeat IPC: 1.29887 cumulative IPC: 1.37281 (Simulation time: 0 hr 10 min 54 sec) 
Heartbeat CPU 0 instructions: 23000000 cycles: 13588652 heartbeat IPC: 1.2928 cumulative IPC: 1.36631 (Simulation time: 0 hr 11 min 23 sec) 
Heartbeat CPU 0 instructions: 24000000 cycles: 14362423 heartbeat IPC: 1.29237 cumulative IPC: 1.36075 (Simulation time: 0 hr 11 min 54 sec) 
Heartbeat CPU 0 instructions: 25000000 cycles: 15129019 heartbeat IPC: 1.30447 cumulative IPC: 1.35684 (Simulation time: 0 hr 12 min 30 sec) 
Heartbeat CPU 0 instructions: 26000000 cycles: 15898559 heartbeat IPC: 1.29948 cumulative IPC: 1.35311 (Simulation time: 0 hr 13 min 3 sec) 
Heartbeat CPU 0 instructions: 27000003 cycles: 16672125 heartbeat IPC: 1.29272 cumulative IPC: 1.3494 (Simulation time: 0 hr 13 min 35 sec) 
Heartbeat CPU 0 instructions: 28000000 cycles: 17454777 heartbeat IPC: 1.2777 cumulative IPC: 1.34521 (Simulation time: 0 hr 14 min 6 sec) 
Heartbeat CPU 0 instructions: 29000000 cycles: 18230263 heartbeat IPC: 1.28951 cumulative IPC: 1.34216 (Simulation time: 0 hr 14 min 42 sec) 
Heartbeat CPU 0 instructions: 30000003 cycles: 19011467 heartbeat IPC: 1.28008 cumulative IPC: 1.33891 (Simulation time: 0 hr 15 min 17 sec) 
Heartbeat CPU 0 instructions: 31000002 cycles: 19799577 heartbeat IPC: 1.26886 cumulative IPC: 1.3354 (Simulation time: 0 hr 15 min 49 sec) 
Heartbeat CPU 0 instructions: 32000000 cycles: 20576790 heartbeat IPC: 1.28665 cumulative IPC: 1.3331 (Simulation time: 0 hr 16 min 24 sec) 
Heartbeat CPU 0 instructions: 33000001 cycles: 21362170 heartbeat IPC: 1.27327 cumulative IPC: 1.33039 (Simulation time: 0 hr 16 min 57 sec) 
Heartbeat CPU 0 instructions: 34000000 cycles: 22140982 heartbeat IPC: 1.28401 cumulative IPC: 1.32839 (Simulation time: 0 hr 17 min 29 sec) 
Heartbeat CPU 0 instructions: 35000000 cycles: 22918139 heartbeat IPC: 1.28674 cumulative IPC: 1.32667 (Simulation time: 0 hr 18 min 0 sec) 
Heartbeat CPU 0 instructions: 36000000 cycles: 23694593 heartbeat IPC: 1.28791 cumulative IPC: 1.32514 (Simulation time: 0 hr 18 min 31 sec) 
Heartbeat CPU 0 instructions: 37000001 cycles: 24477231 heartbeat IPC: 1.27773 cumulative IPC: 1.32332 (Simulation time: 0 hr 19 min 3 sec) 
Heartbeat CPU 0 instructions: 38000001 cycles: 25263892 heartbeat IPC: 1.2712 cumulative IPC: 1.32138 (Simulation time: 0 hr 19 min 32 sec) 
Heartbeat CPU 0 instructions: 39000002 cycles: 26040629 heartbeat IPC: 1.28744 cumulative IPC: 1.32018 (Simulation time: 0 hr 20 min 3 sec) 
Heartbeat CPU 0 instructions: 40000000 cycles: 26821902 heartbeat IPC: 1.27996 cumulative IPC: 1.3188 (Simulation time: 0 hr 20 min 33 sec) 
Heartbeat CPU 0 instructions: 41000002 cycles: 27599825 heartbeat IPC: 1.28548 cumulative IPC: 1.3177 (Simulation time: 0 hr 21 min 8 sec) 
Heartbeat CPU 0 instructions: 42000000 cycles: 28378001 heartbeat IPC: 1.28505 cumulative IPC: 1.31665 (Simulation time: 0 hr 21 min 41 sec) 
Heartbeat CPU 0 instructions: 43000002 cycles: 29162936 heartbeat IPC: 1.27399 cumulative IPC: 1.31532 (Simulation time: 0 hr 22 min 13 sec) 
Heartbeat CPU 0 instructions: 44000000 cycles: 29942066 heartbeat IPC: 1.28348 cumulative IPC: 1.31436 (Simulation time: 0 hr 22 min 47 sec) 
Heartbeat CPU 0 instructions: 45000003 cycles: 30716157 heartbeat IPC: 1.29184 cumulative IPC: 1.31371 (Simulation time: 0 hr 23 min 19 sec) 
Heartbeat CPU 0 instructions: 46000000 cycles: 31488477 heartbeat IPC: 1.2948 cumulative IPC: 1.31317 (Simulation time: 0 hr 23 min 49 sec) 
Heartbeat CPU 0 instructions: 47000001 cycles: 32273453 heartbeat IPC: 1.27393 cumulative IPC: 1.31208 (Simulation time: 0 hr 24 min 20 sec) 
Heartbeat CPU 0 instructions: 48000000 cycles: 33054162 heartbeat IPC: 1.28089 cumulative IPC: 1.31124 (Simulation time: 0 hr 24 min 47 sec) 
Heartbeat CPU 0 instructions: 49000000 cycles: 33835432 heartbeat IPC: 1.27997 cumulative IPC: 1.31042 (Simulation time: 0 hr 25 min 18 sec) 
Heartbeat CPU 0 instructions: 50000000 cycles: 34613505 heartbeat IPC: 1.28523 cumulative IPC: 1.30978 (Simulation time: 0 hr 25 min 49 sec) 
Heartbeat CPU 0 instructions: 51000001 cycles: 35394679 heartbeat IPC: 1.28013 cumulative IPC: 1.30904 (Simulation time: 0 hr 26 min 20 sec) 
Heartbeat CPU 0 instructions: 52000000 cycles: 36162922 heartbeat IPC: 1.30167 cumulative IPC: 1.30886 (Simulation time: 0 hr 26 min 51 sec) 
Heartbeat CPU 0 instructions: 53000001 cycles: 36947196 heartbeat IPC: 1.27507 cumulative IPC: 1.30805 (Simulation time: 0 hr 27 min 22 sec) 
Heartbeat CPU 0 instructions: 54000000 cycles: 37727035 heartbeat IPC: 1.28231 cumulative IPC: 1.30746 (Simulation time: 0 hr 27 min 51 sec) 
Heartbeat CPU 0 instructions: 55000001 cycles: 38500667 heartbeat IPC: 1.29261 cumulative IPC: 1.30712 (Simulation time: 0 hr 28 min 20 sec) 
Heartbeat CPU 0 instructions: 56000000 cycles: 39273655 heartbeat IPC: 1.29368 cumulative IPC: 1.30683 (Simulation time: 0 hr 28 min 58 sec) 
Heartbeat CPU 0 instructions: 57000003 cycles: 40063428 heartbeat IPC: 1.26619 cumulative IPC: 1.30594 (Simulation time: 0 hr 29 min 31 sec) 
Heartbeat CPU 0 instructions: 58000001 cycles: 40835970 heartbeat IPC: 1.29443 cumulative IPC: 1.3057 (Simulation time: 0 hr 30 min 1 sec) 
Heartbeat CPU 0 instructions: 59000000 cycles: 41612113 heartbeat IPC: 1.28842 cumulative IPC: 1.30534 (Simulation time: 0 hr 30 min 32 sec) 
Heartbeat CPU 0 instructions: 60000000 cycles: 42385655 heartbeat IPC: 1.29275 cumulative IPC: 1.30508 (Simulation time: 0 hr 31 min 4 sec) 
Heartbeat CPU 0 instructions: 61000003 cycles: 43164405 heartbeat IPC: 1.28411 cumulative IPC: 1.30467 (Simulation time: 0 hr 31 min 33 sec) 
Heartbeat CPU 0 instructions: 62000001 cycles: 43944510 heartbeat IPC: 1.28188 cumulative IPC: 1.30422 (Simulation time: 0 hr 32 min 2 sec) 
Heartbeat CPU 0 instructions: 63000000 cycles: 44717680 heartbeat IPC: 1.29338 cumulative IPC: 1.30401 (Simulation time: 0 hr 32 min 31 sec) 
Heartbeat CPU 0 instructions: 64000000 cycles: 45494696 heartbeat IPC: 1.28697 cumulative IPC: 1.30369 (Simulation time: 0 hr 33 min 0 sec) 
Heartbeat CPU 0 instructions: 65000001 cycles: 46281617 heartbeat IPC: 1.27078 cumulative IPC: 1.30308 (Simulation time: 0 hr 33 min 29 sec) 
Heartbeat CPU 0 instructions: 66000000 cycles: 47068154 heartbeat IPC: 1.27139 cumulative IPC: 1.3025 (Simulation time: 0 hr 33 min 59 sec) 
Heartbeat CPU 0 instructions: 67000001 cycles: 47853745 heartbeat IPC: 1.27293 cumulative IPC: 1.30197 (Simulation time: 0 hr 34 min 30 sec) 
Heartbeat CPU 0 instructions: 68000000 cycles: 48631434 heartbeat IPC: 1.28586 cumulative IPC: 1.30169 (Simulation time: 0 hr 35 min 0 sec) 
Heartbeat CPU 0 instructions: 69000002 cycles: 49419568 heartbeat IPC: 1.26882 cumulative IPC: 1.30112 (Simulation time: 0 hr 35 min 30 sec) 
Heartbeat CPU 0 instructions: 70000000 cycles: 50196275 heartbeat IPC: 1.28748 cumulative IPC: 1.30089 (Simulation time: 0 hr 36 min 1 sec) 
Heartbeat CPU 0 instructions: 71000001 cycles: 50982221 heartbeat IPC: 1.27235 cumulative IPC: 1.30041 (Simulation time: 0 hr 36 min 32 sec) 
Heartbeat CPU 0 instructions: 72000000 cycles: 51764677 heartbeat IPC: 1.27803 cumulative IPC: 1.30004 (Simulation time: 0 hr 37 min 2 sec) 
Heartbeat CPU 0 instructions: 73000003 cycles: 52538433 heartbeat IPC: 1.2924 cumulative IPC: 1.29992 (Simulation time: 0 hr 37 min 32 sec) 
Heartbeat CPU 0 instructions: 74000002 cycles: 53315792 heartbeat IPC: 1.28641 cumulative IPC: 1.29971 (Simulation time: 0 hr 38 min 1 sec) 
Heartbeat CPU 0 instructions: 75000003 cycles: 54097242 heartbeat IPC: 1.27967 cumulative IPC: 1.29939 (Simulation time: 0 hr 38 min 31 sec) 
Heartbeat CPU 0 instructions: 76000000 cycles: 54882587 heartbeat IPC: 1.27332 cumulative IPC: 1.29899 (Simulation time: 0 hr 39 min 2 sec) 
Heartbeat CPU 0 instructions: 77000000 cycles: 55659863 heartbeat IPC: 1.28654 cumulative IPC: 1.2988 (Simulation time: 0 hr 39 min 32 sec) 
Heartbeat CPU 0 instructions: 78000003 cycles: 56436968 heartbeat IPC: 1.28683 cumulative IPC: 1.29863 (Simulation time: 0 hr 40 min 1 sec) 
Heartbeat CPU 0 instructions: 79000000 cycles: 57217450 heartbeat IPC: 1.28126 cumulative IPC: 1.29837 (Simulation time: 0 hr 40 min 30 sec) 
Heartbeat CPU 0 instructions: 80000000 cycles: 57998456 heartbeat IPC: 1.2804 cumulative IPC: 1.29811 (Simulation time: 0 hr 40 min 59 sec) 
Heartbeat CPU 0 instructions: 81000002 cycles: 58772577 heartbeat IPC: 1.29179 cumulative IPC: 1.29802 (Simulation time: 0 hr 41 min 28 sec) 
Heartbeat CPU 0 instructions: 82000002 cycles: 59555022 heartbeat IPC: 1.27805 cumulative IPC: 1.29774 (Simulation time: 0 hr 41 min 57 sec) 
Heartbeat CPU 0 instructions: 83000001 cycles: 60330406 heartbeat IPC: 1.28968 cumulative IPC: 1.29763 (Simulation time: 0 hr 42 min 27 sec) 
Heartbeat CPU 0 instructions: 84000000 cycles: 61111959 heartbeat IPC: 1.2795 cumulative IPC: 1.29738 (Simulation time: 0 hr 42 min 58 sec) 
Heartbeat CPU 0 instructions: 85000002 cycles: 61892429 heartbeat IPC: 1.28128 cumulative IPC: 1.29716 (Simulation time: 0 hr 43 min 28 sec) 
Heartbeat CPU 0 instructions: 86000002 cycles: 62668948 heartbeat IPC: 1.2878 cumulative IPC: 1.29704 (Simulation time: 0 hr 43 min 56 sec) 
Heartbeat CPU 0 instructions: 87000000 cycles: 63450941 heartbeat IPC: 1.27878 cumulative IPC: 1.2968 (Simulation time: 0 hr 44 min 25 sec) 
Heartbeat CPU 0 instructions: 88000000 cycles: 64234469 heartbeat IPC: 1.27628 cumulative IPC: 1.29653 (Simulation time: 0 hr 44 min 55 sec) 
Heartbeat CPU 0 instructions: 89000002 cycles: 65010542 heartbeat IPC: 1.28854 cumulative IPC: 1.29643 (Simulation time: 0 hr 45 min 24 sec) 
Heartbeat CPU 0 instructions: 90000002 cycles: 65782250 heartbeat IPC: 1.29583 cumulative IPC: 1.29642 (Simulation time: 0 hr 45 min 56 sec) 
Heartbeat CPU 0 instructions: 91000001 cycles: 66559917 heartbeat IPC: 1.2859 cumulative IPC: 1.29629 (Simulation time: 0 hr 46 min 33 sec) 
Heartbeat CPU 0 instructions: 92000000 cycles: 67345616 heartbeat IPC: 1.27275 cumulative IPC: 1.296 (Simulation time: 0 hr 47 min 7 sec) 
Heartbeat CPU 0 instructions: 93000000 cycles: 68115828 heartbeat IPC: 1.29834 cumulative IPC: 1.29603 (Simulation time: 0 hr 47 min 38 sec) 
Heartbeat CPU 0 instructions: 94000002 cycles: 68892883 heartbeat IPC: 1.28691 cumulative IPC: 1.29592 (Simulation time: 0 hr 48 min 10 sec) 
Heartbeat CPU 0 instructions: 95000001 cycles: 69671567 heartbeat IPC: 1.28422 cumulative IPC: 1.29578 (Simulation time: 0 hr 48 min 41 sec) 
Heartbeat CPU 0 instructions: 96000000 cycles: 70451534 heartbeat IPC: 1.2821 cumulative IPC: 1.29562 (Simulation time: 0 hr 49 min 12 sec) 
Heartbeat CPU 0 instructions: 97000003 cycles: 71220791 heartbeat IPC: 1.29996 cumulative IPC: 1.29567 (Simulation time: 0 hr 49 min 42 sec) 
Heartbeat CPU 0 instructions: 98000002 cycles: 71995744 heartbeat IPC: 1.2904 cumulative IPC: 1.29561 (Simulation time: 0 hr 50 min 12 sec) 
Heartbeat CPU 0 instructions: 99000000 cycles: 72782311 heartbeat IPC: 1.27135 cumulative IPC: 1.29533 (Simulation time: 0 hr 50 min 41 sec) 
Heartbeat CPU 0 instructions: 100000000 cycles: 73560080 heartbeat IPC: 1.28573 cumulative IPC: 1.29522 (Simulation time: 0 hr 51 min 12 sec) 
Heartbeat CPU 0 instructions: 101000002 cycles: 74330163 heartbeat IPC: 1.29856 cumulative IPC: 1.29526 (Simulation time: 0 hr 51 min 44 sec) 
Heartbeat CPU 0 instructions: 102000002 cycles: 75115661 heartbeat IPC: 1.27308 cumulative IPC: 1.29501 (Simulation time: 0 hr 52 min 14 sec) 
Heartbeat CPU 0 instructions: 103000001 cycles: 75893783 heartbeat IPC: 1.28514 cumulative IPC: 1.29491 (Simulation time: 0 hr 52 min 40 sec) 
Heartbeat CPU 0 instructions: 104000000 cycles: 76675240 heartbeat IPC: 1.27966 cumulative IPC: 1.29474 (Simulation time: 0 hr 53 min 9 sec) 
Heartbeat CPU 0 instructions: 105000001 cycles: 77454595 heartbeat IPC: 1.28311 cumulative IPC: 1.29462 (Simulation time: 0 hr 53 min 38 sec) 
Heartbeat CPU 0 instructions: 106000000 cycles: 78234378 heartbeat IPC: 1.28241 cumulative IPC: 1.29449 (Simulation time: 0 hr 54 min 5 sec) 
Heartbeat CPU 0 instructions: 107000000 cycles: 79016262 heartbeat IPC: 1.27896 cumulative IPC: 1.29433 (Simulation time: 0 hr 54 min 35 sec) 
Heartbeat CPU 0 instructions: 108000000 cycles: 79792973 heartbeat IPC: 1.28748 cumulative IPC: 1.29426 (Simulation time: 0 hr 55 min 5 sec) 
Heartbeat CPU 0 instructions: 109000000 cycles: 80577636 heartbeat IPC: 1.27443 cumulative IPC: 1.29406 (Simulation time: 0 hr 55 min 31 sec) 
Heartbeat CPU 0 instructions: 110000002 cycles: 81361151 heartbeat IPC: 1.2763 cumulative IPC: 1.29388 (Simulation time: 0 hr 56 min 0 sec) 
Finished CPU 0 instructions: 100000001 cycles: 77287198 cummulative IPC: 1.29388 (Simulation time: 0 hr 56 min 0 sec) 

ChampSim completed all CPUs

Region of Interest Statistics

CPU 0 cummulative IPC: 1.29388 instructions: 100000001 cycles: 77287198
LLC TOTAL     ACCESS:     382567  HIT:      18343  MISS:     364224
LLC LOAD      ACCESS:      27959  HIT:        434  MISS:      27525
LLC RFO       ACCESS:       3434  HIT:          3  MISS:       3431
LLC PREFETCH  ACCESS:     287938  HIT:       4524  MISS:     283414
LLC WRITEBACK ACCESS:      63236  HIT:      13382  MISS:      49854
Insertion Distribution: 
	LOAD 0 8366 19892 
	RFO 0 5446 3980 
	PREF 0 42737 266662 
	WRITEBACK 0 0 50462 
Total Prefetch Downgrades: 245
