
*** ChampSim Multicore Out-of-Order Simulator ***

Warmup Instructions: 10000000
Simulation Instructions: 100000000
Configuration: 2
Number of CPUs: 1
LLC sets: 2048
LLC ways: 16
Off-chip DRAM Channels: 1 Width: 64-bit Data Rate: 1600 MT/s

CPU 0 runs /datasets/cs240c-wi22-a00-public/data/Assignment2-gz/mcf_158B.trace.gz
CPU 0 L1D next line prefetcher
CPU 0 L2C IP-based stride prefetcher
Initialize SRRIP state
Heartbeat CPU 0 instructions: 1000002 cycles: 512128 heartbeat IPC: 1.95264 cumulative IPC: 1.95264 (Simulation time: 0 hr 0 min 41 sec) 
Heartbeat CPU 0 instructions: 2000002 cycles: 1023113 heartbeat IPC: 1.957 cumulative IPC: 1.95482 (Simulation time: 0 hr 1 min 19 sec) 
Heartbeat CPU 0 instructions: 3000000 cycles: 1535452 heartbeat IPC: 1.95183 cumulative IPC: 1.95382 (Simulation time: 0 hr 1 min 58 sec) 
Heartbeat CPU 0 instructions: 4000000 cycles: 2046542 heartbeat IPC: 1.9566 cumulative IPC: 1.95452 (Simulation time: 0 hr 2 min 37 sec) 
Heartbeat CPU 0 instructions: 5000002 cycles: 2554161 heartbeat IPC: 1.96999 cumulative IPC: 1.95759 (Simulation time: 0 hr 3 min 16 sec) 
Heartbeat CPU 0 instructions: 6000001 cycles: 3066967 heartbeat IPC: 1.95005 cumulative IPC: 1.95633 (Simulation time: 0 hr 3 min 54 sec) 
Heartbeat CPU 0 instructions: 7000001 cycles: 3575974 heartbeat IPC: 1.96461 cumulative IPC: 1.95751 (Simulation time: 0 hr 4 min 32 sec) 
Heartbeat CPU 0 instructions: 8000000 cycles: 4087000 heartbeat IPC: 1.95685 cumulative IPC: 1.95743 (Simulation time: 0 hr 5 min 12 sec) 
Heartbeat CPU 0 instructions: 9000000 cycles: 4605493 heartbeat IPC: 1.92867 cumulative IPC: 1.95419 (Simulation time: 0 hr 5 min 48 sec) 
Heartbeat CPU 0 instructions: 10000001 cycles: 5141102 heartbeat IPC: 1.86704 cumulative IPC: 1.94511 (Simulation time: 0 hr 6 min 23 sec) 

Warmup complete CPU 0 instructions: 10000001 cycles: 5141102 (Simulation time: 0 hr 6 min 23 sec) 

Heartbeat CPU 0 instructions: 11000001 cycles: 13724235 heartbeat IPC: 0.116508 cumulative IPC: 0.116508 (Simulation time: 0 hr 7 min 13 sec) 
Heartbeat CPU 0 instructions: 12000000 cycles: 21670458 heartbeat IPC: 0.125846 cumulative IPC: 0.120997 (Simulation time: 0 hr 8 min 3 sec) 
Heartbeat CPU 0 instructions: 13000001 cycles: 29962025 heartbeat IPC: 0.120605 cumulative IPC: 0.120866 (Simulation time: 0 hr 8 min 53 sec) 
Heartbeat CPU 0 instructions: 14000001 cycles: 37209036 heartbeat IPC: 0.137988 cumulative IPC: 0.124735 (Simulation time: 0 hr 9 min 45 sec) 
Heartbeat CPU 0 instructions: 15000000 cycles: 45253930 heartbeat IPC: 0.124302 cumulative IPC: 0.124648 (Simulation time: 0 hr 10 min 34 sec) 
Heartbeat CPU 0 instructions: 16000000 cycles: 60436422 heartbeat IPC: 0.0658653 cumulative IPC: 0.108508 (Simulation time: 0 hr 11 min 42 sec) 
Heartbeat CPU 0 instructions: 17000001 cycles: 70520906 heartbeat IPC: 0.0991623 cumulative IPC: 0.107067 (Simulation time: 0 hr 12 min 44 sec) 
Heartbeat CPU 0 instructions: 18000000 cycles: 78502658 heartbeat IPC: 0.125286 cumulative IPC: 0.109049 (Simulation time: 0 hr 13 min 34 sec) 
Heartbeat CPU 0 instructions: 19000001 cycles: 87046056 heartbeat IPC: 0.11705 cumulative IPC: 0.109883 (Simulation time: 0 hr 14 min 28 sec) 
Heartbeat CPU 0 instructions: 20000000 cycles: 95442663 heartbeat IPC: 0.119096 cumulative IPC: 0.11074 (Simulation time: 0 hr 15 min 27 sec) 
Heartbeat CPU 0 instructions: 21000000 cycles: 103434887 heartbeat IPC: 0.125122 cumulative IPC: 0.111909 (Simulation time: 0 hr 16 min 27 sec) 
Heartbeat CPU 0 instructions: 22000002 cycles: 111907539 heartbeat IPC: 0.118027 cumulative IPC: 0.112395 (Simulation time: 0 hr 17 min 23 sec) 
Heartbeat CPU 0 instructions: 23000002 cycles: 121954146 heartbeat IPC: 0.0995361 cumulative IPC: 0.111289 (Simulation time: 0 hr 18 min 26 sec) 
Heartbeat CPU 0 instructions: 24000000 cycles: 136984456 heartbeat IPC: 0.0665321 cumulative IPC: 0.106187 (Simulation time: 0 hr 19 min 35 sec) 
Heartbeat CPU 0 instructions: 25000000 cycles: 144825046 heartbeat IPC: 0.127541 cumulative IPC: 0.107385 (Simulation time: 0 hr 20 min 25 sec) 
Heartbeat CPU 0 instructions: 26000000 cycles: 151325788 heartbeat IPC: 0.153829 cumulative IPC: 0.109451 (Simulation time: 0 hr 21 min 11 sec) 
Heartbeat CPU 0 instructions: 27000002 cycles: 157962525 heartbeat IPC: 0.150677 cumulative IPC: 0.111241 (Simulation time: 0 hr 22 min 5 sec) 
Heartbeat CPU 0 instructions: 28000000 cycles: 172801448 heartbeat IPC: 0.0673902 cumulative IPC: 0.10736 (Simulation time: 0 hr 23 min 13 sec) 
Heartbeat CPU 0 instructions: 29000003 cycles: 181375075 heartbeat IPC: 0.116637 cumulative IPC: 0.107811 (Simulation time: 0 hr 24 min 4 sec) 
Heartbeat CPU 0 instructions: 30000003 cycles: 187382984 heartbeat IPC: 0.166447 cumulative IPC: 0.109744 (Simulation time: 0 hr 24 min 50 sec) 
Heartbeat CPU 0 instructions: 31000003 cycles: 194893806 heartbeat IPC: 0.133141 cumulative IPC: 0.11067 (Simulation time: 0 hr 25 min 45 sec) 
Heartbeat CPU 0 instructions: 32000000 cycles: 209935264 heartbeat IPC: 0.0664827 cumulative IPC: 0.107425 (Simulation time: 0 hr 26 min 55 sec) 
Heartbeat CPU 0 instructions: 33000000 cycles: 216751720 heartbeat IPC: 0.146704 cumulative IPC: 0.10869 (Simulation time: 0 hr 27 min 44 sec) 
Heartbeat CPU 0 instructions: 34000000 cycles: 223746762 heartbeat IPC: 0.142958 cumulative IPC: 0.109787 (Simulation time: 0 hr 28 min 32 sec) 
Heartbeat CPU 0 instructions: 35000001 cycles: 231638012 heartbeat IPC: 0.126723 cumulative IPC: 0.110377 (Simulation time: 0 hr 29 min 21 sec) 
Heartbeat CPU 0 instructions: 36000000 cycles: 247492146 heartbeat IPC: 0.063075 cumulative IPC: 0.107282 (Simulation time: 0 hr 30 min 31 sec) 
Heartbeat CPU 0 instructions: 37000001 cycles: 255226122 heartbeat IPC: 0.1293 cumulative IPC: 0.107963 (Simulation time: 0 hr 31 min 22 sec) 
Heartbeat CPU 0 instructions: 38000000 cycles: 262460877 heartbeat IPC: 0.138222 cumulative IPC: 0.108814 (Simulation time: 0 hr 32 min 12 sec) 
Heartbeat CPU 0 instructions: 39000000 cycles: 268705783 heartbeat IPC: 0.160131 cumulative IPC: 0.11003 (Simulation time: 0 hr 33 min 2 sec) 
Heartbeat CPU 0 instructions: 40000000 cycles: 283007348 heartbeat IPC: 0.0699224 cumulative IPC: 0.107966 (Simulation time: 0 hr 34 min 11 sec) 
Heartbeat CPU 0 instructions: 41000003 cycles: 291616290 heartbeat IPC: 0.116159 cumulative IPC: 0.108212 (Simulation time: 0 hr 35 min 3 sec) 
Heartbeat CPU 0 instructions: 42000000 cycles: 297856356 heartbeat IPC: 0.160254 cumulative IPC: 0.109321 (Simulation time: 0 hr 35 min 55 sec) 
Heartbeat CPU 0 instructions: 43000001 cycles: 308085550 heartbeat IPC: 0.0977595 cumulative IPC: 0.108931 (Simulation time: 0 hr 36 min 50 sec) 
Heartbeat CPU 0 instructions: 44000000 cycles: 320331531 heartbeat IPC: 0.0816594 cumulative IPC: 0.107871 (Simulation time: 0 hr 37 min 53 sec) 
Heartbeat CPU 0 instructions: 45000000 cycles: 325859277 heartbeat IPC: 0.180906 cumulative IPC: 0.10913 (Simulation time: 0 hr 38 min 39 sec) 
Heartbeat CPU 0 instructions: 46000002 cycles: 335566501 heartbeat IPC: 0.103016 cumulative IPC: 0.10895 (Simulation time: 0 hr 39 min 33 sec) 
Heartbeat CPU 0 instructions: 47000002 cycles: 348140228 heartbeat IPC: 0.0795309 cumulative IPC: 0.107872 (Simulation time: 0 hr 40 min 35 sec) 
Heartbeat CPU 0 instructions: 48000000 cycles: 353905050 heartbeat IPC: 0.173466 cumulative IPC: 0.108956 (Simulation time: 0 hr 41 min 23 sec) 
Heartbeat CPU 0 instructions: 49000003 cycles: 363553864 heartbeat IPC: 0.10364 cumulative IPC: 0.108813 (Simulation time: 0 hr 42 min 14 sec) 
Heartbeat CPU 0 instructions: 50000000 cycles: 376219831 heartbeat IPC: 0.0789515 cumulative IPC: 0.107794 (Simulation time: 0 hr 43 min 21 sec) 
Heartbeat CPU 0 instructions: 51000000 cycles: 381785196 heartbeat IPC: 0.179683 cumulative IPC: 0.108856 (Simulation time: 0 hr 44 min 6 sec) 
Heartbeat CPU 0 instructions: 52000000 cycles: 390552036 heartbeat IPC: 0.114066 cumulative IPC: 0.108975 (Simulation time: 0 hr 44 min 58 sec) 
Heartbeat CPU 0 instructions: 53000000 cycles: 404198140 heartbeat IPC: 0.073281 cumulative IPC: 0.107754 (Simulation time: 0 hr 46 min 10 sec) 
Heartbeat CPU 0 instructions: 54000000 cycles: 409986892 heartbeat IPC: 0.172749 cumulative IPC: 0.108683 (Simulation time: 0 hr 46 min 58 sec) 
Heartbeat CPU 0 instructions: 55000000 cycles: 417239249 heartbeat IPC: 0.137886 cumulative IPC: 0.109197 (Simulation time: 0 hr 47 min 45 sec) 
Heartbeat CPU 0 instructions: 56000000 cycles: 432205684 heartbeat IPC: 0.0668162 cumulative IPC: 0.107712 (Simulation time: 0 hr 48 min 59 sec) 
Heartbeat CPU 0 instructions: 57000001 cycles: 437996238 heartbeat IPC: 0.172695 cumulative IPC: 0.108581 (Simulation time: 0 hr 49 min 42 sec) 
Heartbeat CPU 0 instructions: 58000001 cycles: 443481137 heartbeat IPC: 0.182319 cumulative IPC: 0.109504 (Simulation time: 0 hr 50 min 27 sec) 
Heartbeat CPU 0 instructions: 59000000 cycles: 459363783 heartbeat IPC: 0.0629617 cumulative IPC: 0.107877 (Simulation time: 0 hr 51 min 34 sec) 
Heartbeat CPU 0 instructions: 60000000 cycles: 465782108 heartbeat IPC: 0.155804 cumulative IPC: 0.108544 (Simulation time: 0 hr 52 min 20 sec) 
Heartbeat CPU 0 instructions: 61000000 cycles: 471989823 heartbeat IPC: 0.16109 cumulative IPC: 0.109243 (Simulation time: 0 hr 53 min 7 sec) 
Heartbeat CPU 0 instructions: 62000001 cycles: 484158609 heartbeat IPC: 0.0821775 cumulative IPC: 0.108556 (Simulation time: 0 hr 54 min 6 sec) 
Heartbeat CPU 0 instructions: 63000001 cycles: 494297812 heartbeat IPC: 0.0986271 cumulative IPC: 0.10835 (Simulation time: 0 hr 55 min 6 sec) 
Heartbeat CPU 0 instructions: 64000000 cycles: 499828471 heartbeat IPC: 0.18081 cumulative IPC: 0.10916 (Simulation time: 0 hr 55 min 46 sec) 
Heartbeat CPU 0 instructions: 65000000 cycles: 506540743 heartbeat IPC: 0.148981 cumulative IPC: 0.109693 (Simulation time: 0 hr 56 min 27 sec) 
Heartbeat CPU 0 instructions: 66000000 cycles: 521708657 heartbeat IPC: 0.0659286 cumulative IPC: 0.108408 (Simulation time: 0 hr 57 min 17 sec) 
Heartbeat CPU 0 instructions: 67000002 cycles: 527433487 heartbeat IPC: 0.174678 cumulative IPC: 0.109134 (Simulation time: 0 hr 57 min 50 sec) 
Heartbeat CPU 0 instructions: 68000000 cycles: 532729983 heartbeat IPC: 0.188804 cumulative IPC: 0.109934 (Simulation time: 0 hr 58 min 19 sec) 
Heartbeat CPU 0 instructions: 69000000 cycles: 545727136 heartbeat IPC: 0.0769399 cumulative IPC: 0.109141 (Simulation time: 0 hr 59 min 0 sec) 
Heartbeat CPU 0 instructions: 70000000 cycles: 554813492 heartbeat IPC: 0.110055 cumulative IPC: 0.109156 (Simulation time: 0 hr 59 min 36 sec) 
Heartbeat CPU 0 instructions: 71000002 cycles: 560173035 heartbeat IPC: 0.186583 cumulative IPC: 0.109904 (Simulation time: 1 hr 0 min 4 sec) 
Heartbeat CPU 0 instructions: 72000000 cycles: 567443059 heartbeat IPC: 0.137551 cumulative IPC: 0.110261 (Simulation time: 1 hr 0 min 35 sec) 
Heartbeat CPU 0 instructions: 73000000 cycles: 581971296 heartbeat IPC: 0.0688315 cumulative IPC: 0.109218 (Simulation time: 1 hr 1 min 18 sec) 
Heartbeat CPU 0 instructions: 74000000 cycles: 587799705 heartbeat IPC: 0.171573 cumulative IPC: 0.109841 (Simulation time: 1 hr 1 min 48 sec) 
Heartbeat CPU 0 instructions: 75000002 cycles: 593461666 heartbeat IPC: 0.176618 cumulative IPC: 0.110484 (Simulation time: 1 hr 2 min 14 sec) 
Heartbeat CPU 0 instructions: 76000000 cycles: 605474827 heartbeat IPC: 0.0832419 cumulative IPC: 0.109939 (Simulation time: 1 hr 2 min 48 sec) 
Heartbeat CPU 0 instructions: 77000000 cycles: 616109072 heartbeat IPC: 0.0940358 cumulative IPC: 0.109662 (Simulation time: 1 hr 3 min 19 sec) 
Heartbeat CPU 0 instructions: 78000000 cycles: 622317892 heartbeat IPC: 0.161061 cumulative IPC: 0.110179 (Simulation time: 1 hr 3 min 43 sec) 
Heartbeat CPU 0 instructions: 79000003 cycles: 628917044 heartbeat IPC: 0.151535 cumulative IPC: 0.110617 (Simulation time: 1 hr 4 min 6 sec) 
Heartbeat CPU 0 instructions: 80000000 cycles: 644420519 heartbeat IPC: 0.0645015 cumulative IPC: 0.109498 (Simulation time: 1 hr 4 min 39 sec) 
Heartbeat CPU 0 instructions: 81000001 cycles: 651165259 heartbeat IPC: 0.148264 cumulative IPC: 0.109903 (Simulation time: 1 hr 4 min 59 sec) 
Heartbeat CPU 0 instructions: 82000001 cycles: 657285602 heartbeat IPC: 0.16339 cumulative IPC: 0.110405 (Simulation time: 1 hr 5 min 20 sec) 
Heartbeat CPU 0 instructions: 83000001 cycles: 669659049 heartbeat IPC: 0.0808182 cumulative IPC: 0.109854 (Simulation time: 1 hr 5 min 46 sec) 
Heartbeat CPU 0 instructions: 84000000 cycles: 680535620 heartbeat IPC: 0.0919406 cumulative IPC: 0.109566 (Simulation time: 1 hr 6 min 11 sec) 
Heartbeat CPU 0 instructions: 85000000 cycles: 686237480 heartbeat IPC: 0.175381 cumulative IPC: 0.110117 (Simulation time: 1 hr 6 min 29 sec) 
Heartbeat CPU 0 instructions: 86000002 cycles: 693393202 heartbeat IPC: 0.139749 cumulative IPC: 0.110425 (Simulation time: 1 hr 6 min 49 sec) 
Heartbeat CPU 0 instructions: 87000000 cycles: 708607351 heartbeat IPC: 0.0657282 cumulative IPC: 0.109458 (Simulation time: 1 hr 7 min 13 sec) 
Heartbeat CPU 0 instructions: 88000000 cycles: 714979383 heartbeat IPC: 0.156936 cumulative IPC: 0.109884 (Simulation time: 1 hr 7 min 25 sec) 
Heartbeat CPU 0 instructions: 89000000 cycles: 721453146 heartbeat IPC: 0.15447 cumulative IPC: 0.110287 (Simulation time: 1 hr 7 min 37 sec) 
Heartbeat CPU 0 instructions: 90000002 cycles: 735175901 heartbeat IPC: 0.0728718 cumulative IPC: 0.109584 (Simulation time: 1 hr 7 min 51 sec) 
Heartbeat CPU 0 instructions: 91000000 cycles: 744240704 heartbeat IPC: 0.110317 cumulative IPC: 0.109593 (Simulation time: 1 hr 8 min 2 sec) 
Heartbeat CPU 0 instructions: 92000000 cycles: 750164888 heartbeat IPC: 0.1688 cumulative IPC: 0.110064 (Simulation time: 1 hr 8 min 12 sec) 
Heartbeat CPU 0 instructions: 93000003 cycles: 760868815 heartbeat IPC: 0.0934239 cumulative IPC: 0.109828 (Simulation time: 1 hr 8 min 24 sec) 
Heartbeat CPU 0 instructions: 94000000 cycles: 772945148 heartbeat IPC: 0.0828063 cumulative IPC: 0.109403 (Simulation time: 1 hr 8 min 35 sec) 
Heartbeat CPU 0 instructions: 95000000 cycles: 779074400 heartbeat IPC: 0.163152 cumulative IPC: 0.109829 (Simulation time: 1 hr 8 min 42 sec) 
Heartbeat CPU 0 instructions: 96000000 cycles: 786007205 heartbeat IPC: 0.144242 cumulative IPC: 0.110134 (Simulation time: 1 hr 8 min 49 sec) 
Heartbeat CPU 0 instructions: 97000003 cycles: 801844258 heartbeat IPC: 0.0631433 cumulative IPC: 0.1092 (Simulation time: 1 hr 9 min 0 sec) 
Heartbeat CPU 0 instructions: 98000002 cycles: 808500004 heartbeat IPC: 0.150246 cumulative IPC: 0.10954 (Simulation time: 1 hr 9 min 6 sec) 
Heartbeat CPU 0 instructions: 99000000 cycles: 814730359 heartbeat IPC: 0.160504 cumulative IPC: 0.109932 (Simulation time: 1 hr 9 min 12 sec) 
Heartbeat CPU 0 instructions: 100000000 cycles: 828196239 heartbeat IPC: 0.0742618 cumulative IPC: 0.109349 (Simulation time: 1 hr 9 min 20 sec) 
Heartbeat CPU 0 instructions: 101000000 cycles: 838206376 heartbeat IPC: 0.0998987 cumulative IPC: 0.109235 (Simulation time: 1 hr 9 min 28 sec) 
Heartbeat CPU 0 instructions: 102000000 cycles: 844800490 heartbeat IPC: 0.15165 cumulative IPC: 0.109568 (Simulation time: 1 hr 9 min 33 sec) 
Heartbeat CPU 0 instructions: 103000001 cycles: 850956785 heartbeat IPC: 0.162436 cumulative IPC: 0.109953 (Simulation time: 1 hr 9 min 40 sec) 
Heartbeat CPU 0 instructions: 104000000 cycles: 866930735 heartbeat IPC: 0.0626019 cumulative IPC: 0.109075 (Simulation time: 1 hr 9 min 49 sec) 
Heartbeat CPU 0 instructions: 105000000 cycles: 874443254 heartbeat IPC: 0.133111 cumulative IPC: 0.109283 (Simulation time: 1 hr 9 min 55 sec) 
Heartbeat CPU 0 instructions: 106000000 cycles: 880941573 heartbeat IPC: 0.153886 cumulative IPC: 0.109614 (Simulation time: 1 hr 10 min 1 sec) 
Heartbeat CPU 0 instructions: 107000000 cycles: 890404242 heartbeat IPC: 0.105678 cumulative IPC: 0.109572 (Simulation time: 1 hr 10 min 7 sec) 
Heartbeat CPU 0 instructions: 108000000 cycles: 904251903 heartbeat IPC: 0.0722144 cumulative IPC: 0.108997 (Simulation time: 1 hr 10 min 15 sec) 
Heartbeat CPU 0 instructions: 109000000 cycles: 910787677 heartbeat IPC: 0.153004 cumulative IPC: 0.109314 (Simulation time: 1 hr 10 min 21 sec) 
Heartbeat CPU 0 instructions: 110000000 cycles: 917787189 heartbeat IPC: 0.142867 cumulative IPC: 0.109572 (Simulation time: 1 hr 10 min 26 sec) 
Finished CPU 0 instructions: 100000002 cycles: 912646089 cummulative IPC: 0.109572 (Simulation time: 1 hr 10 min 26 sec) 

ChampSim completed all CPUs

Region of Interest Statistics

CPU 0 cummulative IPC: 0.109572 instructions: 100000002 cycles: 912646089
LLC TOTAL     ACCESS:   21078574  HIT:    9967109  MISS:   11111465
LLC LOAD      ACCESS:    9505970  HIT:    5910835  MISS:    3595135
LLC RFO       ACCESS:     164326  HIT:      55084  MISS:     109242
LLC PREFETCH  ACCESS:    9645398  HIT:    2456324  MISS:    7189074
LLC WRITEBACK ACCESS:    1762880  HIT:    1544866  MISS:     218014
Insertion Distribution: 
	LOAD 1064326 621759 2159398 
	RFO 59965 35273 18255 
	PREF 0 3667308 4657172 
	WRITEBACK 0 0 227937 
Total Prefetch Downgrades: 1684870
