
*** ChampSim Multicore Out-of-Order Simulator ***

Warmup Instructions: 10000000
Simulation Instructions: 100000000
Configuration: 2
Number of CPUs: 1
LLC sets: 2048
LLC ways: 16
Off-chip DRAM Channels: 1 Width: 64-bit Data Rate: 1600 MT/s

CPU 0 runs /datasets/cs240c-wi22-a00-public/data/Assignment2-gz/libquantum_1735B.trace.gz
CPU 0 L1D next line prefetcher
CPU 0 L2C IP-based stride prefetcher
Initialize SRRIP state
Heartbeat CPU 0 instructions: 1000001 cycles: 333341 heartbeat IPC: 2.99993 cumulative IPC: 2.99993 (Simulation time: 0 hr 0 min 22 sec) 
Heartbeat CPU 0 instructions: 2000000 cycles: 666674 heartbeat IPC: 3 cumulative IPC: 2.99997 (Simulation time: 0 hr 0 min 42 sec) 
Heartbeat CPU 0 instructions: 3000000 cycles: 989045 heartbeat IPC: 3.10202 cumulative IPC: 3.03323 (Simulation time: 0 hr 1 min 2 sec) 
Heartbeat CPU 0 instructions: 4000000 cycles: 1290770 heartbeat IPC: 3.31428 cumulative IPC: 3.09893 (Simulation time: 0 hr 1 min 21 sec) 
Heartbeat CPU 0 instructions: 5000001 cycles: 1592495 heartbeat IPC: 3.31428 cumulative IPC: 3.13973 (Simulation time: 0 hr 1 min 41 sec) 
Heartbeat CPU 0 instructions: 6000001 cycles: 1894219 heartbeat IPC: 3.31429 cumulative IPC: 3.16753 (Simulation time: 0 hr 2 min 1 sec) 
Heartbeat CPU 0 instructions: 7000002 cycles: 2195942 heartbeat IPC: 3.3143 cumulative IPC: 3.1877 (Simulation time: 0 hr 2 min 20 sec) 
Heartbeat CPU 0 instructions: 8000000 cycles: 2501897 heartbeat IPC: 3.26845 cumulative IPC: 3.19757 (Simulation time: 0 hr 2 min 41 sec) 
Heartbeat CPU 0 instructions: 9000000 cycles: 2835230 heartbeat IPC: 3 cumulative IPC: 3.17435 (Simulation time: 0 hr 3 min 0 sec) 
Heartbeat CPU 0 instructions: 10000002 cycles: 3168564 heartbeat IPC: 3 cumulative IPC: 3.156 (Simulation time: 0 hr 3 min 22 sec) 

Warmup complete CPU 0 instructions: 10000002 cycles: 3168564 (Simulation time: 0 hr 3 min 22 sec) 

Heartbeat CPU 0 instructions: 11000001 cycles: 4593870 heartbeat IPC: 0.701603 cumulative IPC: 0.701603 (Simulation time: 0 hr 4 min 3 sec) 
Heartbeat CPU 0 instructions: 12000000 cycles: 6018722 heartbeat IPC: 0.701827 cumulative IPC: 0.701715 (Simulation time: 0 hr 4 min 37 sec) 
Heartbeat CPU 0 instructions: 13000001 cycles: 7853734 heartbeat IPC: 0.544956 cumulative IPC: 0.640318 (Simulation time: 0 hr 5 min 8 sec) 
Heartbeat CPU 0 instructions: 14000000 cycles: 10443736 heartbeat IPC: 0.3861 cumulative IPC: 0.549815 (Simulation time: 0 hr 5 min 38 sec) 
Heartbeat CPU 0 instructions: 15000000 cycles: 13028019 heartbeat IPC: 0.386955 cumulative IPC: 0.507127 (Simulation time: 0 hr 6 min 8 sec) 
Heartbeat CPU 0 instructions: 16000000 cycles: 15603175 heartbeat IPC: 0.388326 cumulative IPC: 0.482524 (Simulation time: 0 hr 6 min 36 sec) 
Heartbeat CPU 0 instructions: 17000002 cycles: 18193242 heartbeat IPC: 0.386091 cumulative IPC: 0.4659 (Simulation time: 0 hr 7 min 3 sec) 
Heartbeat CPU 0 instructions: 18000001 cycles: 20449428 heartbeat IPC: 0.443225 cumulative IPC: 0.46294 (Simulation time: 0 hr 7 min 32 sec) 
Heartbeat CPU 0 instructions: 19000000 cycles: 21951485 heartbeat IPC: 0.665753 cumulative IPC: 0.479159 (Simulation time: 0 hr 8 min 3 sec) 
Heartbeat CPU 0 instructions: 20000000 cycles: 23246241 heartbeat IPC: 0.772346 cumulative IPC: 0.498066 (Simulation time: 0 hr 8 min 34 sec) 
Heartbeat CPU 0 instructions: 21000001 cycles: 24483998 heartbeat IPC: 0.807914 cumulative IPC: 0.516058 (Simulation time: 0 hr 9 min 8 sec) 
Heartbeat CPU 0 instructions: 22000000 cycles: 25983504 heartbeat IPC: 0.666886 cumulative IPC: 0.525971 (Simulation time: 0 hr 9 min 43 sec) 
Heartbeat CPU 0 instructions: 23000000 cycles: 28229233 heartbeat IPC: 0.44529 cumulative IPC: 0.518741 (Simulation time: 0 hr 10 min 12 sec) 
Heartbeat CPU 0 instructions: 24000000 cycles: 31002507 heartbeat IPC: 0.360585 cumulative IPC: 0.502983 (Simulation time: 0 hr 10 min 40 sec) 
Heartbeat CPU 0 instructions: 25000000 cycles: 33777394 heartbeat IPC: 0.360375 cumulative IPC: 0.490055 (Simulation time: 0 hr 11 min 8 sec) 
Heartbeat CPU 0 instructions: 26000000 cycles: 36545792 heartbeat IPC: 0.36122 cumulative IPC: 0.479369 (Simulation time: 0 hr 11 min 36 sec) 
Heartbeat CPU 0 instructions: 27000001 cycles: 39335586 heartbeat IPC: 0.35845 cumulative IPC: 0.470041 (Simulation time: 0 hr 12 min 3 sec) 
Heartbeat CPU 0 instructions: 28000000 cycles: 41375523 heartbeat IPC: 0.490211 cumulative IPC: 0.471118 (Simulation time: 0 hr 12 min 39 sec) 
Heartbeat CPU 0 instructions: 29000000 cycles: 42797465 heartbeat IPC: 0.703264 cumulative IPC: 0.479448 (Simulation time: 0 hr 13 min 13 sec) 
Heartbeat CPU 0 instructions: 30000001 cycles: 44219286 heartbeat IPC: 0.703324 cumulative IPC: 0.487202 (Simulation time: 0 hr 13 min 48 sec) 
Heartbeat CPU 0 instructions: 31000000 cycles: 45641181 heartbeat IPC: 0.703286 cumulative IPC: 0.494436 (Simulation time: 0 hr 14 min 26 sec) 
Heartbeat CPU 0 instructions: 32000000 cycles: 47062997 heartbeat IPC: 0.703326 cumulative IPC: 0.501202 (Simulation time: 0 hr 15 min 2 sec) 
Heartbeat CPU 0 instructions: 33000002 cycles: 49180360 heartbeat IPC: 0.472287 cumulative IPC: 0.499872 (Simulation time: 0 hr 15 min 38 sec) 
Heartbeat CPU 0 instructions: 34000000 cycles: 51493786 heartbeat IPC: 0.432258 cumulative IPC: 0.496635 (Simulation time: 0 hr 16 min 9 sec) 
Heartbeat CPU 0 instructions: 35000000 cycles: 53785612 heartbeat IPC: 0.436333 cumulative IPC: 0.493905 (Simulation time: 0 hr 16 min 48 sec) 
Heartbeat CPU 0 instructions: 36000000 cycles: 56088087 heartbeat IPC: 0.434315 cumulative IPC: 0.491312 (Simulation time: 0 hr 17 min 18 sec) 
Heartbeat CPU 0 instructions: 37000002 cycles: 58400550 heartbeat IPC: 0.43244 cumulative IPC: 0.488847 (Simulation time: 0 hr 17 min 48 sec) 
Heartbeat CPU 0 instructions: 38000003 cycles: 60188759 heartbeat IPC: 0.559219 cumulative IPC: 0.491054 (Simulation time: 0 hr 18 min 19 sec) 
Heartbeat CPU 0 instructions: 39000000 cycles: 61600165 heartbeat IPC: 0.708511 cumulative IPC: 0.496307 (Simulation time: 0 hr 18 min 53 sec) 
Heartbeat CPU 0 instructions: 40000000 cycles: 62955754 heartbeat IPC: 0.737687 cumulative IPC: 0.50178 (Simulation time: 0 hr 19 min 27 sec) 
Heartbeat CPU 0 instructions: 41000000 cycles: 64327121 heartbeat IPC: 0.729199 cumulative IPC: 0.506879 (Simulation time: 0 hr 20 min 1 sec) 
Heartbeat CPU 0 instructions: 42000001 cycles: 65738506 heartbeat IPC: 0.708525 cumulative IPC: 0.511428 (Simulation time: 0 hr 20 min 41 sec) 
Heartbeat CPU 0 instructions: 43000000 cycles: 67891959 heartbeat IPC: 0.46437 cumulative IPC: 0.509862 (Simulation time: 0 hr 21 min 10 sec) 
Heartbeat CPU 0 instructions: 44000000 cycles: 70187586 heartbeat IPC: 0.435611 cumulative IPC: 0.507319 (Simulation time: 0 hr 21 min 47 sec) 
Heartbeat CPU 0 instructions: 45000001 cycles: 72477225 heartbeat IPC: 0.436751 cumulative IPC: 0.504987 (Simulation time: 0 hr 22 min 19 sec) 
Heartbeat CPU 0 instructions: 46000002 cycles: 74774694 heartbeat IPC: 0.435262 cumulative IPC: 0.50275 (Simulation time: 0 hr 22 min 49 sec) 
Heartbeat CPU 0 instructions: 47000000 cycles: 77089029 heartbeat IPC: 0.432089 cumulative IPC: 0.500538 (Simulation time: 0 hr 23 min 19 sec) 
Heartbeat CPU 0 instructions: 48000000 cycles: 78890365 heartbeat IPC: 0.555144 cumulative IPC: 0.501837 (Simulation time: 0 hr 23 min 53 sec) 
Heartbeat CPU 0 instructions: 49000002 cycles: 80409957 heartbeat IPC: 0.658073 cumulative IPC: 0.504911 (Simulation time: 0 hr 24 min 24 sec) 
Heartbeat CPU 0 instructions: 50000001 cycles: 81929425 heartbeat IPC: 0.658124 cumulative IPC: 0.507866 (Simulation time: 0 hr 25 min 1 sec) 
Heartbeat CPU 0 instructions: 51000000 cycles: 83448996 heartbeat IPC: 0.65808 cumulative IPC: 0.51071 (Simulation time: 0 hr 25 min 37 sec) 
Heartbeat CPU 0 instructions: 52000000 cycles: 84968670 heartbeat IPC: 0.658036 cumulative IPC: 0.513447 (Simulation time: 0 hr 26 min 12 sec) 
Heartbeat CPU 0 instructions: 53000002 cycles: 86488374 heartbeat IPC: 0.658024 cumulative IPC: 0.516084 (Simulation time: 0 hr 26 min 48 sec) 
Heartbeat CPU 0 instructions: 54000001 cycles: 88007514 heartbeat IPC: 0.658267 cumulative IPC: 0.51863 (Simulation time: 0 hr 27 min 19 sec) 
Heartbeat CPU 0 instructions: 55000000 cycles: 89527166 heartbeat IPC: 0.658045 cumulative IPC: 0.521083 (Simulation time: 0 hr 27 min 57 sec) 
Heartbeat CPU 0 instructions: 56000000 cycles: 91046635 heartbeat IPC: 0.658125 cumulative IPC: 0.523453 (Simulation time: 0 hr 28 min 30 sec) 
Heartbeat CPU 0 instructions: 57000000 cycles: 92566228 heartbeat IPC: 0.658071 cumulative IPC: 0.525741 (Simulation time: 0 hr 29 min 1 sec) 
Heartbeat CPU 0 instructions: 58000002 cycles: 94085699 heartbeat IPC: 0.658125 cumulative IPC: 0.527953 (Simulation time: 0 hr 29 min 35 sec) 
Heartbeat CPU 0 instructions: 59000001 cycles: 95595567 heartbeat IPC: 0.662309 cumulative IPC: 0.530148 (Simulation time: 0 hr 30 min 9 sec) 
Heartbeat CPU 0 instructions: 60000000 cycles: 96867992 heartbeat IPC: 0.7859 cumulative IPC: 0.533621 (Simulation time: 0 hr 30 min 42 sec) 
Heartbeat CPU 0 instructions: 61000003 cycles: 98313764 heartbeat IPC: 0.691674 cumulative IPC: 0.536023 (Simulation time: 0 hr 31 min 19 sec) 
Heartbeat CPU 0 instructions: 62000002 cycles: 99831686 heartbeat IPC: 0.658795 cumulative IPC: 0.537951 (Simulation time: 0 hr 31 min 55 sec) 
Heartbeat CPU 0 instructions: 63000001 cycles: 101351230 heartbeat IPC: 0.658091 cumulative IPC: 0.53981 (Simulation time: 0 hr 32 min 30 sec) 
Heartbeat CPU 0 instructions: 64000000 cycles: 102870694 heartbeat IPC: 0.658126 cumulative IPC: 0.541613 (Simulation time: 0 hr 33 min 7 sec) 
Heartbeat CPU 0 instructions: 65000001 cycles: 104390182 heartbeat IPC: 0.658117 cumulative IPC: 0.543362 (Simulation time: 0 hr 33 min 38 sec) 
Heartbeat CPU 0 instructions: 66000000 cycles: 105909745 heartbeat IPC: 0.658083 cumulative IPC: 0.545059 (Simulation time: 0 hr 34 min 15 sec) 
Heartbeat CPU 0 instructions: 67000001 cycles: 107406562 heartbeat IPC: 0.668085 cumulative IPC: 0.546826 (Simulation time: 0 hr 34 min 52 sec) 
Heartbeat CPU 0 instructions: 68000000 cycles: 108898685 heartbeat IPC: 0.670185 cumulative IPC: 0.548566 (Simulation time: 0 hr 35 min 34 sec) 
Heartbeat CPU 0 instructions: 69000002 cycles: 110390832 heartbeat IPC: 0.670177 cumulative IPC: 0.550259 (Simulation time: 0 hr 36 min 14 sec) 
Heartbeat CPU 0 instructions: 70000001 cycles: 111883053 heartbeat IPC: 0.670141 cumulative IPC: 0.551904 (Simulation time: 0 hr 36 min 52 sec) 
Heartbeat CPU 0 instructions: 71000003 cycles: 113433788 heartbeat IPC: 0.644857 cumulative IPC: 0.553212 (Simulation time: 0 hr 37 min 24 sec) 
Heartbeat CPU 0 instructions: 72000000 cycles: 115712110 heartbeat IPC: 0.438918 cumulative IPC: 0.550898 (Simulation time: 0 hr 37 min 51 sec) 
Heartbeat CPU 0 instructions: 73000000 cycles: 118012184 heartbeat IPC: 0.434769 cumulative IPC: 0.548572 (Simulation time: 0 hr 38 min 21 sec) 
Heartbeat CPU 0 instructions: 74000000 cycles: 120298721 heartbeat IPC: 0.437343 cumulative IPC: 0.546401 (Simulation time: 0 hr 38 min 51 sec) 
Heartbeat CPU 0 instructions: 75000000 cycles: 122594001 heartbeat IPC: 0.435677 cumulative IPC: 0.544273 (Simulation time: 0 hr 39 min 21 sec) 
Heartbeat CPU 0 instructions: 76000000 cycles: 124904088 heartbeat IPC: 0.432884 cumulative IPC: 0.542159 (Simulation time: 0 hr 39 min 52 sec) 
Heartbeat CPU 0 instructions: 77000001 cycles: 126536801 heartbeat IPC: 0.612478 cumulative IPC: 0.54309 (Simulation time: 0 hr 40 min 27 sec) 
Heartbeat CPU 0 instructions: 78000000 cycles: 128041390 heartbeat IPC: 0.664633 cumulative IPC: 0.544554 (Simulation time: 0 hr 40 min 59 sec) 
Heartbeat CPU 0 instructions: 79000001 cycles: 129458007 heartbeat IPC: 0.705908 cumulative IPC: 0.546364 (Simulation time: 0 hr 41 min 33 sec) 
Heartbeat CPU 0 instructions: 80000000 cycles: 130829055 heartbeat IPC: 0.729368 cumulative IPC: 0.548329 (Simulation time: 0 hr 42 min 4 sec) 
Heartbeat CPU 0 instructions: 81000002 cycles: 132377911 heartbeat IPC: 0.645639 cumulative IPC: 0.549496 (Simulation time: 0 hr 42 min 37 sec) 
Heartbeat CPU 0 instructions: 82000003 cycles: 134626811 heartbeat IPC: 0.444662 cumulative IPC: 0.547702 (Simulation time: 0 hr 43 min 6 sec) 
Heartbeat CPU 0 instructions: 83000000 cycles: 136915949 heartbeat IPC: 0.436844 cumulative IPC: 0.545805 (Simulation time: 0 hr 43 min 33 sec) 
Heartbeat CPU 0 instructions: 84000000 cycles: 139199384 heartbeat IPC: 0.437937 cumulative IPC: 0.543994 (Simulation time: 0 hr 44 min 5 sec) 
Heartbeat CPU 0 instructions: 85000002 cycles: 141501255 heartbeat IPC: 0.43443 cumulative IPC: 0.542171 (Simulation time: 0 hr 44 min 33 sec) 
Heartbeat CPU 0 instructions: 86000002 cycles: 143802427 heartbeat IPC: 0.434561 cumulative IPC: 0.54041 (Simulation time: 0 hr 45 min 0 sec) 
Heartbeat CPU 0 instructions: 87000002 cycles: 145454445 heartbeat IPC: 0.60532 cumulative IPC: 0.541164 (Simulation time: 0 hr 45 min 39 sec) 
Heartbeat CPU 0 instructions: 88000000 cycles: 147027539 heartbeat IPC: 0.635689 cumulative IPC: 0.542198 (Simulation time: 0 hr 46 min 27 sec) 
Heartbeat CPU 0 instructions: 89000000 cycles: 148600707 heartbeat IPC: 0.63566 cumulative IPC: 0.543209 (Simulation time: 0 hr 47 min 10 sec) 
Heartbeat CPU 0 instructions: 90000000 cycles: 150537369 heartbeat IPC: 0.516352 cumulative IPC: 0.542856 (Simulation time: 0 hr 47 min 47 sec) 
Heartbeat CPU 0 instructions: 91000001 cycles: 153476064 heartbeat IPC: 0.340287 cumulative IPC: 0.538895 (Simulation time: 0 hr 48 min 19 sec) 
Heartbeat CPU 0 instructions: 92000000 cycles: 156391327 heartbeat IPC: 0.343022 cumulative IPC: 0.535169 (Simulation time: 0 hr 48 min 50 sec) 
Heartbeat CPU 0 instructions: 93000001 cycles: 159326804 heartbeat IPC: 0.34066 cumulative IPC: 0.531512 (Simulation time: 0 hr 49 min 24 sec) 
Heartbeat CPU 0 instructions: 94000001 cycles: 162042798 heartbeat IPC: 0.368189 cumulative IPC: 0.52872 (Simulation time: 0 hr 49 min 57 sec) 
Heartbeat CPU 0 instructions: 95000000 cycles: 163619484 heartbeat IPC: 0.634241 cumulative IPC: 0.529757 (Simulation time: 0 hr 50 min 34 sec) 
Heartbeat CPU 0 instructions: 96000000 cycles: 165177552 heartbeat IPC: 0.64182 cumulative IPC: 0.530835 (Simulation time: 0 hr 51 min 11 sec) 
Heartbeat CPU 0 instructions: 97000002 cycles: 166686339 heartbeat IPC: 0.662785 cumulative IPC: 0.532052 (Simulation time: 0 hr 51 min 45 sec) 
Heartbeat CPU 0 instructions: 98000001 cycles: 168787738 heartbeat IPC: 0.475873 cumulative IPC: 0.531339 (Simulation time: 0 hr 52 min 14 sec) 
Heartbeat CPU 0 instructions: 99000003 cycles: 171684621 heartbeat IPC: 0.345199 cumulative IPC: 0.52814 (Simulation time: 0 hr 52 min 45 sec) 
Heartbeat CPU 0 instructions: 100000000 cycles: 174570132 heartbeat IPC: 0.346558 cumulative IPC: 0.525083 (Simulation time: 0 hr 53 min 11 sec) 
Heartbeat CPU 0 instructions: 101000000 cycles: 177472788 heartbeat IPC: 0.344512 cumulative IPC: 0.522076 (Simulation time: 0 hr 53 min 38 sec) 
Heartbeat CPU 0 instructions: 102000000 cycles: 179760814 heartbeat IPC: 0.437058 cumulative IPC: 0.520974 (Simulation time: 0 hr 54 min 7 sec) 
Heartbeat CPU 0 instructions: 103000002 cycles: 181234449 heartbeat IPC: 0.678595 cumulative IPC: 0.522279 (Simulation time: 0 hr 54 min 37 sec) 
Heartbeat CPU 0 instructions: 104000000 cycles: 182705939 heartbeat IPC: 0.679582 cumulative IPC: 0.523568 (Simulation time: 0 hr 55 min 8 sec) 
Heartbeat CPU 0 instructions: 105000000 cycles: 184176820 heartbeat IPC: 0.679865 cumulative IPC: 0.524838 (Simulation time: 0 hr 55 min 33 sec) 
Heartbeat CPU 0 instructions: 106000003 cycles: 185647779 heartbeat IPC: 0.679831 cumulative IPC: 0.526087 (Simulation time: 0 hr 56 min 0 sec) 
Heartbeat CPU 0 instructions: 107000000 cycles: 187834421 heartbeat IPC: 0.457321 cumulative IPC: 0.525273 (Simulation time: 0 hr 56 min 23 sec) 
Heartbeat CPU 0 instructions: 108000000 cycles: 190411965 heartbeat IPC: 0.387966 cumulative IPC: 0.523383 (Simulation time: 0 hr 56 min 44 sec) 
Heartbeat CPU 0 instructions: 109000002 cycles: 192995207 heartbeat IPC: 0.387111 cumulative IPC: 0.521528 (Simulation time: 0 hr 57 min 4 sec) 
Heartbeat CPU 0 instructions: 110000002 cycles: 195577683 heartbeat IPC: 0.387225 cumulative IPC: 0.519726 (Simulation time: 0 hr 57 min 23 sec) 
Finished CPU 0 instructions: 100000000 cycles: 192409119 cummulative IPC: 0.519726 (Simulation time: 0 hr 57 min 23 sec) 

ChampSim completed all CPUs

Region of Interest Statistics

CPU 0 cummulative IPC: 0.519726 instructions: 100000000 cycles: 192409119
LLC TOTAL     ACCESS:    3801551  HIT:     122495  MISS:    3679056
LLC LOAD      ACCESS:     655040  HIT:      37480  MISS:     617560
LLC RFO       ACCESS:         20  HIT:         20  MISS:          0
LLC PREFETCH  ACCESS:    2134386  HIT:      68216  MISS:    2066170
LLC WRITEBACK ACCESS:    1012105  HIT:      16779  MISS:     995326
Insertion Distribution: 
	LOAD 9749 22510 589446 
	RFO 0 4 0 
	PREF 0 85671 2240424 
	WRITEBACK 0 0 1117414 
Total Prefetch Downgrades: 28361
