
*** ChampSim Multicore Out-of-Order Simulator ***

Warmup Instructions: 10000000
Simulation Instructions: 100000000
Configuration: 2
Number of CPUs: 1
LLC sets: 2048
LLC ways: 16
Off-chip DRAM Channels: 1 Width: 64-bit Data Rate: 1600 MT/s

CPU 0 runs /datasets/cs240c-wi22-a00-public/data/Assignment2-gz/perlbench_135B.trace.gz
CPU 0 L1D next line prefetcher
CPU 0 L2C IP-based stride prefetcher
Initialize SRRIP state
Heartbeat CPU 0 instructions: 1000000 cycles: 600033 heartbeat IPC: 1.66657 cumulative IPC: 1.66657 (Simulation time: 0 hr 0 min 38 sec) 
Heartbeat CPU 0 instructions: 2000000 cycles: 1209304 heartbeat IPC: 1.64131 cumulative IPC: 1.65384 (Simulation time: 0 hr 1 min 15 sec) 
Heartbeat CPU 0 instructions: 3000000 cycles: 1832837 heartbeat IPC: 1.60376 cumulative IPC: 1.63681 (Simulation time: 0 hr 1 min 52 sec) 
Heartbeat CPU 0 instructions: 4000000 cycles: 2492645 heartbeat IPC: 1.51559 cumulative IPC: 1.60472 (Simulation time: 0 hr 2 min 31 sec) 
Heartbeat CPU 0 instructions: 5000001 cycles: 3079308 heartbeat IPC: 1.70456 cumulative IPC: 1.62374 (Simulation time: 0 hr 3 min 5 sec) 
Heartbeat CPU 0 instructions: 6000002 cycles: 3681733 heartbeat IPC: 1.65996 cumulative IPC: 1.62967 (Simulation time: 0 hr 3 min 41 sec) 
Heartbeat CPU 0 instructions: 7000001 cycles: 4282494 heartbeat IPC: 1.66455 cumulative IPC: 1.63456 (Simulation time: 0 hr 4 min 18 sec) 
Heartbeat CPU 0 instructions: 8000000 cycles: 4892986 heartbeat IPC: 1.63802 cumulative IPC: 1.63499 (Simulation time: 0 hr 4 min 55 sec) 
Heartbeat CPU 0 instructions: 9000001 cycles: 5534102 heartbeat IPC: 1.55978 cumulative IPC: 1.62628 (Simulation time: 0 hr 5 min 35 sec) 
Heartbeat CPU 0 instructions: 10000000 cycles: 6192789 heartbeat IPC: 1.51817 cumulative IPC: 1.61478 (Simulation time: 0 hr 6 min 12 sec) 

Warmup complete CPU 0 instructions: 10000004 cycles: 6192790 (Simulation time: 0 hr 6 min 12 sec) 

Heartbeat CPU 0 instructions: 11000003 cycles: 8935306 heartbeat IPC: 0.36463 cumulative IPC: 0.364628 (Simulation time: 0 hr 6 min 59 sec) 
Heartbeat CPU 0 instructions: 12000000 cycles: 11272822 heartbeat IPC: 0.427803 cumulative IPC: 0.393698 (Simulation time: 0 hr 7 min 42 sec) 
Heartbeat CPU 0 instructions: 13000000 cycles: 13824338 heartbeat IPC: 0.391924 cumulative IPC: 0.393105 (Simulation time: 0 hr 8 min 28 sec) 
Heartbeat CPU 0 instructions: 14000000 cycles: 16832440 heartbeat IPC: 0.332436 cumulative IPC: 0.375952 (Simulation time: 0 hr 9 min 11 sec) 
Heartbeat CPU 0 instructions: 15000003 cycles: 19514082 heartbeat IPC: 0.372907 cumulative IPC: 0.375339 (Simulation time: 0 hr 9 min 52 sec) 
Heartbeat CPU 0 instructions: 16000000 cycles: 22152121 heartbeat IPC: 0.379068 cumulative IPC: 0.375955 (Simulation time: 0 hr 10 min 37 sec) 
Heartbeat CPU 0 instructions: 17000000 cycles: 24858540 heartbeat IPC: 0.369492 cumulative IPC: 0.375018 (Simulation time: 0 hr 11 min 22 sec) 
Heartbeat CPU 0 instructions: 18000000 cycles: 27543672 heartbeat IPC: 0.372421 cumulative IPC: 0.374692 (Simulation time: 0 hr 12 min 4 sec) 
Heartbeat CPU 0 instructions: 19000003 cycles: 30178029 heartbeat IPC: 0.3796 cumulative IPC: 0.375231 (Simulation time: 0 hr 12 min 52 sec) 
Heartbeat CPU 0 instructions: 20000000 cycles: 32818920 heartbeat IPC: 0.378659 cumulative IPC: 0.375571 (Simulation time: 0 hr 13 min 35 sec) 
Heartbeat CPU 0 instructions: 21000000 cycles: 35447173 heartbeat IPC: 0.380481 cumulative IPC: 0.376012 (Simulation time: 0 hr 14 min 21 sec) 
Heartbeat CPU 0 instructions: 22000002 cycles: 38076363 heartbeat IPC: 0.380346 cumulative IPC: 0.376369 (Simulation time: 0 hr 15 min 11 sec) 
Heartbeat CPU 0 instructions: 23000003 cycles: 40733837 heartbeat IPC: 0.376298 cumulative IPC: 0.376364 (Simulation time: 0 hr 16 min 9 sec) 
Heartbeat CPU 0 instructions: 24000000 cycles: 42830822 heartbeat IPC: 0.476874 cumulative IPC: 0.382116 (Simulation time: 0 hr 16 min 52 sec) 
Heartbeat CPU 0 instructions: 25000000 cycles: 45437239 heartbeat IPC: 0.383668 cumulative IPC: 0.38222 (Simulation time: 0 hr 17 min 42 sec) 
Heartbeat CPU 0 instructions: 26000001 cycles: 47993733 heartbeat IPC: 0.391161 cumulative IPC: 0.382766 (Simulation time: 0 hr 18 min 22 sec) 
Heartbeat CPU 0 instructions: 27000000 cycles: 50662056 heartbeat IPC: 0.374767 cumulative IPC: 0.382286 (Simulation time: 0 hr 19 min 3 sec) 
Heartbeat CPU 0 instructions: 28000000 cycles: 53304763 heartbeat IPC: 0.3784 cumulative IPC: 0.382068 (Simulation time: 0 hr 19 min 42 sec) 
Heartbeat CPU 0 instructions: 29000000 cycles: 55933289 heartbeat IPC: 0.380441 cumulative IPC: 0.381982 (Simulation time: 0 hr 20 min 25 sec) 
Heartbeat CPU 0 instructions: 30000000 cycles: 58651123 heartbeat IPC: 0.36794 cumulative IPC: 0.381255 (Simulation time: 0 hr 21 min 12 sec) 
Heartbeat CPU 0 instructions: 31000001 cycles: 61291253 heartbeat IPC: 0.37877 cumulative IPC: 0.381136 (Simulation time: 0 hr 21 min 59 sec) 
Heartbeat CPU 0 instructions: 32000000 cycles: 63944339 heartbeat IPC: 0.376919 cumulative IPC: 0.380942 (Simulation time: 0 hr 22 min 40 sec) 
Heartbeat CPU 0 instructions: 33000000 cycles: 66572879 heartbeat IPC: 0.380439 cumulative IPC: 0.38092 (Simulation time: 0 hr 23 min 21 sec) 
Heartbeat CPU 0 instructions: 34000001 cycles: 69183499 heartbeat IPC: 0.383051 cumulative IPC: 0.381009 (Simulation time: 0 hr 24 min 7 sec) 
Heartbeat CPU 0 instructions: 35000003 cycles: 71834569 heartbeat IPC: 0.377207 cumulative IPC: 0.380855 (Simulation time: 0 hr 24 min 56 sec) 
Heartbeat CPU 0 instructions: 36000000 cycles: 74136794 heartbeat IPC: 0.434361 cumulative IPC: 0.382668 (Simulation time: 0 hr 25 min 43 sec) 
Heartbeat CPU 0 instructions: 37000000 cycles: 76425336 heartbeat IPC: 0.436959 cumulative IPC: 0.384437 (Simulation time: 0 hr 26 min 32 sec) 
Heartbeat CPU 0 instructions: 38000000 cycles: 78513189 heartbeat IPC: 0.478961 cumulative IPC: 0.387166 (Simulation time: 0 hr 27 min 15 sec) 
Heartbeat CPU 0 instructions: 39000000 cycles: 80808786 heartbeat IPC: 0.435617 cumulative IPC: 0.388657 (Simulation time: 0 hr 27 min 57 sec) 
Heartbeat CPU 0 instructions: 40000000 cycles: 82762169 heartbeat IPC: 0.511932 cumulative IPC: 0.391801 (Simulation time: 0 hr 28 min 32 sec) 
Heartbeat CPU 0 instructions: 41000001 cycles: 84842706 heartbeat IPC: 0.480646 cumulative IPC: 0.394152 (Simulation time: 0 hr 29 min 10 sec) 
Heartbeat CPU 0 instructions: 42000003 cycles: 87462739 heartbeat IPC: 0.381675 cumulative IPC: 0.393749 (Simulation time: 0 hr 29 min 52 sec) 
Heartbeat CPU 0 instructions: 43000001 cycles: 90025261 heartbeat IPC: 0.39024 cumulative IPC: 0.393642 (Simulation time: 0 hr 30 min 39 sec) 
Heartbeat CPU 0 instructions: 44000000 cycles: 92319345 heartbeat IPC: 0.435903 cumulative IPC: 0.394768 (Simulation time: 0 hr 31 min 23 sec) 
Heartbeat CPU 0 instructions: 45000003 cycles: 94952889 heartbeat IPC: 0.379718 cumulative IPC: 0.394321 (Simulation time: 0 hr 32 min 7 sec) 
Heartbeat CPU 0 instructions: 46000003 cycles: 97627549 heartbeat IPC: 0.373879 cumulative IPC: 0.393723 (Simulation time: 0 hr 32 min 49 sec) 
Heartbeat CPU 0 instructions: 47000000 cycles: 100255188 heartbeat IPC: 0.380569 cumulative IPC: 0.393356 (Simulation time: 0 hr 33 min 27 sec) 
Heartbeat CPU 0 instructions: 48000000 cycles: 102868620 heartbeat IPC: 0.382639 cumulative IPC: 0.393066 (Simulation time: 0 hr 34 min 6 sec) 
Heartbeat CPU 0 instructions: 49000000 cycles: 105539546 heartbeat IPC: 0.374402 cumulative IPC: 0.392564 (Simulation time: 0 hr 34 min 45 sec) 
Heartbeat CPU 0 instructions: 50000001 cycles: 108166191 heartbeat IPC: 0.380714 cumulative IPC: 0.392259 (Simulation time: 0 hr 35 min 25 sec) 
Heartbeat CPU 0 instructions: 51000000 cycles: 110785008 heartbeat IPC: 0.381851 cumulative IPC: 0.391999 (Simulation time: 0 hr 36 min 5 sec) 
Heartbeat CPU 0 instructions: 52000000 cycles: 113395801 heartbeat IPC: 0.383025 cumulative IPC: 0.39178 (Simulation time: 0 hr 36 min 46 sec) 
Heartbeat CPU 0 instructions: 53000000 cycles: 115980801 heartbeat IPC: 0.386847 cumulative IPC: 0.391664 (Simulation time: 0 hr 37 min 27 sec) 
Heartbeat CPU 0 instructions: 54000001 cycles: 118620840 heartbeat IPC: 0.378783 cumulative IPC: 0.391361 (Simulation time: 0 hr 38 min 9 sec) 
Heartbeat CPU 0 instructions: 55000001 cycles: 121067149 heartbeat IPC: 0.408779 cumulative IPC: 0.391732 (Simulation time: 0 hr 38 min 54 sec) 
Heartbeat CPU 0 instructions: 56000000 cycles: 123190916 heartbeat IPC: 0.470861 cumulative IPC: 0.393169 (Simulation time: 0 hr 39 min 39 sec) 
Heartbeat CPU 0 instructions: 57000000 cycles: 125391505 heartbeat IPC: 0.454424 cumulative IPC: 0.3943 (Simulation time: 0 hr 40 min 22 sec) 
Heartbeat CPU 0 instructions: 58000002 cycles: 127339294 heartbeat IPC: 0.513404 cumulative IPC: 0.396214 (Simulation time: 0 hr 40 min 59 sec) 
Heartbeat CPU 0 instructions: 59000003 cycles: 129456970 heartbeat IPC: 0.472216 cumulative IPC: 0.39752 (Simulation time: 0 hr 41 min 39 sec) 
Heartbeat CPU 0 instructions: 60000000 cycles: 132441342 heartbeat IPC: 0.335078 cumulative IPC: 0.396044 (Simulation time: 0 hr 42 min 20 sec) 
Heartbeat CPU 0 instructions: 61000000 cycles: 134855431 heartbeat IPC: 0.414235 cumulative IPC: 0.396385 (Simulation time: 0 hr 43 min 2 sec) 
Heartbeat CPU 0 instructions: 62000001 cycles: 137646816 heartbeat IPC: 0.358245 cumulative IPC: 0.395576 (Simulation time: 0 hr 43 min 45 sec) 
Heartbeat CPU 0 instructions: 63000000 cycles: 140588440 heartbeat IPC: 0.339948 cumulative IPC: 0.394358 (Simulation time: 0 hr 44 min 24 sec) 
Heartbeat CPU 0 instructions: 64000000 cycles: 143493422 heartbeat IPC: 0.344236 cumulative IPC: 0.393297 (Simulation time: 0 hr 45 min 3 sec) 
Heartbeat CPU 0 instructions: 65000001 cycles: 146382341 heartbeat IPC: 0.346151 cumulative IPC: 0.392326 (Simulation time: 0 hr 45 min 45 sec) 
Heartbeat CPU 0 instructions: 66000001 cycles: 149247924 heartbeat IPC: 0.348969 cumulative IPC: 0.391457 (Simulation time: 0 hr 46 min 34 sec) 
Heartbeat CPU 0 instructions: 67000001 cycles: 151972497 heartbeat IPC: 0.36703 cumulative IPC: 0.391001 (Simulation time: 0 hr 47 min 14 sec) 
Heartbeat CPU 0 instructions: 68000000 cycles: 154703490 heartbeat IPC: 0.366167 cumulative IPC: 0.390544 (Simulation time: 0 hr 47 min 58 sec) 
Heartbeat CPU 0 instructions: 69000002 cycles: 157648968 heartbeat IPC: 0.339504 cumulative IPC: 0.389552 (Simulation time: 0 hr 48 min 45 sec) 
Heartbeat CPU 0 instructions: 70000003 cycles: 159452001 heartbeat IPC: 0.554622 cumulative IPC: 0.391494 (Simulation time: 0 hr 49 min 21 sec) 
Heartbeat CPU 0 instructions: 71000000 cycles: 161371746 heartbeat IPC: 0.520901 cumulative IPC: 0.393095 (Simulation time: 0 hr 49 min 54 sec) 
Heartbeat CPU 0 instructions: 72000000 cycles: 163357948 heartbeat IPC: 0.503473 cumulative IPC: 0.394489 (Simulation time: 0 hr 50 min 28 sec) 
Heartbeat CPU 0 instructions: 73000000 cycles: 165624576 heartbeat IPC: 0.441184 cumulative IPC: 0.395153 (Simulation time: 0 hr 51 min 11 sec) 
Heartbeat CPU 0 instructions: 74000000 cycles: 167543122 heartbeat IPC: 0.521228 cumulative IPC: 0.396652 (Simulation time: 0 hr 51 min 44 sec) 
Heartbeat CPU 0 instructions: 75000003 cycles: 169776635 heartbeat IPC: 0.447727 cumulative IPC: 0.39735 (Simulation time: 0 hr 52 min 18 sec) 
Heartbeat CPU 0 instructions: 76000000 cycles: 172515325 heartbeat IPC: 0.365137 cumulative IPC: 0.396819 (Simulation time: 0 hr 52 min 52 sec) 
Heartbeat CPU 0 instructions: 77000000 cycles: 175204894 heartbeat IPC: 0.371807 cumulative IPC: 0.396421 (Simulation time: 0 hr 53 min 28 sec) 
Heartbeat CPU 0 instructions: 78000000 cycles: 178151946 heartbeat IPC: 0.339322 cumulative IPC: 0.395443 (Simulation time: 0 hr 54 min 7 sec) 
Heartbeat CPU 0 instructions: 79000000 cycles: 180007965 heartbeat IPC: 0.538788 cumulative IPC: 0.396973 (Simulation time: 0 hr 54 min 47 sec) 
Heartbeat CPU 0 instructions: 80000000 cycles: 181792424 heartbeat IPC: 0.560394 cumulative IPC: 0.398634 (Simulation time: 0 hr 55 min 18 sec) 
Heartbeat CPU 0 instructions: 81000000 cycles: 183713820 heartbeat IPC: 0.520455 cumulative IPC: 0.399953 (Simulation time: 0 hr 55 min 48 sec) 
Heartbeat CPU 0 instructions: 82000000 cycles: 185631359 heartbeat IPC: 0.521502 cumulative IPC: 0.401251 (Simulation time: 0 hr 56 min 17 sec) 
Heartbeat CPU 0 instructions: 83000000 cycles: 187954932 heartbeat IPC: 0.430372 cumulative IPC: 0.401624 (Simulation time: 0 hr 56 min 47 sec) 
Heartbeat CPU 0 instructions: 84000000 cycles: 189906944 heartbeat IPC: 0.512292 cumulative IPC: 0.4028 (Simulation time: 0 hr 57 min 15 sec) 
Heartbeat CPU 0 instructions: 85000000 cycles: 191827959 heartbeat IPC: 0.520558 cumulative IPC: 0.404018 (Simulation time: 0 hr 57 min 39 sec) 
Heartbeat CPU 0 instructions: 86000002 cycles: 193746488 heartbeat IPC: 0.521234 cumulative IPC: 0.405217 (Simulation time: 0 hr 58 min 5 sec) 
Heartbeat CPU 0 instructions: 87000003 cycles: 195911426 heartbeat IPC: 0.461907 cumulative IPC: 0.405864 (Simulation time: 0 hr 58 min 31 sec) 
Heartbeat CPU 0 instructions: 88000000 cycles: 198681584 heartbeat IPC: 0.360989 cumulative IPC: 0.405218 (Simulation time: 0 hr 58 min 58 sec) 
Heartbeat CPU 0 instructions: 89000003 cycles: 201245573 heartbeat IPC: 0.390018 cumulative IPC: 0.405019 (Simulation time: 0 hr 59 min 25 sec) 
Heartbeat CPU 0 instructions: 90000001 cycles: 204122629 heartbeat IPC: 0.347577 cumulative IPC: 0.404184 (Simulation time: 0 hr 59 min 54 sec) 
Heartbeat CPU 0 instructions: 91000000 cycles: 206601653 heartbeat IPC: 0.403384 cumulative IPC: 0.404174 (Simulation time: 1 hr 0 min 19 sec) 
Heartbeat CPU 0 instructions: 92000000 cycles: 209054473 heartbeat IPC: 0.407694 cumulative IPC: 0.404216 (Simulation time: 1 hr 0 min 44 sec) 
Heartbeat CPU 0 instructions: 93000000 cycles: 211749648 heartbeat IPC: 0.371033 cumulative IPC: 0.403781 (Simulation time: 1 hr 1 min 9 sec) 
Heartbeat CPU 0 instructions: 94000001 cycles: 214411039 heartbeat IPC: 0.375744 cumulative IPC: 0.403423 (Simulation time: 1 hr 1 min 35 sec) 
Heartbeat CPU 0 instructions: 95000000 cycles: 217256678 heartbeat IPC: 0.351415 cumulative IPC: 0.402722 (Simulation time: 1 hr 1 min 59 sec) 
Heartbeat CPU 0 instructions: 96000000 cycles: 220296023 heartbeat IPC: 0.329018 cumulative IPC: 0.401675 (Simulation time: 1 hr 2 min 22 sec) 
Heartbeat CPU 0 instructions: 97000001 cycles: 223243146 heartbeat IPC: 0.339314 cumulative IPC: 0.400829 (Simulation time: 1 hr 2 min 45 sec) 
Heartbeat CPU 0 instructions: 98000000 cycles: 225902051 heartbeat IPC: 0.376094 cumulative IPC: 0.400529 (Simulation time: 1 hr 3 min 6 sec) 
Heartbeat CPU 0 instructions: 99000000 cycles: 228501554 heartbeat IPC: 0.384689 cumulative IPC: 0.400344 (Simulation time: 1 hr 3 min 29 sec) 
Heartbeat CPU 0 instructions: 100000000 cycles: 231126086 heartbeat IPC: 0.38102 cumulative IPC: 0.400119 (Simulation time: 1 hr 3 min 48 sec) 
Heartbeat CPU 0 instructions: 101000001 cycles: 233726894 heartbeat IPC: 0.384496 cumulative IPC: 0.39994 (Simulation time: 1 hr 4 min 8 sec) 
Heartbeat CPU 0 instructions: 102000000 cycles: 236356932 heartbeat IPC: 0.380222 cumulative IPC: 0.399715 (Simulation time: 1 hr 4 min 27 sec) 
Heartbeat CPU 0 instructions: 103000000 cycles: 239003650 heartbeat IPC: 0.377826 cumulative IPC: 0.399466 (Simulation time: 1 hr 4 min 47 sec) 
Heartbeat CPU 0 instructions: 104000000 cycles: 241732063 heartbeat IPC: 0.366513 cumulative IPC: 0.399084 (Simulation time: 1 hr 5 min 4 sec) 
Heartbeat CPU 0 instructions: 105000001 cycles: 244336104 heartbeat IPC: 0.384019 cumulative IPC: 0.398919 (Simulation time: 1 hr 5 min 21 sec) 
Heartbeat CPU 0 instructions: 106000001 cycles: 246953998 heartbeat IPC: 0.381986 cumulative IPC: 0.398735 (Simulation time: 1 hr 5 min 38 sec) 
Heartbeat CPU 0 instructions: 107000000 cycles: 249568637 heartbeat IPC: 0.382462 cumulative IPC: 0.39856 (Simulation time: 1 hr 5 min 56 sec) 
Heartbeat CPU 0 instructions: 108000000 cycles: 252179557 heartbeat IPC: 0.383007 cumulative IPC: 0.398395 (Simulation time: 1 hr 6 min 12 sec) 
Heartbeat CPU 0 instructions: 109000001 cycles: 254753568 heartbeat IPC: 0.388499 cumulative IPC: 0.398293 (Simulation time: 1 hr 6 min 30 sec) 
Heartbeat CPU 0 instructions: 110000003 cycles: 256908209 heartbeat IPC: 0.464115 cumulative IPC: 0.398859 (Simulation time: 1 hr 6 min 45 sec) 
Finished CPU 0 instructions: 100000003 cycles: 250715420 cummulative IPC: 0.398859 (Simulation time: 1 hr 6 min 45 sec) 

ChampSim completed all CPUs

Region of Interest Statistics

CPU 0 cummulative IPC: 0.398859 instructions: 100000003 cycles: 250715420
LLC TOTAL     ACCESS:     635538  HIT:     576832  MISS:      58706
LLC LOAD      ACCESS:     295072  HIT:     284875  MISS:      10197
LLC RFO       ACCESS:      30364  HIT:      25951  MISS:       4413
LLC PREFETCH  ACCESS:     206821  HIT:     163980  MISS:      42841
LLC WRITEBACK ACCESS:     103281  HIT:     102026  MISS:       1255
Insertion Distribution: 
	LOAD 5088 18388 892 
	RFO 183 5342 652 
	PREF 0 27035 28683 
	WRITEBACK 0 0 1564 
Total Prefetch Downgrades: 3518
