
*** ChampSim Multicore Out-of-Order Simulator ***

Warmup Instructions: 10000000
Simulation Instructions: 100000000
Configuration: 2
Number of CPUs: 1
LLC sets: 2048
LLC ways: 16
Off-chip DRAM Channels: 1 Width: 64-bit Data Rate: 1600 MT/s

CPU 0 runs /datasets/cs240c-wi22-a00-public/data/Assignment2-gz/sphinx3_2520B.trace.gz
CPU 0 L1D next line prefetcher
CPU 0 L2C IP-based stride prefetcher
Initialize SRRIP state
Heartbeat CPU 0 instructions: 1000003 cycles: 338965 heartbeat IPC: 2.95017 cumulative IPC: 2.95017 (Simulation time: 0 hr 0 min 28 sec) 
Heartbeat CPU 0 instructions: 2000000 cycles: 737243 heartbeat IPC: 2.5108 cumulative IPC: 2.71281 (Simulation time: 0 hr 0 min 57 sec) 
Heartbeat CPU 0 instructions: 3000003 cycles: 1185241 heartbeat IPC: 2.23216 cumulative IPC: 2.53113 (Simulation time: 0 hr 1 min 23 sec) 
Heartbeat CPU 0 instructions: 4000000 cycles: 1524269 heartbeat IPC: 2.9496 cumulative IPC: 2.62421 (Simulation time: 0 hr 1 min 50 sec) 
Heartbeat CPU 0 instructions: 5000001 cycles: 1902428 heartbeat IPC: 2.64439 cumulative IPC: 2.62822 (Simulation time: 0 hr 2 min 19 sec) 
Heartbeat CPU 0 instructions: 6000001 cycles: 2367856 heartbeat IPC: 2.14856 cumulative IPC: 2.53394 (Simulation time: 0 hr 2 min 46 sec) 
Heartbeat CPU 0 instructions: 7000001 cycles: 2706796 heartbeat IPC: 2.95037 cumulative IPC: 2.58608 (Simulation time: 0 hr 3 min 15 sec) 
Heartbeat CPU 0 instructions: 8000000 cycles: 3055798 heartbeat IPC: 2.86531 cumulative IPC: 2.61797 (Simulation time: 0 hr 3 min 41 sec) 
Heartbeat CPU 0 instructions: 9000000 cycles: 3509219 heartbeat IPC: 2.20546 cumulative IPC: 2.56467 (Simulation time: 0 hr 4 min 5 sec) 
Heartbeat CPU 0 instructions: 10000000 cycles: 3859378 heartbeat IPC: 2.85585 cumulative IPC: 2.59109 (Simulation time: 0 hr 4 min 30 sec) 

Warmup complete CPU 0 instructions: 10000004 cycles: 3859379 (Simulation time: 0 hr 4 min 30 sec) 

Heartbeat CPU 0 instructions: 11000001 cycles: 4648092 heartbeat IPC: 1.26789 cumulative IPC: 1.26788 (Simulation time: 0 hr 5 min 2 sec) 
Heartbeat CPU 0 instructions: 12000000 cycles: 5516566 heartbeat IPC: 1.15144 cumulative IPC: 1.20686 (Simulation time: 0 hr 5 min 31 sec) 
Heartbeat CPU 0 instructions: 13000002 cycles: 6375034 heartbeat IPC: 1.16487 cumulative IPC: 1.19253 (Simulation time: 0 hr 6 min 2 sec) 
Heartbeat CPU 0 instructions: 14000002 cycles: 7140309 heartbeat IPC: 1.30672 cumulative IPC: 1.21917 (Simulation time: 0 hr 6 min 31 sec) 
Heartbeat CPU 0 instructions: 15000003 cycles: 8024810 heartbeat IPC: 1.13058 cumulative IPC: 1.20036 (Simulation time: 0 hr 7 min 3 sec) 
Heartbeat CPU 0 instructions: 16000000 cycles: 8869549 heartbeat IPC: 1.18379 cumulative IPC: 1.19756 (Simulation time: 0 hr 7 min 34 sec) 
Heartbeat CPU 0 instructions: 17000000 cycles: 9626324 heartbeat IPC: 1.3214 cumulative IPC: 1.21381 (Simulation time: 0 hr 8 min 4 sec) 
Heartbeat CPU 0 instructions: 18000002 cycles: 10486372 heartbeat IPC: 1.16273 cumulative IPC: 1.20718 (Simulation time: 0 hr 8 min 33 sec) 
Heartbeat CPU 0 instructions: 19000001 cycles: 11309763 heartbeat IPC: 1.21449 cumulative IPC: 1.20799 (Simulation time: 0 hr 9 min 3 sec) 
Heartbeat CPU 0 instructions: 20000000 cycles: 12057185 heartbeat IPC: 1.33793 cumulative IPC: 1.21984 (Simulation time: 0 hr 9 min 34 sec) 
Heartbeat CPU 0 instructions: 21000001 cycles: 13227289 heartbeat IPC: 0.854626 cumulative IPC: 1.17422 (Simulation time: 0 hr 10 min 6 sec) 
Heartbeat CPU 0 instructions: 22000002 cycles: 14178125 heartbeat IPC: 1.05171 cumulative IPC: 1.16293 (Simulation time: 0 hr 10 min 40 sec) 
Heartbeat CPU 0 instructions: 23000001 cycles: 14998144 heartbeat IPC: 1.21948 cumulative IPC: 1.1671 (Simulation time: 0 hr 11 min 11 sec) 
Heartbeat CPU 0 instructions: 24000000 cycles: 15771946 heartbeat IPC: 1.29232 cumulative IPC: 1.17523 (Simulation time: 0 hr 11 min 43 sec) 
Heartbeat CPU 0 instructions: 25000003 cycles: 16587428 heartbeat IPC: 1.22627 cumulative IPC: 1.1785 (Simulation time: 0 hr 12 min 13 sec) 
Heartbeat CPU 0 instructions: 26000001 cycles: 17385248 heartbeat IPC: 1.25341 cumulative IPC: 1.18292 (Simulation time: 0 hr 12 min 56 sec) 
Heartbeat CPU 0 instructions: 27000000 cycles: 18153474 heartbeat IPC: 1.3017 cumulative IPC: 1.1893 (Simulation time: 0 hr 13 min 30 sec) 
Heartbeat CPU 0 instructions: 28000000 cycles: 18975261 heartbeat IPC: 1.21686 cumulative IPC: 1.1908 (Simulation time: 0 hr 14 min 7 sec) 
Heartbeat CPU 0 instructions: 29000003 cycles: 19775616 heartbeat IPC: 1.24945 cumulative IPC: 1.19375 (Simulation time: 0 hr 14 min 45 sec) 
Heartbeat CPU 0 instructions: 30000003 cycles: 20537182 heartbeat IPC: 1.31308 cumulative IPC: 1.1992 (Simulation time: 0 hr 15 min 24 sec) 
Heartbeat CPU 0 instructions: 31000001 cycles: 21346024 heartbeat IPC: 1.23633 cumulative IPC: 1.20092 (Simulation time: 0 hr 15 min 59 sec) 
Heartbeat CPU 0 instructions: 32000000 cycles: 22139588 heartbeat IPC: 1.26014 cumulative IPC: 1.20349 (Simulation time: 0 hr 16 min 33 sec) 
Heartbeat CPU 0 instructions: 33000000 cycles: 22901504 heartbeat IPC: 1.31248 cumulative IPC: 1.20785 (Simulation time: 0 hr 17 min 2 sec) 
Heartbeat CPU 0 instructions: 34000000 cycles: 23704017 heartbeat IPC: 1.24609 cumulative IPC: 1.20939 (Simulation time: 0 hr 17 min 31 sec) 
Heartbeat CPU 0 instructions: 35000002 cycles: 24501233 heartbeat IPC: 1.25437 cumulative IPC: 1.21113 (Simulation time: 0 hr 18 min 1 sec) 
Heartbeat CPU 0 instructions: 36000000 cycles: 25244892 heartbeat IPC: 1.3447 cumulative IPC: 1.21578 (Simulation time: 0 hr 18 min 30 sec) 
Heartbeat CPU 0 instructions: 37000000 cycles: 26063938 heartbeat IPC: 1.22093 cumulative IPC: 1.21597 (Simulation time: 0 hr 19 min 1 sec) 
Heartbeat CPU 0 instructions: 38000000 cycles: 26868070 heartbeat IPC: 1.24358 cumulative IPC: 1.21693 (Simulation time: 0 hr 19 min 31 sec) 
Heartbeat CPU 0 instructions: 39000000 cycles: 27643584 heartbeat IPC: 1.28947 cumulative IPC: 1.2193 (Simulation time: 0 hr 20 min 1 sec) 
Heartbeat CPU 0 instructions: 40000000 cycles: 28470298 heartbeat IPC: 1.20961 cumulative IPC: 1.21897 (Simulation time: 0 hr 20 min 29 sec) 
Heartbeat CPU 0 instructions: 41000001 cycles: 29266567 heartbeat IPC: 1.25586 cumulative IPC: 1.22013 (Simulation time: 0 hr 21 min 1 sec) 
Heartbeat CPU 0 instructions: 42000002 cycles: 30048839 heartbeat IPC: 1.27833 cumulative IPC: 1.22187 (Simulation time: 0 hr 21 min 35 sec) 
Heartbeat CPU 0 instructions: 43000001 cycles: 30846238 heartbeat IPC: 1.25408 cumulative IPC: 1.22282 (Simulation time: 0 hr 22 min 9 sec) 
Heartbeat CPU 0 instructions: 44000000 cycles: 31618741 heartbeat IPC: 1.29449 cumulative IPC: 1.22481 (Simulation time: 0 hr 22 min 40 sec) 
Heartbeat CPU 0 instructions: 45000001 cycles: 32398285 heartbeat IPC: 1.2828 cumulative IPC: 1.2264 (Simulation time: 0 hr 23 min 9 sec) 
Heartbeat CPU 0 instructions: 46000001 cycles: 33217292 heartbeat IPC: 1.22099 cumulative IPC: 1.22625 (Simulation time: 0 hr 23 min 42 sec) 
Heartbeat CPU 0 instructions: 47000003 cycles: 33977330 heartbeat IPC: 1.31573 cumulative IPC: 1.2285 (Simulation time: 0 hr 24 min 11 sec) 
Heartbeat CPU 0 instructions: 48000000 cycles: 34767406 heartbeat IPC: 1.2657 cumulative IPC: 1.22945 (Simulation time: 0 hr 24 min 41 sec) 
Heartbeat CPU 0 instructions: 49000002 cycles: 35547416 heartbeat IPC: 1.28204 cumulative IPC: 1.23075 (Simulation time: 0 hr 25 min 11 sec) 
Heartbeat CPU 0 instructions: 50000002 cycles: 36306392 heartbeat IPC: 1.31756 cumulative IPC: 1.23278 (Simulation time: 0 hr 25 min 40 sec) 
Heartbeat CPU 0 instructions: 51000001 cycles: 37098747 heartbeat IPC: 1.26206 cumulative IPC: 1.23348 (Simulation time: 0 hr 26 min 7 sec) 
Heartbeat CPU 0 instructions: 52000000 cycles: 37864260 heartbeat IPC: 1.30631 cumulative IPC: 1.23512 (Simulation time: 0 hr 26 min 35 sec) 
Heartbeat CPU 0 instructions: 53000001 cycles: 38627981 heartbeat IPC: 1.30938 cumulative IPC: 1.23675 (Simulation time: 0 hr 27 min 2 sec) 
Heartbeat CPU 0 instructions: 54000001 cycles: 39394601 heartbeat IPC: 1.30443 cumulative IPC: 1.23821 (Simulation time: 0 hr 27 min 31 sec) 
Heartbeat CPU 0 instructions: 55000000 cycles: 40151608 heartbeat IPC: 1.32099 cumulative IPC: 1.23993 (Simulation time: 0 hr 27 min 59 sec) 
Heartbeat CPU 0 instructions: 56000000 cycles: 40909693 heartbeat IPC: 1.31911 cumulative IPC: 1.24155 (Simulation time: 0 hr 28 min 27 sec) 
Heartbeat CPU 0 instructions: 57000000 cycles: 41790394 heartbeat IPC: 1.13546 cumulative IPC: 1.23909 (Simulation time: 0 hr 28 min 57 sec) 
Heartbeat CPU 0 instructions: 58000002 cycles: 42918792 heartbeat IPC: 0.886214 cumulative IPC: 1.2289 (Simulation time: 0 hr 29 min 27 sec) 
Heartbeat CPU 0 instructions: 59000001 cycles: 43715961 heartbeat IPC: 1.25444 cumulative IPC: 1.22941 (Simulation time: 0 hr 29 min 57 sec) 
Heartbeat CPU 0 instructions: 60000000 cycles: 44477662 heartbeat IPC: 1.31285 cumulative IPC: 1.23097 (Simulation time: 0 hr 30 min 26 sec) 
Heartbeat CPU 0 instructions: 61000001 cycles: 45242553 heartbeat IPC: 1.30738 cumulative IPC: 1.23238 (Simulation time: 0 hr 30 min 57 sec) 
Heartbeat CPU 0 instructions: 62000000 cycles: 46010561 heartbeat IPC: 1.30207 cumulative IPC: 1.23365 (Simulation time: 0 hr 31 min 25 sec) 
Heartbeat CPU 0 instructions: 63000002 cycles: 46766568 heartbeat IPC: 1.32274 cumulative IPC: 1.23522 (Simulation time: 0 hr 31 min 55 sec) 
Heartbeat CPU 0 instructions: 64000000 cycles: 47544801 heartbeat IPC: 1.28496 cumulative IPC: 1.23611 (Simulation time: 0 hr 32 min 25 sec) 
Heartbeat CPU 0 instructions: 65000003 cycles: 48307150 heartbeat IPC: 1.31174 cumulative IPC: 1.23741 (Simulation time: 0 hr 32 min 54 sec) 
Heartbeat CPU 0 instructions: 66000000 cycles: 49065960 heartbeat IPC: 1.31785 cumulative IPC: 1.23876 (Simulation time: 0 hr 33 min 23 sec) 
Heartbeat CPU 0 instructions: 67000003 cycles: 49875601 heartbeat IPC: 1.23512 cumulative IPC: 1.23869 (Simulation time: 0 hr 33 min 55 sec) 
Heartbeat CPU 0 instructions: 68000000 cycles: 50650386 heartbeat IPC: 1.29068 cumulative IPC: 1.23955 (Simulation time: 0 hr 34 min 23 sec) 
Heartbeat CPU 0 instructions: 69000003 cycles: 51409759 heartbeat IPC: 1.31688 cumulative IPC: 1.24079 (Simulation time: 0 hr 34 min 52 sec) 
Heartbeat CPU 0 instructions: 70000000 cycles: 52200778 heartbeat IPC: 1.26419 cumulative IPC: 1.24117 (Simulation time: 0 hr 35 min 20 sec) 
Heartbeat CPU 0 instructions: 71000002 cycles: 52971819 heartbeat IPC: 1.29695 cumulative IPC: 1.24205 (Simulation time: 0 hr 35 min 48 sec) 
Heartbeat CPU 0 instructions: 72000000 cycles: 53732838 heartbeat IPC: 1.31403 cumulative IPC: 1.24315 (Simulation time: 0 hr 36 min 18 sec) 
Heartbeat CPU 0 instructions: 73000003 cycles: 54515974 heartbeat IPC: 1.27692 cumulative IPC: 1.24367 (Simulation time: 0 hr 36 min 47 sec) 
Heartbeat CPU 0 instructions: 74000003 cycles: 55277217 heartbeat IPC: 1.31364 cumulative IPC: 1.2447 (Simulation time: 0 hr 37 min 17 sec) 
Heartbeat CPU 0 instructions: 75000003 cycles: 56043101 heartbeat IPC: 1.30568 cumulative IPC: 1.2456 (Simulation time: 0 hr 37 min 47 sec) 
Heartbeat CPU 0 instructions: 76000000 cycles: 56821145 heartbeat IPC: 1.28527 cumulative IPC: 1.24618 (Simulation time: 0 hr 38 min 15 sec) 
Heartbeat CPU 0 instructions: 77000003 cycles: 57600683 heartbeat IPC: 1.28281 cumulative IPC: 1.24671 (Simulation time: 0 hr 38 min 47 sec) 
Heartbeat CPU 0 instructions: 78000000 cycles: 58363329 heartbeat IPC: 1.31122 cumulative IPC: 1.24762 (Simulation time: 0 hr 39 min 15 sec) 
Heartbeat CPU 0 instructions: 79000003 cycles: 59141112 heartbeat IPC: 1.28571 cumulative IPC: 1.24815 (Simulation time: 0 hr 39 min 46 sec) 
Heartbeat CPU 0 instructions: 80000000 cycles: 59914648 heartbeat IPC: 1.29276 cumulative IPC: 1.24877 (Simulation time: 0 hr 40 min 14 sec) 
Heartbeat CPU 0 instructions: 81000001 cycles: 60674697 heartbeat IPC: 1.31571 cumulative IPC: 1.24966 (Simulation time: 0 hr 40 min 42 sec) 
Heartbeat CPU 0 instructions: 82000002 cycles: 61455016 heartbeat IPC: 1.28153 cumulative IPC: 1.25009 (Simulation time: 0 hr 41 min 9 sec) 
Heartbeat CPU 0 instructions: 83000003 cycles: 62235192 heartbeat IPC: 1.28176 cumulative IPC: 1.25052 (Simulation time: 0 hr 41 min 38 sec) 
Heartbeat CPU 0 instructions: 84000000 cycles: 62990615 heartbeat IPC: 1.32376 cumulative IPC: 1.25145 (Simulation time: 0 hr 42 min 7 sec) 
Heartbeat CPU 0 instructions: 85000001 cycles: 63769727 heartbeat IPC: 1.28351 cumulative IPC: 1.25187 (Simulation time: 0 hr 42 min 35 sec) 
Heartbeat CPU 0 instructions: 86000000 cycles: 64520575 heartbeat IPC: 1.33183 cumulative IPC: 1.25286 (Simulation time: 0 hr 43 min 6 sec) 
Heartbeat CPU 0 instructions: 87000003 cycles: 65275550 heartbeat IPC: 1.32455 cumulative IPC: 1.25374 (Simulation time: 0 hr 43 min 35 sec) 
Heartbeat CPU 0 instructions: 88000000 cycles: 66060937 heartbeat IPC: 1.27325 cumulative IPC: 1.25399 (Simulation time: 0 hr 44 min 2 sec) 
Heartbeat CPU 0 instructions: 89000002 cycles: 66808462 heartbeat IPC: 1.33775 cumulative IPC: 1.25498 (Simulation time: 0 hr 44 min 31 sec) 
Heartbeat CPU 0 instructions: 90000000 cycles: 67552962 heartbeat IPC: 1.34318 cumulative IPC: 1.25601 (Simulation time: 0 hr 45 min 0 sec) 
Heartbeat CPU 0 instructions: 91000001 cycles: 68341825 heartbeat IPC: 1.26765 cumulative IPC: 1.25616 (Simulation time: 0 hr 45 min 31 sec) 
Heartbeat CPU 0 instructions: 92000000 cycles: 69086372 heartbeat IPC: 1.3431 cumulative IPC: 1.25715 (Simulation time: 0 hr 46 min 7 sec) 
Heartbeat CPU 0 instructions: 93000002 cycles: 69814237 heartbeat IPC: 1.37388 cumulative IPC: 1.25844 (Simulation time: 0 hr 46 min 41 sec) 
Heartbeat CPU 0 instructions: 94000000 cycles: 70619680 heartbeat IPC: 1.24155 cumulative IPC: 1.25823 (Simulation time: 0 hr 47 min 14 sec) 
Heartbeat CPU 0 instructions: 95000000 cycles: 71358670 heartbeat IPC: 1.3532 cumulative IPC: 1.25927 (Simulation time: 0 hr 47 min 41 sec) 
Heartbeat CPU 0 instructions: 96000000 cycles: 72111046 heartbeat IPC: 1.32912 cumulative IPC: 1.26004 (Simulation time: 0 hr 48 min 11 sec) 
Heartbeat CPU 0 instructions: 97000002 cycles: 73290273 heartbeat IPC: 0.848015 cumulative IPC: 1.25304 (Simulation time: 0 hr 48 min 41 sec) 
Heartbeat CPU 0 instructions: 98000003 cycles: 74218039 heartbeat IPC: 1.07786 cumulative IPC: 1.25073 (Simulation time: 0 hr 49 min 12 sec) 
Heartbeat CPU 0 instructions: 99000001 cycles: 74982588 heartbeat IPC: 1.30796 cumulative IPC: 1.25135 (Simulation time: 0 hr 49 min 41 sec) 
Heartbeat CPU 0 instructions: 100000000 cycles: 75744302 heartbeat IPC: 1.31283 cumulative IPC: 1.252 (Simulation time: 0 hr 50 min 9 sec) 
Heartbeat CPU 0 instructions: 101000001 cycles: 77108622 heartbeat IPC: 0.732967 cumulative IPC: 1.24233 (Simulation time: 0 hr 50 min 41 sec) 
Heartbeat CPU 0 instructions: 102000001 cycles: 77918121 heartbeat IPC: 1.23533 cumulative IPC: 1.24226 (Simulation time: 0 hr 51 min 12 sec) 
Heartbeat CPU 0 instructions: 103000001 cycles: 78720666 heartbeat IPC: 1.24604 cumulative IPC: 1.2423 (Simulation time: 0 hr 51 min 38 sec) 
Heartbeat CPU 0 instructions: 104000000 cycles: 79969750 heartbeat IPC: 0.800586 cumulative IPC: 1.23505 (Simulation time: 0 hr 52 min 6 sec) 
Heartbeat CPU 0 instructions: 105000002 cycles: 80796580 heartbeat IPC: 1.20944 cumulative IPC: 1.23477 (Simulation time: 0 hr 52 min 33 sec) 
Heartbeat CPU 0 instructions: 106000000 cycles: 81537140 heartbeat IPC: 1.35033 cumulative IPC: 1.23587 (Simulation time: 0 hr 53 min 0 sec) 
Heartbeat CPU 0 instructions: 107000000 cycles: 82624121 heartbeat IPC: 0.919979 cumulative IPC: 1.23152 (Simulation time: 0 hr 53 min 28 sec) 
Heartbeat CPU 0 instructions: 108000000 cycles: 83618888 heartbeat IPC: 1.00526 cumulative IPC: 1.22869 (Simulation time: 0 hr 53 min 54 sec) 
Heartbeat CPU 0 instructions: 109000003 cycles: 84352700 heartbeat IPC: 1.36275 cumulative IPC: 1.22992 (Simulation time: 0 hr 54 min 22 sec) 
Heartbeat CPU 0 instructions: 110000000 cycles: 85202290 heartbeat IPC: 1.17703 cumulative IPC: 1.22936 (Simulation time: 0 hr 54 min 49 sec) 
Finished CPU 0 instructions: 100000003 cycles: 81342915 cummulative IPC: 1.22936 (Simulation time: 0 hr 54 min 49 sec) 

ChampSim completed all CPUs

Region of Interest Statistics

CPU 0 cummulative IPC: 1.22936 instructions: 100000003 cycles: 81342915
LLC TOTAL     ACCESS:    1445925  HIT:     857570  MISS:     588355
LLC LOAD      ACCESS:     118910  HIT:      99115  MISS:      19795
LLC RFO       ACCESS:     121988  HIT:     120438  MISS:       1550
LLC PREFETCH  ACCESS:    1076631  HIT:     509847  MISS:     566784
LLC WRITEBACK ACCESS:     128396  HIT:     128170  MISS:        226
Insertion Distribution: 
	LOAD 10658 14719 3270 
	RFO 1421 3313 0 
	PREF 0 73270 575089 
	WRITEBACK 0 0 289 
Total Prefetch Downgrades: 5407
