
*** ChampSim Multicore Out-of-Order Simulator ***

Warmup Instructions: 10000000
Simulation Instructions: 100000000
Configuration: 2
Number of CPUs: 1
LLC sets: 2048
LLC ways: 16
Off-chip DRAM Channels: 1 Width: 64-bit Data Rate: 1600 MT/s

CPU 0 runs /datasets/cs240c-wi22-a00-public/data/Assignment2-gz/mcf_46B.trace.gz
CPU 0 L1D next line prefetcher
CPU 0 L2C IP-based stride prefetcher
Initialize SRRIP state
Heartbeat CPU 0 instructions: 1000002 cycles: 492147 heartbeat IPC: 2.03192 cumulative IPC: 2.03192 (Simulation time: 0 hr 0 min 43 sec) 
Heartbeat CPU 0 instructions: 2000002 cycles: 987116 heartbeat IPC: 2.02033 cumulative IPC: 2.02611 (Simulation time: 0 hr 1 min 20 sec) 
Heartbeat CPU 0 instructions: 3000003 cycles: 1514188 heartbeat IPC: 1.89728 cumulative IPC: 1.98126 (Simulation time: 0 hr 1 min 58 sec) 
Heartbeat CPU 0 instructions: 4000000 cycles: 2034551 heartbeat IPC: 1.92173 cumulative IPC: 1.96604 (Simulation time: 0 hr 2 min 36 sec) 
Heartbeat CPU 0 instructions: 5000000 cycles: 2527768 heartbeat IPC: 2.02751 cumulative IPC: 1.97803 (Simulation time: 0 hr 3 min 12 sec) 
Heartbeat CPU 0 instructions: 6000002 cycles: 3030542 heartbeat IPC: 1.98897 cumulative IPC: 1.97984 (Simulation time: 0 hr 3 min 51 sec) 
Heartbeat CPU 0 instructions: 7000001 cycles: 3578377 heartbeat IPC: 1.82537 cumulative IPC: 1.95619 (Simulation time: 0 hr 4 min 30 sec) 
Heartbeat CPU 0 instructions: 8000000 cycles: 4068566 heartbeat IPC: 2.04003 cumulative IPC: 1.96629 (Simulation time: 0 hr 5 min 13 sec) 
Heartbeat CPU 0 instructions: 9000001 cycles: 4551464 heartbeat IPC: 2.07083 cumulative IPC: 1.97739 (Simulation time: 0 hr 5 min 50 sec) 
Heartbeat CPU 0 instructions: 10000001 cycles: 5090680 heartbeat IPC: 1.85454 cumulative IPC: 1.96437 (Simulation time: 0 hr 6 min 28 sec) 

Warmup complete CPU 0 instructions: 10000001 cycles: 5090680 (Simulation time: 0 hr 6 min 28 sec) 

Heartbeat CPU 0 instructions: 11000002 cycles: 16120532 heartbeat IPC: 0.0906631 cumulative IPC: 0.0906631 (Simulation time: 0 hr 7 min 29 sec) 
Heartbeat CPU 0 instructions: 12000000 cycles: 20259212 heartbeat IPC: 0.241622 cumulative IPC: 0.131852 (Simulation time: 0 hr 8 min 16 sec) 
Heartbeat CPU 0 instructions: 13000000 cycles: 27615640 heartbeat IPC: 0.135936 cumulative IPC: 0.133186 (Simulation time: 0 hr 9 min 9 sec) 
Heartbeat CPU 0 instructions: 14000003 cycles: 42012795 heartbeat IPC: 0.0694584 cumulative IPC: 0.108336 (Simulation time: 0 hr 10 min 19 sec) 
Heartbeat CPU 0 instructions: 15000000 cycles: 46221060 heartbeat IPC: 0.237627 cumulative IPC: 0.121565 (Simulation time: 0 hr 11 min 10 sec) 
Heartbeat CPU 0 instructions: 16000000 cycles: 50005180 heartbeat IPC: 0.264262 cumulative IPC: 0.133587 (Simulation time: 0 hr 11 min 59 sec) 
Heartbeat CPU 0 instructions: 17000002 cycles: 65358819 heartbeat IPC: 0.0651313 cumulative IPC: 0.116148 (Simulation time: 0 hr 13 min 22 sec) 
Heartbeat CPU 0 instructions: 18000001 cycles: 70663784 heartbeat IPC: 0.188502 cumulative IPC: 0.122001 (Simulation time: 0 hr 14 min 18 sec) 
Heartbeat CPU 0 instructions: 19000002 cycles: 75192733 heartbeat IPC: 0.220802 cumulative IPC: 0.128384 (Simulation time: 0 hr 15 min 12 sec) 
Heartbeat CPU 0 instructions: 20000000 cycles: 87301352 heartbeat IPC: 0.0825856 cumulative IPC: 0.121639 (Simulation time: 0 hr 16 min 30 sec) 
Heartbeat CPU 0 instructions: 21000002 cycles: 103208905 heartbeat IPC: 0.0628633 cumulative IPC: 0.11211 (Simulation time: 0 hr 17 min 47 sec) 
Heartbeat CPU 0 instructions: 22000002 cycles: 107472635 heartbeat IPC: 0.234536 cumulative IPC: 0.117208 (Simulation time: 0 hr 18 min 34 sec) 
Heartbeat CPU 0 instructions: 23000001 cycles: 111276639 heartbeat IPC: 0.262881 cumulative IPC: 0.122427 (Simulation time: 0 hr 19 min 22 sec) 
Heartbeat CPU 0 instructions: 24000000 cycles: 124277285 heartbeat IPC: 0.0769192 cumulative IPC: 0.117463 (Simulation time: 0 hr 20 min 29 sec) 
Heartbeat CPU 0 instructions: 25000002 cycles: 132089170 heartbeat IPC: 0.12801 cumulative IPC: 0.118112 (Simulation time: 0 hr 21 min 27 sec) 
Heartbeat CPU 0 instructions: 26000001 cycles: 135894849 heartbeat IPC: 0.262765 cumulative IPC: 0.12232 (Simulation time: 0 hr 22 min 21 sec) 
Heartbeat CPU 0 instructions: 27000000 cycles: 145496885 heartbeat IPC: 0.104144 cumulative IPC: 0.121077 (Simulation time: 0 hr 23 min 19 sec) 
Heartbeat CPU 0 instructions: 28000000 cycles: 156828535 heartbeat IPC: 0.0882484 cumulative IPC: 0.118626 (Simulation time: 0 hr 24 min 30 sec) 
Heartbeat CPU 0 instructions: 29000001 cycles: 161132205 heartbeat IPC: 0.23236 cumulative IPC: 0.121762 (Simulation time: 0 hr 25 min 23 sec) 
Heartbeat CPU 0 instructions: 30000000 cycles: 168238660 heartbeat IPC: 0.140717 cumulative IPC: 0.122588 (Simulation time: 0 hr 26 min 20 sec) 
Heartbeat CPU 0 instructions: 31000001 cycles: 181927965 heartbeat IPC: 0.0730498 cumulative IPC: 0.118753 (Simulation time: 0 hr 27 min 25 sec) 
Heartbeat CPU 0 instructions: 32000000 cycles: 186235798 heartbeat IPC: 0.232135 cumulative IPC: 0.12145 (Simulation time: 0 hr 28 min 11 sec) 
Heartbeat CPU 0 instructions: 33000000 cycles: 192353114 heartbeat IPC: 0.16347 cumulative IPC: 0.122822 (Simulation time: 0 hr 28 min 59 sec) 
Heartbeat CPU 0 instructions: 34000000 cycles: 207375842 heartbeat IPC: 0.0665658 cumulative IPC: 0.118644 (Simulation time: 0 hr 30 min 9 sec) 
Heartbeat CPU 0 instructions: 35000000 cycles: 213433342 heartbeat IPC: 0.165085 cumulative IPC: 0.119995 (Simulation time: 0 hr 31 min 1 sec) 
Heartbeat CPU 0 instructions: 36000000 cycles: 219393594 heartbeat IPC: 0.167778 cumulative IPC: 0.121324 (Simulation time: 0 hr 31 min 50 sec) 
Heartbeat CPU 0 instructions: 37000002 cycles: 229327129 heartbeat IPC: 0.100669 cumulative IPC: 0.120409 (Simulation time: 0 hr 32 min 49 sec) 
Heartbeat CPU 0 instructions: 38000001 cycles: 240472514 heartbeat IPC: 0.0897231 cumulative IPC: 0.118956 (Simulation time: 0 hr 33 min 54 sec) 
Heartbeat CPU 0 instructions: 39000000 cycles: 244514027 heartbeat IPC: 0.247432 cumulative IPC: 0.121124 (Simulation time: 0 hr 34 min 40 sec) 
Heartbeat CPU 0 instructions: 40000000 cycles: 250281839 heartbeat IPC: 0.173376 cumulative IPC: 0.122354 (Simulation time: 0 hr 35 min 29 sec) 
Heartbeat CPU 0 instructions: 41000000 cycles: 265282406 heartbeat IPC: 0.0666641 cumulative IPC: 0.119143 (Simulation time: 0 hr 36 min 41 sec) 
Heartbeat CPU 0 instructions: 42000001 cycles: 269950024 heartbeat IPC: 0.214242 cumulative IPC: 0.120819 (Simulation time: 0 hr 37 min 25 sec) 
Heartbeat CPU 0 instructions: 43000000 cycles: 273872345 heartbeat IPC: 0.254951 cumulative IPC: 0.122776 (Simulation time: 0 hr 38 min 8 sec) 
Heartbeat CPU 0 instructions: 44000000 cycles: 287380852 heartbeat IPC: 0.0740274 cumulative IPC: 0.120443 (Simulation time: 0 hr 39 min 15 sec) 
Heartbeat CPU 0 instructions: 45000001 cycles: 294881482 heartbeat IPC: 0.133322 cumulative IPC: 0.120777 (Simulation time: 0 hr 40 min 13 sec) 
Heartbeat CPU 0 instructions: 46000001 cycles: 298933885 heartbeat IPC: 0.246767 cumulative IPC: 0.122514 (Simulation time: 0 hr 40 min 58 sec) 
Heartbeat CPU 0 instructions: 47000002 cycles: 308282521 heartbeat IPC: 0.106968 cumulative IPC: 0.122035 (Simulation time: 0 hr 41 min 59 sec) 
Heartbeat CPU 0 instructions: 48000000 cycles: 320281438 heartbeat IPC: 0.0833407 cumulative IPC: 0.120562 (Simulation time: 0 hr 43 min 6 sec) 
Heartbeat CPU 0 instructions: 49000000 cycles: 324733319 heartbeat IPC: 0.224624 cumulative IPC: 0.122011 (Simulation time: 0 hr 43 min 53 sec) 
Heartbeat CPU 0 instructions: 50000001 cycles: 330878637 heartbeat IPC: 0.162726 cumulative IPC: 0.122779 (Simulation time: 0 hr 44 min 44 sec) 
Heartbeat CPU 0 instructions: 51000001 cycles: 345610120 heartbeat IPC: 0.0678818 cumulative IPC: 0.120404 (Simulation time: 0 hr 46 min 6 sec) 
Heartbeat CPU 0 instructions: 52000000 cycles: 350110500 heartbeat IPC: 0.222203 cumulative IPC: 0.121732 (Simulation time: 0 hr 46 min 59 sec) 
Heartbeat CPU 0 instructions: 53000000 cycles: 354152507 heartbeat IPC: 0.247402 cumulative IPC: 0.123187 (Simulation time: 0 hr 47 min 44 sec) 
Heartbeat CPU 0 instructions: 54000002 cycles: 369715484 heartbeat IPC: 0.0642552 cumulative IPC: 0.120672 (Simulation time: 0 hr 48 min 57 sec) 
Heartbeat CPU 0 instructions: 55000002 cycles: 374889540 heartbeat IPC: 0.193272 cumulative IPC: 0.121688 (Simulation time: 0 hr 49 min 45 sec) 
Heartbeat CPU 0 instructions: 56000000 cycles: 379067439 heartbeat IPC: 0.239354 cumulative IPC: 0.123002 (Simulation time: 0 hr 50 min 28 sec) 
Heartbeat CPU 0 instructions: 57000000 cycles: 392270205 heartbeat IPC: 0.0757417 cumulative IPC: 0.121391 (Simulation time: 0 hr 51 min 33 sec) 
Heartbeat CPU 0 instructions: 58000000 cycles: 399705412 heartbeat IPC: 0.134495 cumulative IPC: 0.121638 (Simulation time: 0 hr 52 min 26 sec) 
Heartbeat CPU 0 instructions: 59000002 cycles: 403822892 heartbeat IPC: 0.242867 cumulative IPC: 0.122889 (Simulation time: 0 hr 53 min 10 sec) 
Heartbeat CPU 0 instructions: 60000000 cycles: 415252571 heartbeat IPC: 0.0874913 cumulative IPC: 0.121903 (Simulation time: 0 hr 54 min 6 sec) 
Heartbeat CPU 0 instructions: 61000002 cycles: 424688717 heartbeat IPC: 0.105976 cumulative IPC: 0.121545 (Simulation time: 0 hr 55 min 9 sec) 
Heartbeat CPU 0 instructions: 62000001 cycles: 428802671 heartbeat IPC: 0.243075 cumulative IPC: 0.122725 (Simulation time: 0 hr 55 min 47 sec) 
Heartbeat CPU 0 instructions: 63000001 cycles: 438791278 heartbeat IPC: 0.100114 cumulative IPC: 0.122204 (Simulation time: 0 hr 56 min 35 sec) 
Heartbeat CPU 0 instructions: 64000000 cycles: 450569284 heartbeat IPC: 0.0849039 cumulative IPC: 0.121218 (Simulation time: 0 hr 57 min 22 sec) 
Heartbeat CPU 0 instructions: 65000002 cycles: 455724481 heartbeat IPC: 0.193979 cumulative IPC: 0.12205 (Simulation time: 0 hr 58 min 1 sec) 
Heartbeat CPU 0 instructions: 66000000 cycles: 461920692 heartbeat IPC: 0.161389 cumulative IPC: 0.122584 (Simulation time: 0 hr 58 min 34 sec) 
Heartbeat CPU 0 instructions: 67000002 cycles: 477977006 heartbeat IPC: 0.0622809 cumulative IPC: 0.120536 (Simulation time: 0 hr 59 min 22 sec) 
Heartbeat CPU 0 instructions: 68000000 cycles: 482357699 heartbeat IPC: 0.228274 cumulative IPC: 0.121525 (Simulation time: 0 hr 59 min 55 sec) 
Heartbeat CPU 0 instructions: 69000000 cycles: 486322421 heartbeat IPC: 0.252225 cumulative IPC: 0.122602 (Simulation time: 1 hr 0 min 23 sec) 
Heartbeat CPU 0 instructions: 70000001 cycles: 500757185 heartbeat IPC: 0.0692773 cumulative IPC: 0.121049 (Simulation time: 1 hr 1 min 8 sec) 
Heartbeat CPU 0 instructions: 71000002 cycles: 509233783 heartbeat IPC: 0.117972 cumulative IPC: 0.120997 (Simulation time: 1 hr 1 min 44 sec) 
Heartbeat CPU 0 instructions: 72000000 cycles: 513944219 heartbeat IPC: 0.212294 cumulative IPC: 0.121843 (Simulation time: 1 hr 2 min 12 sec) 
Heartbeat CPU 0 instructions: 73000002 cycles: 522908744 heartbeat IPC: 0.111551 cumulative IPC: 0.121664 (Simulation time: 1 hr 2 min 44 sec) 
Heartbeat CPU 0 instructions: 74000001 cycles: 535121727 heartbeat IPC: 0.08188 cumulative IPC: 0.120748 (Simulation time: 1 hr 3 min 20 sec) 
Heartbeat CPU 0 instructions: 75000002 cycles: 539549319 heartbeat IPC: 0.225857 cumulative IPC: 0.121618 (Simulation time: 1 hr 3 min 43 sec) 
Heartbeat CPU 0 instructions: 76000000 cycles: 545427222 heartbeat IPC: 0.170128 cumulative IPC: 0.122146 (Simulation time: 1 hr 4 min 6 sec) 
Heartbeat CPU 0 instructions: 77000001 cycles: 561626545 heartbeat IPC: 0.061731 cumulative IPC: 0.120388 (Simulation time: 1 hr 4 min 41 sec) 
Heartbeat CPU 0 instructions: 78000002 cycles: 566379940 heartbeat IPC: 0.210376 cumulative IPC: 0.12115 (Simulation time: 1 hr 5 min 2 sec) 
Heartbeat CPU 0 instructions: 79000001 cycles: 570589278 heartbeat IPC: 0.237567 cumulative IPC: 0.122016 (Simulation time: 1 hr 5 min 21 sec) 
Heartbeat CPU 0 instructions: 80000000 cycles: 584016138 heartbeat IPC: 0.0744775 cumulative IPC: 0.120914 (Simulation time: 1 hr 5 min 50 sec) 
Heartbeat CPU 0 instructions: 81000000 cycles: 591535107 heartbeat IPC: 0.132997 cumulative IPC: 0.121069 (Simulation time: 1 hr 6 min 13 sec) 
Heartbeat CPU 0 instructions: 82000000 cycles: 596255552 heartbeat IPC: 0.211844 cumulative IPC: 0.121793 (Simulation time: 1 hr 6 min 32 sec) 
Heartbeat CPU 0 instructions: 83000001 cycles: 605791711 heartbeat IPC: 0.104864 cumulative IPC: 0.121525 (Simulation time: 1 hr 6 min 53 sec) 
Heartbeat CPU 0 instructions: 84000000 cycles: 617342035 heartbeat IPC: 0.0865776 cumulative IPC: 0.120865 (Simulation time: 1 hr 7 min 11 sec) 
Heartbeat CPU 0 instructions: 85000001 cycles: 621488560 heartbeat IPC: 0.241166 cumulative IPC: 0.121675 (Simulation time: 1 hr 7 min 22 sec) 
Heartbeat CPU 0 instructions: 86000000 cycles: 629490605 heartbeat IPC: 0.124968 cumulative IPC: 0.121717 (Simulation time: 1 hr 7 min 34 sec) 
Heartbeat CPU 0 instructions: 87000000 cycles: 644602666 heartbeat IPC: 0.0661723 cumulative IPC: 0.120404 (Simulation time: 1 hr 7 min 49 sec) 
Heartbeat CPU 0 instructions: 88000000 cycles: 650835099 heartbeat IPC: 0.160451 cumulative IPC: 0.120791 (Simulation time: 1 hr 7 min 58 sec) 
Heartbeat CPU 0 instructions: 89000000 cycles: 654878140 heartbeat IPC: 0.247339 cumulative IPC: 0.121578 (Simulation time: 1 hr 8 min 7 sec) 
Heartbeat CPU 0 instructions: 90000003 cycles: 666696673 heartbeat IPC: 0.0846131 cumulative IPC: 0.120918 (Simulation time: 1 hr 8 min 19 sec) 
Heartbeat CPU 0 instructions: 91000000 cycles: 675597434 heartbeat IPC: 0.11235 cumulative IPC: 0.120804 (Simulation time: 1 hr 8 min 30 sec) 
Heartbeat CPU 0 instructions: 92000000 cycles: 679724593 heartbeat IPC: 0.242297 cumulative IPC: 0.121547 (Simulation time: 1 hr 8 min 37 sec) 
Heartbeat CPU 0 instructions: 93000002 cycles: 688511603 heartbeat IPC: 0.113805 cumulative IPC: 0.121448 (Simulation time: 1 hr 8 min 44 sec) 
Heartbeat CPU 0 instructions: 94000002 cycles: 700266851 heartbeat IPC: 0.0850684 cumulative IPC: 0.120833 (Simulation time: 1 hr 8 min 52 sec) 
Heartbeat CPU 0 instructions: 95000000 cycles: 706000694 heartbeat IPC: 0.174403 cumulative IPC: 0.121271 (Simulation time: 1 hr 8 min 58 sec) 
Heartbeat CPU 0 instructions: 96000000 cycles: 711498581 heartbeat IPC: 0.181888 cumulative IPC: 0.121743 (Simulation time: 1 hr 9 min 4 sec) 
Heartbeat CPU 0 instructions: 97000000 cycles: 726685234 heartbeat IPC: 0.0658473 cumulative IPC: 0.120566 (Simulation time: 1 hr 9 min 13 sec) 
Heartbeat CPU 0 instructions: 98000002 cycles: 731353801 heartbeat IPC: 0.214199 cumulative IPC: 0.121168 (Simulation time: 1 hr 9 min 18 sec) 
Heartbeat CPU 0 instructions: 99000002 cycles: 735847207 heartbeat IPC: 0.222548 cumulative IPC: 0.121792 (Simulation time: 1 hr 9 min 23 sec) 
Heartbeat CPU 0 instructions: 100000000 cycles: 750138139 heartbeat IPC: 0.0699743 cumulative IPC: 0.120798 (Simulation time: 1 hr 9 min 32 sec) 
Heartbeat CPU 0 instructions: 101000000 cycles: 756811108 heartbeat IPC: 0.149858 cumulative IPC: 0.121056 (Simulation time: 1 hr 9 min 39 sec) 
Heartbeat CPU 0 instructions: 102000003 cycles: 760907661 heartbeat IPC: 0.244108 cumulative IPC: 0.121723 (Simulation time: 1 hr 9 min 44 sec) 
Heartbeat CPU 0 instructions: 103000003 cycles: 772922414 heartbeat IPC: 0.083231 cumulative IPC: 0.12112 (Simulation time: 1 hr 9 min 52 sec) 
Heartbeat CPU 0 instructions: 104000000 cycles: 784184885 heartbeat IPC: 0.0887902 cumulative IPC: 0.120653 (Simulation time: 1 hr 9 min 59 sec) 
Heartbeat CPU 0 instructions: 105000000 cycles: 788779937 heartbeat IPC: 0.217625 cumulative IPC: 0.121222 (Simulation time: 1 hr 10 min 4 sec) 
Heartbeat CPU 0 instructions: 106000000 cycles: 792794887 heartbeat IPC: 0.249069 cumulative IPC: 0.121873 (Simulation time: 1 hr 10 min 9 sec) 
Heartbeat CPU 0 instructions: 107000002 cycles: 808344992 heartbeat IPC: 0.0643084 cumulative IPC: 0.120759 (Simulation time: 1 hr 10 min 19 sec) 
Heartbeat CPU 0 instructions: 108000000 cycles: 813661769 heartbeat IPC: 0.188083 cumulative IPC: 0.121201 (Simulation time: 1 hr 10 min 25 sec) 
Heartbeat CPU 0 instructions: 109000001 cycles: 817868468 heartbeat IPC: 0.237716 cumulative IPC: 0.121805 (Simulation time: 1 hr 10 min 31 sec) 
Heartbeat CPU 0 instructions: 110000002 cycles: 827510870 heartbeat IPC: 0.103709 cumulative IPC: 0.121592 (Simulation time: 1 hr 10 min 39 sec) 
Finished CPU 0 instructions: 100000001 cycles: 822420190 cummulative IPC: 0.121592 (Simulation time: 1 hr 10 min 39 sec) 

ChampSim completed all CPUs

Region of Interest Statistics

CPU 0 cummulative IPC: 0.121592 instructions: 100000001 cycles: 822420190
LLC TOTAL     ACCESS:   18757595  HIT:    8482818  MISS:   10274777
LLC LOAD      ACCESS:    8469967  HIT:    4423408  MISS:    4046559
LLC RFO       ACCESS:     206431  HIT:      67423  MISS:     139008
LLC PREFETCH  ACCESS:    7973633  HIT:    2243111  MISS:    5730522
LLC WRITEBACK ACCESS:    2107564  HIT:    1748876  MISS:     358688
Insertion Distribution: 
	LOAD 971305 663971 2741377 
	RFO 84713 51567 16120 
	PREF 0 2566859 3761231 
	WRITEBACK 0 0 394105 
Total Prefetch Downgrades: 1241148
