
*** ChampSim Multicore Out-of-Order Simulator ***

Warmup Instructions: 10000000
Simulation Instructions: 100000000
Configuration: 2
Number of CPUs: 1
LLC sets: 2048
LLC ways: 16
Off-chip DRAM Channels: 1 Width: 64-bit Data Rate: 1600 MT/s

CPU 0 runs /datasets/cs240c-wi22-a00-public/data/Assignment2-gz/omnetpp_340B.trace.gz
CPU 0 L1D next line prefetcher
CPU 0 L2C IP-based stride prefetcher
Initialize SRRIP state
Heartbeat CPU 0 instructions: 1000001 cycles: 576945 heartbeat IPC: 1.73327 cumulative IPC: 1.73327 (Simulation time: 0 hr 0 min 42 sec) 
Heartbeat CPU 0 instructions: 2000000 cycles: 1160918 heartbeat IPC: 1.71241 cumulative IPC: 1.72277 (Simulation time: 0 hr 1 min 17 sec) 
Heartbeat CPU 0 instructions: 3000001 cycles: 1758241 heartbeat IPC: 1.67414 cumulative IPC: 1.70625 (Simulation time: 0 hr 1 min 55 sec) 
Heartbeat CPU 0 instructions: 4000000 cycles: 2379230 heartbeat IPC: 1.61033 cumulative IPC: 1.68122 (Simulation time: 0 hr 2 min 34 sec) 
Heartbeat CPU 0 instructions: 5000002 cycles: 2954592 heartbeat IPC: 1.73804 cumulative IPC: 1.69228 (Simulation time: 0 hr 3 min 10 sec) 
Heartbeat CPU 0 instructions: 6000003 cycles: 3556068 heartbeat IPC: 1.66258 cumulative IPC: 1.68726 (Simulation time: 0 hr 3 min 51 sec) 
Heartbeat CPU 0 instructions: 7000003 cycles: 4205549 heartbeat IPC: 1.53969 cumulative IPC: 1.66447 (Simulation time: 0 hr 4 min 30 sec) 
Heartbeat CPU 0 instructions: 8000000 cycles: 4800128 heartbeat IPC: 1.68186 cumulative IPC: 1.66662 (Simulation time: 0 hr 5 min 8 sec) 
Heartbeat CPU 0 instructions: 9000002 cycles: 5433500 heartbeat IPC: 1.57885 cumulative IPC: 1.65639 (Simulation time: 0 hr 5 min 47 sec) 
Heartbeat CPU 0 instructions: 10000002 cycles: 6028056 heartbeat IPC: 1.68193 cumulative IPC: 1.65891 (Simulation time: 0 hr 6 min 22 sec) 

Warmup complete CPU 0 instructions: 10000002 cycles: 6028056 (Simulation time: 0 hr 6 min 22 sec) 

Heartbeat CPU 0 instructions: 11000000 cycles: 9678470 heartbeat IPC: 0.273941 cumulative IPC: 0.273941 (Simulation time: 0 hr 7 min 7 sec) 
Heartbeat CPU 0 instructions: 12000000 cycles: 13194640 heartbeat IPC: 0.2844 cumulative IPC: 0.279073 (Simulation time: 0 hr 7 min 49 sec) 
Heartbeat CPU 0 instructions: 13000000 cycles: 16992436 heartbeat IPC: 0.263311 cumulative IPC: 0.273613 (Simulation time: 0 hr 8 min 38 sec) 
Heartbeat CPU 0 instructions: 14000001 cycles: 20835793 heartbeat IPC: 0.260189 cumulative IPC: 0.270129 (Simulation time: 0 hr 9 min 20 sec) 
Heartbeat CPU 0 instructions: 15000003 cycles: 24701087 heartbeat IPC: 0.258713 cumulative IPC: 0.267766 (Simulation time: 0 hr 10 min 12 sec) 
Heartbeat CPU 0 instructions: 16000000 cycles: 28826851 heartbeat IPC: 0.242379 cumulative IPC: 0.263172 (Simulation time: 0 hr 11 min 3 sec) 
Heartbeat CPU 0 instructions: 17000000 cycles: 32529896 heartbeat IPC: 0.270048 cumulative IPC: 0.264133 (Simulation time: 0 hr 11 min 53 sec) 
Heartbeat CPU 0 instructions: 18000000 cycles: 36394518 heartbeat IPC: 0.258758 cumulative IPC: 0.263448 (Simulation time: 0 hr 12 min 47 sec) 
Heartbeat CPU 0 instructions: 19000000 cycles: 40641039 heartbeat IPC: 0.235487 cumulative IPC: 0.260018 (Simulation time: 0 hr 13 min 34 sec) 
Heartbeat CPU 0 instructions: 20000000 cycles: 44701568 heartbeat IPC: 0.246273 cumulative IPC: 0.258575 (Simulation time: 0 hr 14 min 25 sec) 
Heartbeat CPU 0 instructions: 21000000 cycles: 48176470 heartbeat IPC: 0.287778 cumulative IPC: 0.260982 (Simulation time: 0 hr 15 min 15 sec) 
Heartbeat CPU 0 instructions: 22000001 cycles: 52017866 heartbeat IPC: 0.260322 cumulative IPC: 0.260927 (Simulation time: 0 hr 16 min 12 sec) 
Heartbeat CPU 0 instructions: 23000001 cycles: 55840491 heartbeat IPC: 0.2616 cumulative IPC: 0.260979 (Simulation time: 0 hr 17 min 1 sec) 
Heartbeat CPU 0 instructions: 24000000 cycles: 59617423 heartbeat IPC: 0.264765 cumulative IPC: 0.261246 (Simulation time: 0 hr 17 min 48 sec) 
Heartbeat CPU 0 instructions: 25000000 cycles: 63585924 heartbeat IPC: 0.251984 cumulative IPC: 0.260607 (Simulation time: 0 hr 18 min 31 sec) 
Heartbeat CPU 0 instructions: 26000001 cycles: 67591005 heartbeat IPC: 0.249683 cumulative IPC: 0.259897 (Simulation time: 0 hr 19 min 14 sec) 
Heartbeat CPU 0 instructions: 27000000 cycles: 71623683 heartbeat IPC: 0.247974 cumulative IPC: 0.259164 (Simulation time: 0 hr 20 min 2 sec) 
Heartbeat CPU 0 instructions: 28000000 cycles: 75694189 heartbeat IPC: 0.24567 cumulative IPC: 0.258375 (Simulation time: 0 hr 20 min 55 sec) 
Heartbeat CPU 0 instructions: 29000003 cycles: 79758886 heartbeat IPC: 0.246022 cumulative IPC: 0.257694 (Simulation time: 0 hr 21 min 54 sec) 
Heartbeat CPU 0 instructions: 30000000 cycles: 83361665 heartbeat IPC: 0.277563 cumulative IPC: 0.25862 (Simulation time: 0 hr 22 min 41 sec) 
Heartbeat CPU 0 instructions: 31000000 cycles: 87218275 heartbeat IPC: 0.259295 cumulative IPC: 0.258652 (Simulation time: 0 hr 23 min 33 sec) 
Heartbeat CPU 0 instructions: 32000000 cycles: 90952754 heartbeat IPC: 0.267775 cumulative IPC: 0.259053 (Simulation time: 0 hr 24 min 16 sec) 
Heartbeat CPU 0 instructions: 33000003 cycles: 94701591 heartbeat IPC: 0.26675 cumulative IPC: 0.259378 (Simulation time: 0 hr 25 min 5 sec) 
Heartbeat CPU 0 instructions: 34000001 cycles: 98851260 heartbeat IPC: 0.240983 cumulative IPC: 0.258556 (Simulation time: 0 hr 25 min 55 sec) 
Heartbeat CPU 0 instructions: 35000002 cycles: 102339729 heartbeat IPC: 0.286659 cumulative IPC: 0.259574 (Simulation time: 0 hr 26 min 40 sec) 
Heartbeat CPU 0 instructions: 36000000 cycles: 106571746 heartbeat IPC: 0.236293 cumulative IPC: 0.258594 (Simulation time: 0 hr 27 min 25 sec) 
Heartbeat CPU 0 instructions: 37000000 cycles: 110871016 heartbeat IPC: 0.232598 cumulative IPC: 0.257528 (Simulation time: 0 hr 28 min 8 sec) 
Heartbeat CPU 0 instructions: 38000000 cycles: 114595496 heartbeat IPC: 0.268494 cumulative IPC: 0.257904 (Simulation time: 0 hr 28 min 51 sec) 
Heartbeat CPU 0 instructions: 39000001 cycles: 118762659 heartbeat IPC: 0.239972 cumulative IPC: 0.257241 (Simulation time: 0 hr 29 min 36 sec) 
Heartbeat CPU 0 instructions: 40000000 cycles: 122232111 heartbeat IPC: 0.28823 cumulative IPC: 0.258167 (Simulation time: 0 hr 30 min 20 sec) 
Heartbeat CPU 0 instructions: 41000000 cycles: 125875664 heartbeat IPC: 0.274457 cumulative IPC: 0.258662 (Simulation time: 0 hr 31 min 5 sec) 
Heartbeat CPU 0 instructions: 42000001 cycles: 130049273 heartbeat IPC: 0.239601 cumulative IPC: 0.25802 (Simulation time: 0 hr 31 min 52 sec) 
Heartbeat CPU 0 instructions: 43000001 cycles: 134097169 heartbeat IPC: 0.247042 cumulative IPC: 0.257673 (Simulation time: 0 hr 32 min 36 sec) 
Heartbeat CPU 0 instructions: 44000000 cycles: 137779488 heartbeat IPC: 0.271568 cumulative IPC: 0.258062 (Simulation time: 0 hr 33 min 20 sec) 
Heartbeat CPU 0 instructions: 45000003 cycles: 141690553 heartbeat IPC: 0.255686 cumulative IPC: 0.257993 (Simulation time: 0 hr 34 min 1 sec) 
Heartbeat CPU 0 instructions: 46000003 cycles: 145827880 heartbeat IPC: 0.241702 cumulative IPC: 0.257511 (Simulation time: 0 hr 34 min 47 sec) 
Heartbeat CPU 0 instructions: 47000000 cycles: 149056806 heartbeat IPC: 0.3097 cumulative IPC: 0.258689 (Simulation time: 0 hr 35 min 32 sec) 
Heartbeat CPU 0 instructions: 48000000 cycles: 153038803 heartbeat IPC: 0.25113 cumulative IPC: 0.258484 (Simulation time: 0 hr 36 min 17 sec) 
Heartbeat CPU 0 instructions: 49000000 cycles: 156100018 heartbeat IPC: 0.326668 cumulative IPC: 0.259875 (Simulation time: 0 hr 36 min 58 sec) 
Heartbeat CPU 0 instructions: 50000001 cycles: 160186786 heartbeat IPC: 0.244692 cumulative IPC: 0.259473 (Simulation time: 0 hr 37 min 43 sec) 
Heartbeat CPU 0 instructions: 51000003 cycles: 163922554 heartbeat IPC: 0.267683 cumulative IPC: 0.259667 (Simulation time: 0 hr 38 min 30 sec) 
Heartbeat CPU 0 instructions: 52000000 cycles: 167912553 heartbeat IPC: 0.250626 cumulative IPC: 0.259444 (Simulation time: 0 hr 39 min 22 sec) 
Heartbeat CPU 0 instructions: 53000000 cycles: 172304322 heartbeat IPC: 0.227699 cumulative IPC: 0.258606 (Simulation time: 0 hr 40 min 9 sec) 
Heartbeat CPU 0 instructions: 54000002 cycles: 176394019 heartbeat IPC: 0.244517 cumulative IPC: 0.258268 (Simulation time: 0 hr 40 min 54 sec) 
Heartbeat CPU 0 instructions: 55000001 cycles: 180256501 heartbeat IPC: 0.258901 cumulative IPC: 0.258282 (Simulation time: 0 hr 41 min 44 sec) 
Heartbeat CPU 0 instructions: 56000000 cycles: 184532279 heartbeat IPC: 0.233875 cumulative IPC: 0.257697 (Simulation time: 0 hr 42 min 32 sec) 
Heartbeat CPU 0 instructions: 57000001 cycles: 188590713 heartbeat IPC: 0.246401 cumulative IPC: 0.257446 (Simulation time: 0 hr 43 min 19 sec) 
Heartbeat CPU 0 instructions: 58000000 cycles: 191835040 heartbeat IPC: 0.30823 cumulative IPC: 0.258333 (Simulation time: 0 hr 44 min 4 sec) 
Heartbeat CPU 0 instructions: 59000003 cycles: 195713323 heartbeat IPC: 0.257847 cumulative IPC: 0.258323 (Simulation time: 0 hr 44 min 53 sec) 
Heartbeat CPU 0 instructions: 60000000 cycles: 200038083 heartbeat IPC: 0.231226 cumulative IPC: 0.257719 (Simulation time: 0 hr 45 min 46 sec) 
Heartbeat CPU 0 instructions: 61000001 cycles: 204312110 heartbeat IPC: 0.233972 cumulative IPC: 0.257207 (Simulation time: 0 hr 46 min 48 sec) 
Heartbeat CPU 0 instructions: 62000000 cycles: 208590724 heartbeat IPC: 0.23372 cumulative IPC: 0.256711 (Simulation time: 0 hr 47 min 34 sec) 
Heartbeat CPU 0 instructions: 63000001 cycles: 212239113 heartbeat IPC: 0.274094 cumulative IPC: 0.257018 (Simulation time: 0 hr 48 min 18 sec) 
Heartbeat CPU 0 instructions: 64000000 cycles: 216047726 heartbeat IPC: 0.262563 cumulative IPC: 0.257119 (Simulation time: 0 hr 49 min 9 sec) 
Heartbeat CPU 0 instructions: 65000001 cycles: 219564161 heartbeat IPC: 0.284379 cumulative IPC: 0.257568 (Simulation time: 0 hr 49 min 56 sec) 
Heartbeat CPU 0 instructions: 66000002 cycles: 223646634 heartbeat IPC: 0.24495 cumulative IPC: 0.257331 (Simulation time: 0 hr 50 min 40 sec) 
Heartbeat CPU 0 instructions: 67000002 cycles: 227511818 heartbeat IPC: 0.25872 cumulative IPC: 0.257355 (Simulation time: 0 hr 51 min 25 sec) 
Heartbeat CPU 0 instructions: 68000000 cycles: 231376610 heartbeat IPC: 0.258746 cumulative IPC: 0.257379 (Simulation time: 0 hr 52 min 9 sec) 
Heartbeat CPU 0 instructions: 69000000 cycles: 235363294 heartbeat IPC: 0.250835 cumulative IPC: 0.257265 (Simulation time: 0 hr 52 min 53 sec) 
Heartbeat CPU 0 instructions: 70000001 cycles: 239020445 heartbeat IPC: 0.273437 cumulative IPC: 0.257519 (Simulation time: 0 hr 53 min 30 sec) 
Heartbeat CPU 0 instructions: 71000003 cycles: 242919156 heartbeat IPC: 0.256496 cumulative IPC: 0.257502 (Simulation time: 0 hr 54 min 10 sec) 
Heartbeat CPU 0 instructions: 72000000 cycles: 247283472 heartbeat IPC: 0.22913 cumulative IPC: 0.256989 (Simulation time: 0 hr 54 min 57 sec) 
Heartbeat CPU 0 instructions: 73000002 cycles: 251270760 heartbeat IPC: 0.250798 cumulative IPC: 0.256888 (Simulation time: 0 hr 55 min 33 sec) 
Heartbeat CPU 0 instructions: 74000000 cycles: 255045278 heartbeat IPC: 0.264934 cumulative IPC: 0.25701 (Simulation time: 0 hr 56 min 11 sec) 
Heartbeat CPU 0 instructions: 75000003 cycles: 259056378 heartbeat IPC: 0.249309 cumulative IPC: 0.256888 (Simulation time: 0 hr 56 min 50 sec) 
Heartbeat CPU 0 instructions: 76000000 cycles: 262851521 heartbeat IPC: 0.263494 cumulative IPC: 0.256986 (Simulation time: 0 hr 57 min 25 sec) 
Heartbeat CPU 0 instructions: 77000002 cycles: 267339015 heartbeat IPC: 0.222842 cumulative IPC: 0.2564 (Simulation time: 0 hr 57 min 56 sec) 
Heartbeat CPU 0 instructions: 78000003 cycles: 271142922 heartbeat IPC: 0.262888 cumulative IPC: 0.256493 (Simulation time: 0 hr 58 min 24 sec) 
Heartbeat CPU 0 instructions: 79000002 cycles: 275004071 heartbeat IPC: 0.25899 cumulative IPC: 0.256528 (Simulation time: 0 hr 58 min 53 sec) 
Heartbeat CPU 0 instructions: 80000000 cycles: 278805284 heartbeat IPC: 0.263073 cumulative IPC: 0.25662 (Simulation time: 0 hr 59 min 21 sec) 
Heartbeat CPU 0 instructions: 81000002 cycles: 282902916 heartbeat IPC: 0.244044 cumulative IPC: 0.256434 (Simulation time: 0 hr 59 min 51 sec) 
Heartbeat CPU 0 instructions: 82000000 cycles: 287318380 heartbeat IPC: 0.226476 cumulative IPC: 0.255963 (Simulation time: 1 hr 0 min 20 sec) 
Heartbeat CPU 0 instructions: 83000002 cycles: 290982184 heartbeat IPC: 0.272941 cumulative IPC: 0.256182 (Simulation time: 1 hr 0 min 48 sec) 
Heartbeat CPU 0 instructions: 84000000 cycles: 294913232 heartbeat IPC: 0.254385 cumulative IPC: 0.256157 (Simulation time: 1 hr 1 min 16 sec) 
Heartbeat CPU 0 instructions: 85000000 cycles: 298760992 heartbeat IPC: 0.259891 cumulative IPC: 0.256206 (Simulation time: 1 hr 1 min 43 sec) 
Heartbeat CPU 0 instructions: 86000000 cycles: 302735991 heartbeat IPC: 0.251572 cumulative IPC: 0.256144 (Simulation time: 1 hr 2 min 11 sec) 
Heartbeat CPU 0 instructions: 87000001 cycles: 306493746 heartbeat IPC: 0.266117 cumulative IPC: 0.256269 (Simulation time: 1 hr 2 min 38 sec) 
Heartbeat CPU 0 instructions: 88000000 cycles: 310324330 heartbeat IPC: 0.261057 cumulative IPC: 0.256329 (Simulation time: 1 hr 3 min 3 sec) 
Heartbeat CPU 0 instructions: 89000003 cycles: 313862263 heartbeat IPC: 0.282652 cumulative IPC: 0.256632 (Simulation time: 1 hr 3 min 26 sec) 
Heartbeat CPU 0 instructions: 90000000 cycles: 317744603 heartbeat IPC: 0.257576 cumulative IPC: 0.256643 (Simulation time: 1 hr 3 min 47 sec) 
Heartbeat CPU 0 instructions: 91000001 cycles: 321304911 heartbeat IPC: 0.280875 cumulative IPC: 0.256917 (Simulation time: 1 hr 4 min 9 sec) 
Heartbeat CPU 0 instructions: 92000000 cycles: 325342630 heartbeat IPC: 0.247664 cumulative IPC: 0.2568 (Simulation time: 1 hr 4 min 30 sec) 
Heartbeat CPU 0 instructions: 93000001 cycles: 329723709 heartbeat IPC: 0.228254 cumulative IPC: 0.256414 (Simulation time: 1 hr 4 min 53 sec) 
Heartbeat CPU 0 instructions: 94000001 cycles: 333505899 heartbeat IPC: 0.264397 cumulative IPC: 0.256506 (Simulation time: 1 hr 5 min 14 sec) 
Heartbeat CPU 0 instructions: 95000000 cycles: 337454462 heartbeat IPC: 0.253256 cumulative IPC: 0.256467 (Simulation time: 1 hr 5 min 35 sec) 
Heartbeat CPU 0 instructions: 96000000 cycles: 341769918 heartbeat IPC: 0.231725 cumulative IPC: 0.256149 (Simulation time: 1 hr 5 min 55 sec) 
Heartbeat CPU 0 instructions: 97000000 cycles: 345392090 heartbeat IPC: 0.276077 cumulative IPC: 0.256362 (Simulation time: 1 hr 6 min 14 sec) 
Heartbeat CPU 0 instructions: 98000000 cycles: 349569244 heartbeat IPC: 0.239397 cumulative IPC: 0.256156 (Simulation time: 1 hr 6 min 33 sec) 
Heartbeat CPU 0 instructions: 99000000 cycles: 353961005 heartbeat IPC: 0.227699 cumulative IPC: 0.255796 (Simulation time: 1 hr 6 min 51 sec) 
Heartbeat CPU 0 instructions: 100000000 cycles: 358049856 heartbeat IPC: 0.244567 cumulative IPC: 0.255666 (Simulation time: 1 hr 7 min 7 sec) 
Heartbeat CPU 0 instructions: 101000000 cycles: 361984065 heartbeat IPC: 0.254181 cumulative IPC: 0.25565 (Simulation time: 1 hr 7 min 20 sec) 
Heartbeat CPU 0 instructions: 102000003 cycles: 366210164 heartbeat IPC: 0.236626 cumulative IPC: 0.255426 (Simulation time: 1 hr 7 min 31 sec) 
Heartbeat CPU 0 instructions: 103000000 cycles: 370068596 heartbeat IPC: 0.259172 cumulative IPC: 0.255466 (Simulation time: 1 hr 7 min 42 sec) 
Heartbeat CPU 0 instructions: 104000000 cycles: 373864665 heartbeat IPC: 0.26343 cumulative IPC: 0.255548 (Simulation time: 1 hr 7 min 51 sec) 
Heartbeat CPU 0 instructions: 105000003 cycles: 377967125 heartbeat IPC: 0.243757 cumulative IPC: 0.255418 (Simulation time: 1 hr 8 min 1 sec) 
Heartbeat CPU 0 instructions: 106000001 cycles: 381586304 heartbeat IPC: 0.276305 cumulative IPC: 0.255619 (Simulation time: 1 hr 8 min 10 sec) 
Heartbeat CPU 0 instructions: 107000000 cycles: 385742105 heartbeat IPC: 0.240627 cumulative IPC: 0.255455 (Simulation time: 1 hr 8 min 20 sec) 
Heartbeat CPU 0 instructions: 108000000 cycles: 389665835 heartbeat IPC: 0.25486 cumulative IPC: 0.255449 (Simulation time: 1 hr 8 min 29 sec) 
Heartbeat CPU 0 instructions: 109000000 cycles: 394048722 heartbeat IPC: 0.22816 cumulative IPC: 0.255141 (Simulation time: 1 hr 8 min 36 sec) 
Heartbeat CPU 0 instructions: 110000000 cycles: 397701980 heartbeat IPC: 0.273728 cumulative IPC: 0.255314 (Simulation time: 1 hr 8 min 43 sec) 
Finished CPU 0 instructions: 100000000 cycles: 391673928 cummulative IPC: 0.255314 (Simulation time: 1 hr 8 min 43 sec) 

ChampSim completed all CPUs

Region of Interest Statistics

CPU 0 cummulative IPC: 0.255314 instructions: 100000000 cycles: 391673928
LLC TOTAL     ACCESS:    4309285  HIT:    1431224  MISS:    2878061
LLC LOAD      ACCESS:    1522956  HIT:     460930  MISS:    1062026
LLC RFO       ACCESS:     250438  HIT:      88843  MISS:     161595
LLC PREFETCH  ACCESS:    1529848  HIT:     195447  MISS:    1334401
LLC WRITEBACK ACCESS:    1006043  HIT:     686004  MISS:     320039
Insertion Distribution: 
	LOAD 218255 206208 736960 
	RFO 78131 58422 41319 
	PREF 0 98792 1382220 
	WRITEBACK 0 0 348789 
Total Prefetch Downgrades: 27043
