
*** ChampSim Multicore Out-of-Order Simulator ***

Warmup Instructions: 10000000
Simulation Instructions: 100000000
Configuration: 2
Number of CPUs: 1
LLC sets: 2048
LLC ways: 16
Off-chip DRAM Channels: 1 Width: 64-bit Data Rate: 1600 MT/s

CPU 0 runs /datasets/cs240c-wi22-a00-public/data/Assignment2-gz/sphinx3_1339B.trace.gz
CPU 0 L1D next line prefetcher
CPU 0 L2C IP-based stride prefetcher
Initialize SRRIP state
Heartbeat CPU 0 instructions: 1000000 cycles: 339022 heartbeat IPC: 2.94966 cumulative IPC: 2.94966 (Simulation time: 0 hr 0 min 27 sec) 
Heartbeat CPU 0 instructions: 2000001 cycles: 693417 heartbeat IPC: 2.82171 cumulative IPC: 2.88427 (Simulation time: 0 hr 0 min 54 sec) 
Heartbeat CPU 0 instructions: 3000000 cycles: 1084463 heartbeat IPC: 2.55724 cumulative IPC: 2.76635 (Simulation time: 0 hr 1 min 22 sec) 
Heartbeat CPU 0 instructions: 4000000 cycles: 1529987 heartbeat IPC: 2.24455 cumulative IPC: 2.6144 (Simulation time: 0 hr 1 min 49 sec) 
Heartbeat CPU 0 instructions: 5000003 cycles: 1869000 heartbeat IPC: 2.94975 cumulative IPC: 2.67523 (Simulation time: 0 hr 2 min 15 sec) 
Heartbeat CPU 0 instructions: 6000002 cycles: 2253242 heartbeat IPC: 2.60252 cumulative IPC: 2.66283 (Simulation time: 0 hr 2 min 43 sec) 
Heartbeat CPU 0 instructions: 7000001 cycles: 2716998 heartbeat IPC: 2.1563 cumulative IPC: 2.57637 (Simulation time: 0 hr 3 min 9 sec) 
Heartbeat CPU 0 instructions: 8000000 cycles: 3055869 heartbeat IPC: 2.95097 cumulative IPC: 2.61791 (Simulation time: 0 hr 3 min 36 sec) 
Heartbeat CPU 0 instructions: 9000003 cycles: 3412462 heartbeat IPC: 2.80433 cumulative IPC: 2.63739 (Simulation time: 0 hr 4 min 1 sec) 
Heartbeat CPU 0 instructions: 10000001 cycles: 3799191 heartbeat IPC: 2.58578 cumulative IPC: 2.63214 (Simulation time: 0 hr 4 min 29 sec) 

Warmup complete CPU 0 instructions: 10000001 cycles: 3799191 (Simulation time: 0 hr 4 min 29 sec) 

Heartbeat CPU 0 instructions: 11000001 cycles: 4699276 heartbeat IPC: 1.11101 cumulative IPC: 1.11101 (Simulation time: 0 hr 4 min 59 sec) 
Heartbeat CPU 0 instructions: 12000000 cycles: 5520696 heartbeat IPC: 1.2174 cumulative IPC: 1.16177 (Simulation time: 0 hr 5 min 30 sec) 
Heartbeat CPU 0 instructions: 13000000 cycles: 6772808 heartbeat IPC: 0.798651 cumulative IPC: 1.00887 (Simulation time: 0 hr 6 min 4 sec) 
Heartbeat CPU 0 instructions: 14000000 cycles: 7634282 heartbeat IPC: 1.1608 cumulative IPC: 1.043 (Simulation time: 0 hr 6 min 33 sec) 
Heartbeat CPU 0 instructions: 15000001 cycles: 8499717 heartbeat IPC: 1.15549 cumulative IPC: 1.06371 (Simulation time: 0 hr 7 min 3 sec) 
Heartbeat CPU 0 instructions: 16000000 cycles: 9524553 heartbeat IPC: 0.975765 cumulative IPC: 1.04797 (Simulation time: 0 hr 7 min 34 sec) 
Heartbeat CPU 0 instructions: 17000001 cycles: 10855616 heartbeat IPC: 0.75128 cumulative IPC: 0.992004 (Simulation time: 0 hr 8 min 5 sec) 
Heartbeat CPU 0 instructions: 18000003 cycles: 11913845 heartbeat IPC: 0.944977 cumulative IPC: 0.985871 (Simulation time: 0 hr 8 min 37 sec) 
Heartbeat CPU 0 instructions: 19000002 cycles: 12768608 heartbeat IPC: 1.16991 cumulative IPC: 1.00341 (Simulation time: 0 hr 9 min 7 sec) 
Heartbeat CPU 0 instructions: 20000000 cycles: 13622685 heartbeat IPC: 1.17085 cumulative IPC: 1.01797 (Simulation time: 0 hr 9 min 39 sec) 
Heartbeat CPU 0 instructions: 21000000 cycles: 14799297 heartbeat IPC: 0.849898 cumulative IPC: 0.99999 (Simulation time: 0 hr 10 min 11 sec) 
Heartbeat CPU 0 instructions: 22000000 cycles: 15775266 heartbeat IPC: 1.02462 cumulative IPC: 1.002 (Simulation time: 0 hr 10 min 40 sec) 
Heartbeat CPU 0 instructions: 23000003 cycles: 16639926 heartbeat IPC: 1.15653 cumulative IPC: 1.0124 (Simulation time: 0 hr 11 min 10 sec) 
Heartbeat CPU 0 instructions: 24000000 cycles: 17568308 heartbeat IPC: 1.07714 cumulative IPC: 1.01677 (Simulation time: 0 hr 11 min 40 sec) 
Heartbeat CPU 0 instructions: 25000001 cycles: 18477332 heartbeat IPC: 1.10008 cumulative IPC: 1.02193 (Simulation time: 0 hr 12 min 10 sec) 
Heartbeat CPU 0 instructions: 26000003 cycles: 19310720 heartbeat IPC: 1.19992 cumulative IPC: 1.03149 (Simulation time: 0 hr 12 min 44 sec) 
Heartbeat CPU 0 instructions: 27000000 cycles: 20137358 heartbeat IPC: 1.20972 cumulative IPC: 1.04051 (Simulation time: 0 hr 13 min 16 sec) 
Heartbeat CPU 0 instructions: 28000000 cycles: 21049796 heartbeat IPC: 1.09596 cumulative IPC: 1.04344 (Simulation time: 0 hr 13 min 48 sec) 
Heartbeat CPU 0 instructions: 29000003 cycles: 21889144 heartbeat IPC: 1.1914 cumulative IPC: 1.05031 (Simulation time: 0 hr 14 min 20 sec) 
Heartbeat CPU 0 instructions: 30000003 cycles: 22699861 heartbeat IPC: 1.23348 cumulative IPC: 1.05816 (Simulation time: 0 hr 14 min 55 sec) 
Heartbeat CPU 0 instructions: 31000002 cycles: 23586837 heartbeat IPC: 1.12743 cumulative IPC: 1.06127 (Simulation time: 0 hr 15 min 30 sec) 
Heartbeat CPU 0 instructions: 32000000 cycles: 24461839 heartbeat IPC: 1.14285 cumulative IPC: 1.06472 (Simulation time: 0 hr 16 min 3 sec) 
Heartbeat CPU 0 instructions: 33000001 cycles: 25278130 heartbeat IPC: 1.22505 cumulative IPC: 1.07082 (Simulation time: 0 hr 16 min 37 sec) 
Heartbeat CPU 0 instructions: 34000001 cycles: 26645150 heartbeat IPC: 0.731518 cumulative IPC: 1.05051 (Simulation time: 0 hr 17 min 12 sec) 
Heartbeat CPU 0 instructions: 35000000 cycles: 27535379 heartbeat IPC: 1.12331 cumulative IPC: 1.05324 (Simulation time: 0 hr 17 min 43 sec) 
Heartbeat CPU 0 instructions: 36000000 cycles: 28408907 heartbeat IPC: 1.14478 cumulative IPC: 1.05649 (Simulation time: 0 hr 18 min 13 sec) 
Heartbeat CPU 0 instructions: 37000003 cycles: 29417044 heartbeat IPC: 0.991932 cumulative IPC: 1.05395 (Simulation time: 0 hr 18 min 45 sec) 
Heartbeat CPU 0 instructions: 38000000 cycles: 30575821 heartbeat IPC: 0.862976 cumulative IPC: 1.04569 (Simulation time: 0 hr 19 min 20 sec) 
Heartbeat CPU 0 instructions: 39000000 cycles: 31407726 heartbeat IPC: 1.20206 cumulative IPC: 1.0504 (Simulation time: 0 hr 19 min 50 sec) 
Heartbeat CPU 0 instructions: 40000000 cycles: 32257727 heartbeat IPC: 1.17647 cumulative IPC: 1.05417 (Simulation time: 0 hr 20 min 21 sec) 
Heartbeat CPU 0 instructions: 41000000 cycles: 33499075 heartbeat IPC: 0.805576 cumulative IPC: 1.04378 (Simulation time: 0 hr 20 min 53 sec) 
Heartbeat CPU 0 instructions: 42000002 cycles: 34336206 heartbeat IPC: 1.19456 cumulative IPC: 1.04791 (Simulation time: 0 hr 21 min 26 sec) 
Heartbeat CPU 0 instructions: 43000001 cycles: 35183675 heartbeat IPC: 1.17998 cumulative IPC: 1.05148 (Simulation time: 0 hr 22 min 4 sec) 
Heartbeat CPU 0 instructions: 44000000 cycles: 36241754 heartbeat IPC: 0.945108 cumulative IPC: 1.04801 (Simulation time: 0 hr 22 min 36 sec) 
Heartbeat CPU 0 instructions: 45000002 cycles: 37233180 heartbeat IPC: 1.00865 cumulative IPC: 1.04684 (Simulation time: 0 hr 23 min 6 sec) 
Heartbeat CPU 0 instructions: 46000003 cycles: 38038120 heartbeat IPC: 1.24233 cumulative IPC: 1.05143 (Simulation time: 0 hr 23 min 37 sec) 
Heartbeat CPU 0 instructions: 47000000 cycles: 38880301 heartbeat IPC: 1.18739 cumulative IPC: 1.0547 (Simulation time: 0 hr 24 min 8 sec) 
Heartbeat CPU 0 instructions: 48000000 cycles: 39854817 heartbeat IPC: 1.02615 cumulative IPC: 1.05393 (Simulation time: 0 hr 24 min 40 sec) 
Heartbeat CPU 0 instructions: 49000000 cycles: 40665593 heartbeat IPC: 1.23339 cumulative IPC: 1.05787 (Simulation time: 0 hr 25 min 13 sec) 
Heartbeat CPU 0 instructions: 50000000 cycles: 41491334 heartbeat IPC: 1.21103 cumulative IPC: 1.06123 (Simulation time: 0 hr 25 min 49 sec) 
Heartbeat CPU 0 instructions: 51000003 cycles: 42688336 heartbeat IPC: 0.835423 cumulative IPC: 1.05428 (Simulation time: 0 hr 26 min 23 sec) 
Heartbeat CPU 0 instructions: 52000000 cycles: 43467133 heartbeat IPC: 1.28403 cumulative IPC: 1.05879 (Simulation time: 0 hr 26 min 53 sec) 
Heartbeat CPU 0 instructions: 53000002 cycles: 44327547 heartbeat IPC: 1.16223 cumulative IPC: 1.06099 (Simulation time: 0 hr 27 min 23 sec) 
Heartbeat CPU 0 instructions: 54000003 cycles: 45489426 heartbeat IPC: 0.860676 cumulative IPC: 1.0554 (Simulation time: 0 hr 27 min 54 sec) 
Heartbeat CPU 0 instructions: 55000001 cycles: 46381131 heartbeat IPC: 1.12144 cumulative IPC: 1.05679 (Simulation time: 0 hr 28 min 24 sec) 
Heartbeat CPU 0 instructions: 56000000 cycles: 47167635 heartbeat IPC: 1.27145 cumulative IPC: 1.06068 (Simulation time: 0 hr 28 min 53 sec) 
Heartbeat CPU 0 instructions: 57000000 cycles: 48143329 heartbeat IPC: 1.02491 cumulative IPC: 1.05989 (Simulation time: 0 hr 29 min 24 sec) 
Heartbeat CPU 0 instructions: 58000000 cycles: 49221000 heartbeat IPC: 0.927927 cumulative IPC: 1.05676 (Simulation time: 0 hr 29 min 55 sec) 
Heartbeat CPU 0 instructions: 59000001 cycles: 50001638 heartbeat IPC: 1.281 cumulative IPC: 1.06055 (Simulation time: 0 hr 30 min 24 sec) 
Heartbeat CPU 0 instructions: 60000000 cycles: 50832028 heartbeat IPC: 1.20425 cumulative IPC: 1.06309 (Simulation time: 0 hr 30 min 54 sec) 
Heartbeat CPU 0 instructions: 61000000 cycles: 52181718 heartbeat IPC: 0.740911 cumulative IPC: 1.0541 (Simulation time: 0 hr 31 min 26 sec) 
Heartbeat CPU 0 instructions: 62000002 cycles: 53324819 heartbeat IPC: 0.874815 cumulative IPC: 1.04996 (Simulation time: 0 hr 31 min 57 sec) 
Heartbeat CPU 0 instructions: 63000001 cycles: 54128363 heartbeat IPC: 1.24449 cumulative IPC: 1.05307 (Simulation time: 0 hr 32 min 27 sec) 
Heartbeat CPU 0 instructions: 64000000 cycles: 54946411 heartbeat IPC: 1.22242 cumulative IPC: 1.05578 (Simulation time: 0 hr 32 min 58 sec) 
Heartbeat CPU 0 instructions: 65000000 cycles: 56029107 heartbeat IPC: 0.92362 cumulative IPC: 1.05304 (Simulation time: 0 hr 33 min 28 sec) 
Heartbeat CPU 0 instructions: 66000001 cycles: 56990587 heartbeat IPC: 1.04006 cumulative IPC: 1.0528 (Simulation time: 0 hr 33 min 58 sec) 
Heartbeat CPU 0 instructions: 67000000 cycles: 57785481 heartbeat IPC: 1.25803 cumulative IPC: 1.05582 (Simulation time: 0 hr 34 min 25 sec) 
Heartbeat CPU 0 instructions: 68000000 cycles: 58686196 heartbeat IPC: 1.11023 cumulative IPC: 1.05672 (Simulation time: 0 hr 34 min 52 sec) 
Heartbeat CPU 0 instructions: 69000003 cycles: 59800352 heartbeat IPC: 0.897543 cumulative IPC: 1.05355 (Simulation time: 0 hr 35 min 22 sec) 
Heartbeat CPU 0 instructions: 70000001 cycles: 60629389 heartbeat IPC: 1.20622 cumulative IPC: 1.05578 (Simulation time: 0 hr 35 min 56 sec) 
Heartbeat CPU 0 instructions: 71000001 cycles: 61460085 heartbeat IPC: 1.20381 cumulative IPC: 1.05791 (Simulation time: 0 hr 36 min 30 sec) 
Heartbeat CPU 0 instructions: 72000000 cycles: 62672280 heartbeat IPC: 0.824949 cumulative IPC: 1.05311 (Simulation time: 0 hr 37 min 6 sec) 
Heartbeat CPU 0 instructions: 73000001 cycles: 63473634 heartbeat IPC: 1.24789 cumulative IPC: 1.05573 (Simulation time: 0 hr 37 min 37 sec) 
Heartbeat CPU 0 instructions: 74000001 cycles: 64309086 heartbeat IPC: 1.19696 cumulative IPC: 1.05768 (Simulation time: 0 hr 38 min 7 sec) 
Heartbeat CPU 0 instructions: 75000003 cycles: 65407307 heartbeat IPC: 0.910565 cumulative IPC: 1.05506 (Simulation time: 0 hr 38 min 40 sec) 
Heartbeat CPU 0 instructions: 76000000 cycles: 66312955 heartbeat IPC: 1.10418 cumulative IPC: 1.05577 (Simulation time: 0 hr 39 min 10 sec) 
Heartbeat CPU 0 instructions: 77000002 cycles: 67116808 heartbeat IPC: 1.24401 cumulative IPC: 1.05816 (Simulation time: 0 hr 39 min 41 sec) 
Heartbeat CPU 0 instructions: 78000002 cycles: 68044465 heartbeat IPC: 1.07798 cumulative IPC: 1.05844 (Simulation time: 0 hr 40 min 10 sec) 
Heartbeat CPU 0 instructions: 79000001 cycles: 69103311 heartbeat IPC: 0.944423 cumulative IPC: 1.05659 (Simulation time: 0 hr 40 min 38 sec) 
Heartbeat CPU 0 instructions: 80000000 cycles: 69933351 heartbeat IPC: 1.20476 cumulative IPC: 1.05845 (Simulation time: 0 hr 41 min 6 sec) 
Heartbeat CPU 0 instructions: 81000001 cycles: 70769839 heartbeat IPC: 1.19548 cumulative IPC: 1.06017 (Simulation time: 0 hr 41 min 32 sec) 
Heartbeat CPU 0 instructions: 82000000 cycles: 71945480 heartbeat IPC: 0.850599 cumulative IPC: 1.05655 (Simulation time: 0 hr 42 min 1 sec) 
Heartbeat CPU 0 instructions: 83000001 cycles: 72755500 heartbeat IPC: 1.23454 cumulative IPC: 1.05864 (Simulation time: 0 hr 42 min 31 sec) 
Heartbeat CPU 0 instructions: 84000000 cycles: 73594614 heartbeat IPC: 1.19173 cumulative IPC: 1.06024 (Simulation time: 0 hr 43 min 0 sec) 
Heartbeat CPU 0 instructions: 85000002 cycles: 74750730 heartbeat IPC: 0.864967 cumulative IPC: 1.05706 (Simulation time: 0 hr 43 min 32 sec) 
Heartbeat CPU 0 instructions: 86000003 cycles: 75602454 heartbeat IPC: 1.17409 cumulative IPC: 1.05845 (Simulation time: 0 hr 44 min 3 sec) 
Heartbeat CPU 0 instructions: 87000001 cycles: 76424197 heartbeat IPC: 1.21692 cumulative IPC: 1.06024 (Simulation time: 0 hr 44 min 32 sec) 
Heartbeat CPU 0 instructions: 88000000 cycles: 77439412 heartbeat IPC: 0.985012 cumulative IPC: 1.0592 (Simulation time: 0 hr 45 min 5 sec) 
Heartbeat CPU 0 instructions: 89000000 cycles: 78434856 heartbeat IPC: 1.00458 cumulative IPC: 1.05848 (Simulation time: 0 hr 45 min 35 sec) 
Heartbeat CPU 0 instructions: 90000003 cycles: 79225885 heartbeat IPC: 1.26418 cumulative IPC: 1.06063 (Simulation time: 0 hr 46 min 8 sec) 
Heartbeat CPU 0 instructions: 91000000 cycles: 80069422 heartbeat IPC: 1.18548 cumulative IPC: 1.06201 (Simulation time: 0 hr 46 min 44 sec) 
Heartbeat CPU 0 instructions: 92000000 cycles: 81252822 heartbeat IPC: 0.845023 cumulative IPC: 1.0587 (Simulation time: 0 hr 47 min 20 sec) 
Heartbeat CPU 0 instructions: 93000001 cycles: 82041554 heartbeat IPC: 1.26786 cumulative IPC: 1.06081 (Simulation time: 0 hr 47 min 52 sec) 
Heartbeat CPU 0 instructions: 94000001 cycles: 82860018 heartbeat IPC: 1.2218 cumulative IPC: 1.06247 (Simulation time: 0 hr 48 min 22 sec) 
Heartbeat CPU 0 instructions: 95000002 cycles: 84082487 heartbeat IPC: 0.818017 cumulative IPC: 1.05875 (Simulation time: 0 hr 48 min 53 sec) 
Heartbeat CPU 0 instructions: 96000000 cycles: 84885587 heartbeat IPC: 1.24517 cumulative IPC: 1.0606 (Simulation time: 0 hr 49 min 20 sec) 
Heartbeat CPU 0 instructions: 97000002 cycles: 85692939 heartbeat IPC: 1.23862 cumulative IPC: 1.06235 (Simulation time: 0 hr 49 min 53 sec) 
Heartbeat CPU 0 instructions: 98000000 cycles: 86790638 heartbeat IPC: 0.910995 cumulative IPC: 1.06035 (Simulation time: 0 hr 50 min 23 sec) 
Heartbeat CPU 0 instructions: 99000003 cycles: 87877877 heartbeat IPC: 0.919764 cumulative IPC: 1.05853 (Simulation time: 0 hr 50 min 53 sec) 
Heartbeat CPU 0 instructions: 100000000 cycles: 88655834 heartbeat IPC: 1.28541 cumulative IPC: 1.06061 (Simulation time: 0 hr 51 min 23 sec) 
Heartbeat CPU 0 instructions: 101000000 cycles: 89494848 heartbeat IPC: 1.19188 cumulative IPC: 1.0619 (Simulation time: 0 hr 51 min 51 sec) 
Heartbeat CPU 0 instructions: 102000001 cycles: 90974712 heartbeat IPC: 0.675738 cumulative IPC: 1.05534 (Simulation time: 0 hr 52 min 22 sec) 
Heartbeat CPU 0 instructions: 103000000 cycles: 92244831 heartbeat IPC: 0.787327 cumulative IPC: 1.05149 (Simulation time: 0 hr 52 min 52 sec) 
Heartbeat CPU 0 instructions: 104000000 cycles: 93179311 heartbeat IPC: 1.07011 cumulative IPC: 1.05169 (Simulation time: 0 hr 53 min 20 sec) 
Heartbeat CPU 0 instructions: 105000003 cycles: 93974770 heartbeat IPC: 1.25714 cumulative IPC: 1.0535 (Simulation time: 0 hr 53 min 47 sec) 
Heartbeat CPU 0 instructions: 106000000 cycles: 94837514 heartbeat IPC: 1.15909 cumulative IPC: 1.0545 (Simulation time: 0 hr 54 min 15 sec) 
Heartbeat CPU 0 instructions: 107000001 cycles: 96315954 heartbeat IPC: 0.676389 cumulative IPC: 1.04846 (Simulation time: 0 hr 54 min 48 sec) 
Heartbeat CPU 0 instructions: 108000000 cycles: 97199300 heartbeat IPC: 1.13206 cumulative IPC: 1.04925 (Simulation time: 0 hr 55 min 16 sec) 
Heartbeat CPU 0 instructions: 109000000 cycles: 98018014 heartbeat IPC: 1.22143 cumulative IPC: 1.05075 (Simulation time: 0 hr 55 min 42 sec) 
Heartbeat CPU 0 instructions: 110000000 cycles: 99136422 heartbeat IPC: 0.894128 cumulative IPC: 1.04891 (Simulation time: 0 hr 56 min 14 sec) 
Finished CPU 0 instructions: 100000000 cycles: 95337233 cummulative IPC: 1.04891 (Simulation time: 0 hr 56 min 14 sec) 

ChampSim completed all CPUs

Region of Interest Statistics

CPU 0 cummulative IPC: 1.04891 instructions: 100000000 cycles: 95337233
LLC TOTAL     ACCESS:    1574034  HIT:     845429  MISS:     728605
LLC LOAD      ACCESS:     202227  HIT:     167692  MISS:      34535
LLC RFO       ACCESS:     111344  HIT:     109132  MISS:       2212
LLC PREFETCH  ACCESS:    1127309  HIT:     437582  MISS:     689727
LLC WRITEBACK ACCESS:     133154  HIT:     131023  MISS:       2131
Insertion Distribution: 
	LOAD 10120 14593 18797 
	RFO 829 4643 293 
	PREF 0 99375 673289 
	WRITEBACK 0 0 2463 
Total Prefetch Downgrades: 8882
