
*** ChampSim Multicore Out-of-Order Simulator ***

Warmup Instructions: 10000000
Simulation Instructions: 100000000
Configuration: 2
Number of CPUs: 1
LLC sets: 2048
LLC ways: 16
Off-chip DRAM Channels: 1 Width: 64-bit Data Rate: 1600 MT/s

CPU 0 runs /datasets/cs240c-wi22-a00-public/data/Assignment2-gz/perlbench_53B.trace.gz
CPU 0 L1D next line prefetcher
CPU 0 L2C IP-based stride prefetcher
Initialize SRRIP state
Heartbeat CPU 0 instructions: 1000000 cycles: 615802 heartbeat IPC: 1.6239 cumulative IPC: 1.6239 (Simulation time: 0 hr 0 min 40 sec) 
Heartbeat CPU 0 instructions: 2000001 cycles: 1252973 heartbeat IPC: 1.56944 cumulative IPC: 1.5962 (Simulation time: 0 hr 1 min 21 sec) 
Heartbeat CPU 0 instructions: 3000002 cycles: 1908459 heartbeat IPC: 1.52559 cumulative IPC: 1.57195 (Simulation time: 0 hr 2 min 0 sec) 
Heartbeat CPU 0 instructions: 4000000 cycles: 2523972 heartbeat IPC: 1.62466 cumulative IPC: 1.5848 (Simulation time: 0 hr 2 min 34 sec) 
Heartbeat CPU 0 instructions: 5000001 cycles: 3151982 heartbeat IPC: 1.59233 cumulative IPC: 1.5863 (Simulation time: 0 hr 3 min 12 sec) 
Heartbeat CPU 0 instructions: 6000001 cycles: 3767489 heartbeat IPC: 1.62468 cumulative IPC: 1.59257 (Simulation time: 0 hr 3 min 50 sec) 
Heartbeat CPU 0 instructions: 7000002 cycles: 4390295 heartbeat IPC: 1.60564 cumulative IPC: 1.59443 (Simulation time: 0 hr 4 min 24 sec) 
Heartbeat CPU 0 instructions: 8000000 cycles: 5000689 heartbeat IPC: 1.63828 cumulative IPC: 1.59978 (Simulation time: 0 hr 5 min 0 sec) 
Heartbeat CPU 0 instructions: 9000000 cycles: 5652425 heartbeat IPC: 1.53436 cumulative IPC: 1.59224 (Simulation time: 0 hr 5 min 37 sec) 
Heartbeat CPU 0 instructions: 10000001 cycles: 6287702 heartbeat IPC: 1.57412 cumulative IPC: 1.59041 (Simulation time: 0 hr 6 min 13 sec) 

Warmup complete CPU 0 instructions: 10000001 cycles: 6287702 (Simulation time: 0 hr 6 min 13 sec) 

Heartbeat CPU 0 instructions: 11000000 cycles: 9157715 heartbeat IPC: 0.34843 cumulative IPC: 0.34843 (Simulation time: 0 hr 6 min 51 sec) 
Heartbeat CPU 0 instructions: 12000000 cycles: 12021357 heartbeat IPC: 0.349206 cumulative IPC: 0.348817 (Simulation time: 0 hr 7 min 35 sec) 
Heartbeat CPU 0 instructions: 13000000 cycles: 14375304 heartbeat IPC: 0.424818 cumulative IPC: 0.370938 (Simulation time: 0 hr 8 min 14 sec) 
Heartbeat CPU 0 instructions: 14000000 cycles: 16887165 heartbeat IPC: 0.398111 cumulative IPC: 0.377378 (Simulation time: 0 hr 8 min 55 sec) 
Heartbeat CPU 0 instructions: 15000001 cycles: 19648476 heartbeat IPC: 0.362147 cumulative IPC: 0.37423 (Simulation time: 0 hr 9 min 37 sec) 
Heartbeat CPU 0 instructions: 16000000 cycles: 22314327 heartbeat IPC: 0.375114 cumulative IPC: 0.374377 (Simulation time: 0 hr 10 min 20 sec) 
Heartbeat CPU 0 instructions: 17000001 cycles: 24989422 heartbeat IPC: 0.373819 cumulative IPC: 0.374297 (Simulation time: 0 hr 11 min 2 sec) 
Heartbeat CPU 0 instructions: 18000002 cycles: 27845864 heartbeat IPC: 0.350086 cumulative IPC: 0.371089 (Simulation time: 0 hr 11 min 48 sec) 
Heartbeat CPU 0 instructions: 19000000 cycles: 30668321 heartbeat IPC: 0.354301 cumulative IPC: 0.369146 (Simulation time: 0 hr 12 min 31 sec) 
Heartbeat CPU 0 instructions: 20000000 cycles: 33524053 heartbeat IPC: 0.350173 cumulative IPC: 0.367156 (Simulation time: 0 hr 13 min 24 sec) 
Heartbeat CPU 0 instructions: 21000000 cycles: 35883487 heartbeat IPC: 0.42383 cumulative IPC: 0.371675 (Simulation time: 0 hr 14 min 10 sec) 
Heartbeat CPU 0 instructions: 22000000 cycles: 37960772 heartbeat IPC: 0.481398 cumulative IPC: 0.378871 (Simulation time: 0 hr 14 min 58 sec) 
Heartbeat CPU 0 instructions: 23000001 cycles: 39890778 heartbeat IPC: 0.518134 cumulative IPC: 0.386869 (Simulation time: 0 hr 15 min 48 sec) 
Heartbeat CPU 0 instructions: 24000000 cycles: 42288777 heartbeat IPC: 0.417014 cumulative IPC: 0.388877 (Simulation time: 0 hr 16 min 41 sec) 
Heartbeat CPU 0 instructions: 25000000 cycles: 44300192 heartbeat IPC: 0.497162 cumulative IPC: 0.394607 (Simulation time: 0 hr 17 min 21 sec) 
Heartbeat CPU 0 instructions: 26000001 cycles: 46285713 heartbeat IPC: 0.503647 cumulative IPC: 0.40002 (Simulation time: 0 hr 18 min 2 sec) 
Heartbeat CPU 0 instructions: 27000002 cycles: 48580196 heartbeat IPC: 0.435828 cumulative IPC: 0.401963 (Simulation time: 0 hr 18 min 45 sec) 
Heartbeat CPU 0 instructions: 28000000 cycles: 51151622 heartbeat IPC: 0.388889 cumulative IPC: 0.401213 (Simulation time: 0 hr 19 min 29 sec) 
Heartbeat CPU 0 instructions: 29000000 cycles: 53470719 heartbeat IPC: 0.431202 cumulative IPC: 0.402687 (Simulation time: 0 hr 20 min 14 sec) 
Heartbeat CPU 0 instructions: 30000000 cycles: 55513079 heartbeat IPC: 0.48963 cumulative IPC: 0.406294 (Simulation time: 0 hr 20 min 57 sec) 
Heartbeat CPU 0 instructions: 31000001 cycles: 57500133 heartbeat IPC: 0.503258 cumulative IPC: 0.410057 (Simulation time: 0 hr 21 min 40 sec) 
Heartbeat CPU 0 instructions: 32000000 cycles: 59497585 heartbeat IPC: 0.500637 cumulative IPC: 0.413457 (Simulation time: 0 hr 22 min 21 sec) 
Heartbeat CPU 0 instructions: 33000003 cycles: 61957533 heartbeat IPC: 0.406514 cumulative IPC: 0.41315 (Simulation time: 0 hr 23 min 1 sec) 
Heartbeat CPU 0 instructions: 34000000 cycles: 64660533 heartbeat IPC: 0.369958 cumulative IPC: 0.41115 (Simulation time: 0 hr 23 min 44 sec) 
Heartbeat CPU 0 instructions: 35000000 cycles: 67213714 heartbeat IPC: 0.391668 cumulative IPC: 0.410334 (Simulation time: 0 hr 24 min 27 sec) 
Heartbeat CPU 0 instructions: 36000000 cycles: 70004660 heartbeat IPC: 0.358301 cumulative IPC: 0.408055 (Simulation time: 0 hr 25 min 12 sec) 
Heartbeat CPU 0 instructions: 37000002 cycles: 72853185 heartbeat IPC: 0.35106 cumulative IPC: 0.405616 (Simulation time: 0 hr 25 min 58 sec) 
Heartbeat CPU 0 instructions: 38000000 cycles: 75722382 heartbeat IPC: 0.348529 cumulative IPC: 0.403257 (Simulation time: 0 hr 26 min 38 sec) 
Heartbeat CPU 0 instructions: 39000001 cycles: 78392992 heartbeat IPC: 0.374447 cumulative IPC: 0.40219 (Simulation time: 0 hr 27 min 20 sec) 
Heartbeat CPU 0 instructions: 40000000 cycles: 80994980 heartbeat IPC: 0.384321 cumulative IPC: 0.401567 (Simulation time: 0 hr 28 min 1 sec) 
Heartbeat CPU 0 instructions: 41000002 cycles: 83871259 heartbeat IPC: 0.347672 cumulative IPC: 0.399569 (Simulation time: 0 hr 28 min 40 sec) 
Heartbeat CPU 0 instructions: 42000000 cycles: 86474521 heartbeat IPC: 0.384133 cumulative IPC: 0.399068 (Simulation time: 0 hr 29 min 21 sec) 
Heartbeat CPU 0 instructions: 43000002 cycles: 89311850 heartbeat IPC: 0.352445 cumulative IPC: 0.397475 (Simulation time: 0 hr 30 min 2 sec) 
Heartbeat CPU 0 instructions: 44000000 cycles: 91975909 heartbeat IPC: 0.375366 cumulative IPC: 0.396787 (Simulation time: 0 hr 30 min 52 sec) 
Heartbeat CPU 0 instructions: 45000001 cycles: 93436829 heartbeat IPC: 0.684501 cumulative IPC: 0.40161 (Simulation time: 0 hr 31 min 28 sec) 
Heartbeat CPU 0 instructions: 46000000 cycles: 95462392 heartbeat IPC: 0.493689 cumulative IPC: 0.403702 (Simulation time: 0 hr 32 min 4 sec) 
Heartbeat CPU 0 instructions: 47000002 cycles: 97377795 heartbeat IPC: 0.522084 cumulative IPC: 0.406191 (Simulation time: 0 hr 32 min 41 sec) 
Heartbeat CPU 0 instructions: 48000000 cycles: 99298010 heartbeat IPC: 0.520774 cumulative IPC: 0.408557 (Simulation time: 0 hr 33 min 17 sec) 
Heartbeat CPU 0 instructions: 49000000 cycles: 101649482 heartbeat IPC: 0.425266 cumulative IPC: 0.408969 (Simulation time: 0 hr 33 min 59 sec) 
Heartbeat CPU 0 instructions: 50000002 cycles: 103512359 heartbeat IPC: 0.536805 cumulative IPC: 0.411418 (Simulation time: 0 hr 34 min 39 sec) 
Heartbeat CPU 0 instructions: 51000000 cycles: 105443166 heartbeat IPC: 0.517917 cumulative IPC: 0.413492 (Simulation time: 0 hr 35 min 18 sec) 
Heartbeat CPU 0 instructions: 52000000 cycles: 107358171 heartbeat IPC: 0.522192 cumulative IPC: 0.415552 (Simulation time: 0 hr 35 min 55 sec) 
Heartbeat CPU 0 instructions: 53000002 cycles: 109309246 heartbeat IPC: 0.512539 cumulative IPC: 0.417388 (Simulation time: 0 hr 36 min 36 sec) 
Heartbeat CPU 0 instructions: 54000000 cycles: 112204265 heartbeat IPC: 0.34542 cumulative IPC: 0.415421 (Simulation time: 0 hr 37 min 18 sec) 
Heartbeat CPU 0 instructions: 55000000 cycles: 114693174 heartbeat IPC: 0.401782 cumulative IPC: 0.415108 (Simulation time: 0 hr 38 min 1 sec) 
Heartbeat CPU 0 instructions: 56000000 cycles: 117495932 heartbeat IPC: 0.356791 cumulative IPC: 0.413638 (Simulation time: 0 hr 38 min 42 sec) 
Heartbeat CPU 0 instructions: 57000001 cycles: 120494035 heartbeat IPC: 0.333545 cumulative IPC: 0.411536 (Simulation time: 0 hr 39 min 28 sec) 
Heartbeat CPU 0 instructions: 58000003 cycles: 123462962 heartbeat IPC: 0.336823 cumulative IPC: 0.409643 (Simulation time: 0 hr 40 min 20 sec) 
Heartbeat CPU 0 instructions: 59000002 cycles: 126278642 heartbeat IPC: 0.355154 cumulative IPC: 0.408364 (Simulation time: 0 hr 41 min 0 sec) 
Heartbeat CPU 0 instructions: 60000000 cycles: 129041326 heartbeat IPC: 0.361966 cumulative IPC: 0.40732 (Simulation time: 0 hr 41 min 42 sec) 
Heartbeat CPU 0 instructions: 61000002 cycles: 131671823 heartbeat IPC: 0.380157 cumulative IPC: 0.40675 (Simulation time: 0 hr 42 min 22 sec) 
Heartbeat CPU 0 instructions: 62000002 cycles: 134354233 heartbeat IPC: 0.372799 cumulative IPC: 0.406039 (Simulation time: 0 hr 43 min 5 sec) 
Heartbeat CPU 0 instructions: 63000001 cycles: 137023057 heartbeat IPC: 0.374696 cumulative IPC: 0.405399 (Simulation time: 0 hr 43 min 50 sec) 
Heartbeat CPU 0 instructions: 64000000 cycles: 139681165 heartbeat IPC: 0.376207 cumulative IPC: 0.404817 (Simulation time: 0 hr 44 min 32 sec) 
Heartbeat CPU 0 instructions: 65000003 cycles: 142319198 heartbeat IPC: 0.379071 cumulative IPC: 0.404318 (Simulation time: 0 hr 45 min 14 sec) 
Heartbeat CPU 0 instructions: 66000001 cycles: 144947824 heartbeat IPC: 0.380426 cumulative IPC: 0.403865 (Simulation time: 0 hr 46 min 4 sec) 
Heartbeat CPU 0 instructions: 67000001 cycles: 147560947 heartbeat IPC: 0.382684 cumulative IPC: 0.403473 (Simulation time: 0 hr 46 min 55 sec) 
Heartbeat CPU 0 instructions: 68000000 cycles: 150229131 heartbeat IPC: 0.374786 cumulative IPC: 0.402942 (Simulation time: 0 hr 47 min 36 sec) 
Heartbeat CPU 0 instructions: 69000001 cycles: 152868022 heartbeat IPC: 0.378947 cumulative IPC: 0.40251 (Simulation time: 0 hr 48 min 16 sec) 
Heartbeat CPU 0 instructions: 70000001 cycles: 155479147 heartbeat IPC: 0.382977 cumulative IPC: 0.402168 (Simulation time: 0 hr 49 min 0 sec) 
Heartbeat CPU 0 instructions: 71000001 cycles: 158196378 heartbeat IPC: 0.368022 cumulative IPC: 0.401557 (Simulation time: 0 hr 49 min 48 sec) 
Heartbeat CPU 0 instructions: 72000000 cycles: 160803107 heartbeat IPC: 0.383622 cumulative IPC: 0.401254 (Simulation time: 0 hr 50 min 32 sec) 
Heartbeat CPU 0 instructions: 73000002 cycles: 163447461 heartbeat IPC: 0.378165 cumulative IPC: 0.400866 (Simulation time: 0 hr 51 min 15 sec) 
Heartbeat CPU 0 instructions: 74000001 cycles: 166127134 heartbeat IPC: 0.373179 cumulative IPC: 0.400402 (Simulation time: 0 hr 51 min 55 sec) 
Heartbeat CPU 0 instructions: 75000001 cycles: 168785666 heartbeat IPC: 0.376147 cumulative IPC: 0.400005 (Simulation time: 0 hr 52 min 32 sec) 
Heartbeat CPU 0 instructions: 76000000 cycles: 171427508 heartbeat IPC: 0.378523 cumulative IPC: 0.399661 (Simulation time: 0 hr 53 min 9 sec) 
Heartbeat CPU 0 instructions: 77000002 cycles: 174099951 heartbeat IPC: 0.37419 cumulative IPC: 0.399256 (Simulation time: 0 hr 53 min 49 sec) 
Heartbeat CPU 0 instructions: 78000000 cycles: 176753571 heartbeat IPC: 0.376843 cumulative IPC: 0.398907 (Simulation time: 0 hr 54 min 30 sec) 
Heartbeat CPU 0 instructions: 79000002 cycles: 179414818 heartbeat IPC: 0.375764 cumulative IPC: 0.398551 (Simulation time: 0 hr 55 min 8 sec) 
Heartbeat CPU 0 instructions: 80000000 cycles: 182049545 heartbeat IPC: 0.379545 cumulative IPC: 0.398266 (Simulation time: 0 hr 55 min 41 sec) 
Heartbeat CPU 0 instructions: 81000000 cycles: 184664015 heartbeat IPC: 0.382487 cumulative IPC: 0.398035 (Simulation time: 0 hr 56 min 16 sec) 
Heartbeat CPU 0 instructions: 82000002 cycles: 187340639 heartbeat IPC: 0.373606 cumulative IPC: 0.397674 (Simulation time: 0 hr 56 min 51 sec) 
Heartbeat CPU 0 instructions: 83000000 cycles: 189986651 heartbeat IPC: 0.377926 cumulative IPC: 0.397389 (Simulation time: 0 hr 57 min 22 sec) 
Heartbeat CPU 0 instructions: 84000000 cycles: 192642424 heartbeat IPC: 0.376538 cumulative IPC: 0.397092 (Simulation time: 0 hr 57 min 51 sec) 
Heartbeat CPU 0 instructions: 85000001 cycles: 195318348 heartbeat IPC: 0.373703 cumulative IPC: 0.396761 (Simulation time: 0 hr 58 min 19 sec) 
Heartbeat CPU 0 instructions: 86000000 cycles: 197813466 heartbeat IPC: 0.400782 cumulative IPC: 0.396813 (Simulation time: 0 hr 58 min 49 sec) 
Heartbeat CPU 0 instructions: 87000000 cycles: 199947544 heartbeat IPC: 0.468586 cumulative IPC: 0.397604 (Simulation time: 0 hr 59 min 15 sec) 
Heartbeat CPU 0 instructions: 88000000 cycles: 201944725 heartbeat IPC: 0.500706 cumulative IPC: 0.398657 (Simulation time: 0 hr 59 min 40 sec) 
Heartbeat CPU 0 instructions: 89000001 cycles: 204021269 heartbeat IPC: 0.48157 cumulative IPC: 0.399528 (Simulation time: 1 hr 0 min 2 sec) 
Heartbeat CPU 0 instructions: 90000000 cycles: 206693941 heartbeat IPC: 0.374157 cumulative IPC: 0.399189 (Simulation time: 1 hr 0 min 30 sec) 
Heartbeat CPU 0 instructions: 91000001 cycles: 209454983 heartbeat IPC: 0.362182 cumulative IPC: 0.398686 (Simulation time: 1 hr 0 min 59 sec) 
Heartbeat CPU 0 instructions: 92000000 cycles: 212137641 heartbeat IPC: 0.372764 cumulative IPC: 0.398348 (Simulation time: 1 hr 1 min 24 sec) 
Heartbeat CPU 0 instructions: 93000000 cycles: 214789707 heartbeat IPC: 0.377065 cumulative IPC: 0.398078 (Simulation time: 1 hr 1 min 48 sec) 
Heartbeat CPU 0 instructions: 94000002 cycles: 217436915 heartbeat IPC: 0.377757 cumulative IPC: 0.397823 (Simulation time: 1 hr 2 min 12 sec) 
Heartbeat CPU 0 instructions: 95000000 cycles: 220056651 heartbeat IPC: 0.381717 cumulative IPC: 0.397626 (Simulation time: 1 hr 2 min 35 sec) 
Heartbeat CPU 0 instructions: 96000000 cycles: 222721190 heartbeat IPC: 0.375299 cumulative IPC: 0.397351 (Simulation time: 1 hr 2 min 57 sec) 
Heartbeat CPU 0 instructions: 97000000 cycles: 225361927 heartbeat IPC: 0.378682 cumulative IPC: 0.397126 (Simulation time: 1 hr 3 min 19 sec) 
Heartbeat CPU 0 instructions: 98000000 cycles: 227984869 heartbeat IPC: 0.381251 cumulative IPC: 0.396938 (Simulation time: 1 hr 3 min 40 sec) 
Heartbeat CPU 0 instructions: 99000002 cycles: 230594291 heartbeat IPC: 0.383227 cumulative IPC: 0.396778 (Simulation time: 1 hr 3 min 59 sec) 
Heartbeat CPU 0 instructions: 100000000 cycles: 233220244 heartbeat IPC: 0.380813 cumulative IPC: 0.396594 (Simulation time: 1 hr 4 min 18 sec) 
Heartbeat CPU 0 instructions: 101000002 cycles: 235875043 heartbeat IPC: 0.376677 cumulative IPC: 0.396363 (Simulation time: 1 hr 4 min 36 sec) 
Heartbeat CPU 0 instructions: 102000000 cycles: 238506267 heartbeat IPC: 0.380051 cumulative IPC: 0.396178 (Simulation time: 1 hr 4 min 54 sec) 
Heartbeat CPU 0 instructions: 103000000 cycles: 241132166 heartbeat IPC: 0.380822 cumulative IPC: 0.396007 (Simulation time: 1 hr 5 min 11 sec) 
Heartbeat CPU 0 instructions: 104000000 cycles: 243793724 heartbeat IPC: 0.37572 cumulative IPC: 0.395779 (Simulation time: 1 hr 5 min 31 sec) 
Heartbeat CPU 0 instructions: 105000003 cycles: 245973186 heartbeat IPC: 0.45883 cumulative IPC: 0.396353 (Simulation time: 1 hr 5 min 47 sec) 
Heartbeat CPU 0 instructions: 106000000 cycles: 247950293 heartbeat IPC: 0.505788 cumulative IPC: 0.397248 (Simulation time: 1 hr 6 min 2 sec) 
Heartbeat CPU 0 instructions: 107000003 cycles: 249925518 heartbeat IPC: 0.506273 cumulative IPC: 0.398132 (Simulation time: 1 hr 6 min 16 sec) 
Heartbeat CPU 0 instructions: 108000000 cycles: 252686013 heartbeat IPC: 0.362253 cumulative IPC: 0.39773 (Simulation time: 1 hr 6 min 32 sec) 
Heartbeat CPU 0 instructions: 109000001 cycles: 255387225 heartbeat IPC: 0.370205 cumulative IPC: 0.397432 (Simulation time: 1 hr 6 min 48 sec) 
Heartbeat CPU 0 instructions: 110000000 cycles: 257908457 heartbeat IPC: 0.396631 cumulative IPC: 0.397424 (Simulation time: 1 hr 7 min 3 sec) 
Finished CPU 0 instructions: 100000000 cycles: 251620756 cummulative IPC: 0.397424 (Simulation time: 1 hr 7 min 3 sec) 

ChampSim completed all CPUs

Region of Interest Statistics

CPU 0 cummulative IPC: 0.397424 instructions: 100000000 cycles: 251620756
LLC TOTAL     ACCESS:     656697  HIT:     613912  MISS:      42785
LLC LOAD      ACCESS:     310900  HIT:     302171  MISS:       8729
LLC RFO       ACCESS:      30805  HIT:      26484  MISS:       4321
LLC PREFETCH  ACCESS:     212710  HIT:     183563  MISS:      29147
LLC WRITEBACK ACCESS:     102282  HIT:     101694  MISS:        588
Insertion Distribution: 
	LOAD 4157 17982 301 
	RFO 976 5084 74 
	PREF 0 27393 14164 
	WRITEBACK 0 0 849 
Total Prefetch Downgrades: 3553
