
*** ChampSim Multicore Out-of-Order Simulator ***

Warmup Instructions: 10000000
Simulation Instructions: 100000000
Configuration: 2
Number of CPUs: 1
LLC sets: 2048
LLC ways: 16
Off-chip DRAM Channels: 1 Width: 64-bit Data Rate: 1600 MT/s

CPU 0 runs /datasets/cs240c-wi22-a00-public/data/Assignment2-gz/astar_313B.trace.gz
CPU 0 L1D next line prefetcher
CPU 0 L2C IP-based stride prefetcher
Initialize SRRIP state
Heartbeat CPU 0 instructions: 1000001 cycles: 675694 heartbeat IPC: 1.47996 cumulative IPC: 1.47996 (Simulation time: 0 hr 0 min 42 sec) 
Heartbeat CPU 0 instructions: 2000003 cycles: 1263114 heartbeat IPC: 1.70236 cumulative IPC: 1.58339 (Simulation time: 0 hr 1 min 18 sec) 
Heartbeat CPU 0 instructions: 3000003 cycles: 1937641 heartbeat IPC: 1.48252 cumulative IPC: 1.54828 (Simulation time: 0 hr 1 min 57 sec) 
Heartbeat CPU 0 instructions: 4000000 cycles: 2611712 heartbeat IPC: 1.48352 cumulative IPC: 1.53156 (Simulation time: 0 hr 2 min 37 sec) 
Heartbeat CPU 0 instructions: 5000002 cycles: 3286331 heartbeat IPC: 1.48232 cumulative IPC: 1.52145 (Simulation time: 0 hr 3 min 15 sec) 
Heartbeat CPU 0 instructions: 6000001 cycles: 3872433 heartbeat IPC: 1.70619 cumulative IPC: 1.54941 (Simulation time: 0 hr 3 min 51 sec) 
Heartbeat CPU 0 instructions: 7000001 cycles: 4440890 heartbeat IPC: 1.75915 cumulative IPC: 1.57626 (Simulation time: 0 hr 4 min 29 sec) 
Heartbeat CPU 0 instructions: 8000000 cycles: 4992632 heartbeat IPC: 1.81244 cumulative IPC: 1.60236 (Simulation time: 0 hr 5 min 7 sec) 
Heartbeat CPU 0 instructions: 9000001 cycles: 5554173 heartbeat IPC: 1.78082 cumulative IPC: 1.6204 (Simulation time: 0 hr 5 min 45 sec) 
Heartbeat CPU 0 instructions: 10000002 cycles: 6229586 heartbeat IPC: 1.48058 cumulative IPC: 1.60524 (Simulation time: 0 hr 6 min 26 sec) 

Warmup complete CPU 0 instructions: 10000002 cycles: 6229586 (Simulation time: 0 hr 6 min 26 sec) 

Heartbeat CPU 0 instructions: 11000000 cycles: 13328230 heartbeat IPC: 0.140872 cumulative IPC: 0.140872 (Simulation time: 0 hr 7 min 11 sec) 
Heartbeat CPU 0 instructions: 12000000 cycles: 20879658 heartbeat IPC: 0.132425 cumulative IPC: 0.136518 (Simulation time: 0 hr 7 min 54 sec) 
Heartbeat CPU 0 instructions: 13000003 cycles: 29611183 heartbeat IPC: 0.114528 cumulative IPC: 0.128306 (Simulation time: 0 hr 8 min 36 sec) 
Heartbeat CPU 0 instructions: 14000002 cycles: 36026841 heartbeat IPC: 0.155869 cumulative IPC: 0.134241 (Simulation time: 0 hr 9 min 15 sec) 
Heartbeat CPU 0 instructions: 15000000 cycles: 42959955 heartbeat IPC: 0.144235 cumulative IPC: 0.136127 (Simulation time: 0 hr 9 min 57 sec) 
Heartbeat CPU 0 instructions: 16000000 cycles: 49759206 heartbeat IPC: 0.147075 cumulative IPC: 0.137837 (Simulation time: 0 hr 10 min 41 sec) 
Heartbeat CPU 0 instructions: 17000001 cycles: 56363335 heartbeat IPC: 0.151421 cumulative IPC: 0.139626 (Simulation time: 0 hr 11 min 25 sec) 
Heartbeat CPU 0 instructions: 18000000 cycles: 65686794 heartbeat IPC: 0.107256 cumulative IPC: 0.134551 (Simulation time: 0 hr 12 min 16 sec) 
Heartbeat CPU 0 instructions: 19000000 cycles: 72225505 heartbeat IPC: 0.152935 cumulative IPC: 0.136372 (Simulation time: 0 hr 12 min 58 sec) 
Heartbeat CPU 0 instructions: 20000000 cycles: 79269583 heartbeat IPC: 0.141963 cumulative IPC: 0.136911 (Simulation time: 0 hr 13 min 41 sec) 
Heartbeat CPU 0 instructions: 21000003 cycles: 88440799 heartbeat IPC: 0.109037 cumulative IPC: 0.133802 (Simulation time: 0 hr 14 min 36 sec) 
Heartbeat CPU 0 instructions: 22000002 cycles: 95334979 heartbeat IPC: 0.14505 cumulative IPC: 0.134672 (Simulation time: 0 hr 15 min 29 sec) 
Heartbeat CPU 0 instructions: 23000002 cycles: 101308462 heartbeat IPC: 0.167407 cumulative IPC: 0.136729 (Simulation time: 0 hr 16 min 18 sec) 
Heartbeat CPU 0 instructions: 24000000 cycles: 108099780 heartbeat IPC: 0.147247 cumulative IPC: 0.13743 (Simulation time: 0 hr 17 min 2 sec) 
Heartbeat CPU 0 instructions: 25000001 cycles: 116607550 heartbeat IPC: 0.11754 cumulative IPC: 0.135897 (Simulation time: 0 hr 17 min 49 sec) 
Heartbeat CPU 0 instructions: 26000002 cycles: 123494576 heartbeat IPC: 0.145201 cumulative IPC: 0.136443 (Simulation time: 0 hr 18 min 29 sec) 
Heartbeat CPU 0 instructions: 27000003 cycles: 133128632 heartbeat IPC: 0.103799 cumulative IPC: 0.133965 (Simulation time: 0 hr 19 min 20 sec) 
Heartbeat CPU 0 instructions: 28000000 cycles: 139371521 heartbeat IPC: 0.160182 cumulative IPC: 0.135194 (Simulation time: 0 hr 20 min 2 sec) 
Heartbeat CPU 0 instructions: 29000001 cycles: 148018623 heartbeat IPC: 0.115646 cumulative IPC: 0.134002 (Simulation time: 0 hr 20 min 52 sec) 
Heartbeat CPU 0 instructions: 30000001 cycles: 154048184 heartbeat IPC: 0.16585 cumulative IPC: 0.135301 (Simulation time: 0 hr 21 min 37 sec) 
Heartbeat CPU 0 instructions: 31000002 cycles: 160437843 heartbeat IPC: 0.156503 cumulative IPC: 0.136179 (Simulation time: 0 hr 22 min 26 sec) 
Heartbeat CPU 0 instructions: 32000000 cycles: 166649867 heartbeat IPC: 0.160978 cumulative IPC: 0.13714 (Simulation time: 0 hr 23 min 6 sec) 
Heartbeat CPU 0 instructions: 33000000 cycles: 172665386 heartbeat IPC: 0.166237 cumulative IPC: 0.138191 (Simulation time: 0 hr 23 min 49 sec) 
Heartbeat CPU 0 instructions: 34000000 cycles: 181705493 heartbeat IPC: 0.110618 cumulative IPC: 0.136771 (Simulation time: 0 hr 24 min 36 sec) 
Heartbeat CPU 0 instructions: 35000000 cycles: 187895780 heartbeat IPC: 0.161543 cumulative IPC: 0.137615 (Simulation time: 0 hr 25 min 17 sec) 
Heartbeat CPU 0 instructions: 36000000 cycles: 194249136 heartbeat IPC: 0.157397 cumulative IPC: 0.138283 (Simulation time: 0 hr 25 min 59 sec) 
Heartbeat CPU 0 instructions: 37000002 cycles: 203058910 heartbeat IPC: 0.113511 cumulative IPC: 0.137175 (Simulation time: 0 hr 26 min 47 sec) 
Heartbeat CPU 0 instructions: 38000000 cycles: 208780357 heartbeat IPC: 0.174781 cumulative IPC: 0.138237 (Simulation time: 0 hr 27 min 27 sec) 
Heartbeat CPU 0 instructions: 39000001 cycles: 217824077 heartbeat IPC: 0.110574 cumulative IPC: 0.137055 (Simulation time: 0 hr 28 min 14 sec) 
Heartbeat CPU 0 instructions: 40000000 cycles: 226797476 heartbeat IPC: 0.11144 cumulative IPC: 0.136013 (Simulation time: 0 hr 28 min 59 sec) 
Heartbeat CPU 0 instructions: 41000001 cycles: 233128830 heartbeat IPC: 0.157944 cumulative IPC: 0.136625 (Simulation time: 0 hr 29 min 39 sec) 
Heartbeat CPU 0 instructions: 42000003 cycles: 240269630 heartbeat IPC: 0.140041 cumulative IPC: 0.136729 (Simulation time: 0 hr 30 min 21 sec) 
Heartbeat CPU 0 instructions: 43000000 cycles: 249826886 heartbeat IPC: 0.104632 cumulative IPC: 0.135469 (Simulation time: 0 hr 31 min 10 sec) 
Heartbeat CPU 0 instructions: 44000000 cycles: 255949051 heartbeat IPC: 0.163341 cumulative IPC: 0.136153 (Simulation time: 0 hr 31 min 47 sec) 
Heartbeat CPU 0 instructions: 45000000 cycles: 262479482 heartbeat IPC: 0.153129 cumulative IPC: 0.136585 (Simulation time: 0 hr 32 min 25 sec) 
Heartbeat CPU 0 instructions: 46000002 cycles: 268898444 heartbeat IPC: 0.155789 cumulative IPC: 0.137055 (Simulation time: 0 hr 33 min 3 sec) 
Heartbeat CPU 0 instructions: 47000000 cycles: 275280927 heartbeat IPC: 0.156679 cumulative IPC: 0.13752 (Simulation time: 0 hr 33 min 46 sec) 
Heartbeat CPU 0 instructions: 48000000 cycles: 283753977 heartbeat IPC: 0.118021 cumulative IPC: 0.136925 (Simulation time: 0 hr 34 min 30 sec) 
Heartbeat CPU 0 instructions: 49000000 cycles: 289492733 heartbeat IPC: 0.174254 cumulative IPC: 0.137681 (Simulation time: 0 hr 35 min 10 sec) 
Heartbeat CPU 0 instructions: 50000000 cycles: 295444679 heartbeat IPC: 0.168012 cumulative IPC: 0.138305 (Simulation time: 0 hr 35 min 52 sec) 
Heartbeat CPU 0 instructions: 51000000 cycles: 302194844 heartbeat IPC: 0.148145 cumulative IPC: 0.13853 (Simulation time: 0 hr 36 min 34 sec) 
Heartbeat CPU 0 instructions: 52000000 cycles: 310719403 heartbeat IPC: 0.117308 cumulative IPC: 0.137936 (Simulation time: 0 hr 37 min 22 sec) 
Heartbeat CPU 0 instructions: 53000000 cycles: 317622934 heartbeat IPC: 0.144853 cumulative IPC: 0.138089 (Simulation time: 0 hr 38 min 1 sec) 
Heartbeat CPU 0 instructions: 54000000 cycles: 325442904 heartbeat IPC: 0.127878 cumulative IPC: 0.137839 (Simulation time: 0 hr 38 min 44 sec) 
Heartbeat CPU 0 instructions: 55000001 cycles: 333664006 heartbeat IPC: 0.121638 cumulative IPC: 0.137432 (Simulation time: 0 hr 39 min 26 sec) 
Heartbeat CPU 0 instructions: 56000000 cycles: 343565625 heartbeat IPC: 0.100993 cumulative IPC: 0.136363 (Simulation time: 0 hr 40 min 14 sec) 
Heartbeat CPU 0 instructions: 57000000 cycles: 349797002 heartbeat IPC: 0.160478 cumulative IPC: 0.1368 (Simulation time: 0 hr 40 min 54 sec) 
Heartbeat CPU 0 instructions: 58000001 cycles: 356386057 heartbeat IPC: 0.151767 cumulative IPC: 0.137082 (Simulation time: 0 hr 41 min 36 sec) 
Heartbeat CPU 0 instructions: 59000003 cycles: 364686807 heartbeat IPC: 0.120471 cumulative IPC: 0.136697 (Simulation time: 0 hr 42 min 20 sec) 
Heartbeat CPU 0 instructions: 60000000 cycles: 372040337 heartbeat IPC: 0.135989 cumulative IPC: 0.136683 (Simulation time: 0 hr 43 min 14 sec) 
Heartbeat CPU 0 instructions: 61000001 cycles: 378588897 heartbeat IPC: 0.152705 cumulative IPC: 0.136964 (Simulation time: 0 hr 43 min 51 sec) 
Heartbeat CPU 0 instructions: 62000001 cycles: 385598917 heartbeat IPC: 0.142653 cumulative IPC: 0.13707 (Simulation time: 0 hr 44 min 34 sec) 
Heartbeat CPU 0 instructions: 63000000 cycles: 392830645 heartbeat IPC: 0.138279 cumulative IPC: 0.137092 (Simulation time: 0 hr 45 min 15 sec) 
Heartbeat CPU 0 instructions: 64000000 cycles: 402114971 heartbeat IPC: 0.107708 cumulative IPC: 0.136403 (Simulation time: 0 hr 46 min 5 sec) 
Heartbeat CPU 0 instructions: 65000000 cycles: 409166850 heartbeat IPC: 0.141806 cumulative IPC: 0.136498 (Simulation time: 0 hr 46 min 59 sec) 
Heartbeat CPU 0 instructions: 66000001 cycles: 415977934 heartbeat IPC: 0.14682 cumulative IPC: 0.136669 (Simulation time: 0 hr 47 min 38 sec) 
Heartbeat CPU 0 instructions: 67000000 cycles: 423345302 heartbeat IPC: 0.135734 cumulative IPC: 0.136653 (Simulation time: 0 hr 48 min 19 sec) 
Heartbeat CPU 0 instructions: 68000000 cycles: 430915745 heartbeat IPC: 0.132093 cumulative IPC: 0.136571 (Simulation time: 0 hr 49 min 2 sec) 
Heartbeat CPU 0 instructions: 69000000 cycles: 442935080 heartbeat IPC: 0.0831993 cumulative IPC: 0.135102 (Simulation time: 0 hr 49 min 56 sec) 
Heartbeat CPU 0 instructions: 70000000 cycles: 449594904 heartbeat IPC: 0.150154 cumulative IPC: 0.135329 (Simulation time: 0 hr 50 min 41 sec) 
Heartbeat CPU 0 instructions: 71000002 cycles: 456727167 heartbeat IPC: 0.140208 cumulative IPC: 0.135406 (Simulation time: 0 hr 51 min 21 sec) 
Heartbeat CPU 0 instructions: 72000000 cycles: 464275407 heartbeat IPC: 0.132481 cumulative IPC: 0.135358 (Simulation time: 0 hr 52 min 4 sec) 
Heartbeat CPU 0 instructions: 73000003 cycles: 471844949 heartbeat IPC: 0.132109 cumulative IPC: 0.135305 (Simulation time: 0 hr 52 min 46 sec) 
Heartbeat CPU 0 instructions: 74000003 cycles: 481086041 heartbeat IPC: 0.108212 cumulative IPC: 0.134778 (Simulation time: 0 hr 53 min 26 sec) 
Heartbeat CPU 0 instructions: 75000000 cycles: 487619147 heartbeat IPC: 0.153066 cumulative IPC: 0.135026 (Simulation time: 0 hr 54 min 6 sec) 
Heartbeat CPU 0 instructions: 76000000 cycles: 493744528 heartbeat IPC: 0.163255 cumulative IPC: 0.13538 (Simulation time: 0 hr 54 min 49 sec) 
Heartbeat CPU 0 instructions: 77000000 cycles: 499956810 heartbeat IPC: 0.160971 cumulative IPC: 0.135702 (Simulation time: 0 hr 55 min 27 sec) 
Heartbeat CPU 0 instructions: 78000001 cycles: 506026989 heartbeat IPC: 0.16474 cumulative IPC: 0.136055 (Simulation time: 0 hr 56 min 2 sec) 
Heartbeat CPU 0 instructions: 79000000 cycles: 514933919 heartbeat IPC: 0.112272 cumulative IPC: 0.135639 (Simulation time: 0 hr 56 min 39 sec) 
Heartbeat CPU 0 instructions: 80000000 cycles: 521099242 heartbeat IPC: 0.162198 cumulative IPC: 0.135957 (Simulation time: 0 hr 57 min 9 sec) 
Heartbeat CPU 0 instructions: 81000001 cycles: 528522649 heartbeat IPC: 0.134709 cumulative IPC: 0.135939 (Simulation time: 0 hr 57 min 37 sec) 
Heartbeat CPU 0 instructions: 82000001 cycles: 535644008 heartbeat IPC: 0.140423 cumulative IPC: 0.135999 (Simulation time: 0 hr 58 min 7 sec) 
Heartbeat CPU 0 instructions: 83000002 cycles: 541522497 heartbeat IPC: 0.170112 cumulative IPC: 0.136374 (Simulation time: 0 hr 58 min 33 sec) 
Heartbeat CPU 0 instructions: 84000000 cycles: 547863261 heartbeat IPC: 0.157709 cumulative IPC: 0.136624 (Simulation time: 0 hr 58 min 58 sec) 
Heartbeat CPU 0 instructions: 85000000 cycles: 554927196 heartbeat IPC: 0.141564 cumulative IPC: 0.136687 (Simulation time: 0 hr 59 min 26 sec) 
Heartbeat CPU 0 instructions: 86000001 cycles: 563001920 heartbeat IPC: 0.123843 cumulative IPC: 0.136501 (Simulation time: 0 hr 59 min 56 sec) 
Heartbeat CPU 0 instructions: 87000000 cycles: 568816099 heartbeat IPC: 0.171993 cumulative IPC: 0.136868 (Simulation time: 1 hr 0 min 22 sec) 
Heartbeat CPU 0 instructions: 88000000 cycles: 575025970 heartbeat IPC: 0.161034 cumulative IPC: 0.137132 (Simulation time: 1 hr 0 min 48 sec) 
Heartbeat CPU 0 instructions: 89000002 cycles: 581192363 heartbeat IPC: 0.16217 cumulative IPC: 0.1374 (Simulation time: 1 hr 1 min 14 sec) 
Heartbeat CPU 0 instructions: 90000002 cycles: 587251804 heartbeat IPC: 0.165032 cumulative IPC: 0.137688 (Simulation time: 1 hr 1 min 38 sec) 
Heartbeat CPU 0 instructions: 91000001 cycles: 596059839 heartbeat IPC: 0.113533 cumulative IPC: 0.137328 (Simulation time: 1 hr 2 min 5 sec) 
Heartbeat CPU 0 instructions: 92000000 cycles: 602706366 heartbeat IPC: 0.150454 cumulative IPC: 0.137474 (Simulation time: 1 hr 2 min 28 sec) 
Heartbeat CPU 0 instructions: 93000003 cycles: 609965437 heartbeat IPC: 0.137759 cumulative IPC: 0.137477 (Simulation time: 1 hr 2 min 51 sec) 
Heartbeat CPU 0 instructions: 94000000 cycles: 617540165 heartbeat IPC: 0.132018 cumulative IPC: 0.13741 (Simulation time: 1 hr 3 min 14 sec) 
Heartbeat CPU 0 instructions: 95000000 cycles: 624089812 heartbeat IPC: 0.15268 cumulative IPC: 0.137572 (Simulation time: 1 hr 3 min 36 sec) 
Heartbeat CPU 0 instructions: 96000000 cycles: 633353380 heartbeat IPC: 0.10795 cumulative IPC: 0.137134 (Simulation time: 1 hr 3 min 59 sec) 
Heartbeat CPU 0 instructions: 97000000 cycles: 640209681 heartbeat IPC: 0.145851 cumulative IPC: 0.137228 (Simulation time: 1 hr 4 min 18 sec) 
Heartbeat CPU 0 instructions: 98000003 cycles: 647962912 heartbeat IPC: 0.128979 cumulative IPC: 0.137129 (Simulation time: 1 hr 4 min 37 sec) 
Heartbeat CPU 0 instructions: 99000001 cycles: 656010253 heartbeat IPC: 0.124264 cumulative IPC: 0.136969 (Simulation time: 1 hr 4 min 55 sec) 
Heartbeat CPU 0 instructions: 100000000 cycles: 663675893 heartbeat IPC: 0.130452 cumulative IPC: 0.136893 (Simulation time: 1 hr 5 min 14 sec) 
Heartbeat CPU 0 instructions: 101000000 cycles: 672746156 heartbeat IPC: 0.11025 cumulative IPC: 0.136531 (Simulation time: 1 hr 5 min 33 sec) 
Heartbeat CPU 0 instructions: 102000001 cycles: 678452550 heartbeat IPC: 0.175242 cumulative IPC: 0.136859 (Simulation time: 1 hr 5 min 49 sec) 
Heartbeat CPU 0 instructions: 103000001 cycles: 684827638 heartbeat IPC: 0.156861 cumulative IPC: 0.137047 (Simulation time: 1 hr 6 min 7 sec) 
Heartbeat CPU 0 instructions: 104000000 cycles: 691195900 heartbeat IPC: 0.157029 cumulative IPC: 0.137233 (Simulation time: 1 hr 6 min 24 sec) 
Heartbeat CPU 0 instructions: 105000000 cycles: 697108786 heartbeat IPC: 0.169122 cumulative IPC: 0.137506 (Simulation time: 1 hr 6 min 41 sec) 
Heartbeat CPU 0 instructions: 106000000 cycles: 706180744 heartbeat IPC: 0.11023 cumulative IPC: 0.137152 (Simulation time: 1 hr 6 min 59 sec) 
Heartbeat CPU 0 instructions: 107000002 cycles: 712977790 heartbeat IPC: 0.147123 cumulative IPC: 0.137248 (Simulation time: 1 hr 7 min 11 sec) 
Heartbeat CPU 0 instructions: 108000000 cycles: 722378109 heartbeat IPC: 0.106379 cumulative IPC: 0.136843 (Simulation time: 1 hr 7 min 24 sec) 
Heartbeat CPU 0 instructions: 109000003 cycles: 729000889 heartbeat IPC: 0.150994 cumulative IPC: 0.136973 (Simulation time: 1 hr 7 min 34 sec) 
Heartbeat CPU 0 instructions: 110000003 cycles: 735313927 heartbeat IPC: 0.158402 cumulative IPC: 0.137158 (Simulation time: 1 hr 7 min 44 sec) 
Finished CPU 0 instructions: 100000001 cycles: 729084341 cummulative IPC: 0.137158 (Simulation time: 1 hr 7 min 44 sec) 

ChampSim completed all CPUs

Region of Interest Statistics

CPU 0 cummulative IPC: 0.137158 instructions: 100000001 cycles: 729084341
LLC TOTAL     ACCESS:    8754610  HIT:    2464807  MISS:    6289803
LLC LOAD      ACCESS:    1890604  HIT:     471772  MISS:    1418832
LLC RFO       ACCESS:    1828638  HIT:     293515  MISS:    1535123
LLC PREFETCH  ACCESS:    2272558  HIT:     231242  MISS:    2041316
LLC WRITEBACK ACCESS:    2762810  HIT:    1468278  MISS:    1294532
Insertion Distribution: 
	LOAD 569046 416460 543751 
	RFO 285215 149875 1370990 
	PREF 0 407732 1849257 
	WRITEBACK 0 0 1551680 
Total Prefetch Downgrades: 124472
