
*** ChampSim Multicore Out-of-Order Simulator ***

Warmup Instructions: 10000000
Simulation Instructions: 100000000
Configuration: 2
Number of CPUs: 1
LLC sets: 2048
LLC ways: 16
Off-chip DRAM Channels: 1 Width: 64-bit Data Rate: 1600 MT/s

CPU 0 runs /datasets/cs240c-wi22-a00-public/data/Assignment2-gz/omnetpp_17B.trace.gz
CPU 0 L1D next line prefetcher
CPU 0 L2C IP-based stride prefetcher
Initialize SRRIP state
Heartbeat CPU 0 instructions: 1000000 cycles: 559549 heartbeat IPC: 1.78715 cumulative IPC: 1.78715 (Simulation time: 0 hr 0 min 32 sec) 
Heartbeat CPU 0 instructions: 2000002 cycles: 1133688 heartbeat IPC: 1.74174 cumulative IPC: 1.76416 (Simulation time: 0 hr 1 min 2 sec) 
Heartbeat CPU 0 instructions: 3000001 cycles: 1768996 heartbeat IPC: 1.57404 cumulative IPC: 1.69588 (Simulation time: 0 hr 1 min 28 sec) 
Heartbeat CPU 0 instructions: 4000000 cycles: 2333939 heartbeat IPC: 1.77009 cumulative IPC: 1.71384 (Simulation time: 0 hr 1 min 57 sec) 
Heartbeat CPU 0 instructions: 5000002 cycles: 2892916 heartbeat IPC: 1.78899 cumulative IPC: 1.72836 (Simulation time: 0 hr 2 min 25 sec) 
Heartbeat CPU 0 instructions: 6000000 cycles: 3471361 heartbeat IPC: 1.72877 cumulative IPC: 1.72843 (Simulation time: 0 hr 2 min 55 sec) 
Heartbeat CPU 0 instructions: 7000000 cycles: 4035637 heartbeat IPC: 1.77218 cumulative IPC: 1.73455 (Simulation time: 0 hr 3 min 24 sec) 
Heartbeat CPU 0 instructions: 8000000 cycles: 4697371 heartbeat IPC: 1.51118 cumulative IPC: 1.70308 (Simulation time: 0 hr 3 min 51 sec) 
Heartbeat CPU 0 instructions: 9000000 cycles: 5359176 heartbeat IPC: 1.51102 cumulative IPC: 1.67936 (Simulation time: 0 hr 4 min 18 sec) 
Heartbeat CPU 0 instructions: 10000001 cycles: 6020745 heartbeat IPC: 1.51156 cumulative IPC: 1.66092 (Simulation time: 0 hr 4 min 46 sec) 

Warmup complete CPU 0 instructions: 10000001 cycles: 6020745 (Simulation time: 0 hr 4 min 46 sec) 

Heartbeat CPU 0 instructions: 11000001 cycles: 7065561 heartbeat IPC: 0.957106 cumulative IPC: 0.957106 (Simulation time: 0 hr 5 min 15 sec) 
Heartbeat CPU 0 instructions: 12000000 cycles: 8110124 heartbeat IPC: 0.957337 cumulative IPC: 0.957222 (Simulation time: 0 hr 5 min 44 sec) 
Heartbeat CPU 0 instructions: 13000000 cycles: 9180036 heartbeat IPC: 0.934656 cumulative IPC: 0.94958 (Simulation time: 0 hr 6 min 12 sec) 
Heartbeat CPU 0 instructions: 14000001 cycles: 10224287 heartbeat IPC: 0.957625 cumulative IPC: 0.951578 (Simulation time: 0 hr 6 min 37 sec) 
Heartbeat CPU 0 instructions: 15000000 cycles: 11268495 heartbeat IPC: 0.957663 cumulative IPC: 0.952789 (Simulation time: 0 hr 7 min 4 sec) 
Heartbeat CPU 0 instructions: 16000000 cycles: 12312662 heartbeat IPC: 0.957701 cumulative IPC: 0.953604 (Simulation time: 0 hr 7 min 29 sec) 
Heartbeat CPU 0 instructions: 17000000 cycles: 13358219 heartbeat IPC: 0.956428 cumulative IPC: 0.954007 (Simulation time: 0 hr 7 min 55 sec) 
Heartbeat CPU 0 instructions: 18000001 cycles: 14399543 heartbeat IPC: 0.960317 cumulative IPC: 0.954791 (Simulation time: 0 hr 8 min 21 sec) 
Heartbeat CPU 0 instructions: 19000002 cycles: 15434353 heartbeat IPC: 0.966362 cumulative IPC: 0.956063 (Simulation time: 0 hr 8 min 47 sec) 
Heartbeat CPU 0 instructions: 20000000 cycles: 18718237 heartbeat IPC: 0.304517 cumulative IPC: 0.787557 (Simulation time: 0 hr 9 min 20 sec) 
Heartbeat CPU 0 instructions: 21000000 cycles: 21160348 heartbeat IPC: 0.409482 cumulative IPC: 0.726571 (Simulation time: 0 hr 9 min 51 sec) 
Heartbeat CPU 0 instructions: 22000002 cycles: 22977343 heartbeat IPC: 0.55036 cumulative IPC: 0.707689 (Simulation time: 0 hr 10 min 20 sec) 
Heartbeat CPU 0 instructions: 23000000 cycles: 26220444 heartbeat IPC: 0.308346 cumulative IPC: 0.643574 (Simulation time: 0 hr 10 min 54 sec) 
Heartbeat CPU 0 instructions: 24000000 cycles: 29433876 heartbeat IPC: 0.311194 cumulative IPC: 0.597955 (Simulation time: 0 hr 11 min 28 sec) 
Heartbeat CPU 0 instructions: 25000001 cycles: 32010634 heartbeat IPC: 0.388085 cumulative IPC: 0.577148 (Simulation time: 0 hr 11 min 55 sec) 
Heartbeat CPU 0 instructions: 26000001 cycles: 33667266 heartbeat IPC: 0.603634 cumulative IPC: 0.578735 (Simulation time: 0 hr 12 min 23 sec) 
Heartbeat CPU 0 instructions: 27000000 cycles: 36871763 heartbeat IPC: 0.312061 cumulative IPC: 0.551035 (Simulation time: 0 hr 12 min 59 sec) 
Heartbeat CPU 0 instructions: 28000000 cycles: 40080957 heartbeat IPC: 0.311605 cumulative IPC: 0.528476 (Simulation time: 0 hr 13 min 30 sec) 
Heartbeat CPU 0 instructions: 29000000 cycles: 42820650 heartbeat IPC: 0.365004 cumulative IPC: 0.516306 (Simulation time: 0 hr 14 min 1 sec) 
Heartbeat CPU 0 instructions: 30000000 cycles: 44311143 heartbeat IPC: 0.670919 cumulative IPC: 0.522324 (Simulation time: 0 hr 14 min 34 sec) 
Heartbeat CPU 0 instructions: 31000000 cycles: 47497127 heartbeat IPC: 0.313875 cumulative IPC: 0.506312 (Simulation time: 0 hr 15 min 12 sec) 
Heartbeat CPU 0 instructions: 32000000 cycles: 50690683 heartbeat IPC: 0.313131 cumulative IPC: 0.492501 (Simulation time: 0 hr 15 min 55 sec) 
Heartbeat CPU 0 instructions: 33000001 cycles: 53616506 heartbeat IPC: 0.341785 cumulative IPC: 0.483236 (Simulation time: 0 hr 16 min 32 sec) 
Heartbeat CPU 0 instructions: 34000000 cycles: 54913652 heartbeat IPC: 0.770922 cumulative IPC: 0.490869 (Simulation time: 0 hr 17 min 0 sec) 
Heartbeat CPU 0 instructions: 35000003 cycles: 58097281 heartbeat IPC: 0.314108 cumulative IPC: 0.480063 (Simulation time: 0 hr 17 min 34 sec) 
Heartbeat CPU 0 instructions: 36000000 cycles: 61330383 heartbeat IPC: 0.3093 cumulative IPC: 0.470081 (Simulation time: 0 hr 18 min 6 sec) 
Heartbeat CPU 0 instructions: 37000001 cycles: 64153529 heartbeat IPC: 0.354215 cumulative IPC: 0.464454 (Simulation time: 0 hr 18 min 37 sec) 
Heartbeat CPU 0 instructions: 38000000 cycles: 65562876 heartbeat IPC: 0.709548 cumulative IPC: 0.470255 (Simulation time: 0 hr 19 min 5 sec) 
Heartbeat CPU 0 instructions: 39000000 cycles: 68756272 heartbeat IPC: 0.313146 cumulative IPC: 0.462258 (Simulation time: 0 hr 19 min 38 sec) 
Heartbeat CPU 0 instructions: 40000000 cycles: 71952768 heartbeat IPC: 0.312843 cumulative IPC: 0.455014 (Simulation time: 0 hr 20 min 10 sec) 
Heartbeat CPU 0 instructions: 41000002 cycles: 74671285 heartbeat IPC: 0.367848 cumulative IPC: 0.451562 (Simulation time: 0 hr 20 min 39 sec) 
Heartbeat CPU 0 instructions: 42000000 cycles: 76179100 heartbeat IPC: 0.66321 cumulative IPC: 0.456111 (Simulation time: 0 hr 21 min 7 sec) 
Heartbeat CPU 0 instructions: 43000003 cycles: 81432820 heartbeat IPC: 0.190342 cumulative IPC: 0.437596 (Simulation time: 0 hr 21 min 57 sec) 
Heartbeat CPU 0 instructions: 44000000 cycles: 82479369 heartbeat IPC: 0.955519 cumulative IPC: 0.444685 (Simulation time: 0 hr 22 min 23 sec) 
Heartbeat CPU 0 instructions: 45000003 cycles: 83522149 heartbeat IPC: 0.958978 cumulative IPC: 0.451605 (Simulation time: 0 hr 22 min 50 sec) 
Heartbeat CPU 0 instructions: 46000001 cycles: 84565216 heartbeat IPC: 0.958709 cumulative IPC: 0.458339 (Simulation time: 0 hr 23 min 17 sec) 
Heartbeat CPU 0 instructions: 47000001 cycles: 85609751 heartbeat IPC: 0.957364 cumulative IPC: 0.464888 (Simulation time: 0 hr 23 min 45 sec) 
Heartbeat CPU 0 instructions: 48000000 cycles: 86652929 heartbeat IPC: 0.958608 cumulative IPC: 0.471276 (Simulation time: 0 hr 24 min 9 sec) 
Heartbeat CPU 0 instructions: 49000000 cycles: 87694735 heartbeat IPC: 0.959872 cumulative IPC: 0.477508 (Simulation time: 0 hr 24 min 34 sec) 
Heartbeat CPU 0 instructions: 50000000 cycles: 88737523 heartbeat IPC: 0.958968 cumulative IPC: 0.483578 (Simulation time: 0 hr 24 min 56 sec) 
Heartbeat CPU 0 instructions: 51000002 cycles: 89780411 heartbeat IPC: 0.958878 cumulative IPC: 0.489496 (Simulation time: 0 hr 25 min 24 sec) 
Heartbeat CPU 0 instructions: 52000000 cycles: 90824650 heartbeat IPC: 0.957633 cumulative IPC: 0.49526 (Simulation time: 0 hr 25 min 48 sec) 
Heartbeat CPU 0 instructions: 53000001 cycles: 91867122 heartbeat IPC: 0.959259 cumulative IPC: 0.500895 (Simulation time: 0 hr 26 min 13 sec) 
Heartbeat CPU 0 instructions: 54000002 cycles: 92935227 heartbeat IPC: 0.936238 cumulative IPC: 0.506245 (Simulation time: 0 hr 26 min 38 sec) 
Heartbeat CPU 0 instructions: 55000003 cycles: 93975317 heartbeat IPC: 0.961456 cumulative IPC: 0.511628 (Simulation time: 0 hr 27 min 2 sec) 
Heartbeat CPU 0 instructions: 56000000 cycles: 96177556 heartbeat IPC: 0.454082 cumulative IPC: 0.510222 (Simulation time: 0 hr 27 min 32 sec) 
Heartbeat CPU 0 instructions: 57000003 cycles: 98186707 heartbeat IPC: 0.497724 cumulative IPC: 0.50995 (Simulation time: 0 hr 28 min 2 sec) 
Heartbeat CPU 0 instructions: 58000000 cycles: 101394404 heartbeat IPC: 0.311749 cumulative IPC: 0.503284 (Simulation time: 0 hr 28 min 33 sec) 
Heartbeat CPU 0 instructions: 59000003 cycles: 104602114 heartbeat IPC: 0.31175 cumulative IPC: 0.497051 (Simulation time: 0 hr 29 min 5 sec) 
Heartbeat CPU 0 instructions: 60000000 cycles: 106962409 heartbeat IPC: 0.423675 cumulative IPC: 0.495336 (Simulation time: 0 hr 29 min 33 sec) 
Heartbeat CPU 0 instructions: 61000001 cycles: 108824543 heartbeat IPC: 0.537019 cumulative IPC: 0.496091 (Simulation time: 0 hr 29 min 59 sec) 
Heartbeat CPU 0 instructions: 62000001 cycles: 112017495 heartbeat IPC: 0.31319 cumulative IPC: 0.490581 (Simulation time: 0 hr 30 min 29 sec) 
Heartbeat CPU 0 instructions: 63000000 cycles: 115219387 heartbeat IPC: 0.312315 cumulative IPC: 0.485354 (Simulation time: 0 hr 31 min 2 sec) 
Heartbeat CPU 0 instructions: 64000000 cycles: 117743363 heartbeat IPC: 0.3962 cumulative IPC: 0.48334 (Simulation time: 0 hr 31 min 32 sec) 
Heartbeat CPU 0 instructions: 65000000 cycles: 119440464 heartbeat IPC: 0.58924 cumulative IPC: 0.484924 (Simulation time: 0 hr 32 min 0 sec) 
Heartbeat CPU 0 instructions: 66000000 cycles: 122638877 heartbeat IPC: 0.312655 cumulative IPC: 0.4802 (Simulation time: 0 hr 32 min 31 sec) 
Heartbeat CPU 0 instructions: 67000001 cycles: 125844055 heartbeat IPC: 0.311995 cumulative IPC: 0.4757 (Simulation time: 0 hr 33 min 4 sec) 
Heartbeat CPU 0 instructions: 68000000 cycles: 128547019 heartbeat IPC: 0.369964 cumulative IPC: 0.473368 (Simulation time: 0 hr 33 min 33 sec) 
Heartbeat CPU 0 instructions: 69000001 cycles: 130071725 heartbeat IPC: 0.655865 cumulative IPC: 0.475611 (Simulation time: 0 hr 34 min 1 sec) 
Heartbeat CPU 0 instructions: 70000001 cycles: 133255383 heartbeat IPC: 0.314104 cumulative IPC: 0.47157 (Simulation time: 0 hr 34 min 33 sec) 
Heartbeat CPU 0 instructions: 71000001 cycles: 136454786 heartbeat IPC: 0.312558 cumulative IPC: 0.467669 (Simulation time: 0 hr 35 min 7 sec) 
Heartbeat CPU 0 instructions: 72000000 cycles: 139174807 heartbeat IPC: 0.367644 cumulative IPC: 0.465626 (Simulation time: 0 hr 35 min 39 sec) 
Heartbeat CPU 0 instructions: 73000000 cycles: 140704950 heartbeat IPC: 0.653534 cumulative IPC: 0.467761 (Simulation time: 0 hr 36 min 4 sec) 
Heartbeat CPU 0 instructions: 74000003 cycles: 143910770 heartbeat IPC: 0.311934 cumulative IPC: 0.464138 (Simulation time: 0 hr 36 min 37 sec) 
Heartbeat CPU 0 instructions: 75000001 cycles: 147123188 heartbeat IPC: 0.311291 cumulative IPC: 0.460658 (Simulation time: 0 hr 37 min 10 sec) 
Heartbeat CPU 0 instructions: 76000000 cycles: 149731070 heartbeat IPC: 0.383453 cumulative IPC: 0.459257 (Simulation time: 0 hr 37 min 42 sec) 
Heartbeat CPU 0 instructions: 77000001 cycles: 151355606 heartbeat IPC: 0.615561 cumulative IPC: 0.461004 (Simulation time: 0 hr 38 min 9 sec) 
Heartbeat CPU 0 instructions: 78000000 cycles: 154549758 heartbeat IPC: 0.313072 cumulative IPC: 0.457823 (Simulation time: 0 hr 38 min 40 sec) 
Heartbeat CPU 0 instructions: 79000000 cycles: 157912931 heartbeat IPC: 0.297338 cumulative IPC: 0.45427 (Simulation time: 0 hr 39 min 13 sec) 
Heartbeat CPU 0 instructions: 80000000 cycles: 159733711 heartbeat IPC: 0.549215 cumulative IPC: 0.455394 (Simulation time: 0 hr 39 min 42 sec) 
Heartbeat CPU 0 instructions: 81000001 cycles: 162139996 heartbeat IPC: 0.415579 cumulative IPC: 0.454781 (Simulation time: 0 hr 40 min 14 sec) 
Heartbeat CPU 0 instructions: 82000000 cycles: 165349092 heartbeat IPC: 0.311614 cumulative IPC: 0.451897 (Simulation time: 0 hr 40 min 45 sec) 
Heartbeat CPU 0 instructions: 83000000 cycles: 168555445 heartbeat IPC: 0.311881 cumulative IPC: 0.449135 (Simulation time: 0 hr 41 min 18 sec) 
Heartbeat CPU 0 instructions: 84000000 cycles: 170344503 heartbeat IPC: 0.558953 cumulative IPC: 0.45033 (Simulation time: 0 hr 41 min 47 sec) 
Heartbeat CPU 0 instructions: 85000003 cycles: 172778959 heartbeat IPC: 0.410771 cumulative IPC: 0.449753 (Simulation time: 0 hr 42 min 17 sec) 
Heartbeat CPU 0 instructions: 86000001 cycles: 175988084 heartbeat IPC: 0.311611 cumulative IPC: 0.447145 (Simulation time: 0 hr 42 min 51 sec) 
Heartbeat CPU 0 instructions: 87000000 cycles: 179191977 heartbeat IPC: 0.31212 cumulative IPC: 0.444647 (Simulation time: 0 hr 43 min 22 sec) 
Heartbeat CPU 0 instructions: 88000000 cycles: 180836989 heartbeat IPC: 0.607898 cumulative IPC: 0.446183 (Simulation time: 0 hr 43 min 48 sec) 
Heartbeat CPU 0 instructions: 89000000 cycles: 185471119 heartbeat IPC: 0.21579 cumulative IPC: 0.440233 (Simulation time: 0 hr 44 min 24 sec) 
Heartbeat CPU 0 instructions: 90000002 cycles: 186514453 heartbeat IPC: 0.958468 cumulative IPC: 0.443229 (Simulation time: 0 hr 44 min 53 sec) 
Heartbeat CPU 0 instructions: 91000001 cycles: 187558661 heartbeat IPC: 0.957663 cumulative IPC: 0.446188 (Simulation time: 0 hr 45 min 25 sec) 
Heartbeat CPU 0 instructions: 92000000 cycles: 188602232 heartbeat IPC: 0.958247 cumulative IPC: 0.449115 (Simulation time: 0 hr 45 min 55 sec) 
Heartbeat CPU 0 instructions: 93000002 cycles: 189646497 heartbeat IPC: 0.957613 cumulative IPC: 0.452006 (Simulation time: 0 hr 46 min 27 sec) 
Heartbeat CPU 0 instructions: 94000001 cycles: 190690325 heartbeat IPC: 0.958011 cumulative IPC: 0.454866 (Simulation time: 0 hr 46 min 52 sec) 
Heartbeat CPU 0 instructions: 95000000 cycles: 191734589 heartbeat IPC: 0.957611 cumulative IPC: 0.457693 (Simulation time: 0 hr 47 min 18 sec) 
Heartbeat CPU 0 instructions: 96000000 cycles: 192779384 heartbeat IPC: 0.957126 cumulative IPC: 0.460487 (Simulation time: 0 hr 47 min 42 sec) 
Heartbeat CPU 0 instructions: 97000002 cycles: 193850236 heartbeat IPC: 0.933838 cumulative IPC: 0.463186 (Simulation time: 0 hr 48 min 8 sec) 
Heartbeat CPU 0 instructions: 98000000 cycles: 194895864 heartbeat IPC: 0.956361 cumulative IPC: 0.465916 (Simulation time: 0 hr 48 min 37 sec) 
Heartbeat CPU 0 instructions: 99000003 cycles: 195934181 heartbeat IPC: 0.9631 cumulative IPC: 0.468635 (Simulation time: 0 hr 49 min 8 sec) 
Heartbeat CPU 0 instructions: 100000000 cycles: 196970635 heartbeat IPC: 0.964825 cumulative IPC: 0.471328 (Simulation time: 0 hr 49 min 38 sec) 
Heartbeat CPU 0 instructions: 101000001 cycles: 198011540 heartbeat IPC: 0.960703 cumulative IPC: 0.473981 (Simulation time: 0 hr 50 min 6 sec) 
Heartbeat CPU 0 instructions: 102000001 cycles: 201158436 heartbeat IPC: 0.317773 cumulative IPC: 0.471462 (Simulation time: 0 hr 50 min 38 sec) 
Heartbeat CPU 0 instructions: 103000001 cycles: 202543052 heartbeat IPC: 0.722222 cumulative IPC: 0.473229 (Simulation time: 0 hr 51 min 5 sec) 
Heartbeat CPU 0 instructions: 104000000 cycles: 205439076 heartbeat IPC: 0.345301 cumulative IPC: 0.471371 (Simulation time: 0 hr 51 min 35 sec) 
Heartbeat CPU 0 instructions: 105000000 cycles: 208638424 heartbeat IPC: 0.312564 cumulative IPC: 0.468863 (Simulation time: 0 hr 52 min 6 sec) 
Heartbeat CPU 0 instructions: 106000000 cycles: 211789486 heartbeat IPC: 0.317353 cumulative IPC: 0.466543 (Simulation time: 0 hr 52 min 36 sec) 
Heartbeat CPU 0 instructions: 107000001 cycles: 213326456 heartbeat IPC: 0.650631 cumulative IPC: 0.467908 (Simulation time: 0 hr 53 min 4 sec) 
Heartbeat CPU 0 instructions: 108000000 cycles: 216068704 heartbeat IPC: 0.364664 cumulative IPC: 0.46656 (Simulation time: 0 hr 53 min 33 sec) 
Heartbeat CPU 0 instructions: 109000000 cycles: 219271620 heartbeat IPC: 0.312216 cumulative IPC: 0.464242 (Simulation time: 0 hr 54 min 2 sec) 
Heartbeat CPU 0 instructions: 110000000 cycles: 222460468 heartbeat IPC: 0.313593 cumulative IPC: 0.462022 (Simulation time: 0 hr 54 min 34 sec) 
Finished CPU 0 instructions: 100000003 cycles: 216439728 cummulative IPC: 0.462022 (Simulation time: 0 hr 54 min 34 sec) 

ChampSim completed all CPUs

Region of Interest Statistics

CPU 0 cummulative IPC: 0.462022 instructions: 100000003 cycles: 216439728
LLC TOTAL     ACCESS:    3282801  HIT:    1545610  MISS:    1737191
LLC LOAD      ACCESS:    1561273  HIT:    1354710  MISS:     206563
LLC RFO       ACCESS:       5220  HIT:       2618  MISS:       2602
LLC PREFETCH  ACCESS:    1699460  HIT:     179568  MISS:    1519892
LLC WRITEBACK ACCESS:      16848  HIT:       8714  MISS:       8134
Insertion Distribution: 
	LOAD 11917 47616 228919 
	RFO 0 854 2089 
	PREF 0 43637 1635185 
	WRITEBACK 0 0 8347 
Total Prefetch Downgrades: 917
