
*** ChampSim Multicore Out-of-Order Simulator ***

Warmup Instructions: 10000000
Simulation Instructions: 100000000
Configuration: 2
Number of CPUs: 1
LLC sets: 2048
LLC ways: 16
Off-chip DRAM Channels: 1 Width: 64-bit Data Rate: 1600 MT/s

CPU 0 runs /datasets/cs240c-wi22-a00-public/data/Assignment2-gz/GemsFDTD_109B.trace.gz
CPU 0 L1D next line prefetcher
CPU 0 L2C IP-based stride prefetcher
Initialize SRRIP state
Heartbeat CPU 0 instructions: 1000002 cycles: 579772 heartbeat IPC: 1.72482 cumulative IPC: 1.72482 (Simulation time: 0 hr 0 min 45 sec) 
Heartbeat CPU 0 instructions: 2000001 cycles: 1159543 heartbeat IPC: 1.72482 cumulative IPC: 1.72482 (Simulation time: 0 hr 1 min 22 sec) 
Heartbeat CPU 0 instructions: 3000000 cycles: 1738739 heartbeat IPC: 1.72653 cumulative IPC: 1.72539 (Simulation time: 0 hr 2 min 0 sec) 
Heartbeat CPU 0 instructions: 4000000 cycles: 2317733 heartbeat IPC: 1.72713 cumulative IPC: 1.72582 (Simulation time: 0 hr 2 min 40 sec) 
Heartbeat CPU 0 instructions: 5000000 cycles: 2897548 heartbeat IPC: 1.72469 cumulative IPC: 1.7256 (Simulation time: 0 hr 3 min 20 sec) 
Heartbeat CPU 0 instructions: 6000002 cycles: 3478271 heartbeat IPC: 1.72199 cumulative IPC: 1.725 (Simulation time: 0 hr 3 min 59 sec) 
Heartbeat CPU 0 instructions: 7000001 cycles: 4058948 heartbeat IPC: 1.72213 cumulative IPC: 1.72459 (Simulation time: 0 hr 4 min 38 sec) 
Heartbeat CPU 0 instructions: 8000000 cycles: 4639139 heartbeat IPC: 1.72357 cumulative IPC: 1.72446 (Simulation time: 0 hr 5 min 17 sec) 
Heartbeat CPU 0 instructions: 9000002 cycles: 5219301 heartbeat IPC: 1.72366 cumulative IPC: 1.72437 (Simulation time: 0 hr 5 min 54 sec) 
Heartbeat CPU 0 instructions: 10000001 cycles: 5799502 heartbeat IPC: 1.72354 cumulative IPC: 1.72429 (Simulation time: 0 hr 6 min 32 sec) 

Warmup complete CPU 0 instructions: 10000001 cycles: 5799502 (Simulation time: 0 hr 6 min 32 sec) 

Heartbeat CPU 0 instructions: 11000002 cycles: 6845829 heartbeat IPC: 0.955725 cumulative IPC: 0.955725 (Simulation time: 0 hr 7 min 13 sec) 
Heartbeat CPU 0 instructions: 12000000 cycles: 7891448 heartbeat IPC: 0.956369 cumulative IPC: 0.956047 (Simulation time: 0 hr 7 min 53 sec) 
Heartbeat CPU 0 instructions: 13000001 cycles: 8977675 heartbeat IPC: 0.920619 cumulative IPC: 0.943939 (Simulation time: 0 hr 8 min 35 sec) 
Heartbeat CPU 0 instructions: 14000002 cycles: 10043134 heartbeat IPC: 0.938564 cumulative IPC: 0.942589 (Simulation time: 0 hr 9 min 15 sec) 
Heartbeat CPU 0 instructions: 15000000 cycles: 11114442 heartbeat IPC: 0.933437 cumulative IPC: 0.940744 (Simulation time: 0 hr 9 min 57 sec) 
Heartbeat CPU 0 instructions: 16000000 cycles: 12182999 heartbeat IPC: 0.935842 cumulative IPC: 0.939924 (Simulation time: 0 hr 10 min 38 sec) 
Heartbeat CPU 0 instructions: 17000000 cycles: 13271972 heartbeat IPC: 0.918296 cumulative IPC: 0.936772 (Simulation time: 0 hr 11 min 20 sec) 
Heartbeat CPU 0 instructions: 18000003 cycles: 14328529 heartbeat IPC: 0.946473 cumulative IPC: 0.937974 (Simulation time: 0 hr 12 min 1 sec) 
Heartbeat CPU 0 instructions: 19000001 cycles: 15402614 heartbeat IPC: 0.931023 cumulative IPC: 0.937196 (Simulation time: 0 hr 12 min 48 sec) 
Heartbeat CPU 0 instructions: 20000000 cycles: 16664295 heartbeat IPC: 0.792593 cumulative IPC: 0.920404 (Simulation time: 0 hr 13 min 25 sec) 
Heartbeat CPU 0 instructions: 21000001 cycles: 17939735 heartbeat IPC: 0.784044 cumulative IPC: 0.906078 (Simulation time: 0 hr 14 min 4 sec) 
Heartbeat CPU 0 instructions: 22000001 cycles: 21334399 heartbeat IPC: 0.29458 cumulative IPC: 0.772454 (Simulation time: 0 hr 14 min 53 sec) 
Heartbeat CPU 0 instructions: 23000001 cycles: 22599019 heartbeat IPC: 0.790751 cumulative IPC: 0.773832 (Simulation time: 0 hr 15 min 43 sec) 
Heartbeat CPU 0 instructions: 24000000 cycles: 26197033 heartbeat IPC: 0.277931 cumulative IPC: 0.686358 (Simulation time: 0 hr 16 min 36 sec) 
Heartbeat CPU 0 instructions: 25000003 cycles: 27442559 heartbeat IPC: 0.802876 cumulative IPC: 0.693063 (Simulation time: 0 hr 17 min 17 sec) 
Heartbeat CPU 0 instructions: 26000000 cycles: 31066033 heartbeat IPC: 0.275977 cumulative IPC: 0.633249 (Simulation time: 0 hr 17 min 59 sec) 
Heartbeat CPU 0 instructions: 27000000 cycles: 32280574 heartbeat IPC: 0.823356 cumulative IPC: 0.641968 (Simulation time: 0 hr 18 min 37 sec) 
Heartbeat CPU 0 instructions: 28000000 cycles: 35749033 heartbeat IPC: 0.288312 cumulative IPC: 0.601011 (Simulation time: 0 hr 19 min 19 sec) 
Heartbeat CPU 0 instructions: 29000000 cycles: 36968067 heartbeat IPC: 0.820322 cumulative IPC: 0.609589 (Simulation time: 0 hr 19 min 58 sec) 
Heartbeat CPU 0 instructions: 30000003 cycles: 38306523 heartbeat IPC: 0.747132 cumulative IPC: 0.615252 (Simulation time: 0 hr 20 min 32 sec) 
Heartbeat CPU 0 instructions: 31000002 cycles: 39472810 heartbeat IPC: 0.857421 cumulative IPC: 0.623639 (Simulation time: 0 hr 21 min 11 sec) 
Heartbeat CPU 0 instructions: 32000000 cycles: 40780303 heartbeat IPC: 0.764821 cumulative IPC: 0.628916 (Simulation time: 0 hr 21 min 53 sec) 
Heartbeat CPU 0 instructions: 33000003 cycles: 41944744 heartbeat IPC: 0.858784 cumulative IPC: 0.636322 (Simulation time: 0 hr 22 min 35 sec) 
Heartbeat CPU 0 instructions: 34000002 cycles: 43248757 heartbeat IPC: 0.766863 cumulative IPC: 0.640867 (Simulation time: 0 hr 23 min 10 sec) 
Heartbeat CPU 0 instructions: 35000003 cycles: 44435130 heartbeat IPC: 0.842906 cumulative IPC: 0.647071 (Simulation time: 0 hr 23 min 45 sec) 
Heartbeat CPU 0 instructions: 36000000 cycles: 45787887 heartbeat IPC: 0.739229 cumulative IPC: 0.650189 (Simulation time: 0 hr 24 min 19 sec) 
Heartbeat CPU 0 instructions: 37000000 cycles: 47117383 heartbeat IPC: 0.752165 cumulative IPC: 0.65347 (Simulation time: 0 hr 25 min 1 sec) 
Heartbeat CPU 0 instructions: 38000001 cycles: 48446921 heartbeat IPC: 0.752142 cumulative IPC: 0.656546 (Simulation time: 0 hr 25 min 44 sec) 
Heartbeat CPU 0 instructions: 39000000 cycles: 49776310 heartbeat IPC: 0.752225 cumulative IPC: 0.659438 (Simulation time: 0 hr 26 min 25 sec) 
Heartbeat CPU 0 instructions: 40000000 cycles: 51105850 heartbeat IPC: 0.75214 cumulative IPC: 0.662159 (Simulation time: 0 hr 27 min 4 sec) 
Heartbeat CPU 0 instructions: 41000000 cycles: 52367550 heartbeat IPC: 0.792581 cumulative IPC: 0.665692 (Simulation time: 0 hr 27 min 37 sec) 
Heartbeat CPU 0 instructions: 42000000 cycles: 53697031 heartbeat IPC: 0.752173 cumulative IPC: 0.668093 (Simulation time: 0 hr 28 min 18 sec) 
Heartbeat CPU 0 instructions: 43000002 cycles: 55026700 heartbeat IPC: 0.752068 cumulative IPC: 0.670361 (Simulation time: 0 hr 28 min 55 sec) 
Heartbeat CPU 0 instructions: 44000000 cycles: 56356201 heartbeat IPC: 0.75216 cumulative IPC: 0.672512 (Simulation time: 0 hr 29 min 33 sec) 
Heartbeat CPU 0 instructions: 45000001 cycles: 57685526 heartbeat IPC: 0.752262 cumulative IPC: 0.674555 (Simulation time: 0 hr 30 min 11 sec) 
Heartbeat CPU 0 instructions: 46000003 cycles: 59071542 heartbeat IPC: 0.721494 cumulative IPC: 0.675777 (Simulation time: 0 hr 30 min 52 sec) 
Heartbeat CPU 0 instructions: 47000001 cycles: 60191789 heartbeat IPC: 0.892658 cumulative IPC: 0.680243 (Simulation time: 0 hr 31 min 24 sec) 
Heartbeat CPU 0 instructions: 48000000 cycles: 61565826 heartbeat IPC: 0.727782 cumulative IPC: 0.681415 (Simulation time: 0 hr 31 min 53 sec) 
Heartbeat CPU 0 instructions: 49000003 cycles: 71198790 heartbeat IPC: 0.103811 cumulative IPC: 0.596337 (Simulation time: 0 hr 32 min 53 sec) 
Heartbeat CPU 0 instructions: 50000001 cycles: 73040246 heartbeat IPC: 0.543047 cumulative IPC: 0.594877 (Simulation time: 0 hr 33 min 29 sec) 
Heartbeat CPU 0 instructions: 51000001 cycles: 74635570 heartbeat IPC: 0.626832 cumulative IPC: 0.595618 (Simulation time: 0 hr 34 min 8 sec) 
Heartbeat CPU 0 instructions: 52000000 cycles: 76268155 heartbeat IPC: 0.612525 cumulative IPC: 0.59601 (Simulation time: 0 hr 34 min 48 sec) 
Heartbeat CPU 0 instructions: 53000000 cycles: 77889684 heartbeat IPC: 0.616702 cumulative IPC: 0.596475 (Simulation time: 0 hr 35 min 27 sec) 
Heartbeat CPU 0 instructions: 54000001 cycles: 79487396 heartbeat IPC: 0.625896 cumulative IPC: 0.597113 (Simulation time: 0 hr 36 min 7 sec) 
Heartbeat CPU 0 instructions: 55000002 cycles: 81066363 heartbeat IPC: 0.633326 cumulative IPC: 0.597873 (Simulation time: 0 hr 36 min 49 sec) 
Heartbeat CPU 0 instructions: 56000000 cycles: 82684305 heartbeat IPC: 0.618068 cumulative IPC: 0.598298 (Simulation time: 0 hr 37 min 30 sec) 
Heartbeat CPU 0 instructions: 57000003 cycles: 84329431 heartbeat IPC: 0.607858 cumulative IPC: 0.598498 (Simulation time: 0 hr 38 min 11 sec) 
Heartbeat CPU 0 instructions: 58000002 cycles: 85954066 heartbeat IPC: 0.615522 cumulative IPC: 0.598843 (Simulation time: 0 hr 38 min 53 sec) 
Heartbeat CPU 0 instructions: 59000003 cycles: 87568539 heartbeat IPC: 0.619398 cumulative IPC: 0.599249 (Simulation time: 0 hr 39 min 35 sec) 
Heartbeat CPU 0 instructions: 60000000 cycles: 89208965 heartbeat IPC: 0.609596 cumulative IPC: 0.599452 (Simulation time: 0 hr 40 min 16 sec) 
Heartbeat CPU 0 instructions: 61000000 cycles: 90808343 heartbeat IPC: 0.625243 cumulative IPC: 0.599938 (Simulation time: 0 hr 40 min 54 sec) 
Heartbeat CPU 0 instructions: 62000003 cycles: 92408776 heartbeat IPC: 0.624833 cumulative IPC: 0.600398 (Simulation time: 0 hr 41 min 33 sec) 
Heartbeat CPU 0 instructions: 63000001 cycles: 94017405 heartbeat IPC: 0.621646 cumulative IPC: 0.600785 (Simulation time: 0 hr 42 min 14 sec) 
Heartbeat CPU 0 instructions: 64000000 cycles: 95649428 heartbeat IPC: 0.612736 cumulative IPC: 0.601002 (Simulation time: 0 hr 42 min 54 sec) 
Heartbeat CPU 0 instructions: 65000003 cycles: 97284432 heartbeat IPC: 0.611621 cumulative IPC: 0.601192 (Simulation time: 0 hr 43 min 34 sec) 
Heartbeat CPU 0 instructions: 66000001 cycles: 98924634 heartbeat IPC: 0.60968 cumulative IPC: 0.601341 (Simulation time: 0 hr 44 min 17 sec) 
Heartbeat CPU 0 instructions: 67000000 cycles: 100536734 heartbeat IPC: 0.620308 cumulative IPC: 0.601664 (Simulation time: 0 hr 44 min 58 sec) 
Heartbeat CPU 0 instructions: 68000000 cycles: 102167796 heartbeat IPC: 0.613097 cumulative IPC: 0.601858 (Simulation time: 0 hr 45 min 42 sec) 
Heartbeat CPU 0 instructions: 69000000 cycles: 103794188 heartbeat IPC: 0.614858 cumulative IPC: 0.602073 (Simulation time: 0 hr 46 min 30 sec) 
Heartbeat CPU 0 instructions: 70000003 cycles: 105375211 heartbeat IPC: 0.632504 cumulative IPC: 0.602557 (Simulation time: 0 hr 47 min 11 sec) 
Heartbeat CPU 0 instructions: 71000003 cycles: 107001857 heartbeat IPC: 0.614762 cumulative IPC: 0.602753 (Simulation time: 0 hr 47 min 53 sec) 
Heartbeat CPU 0 instructions: 72000000 cycles: 108607960 heartbeat IPC: 0.622623 cumulative IPC: 0.603063 (Simulation time: 0 hr 48 min 34 sec) 
Heartbeat CPU 0 instructions: 73000002 cycles: 110233988 heartbeat IPC: 0.614997 cumulative IPC: 0.603249 (Simulation time: 0 hr 49 min 13 sec) 
Heartbeat CPU 0 instructions: 74000001 cycles: 111869319 heartbeat IPC: 0.611496 cumulative IPC: 0.603376 (Simulation time: 0 hr 49 min 52 sec) 
Heartbeat CPU 0 instructions: 75000000 cycles: 113512000 heartbeat IPC: 0.60876 cumulative IPC: 0.603458 (Simulation time: 0 hr 50 min 33 sec) 
Heartbeat CPU 0 instructions: 76000000 cycles: 115114215 heartbeat IPC: 0.624136 cumulative IPC: 0.603761 (Simulation time: 0 hr 51 min 15 sec) 
Heartbeat CPU 0 instructions: 77000003 cycles: 116747915 heartbeat IPC: 0.612109 cumulative IPC: 0.603884 (Simulation time: 0 hr 51 min 51 sec) 
Heartbeat CPU 0 instructions: 78000000 cycles: 118356123 heartbeat IPC: 0.621808 cumulative IPC: 0.60414 (Simulation time: 0 hr 52 min 28 sec) 
Heartbeat CPU 0 instructions: 79000001 cycles: 119953535 heartbeat IPC: 0.626013 cumulative IPC: 0.604446 (Simulation time: 0 hr 53 min 8 sec) 
Heartbeat CPU 0 instructions: 80000000 cycles: 121567806 heartbeat IPC: 0.619474 cumulative IPC: 0.604656 (Simulation time: 0 hr 53 min 43 sec) 
Heartbeat CPU 0 instructions: 81000001 cycles: 123183297 heartbeat IPC: 0.619007 cumulative IPC: 0.604854 (Simulation time: 0 hr 54 min 20 sec) 
Heartbeat CPU 0 instructions: 82000000 cycles: 124798073 heartbeat IPC: 0.61928 cumulative IPC: 0.605049 (Simulation time: 0 hr 54 min 57 sec) 
Heartbeat CPU 0 instructions: 83000003 cycles: 126408915 heartbeat IPC: 0.620795 cumulative IPC: 0.60526 (Simulation time: 0 hr 55 min 30 sec) 
Heartbeat CPU 0 instructions: 84000000 cycles: 128010400 heartbeat IPC: 0.624419 cumulative IPC: 0.605511 (Simulation time: 0 hr 56 min 2 sec) 
Heartbeat CPU 0 instructions: 85000001 cycles: 129632114 heartbeat IPC: 0.616632 cumulative IPC: 0.605656 (Simulation time: 0 hr 56 min 34 sec) 
Heartbeat CPU 0 instructions: 86000001 cycles: 131254230 heartbeat IPC: 0.616479 cumulative IPC: 0.605796 (Simulation time: 0 hr 57 min 5 sec) 
Heartbeat CPU 0 instructions: 87000002 cycles: 132862783 heartbeat IPC: 0.621677 cumulative IPC: 0.605997 (Simulation time: 0 hr 57 min 32 sec) 
Heartbeat CPU 0 instructions: 88000000 cycles: 134500238 heartbeat IPC: 0.610703 cumulative IPC: 0.606057 (Simulation time: 0 hr 58 min 0 sec) 
Heartbeat CPU 0 instructions: 89000003 cycles: 136149622 heartbeat IPC: 0.606289 cumulative IPC: 0.60606 (Simulation time: 0 hr 58 min 26 sec) 
Heartbeat CPU 0 instructions: 90000000 cycles: 137810393 heartbeat IPC: 0.602128 cumulative IPC: 0.606011 (Simulation time: 0 hr 58 min 52 sec) 
Heartbeat CPU 0 instructions: 91000002 cycles: 139456934 heartbeat IPC: 0.607335 cumulative IPC: 0.606027 (Simulation time: 0 hr 59 min 17 sec) 
Heartbeat CPU 0 instructions: 92000000 cycles: 141075495 heartbeat IPC: 0.617832 cumulative IPC: 0.606168 (Simulation time: 0 hr 59 min 43 sec) 
Heartbeat CPU 0 instructions: 93000001 cycles: 142702685 heartbeat IPC: 0.614557 cumulative IPC: 0.606268 (Simulation time: 1 hr 0 min 9 sec) 
Heartbeat CPU 0 instructions: 94000003 cycles: 144301490 heartbeat IPC: 0.625468 cumulative IPC: 0.606489 (Simulation time: 1 hr 0 min 33 sec) 
Heartbeat CPU 0 instructions: 95000000 cycles: 145902012 heartbeat IPC: 0.624794 cumulative IPC: 0.606699 (Simulation time: 1 hr 0 min 59 sec) 
Heartbeat CPU 0 instructions: 96000000 cycles: 147527369 heartbeat IPC: 0.615249 cumulative IPC: 0.606797 (Simulation time: 1 hr 1 min 23 sec) 
Heartbeat CPU 0 instructions: 97000002 cycles: 149144401 heartbeat IPC: 0.618418 cumulative IPC: 0.606928 (Simulation time: 1 hr 1 min 48 sec) 
Heartbeat CPU 0 instructions: 98000000 cycles: 150782549 heartbeat IPC: 0.610444 cumulative IPC: 0.606968 (Simulation time: 1 hr 2 min 11 sec) 
Heartbeat CPU 0 instructions: 99000001 cycles: 152375954 heartbeat IPC: 0.627587 cumulative IPC: 0.607192 (Simulation time: 1 hr 2 min 31 sec) 
Heartbeat CPU 0 instructions: 100000000 cycles: 154011624 heartbeat IPC: 0.61137 cumulative IPC: 0.607238 (Simulation time: 1 hr 2 min 50 sec) 
Heartbeat CPU 0 instructions: 101000001 cycles: 155641848 heartbeat IPC: 0.613413 cumulative IPC: 0.607305 (Simulation time: 1 hr 3 min 9 sec) 
Heartbeat CPU 0 instructions: 102000000 cycles: 157275849 heartbeat IPC: 0.611994 cumulative IPC: 0.607356 (Simulation time: 1 hr 3 min 27 sec) 
Heartbeat CPU 0 instructions: 103000000 cycles: 158890234 heartbeat IPC: 0.619431 cumulative IPC: 0.607483 (Simulation time: 1 hr 3 min 45 sec) 
Heartbeat CPU 0 instructions: 104000000 cycles: 160518223 heartbeat IPC: 0.614255 cumulative IPC: 0.607554 (Simulation time: 1 hr 4 min 2 sec) 
Heartbeat CPU 0 instructions: 105000000 cycles: 162155931 heartbeat IPC: 0.610609 cumulative IPC: 0.607586 (Simulation time: 1 hr 4 min 19 sec) 
Heartbeat CPU 0 instructions: 106000000 cycles: 163773807 heartbeat IPC: 0.618094 cumulative IPC: 0.607694 (Simulation time: 1 hr 4 min 35 sec) 
Heartbeat CPU 0 instructions: 107000001 cycles: 165407690 heartbeat IPC: 0.61204 cumulative IPC: 0.607738 (Simulation time: 1 hr 4 min 51 sec) 
Heartbeat CPU 0 instructions: 108000000 cycles: 167042661 heartbeat IPC: 0.611631 cumulative IPC: 0.607778 (Simulation time: 1 hr 5 min 7 sec) 
Heartbeat CPU 0 instructions: 109000003 cycles: 168628709 heartbeat IPC: 0.6305 cumulative IPC: 0.607999 (Simulation time: 1 hr 5 min 25 sec) 
Heartbeat CPU 0 instructions: 110000002 cycles: 170238365 heartbeat IPC: 0.62125 cumulative IPC: 0.608129 (Simulation time: 1 hr 5 min 42 sec) 
Finished CPU 0 instructions: 100000001 cycles: 164438863 cummulative IPC: 0.608129 (Simulation time: 1 hr 5 min 42 sec) 

ChampSim completed all CPUs

Region of Interest Statistics

CPU 0 cummulative IPC: 0.608129 instructions: 100000001 cycles: 164438863
LLC TOTAL     ACCESS:    4812500  HIT:     568558  MISS:    4243942
LLC LOAD      ACCESS:     461799  HIT:      37832  MISS:     423967
LLC RFO       ACCESS:     126472  HIT:     117154  MISS:       9318
LLC PREFETCH  ACCESS:    2859936  HIT:     131967  MISS:    2727969
LLC WRITEBACK ACCESS:    1364293  HIT:     281605  MISS:    1082688
Insertion Distribution: 
	LOAD 27165 85511 320813 
	RFO 22 9131 167 
	PREF 0 209485 2756224 
	WRITEBACK 0 0 1197630 
Total Prefetch Downgrades: 7008
