
*** ChampSim Multicore Out-of-Order Simulator ***

Warmup Instructions: 10000000
Simulation Instructions: 100000000
Configuration: 2
Number of CPUs: 1
LLC sets: 2048
LLC ways: 16
Off-chip DRAM Channels: 1 Width: 64-bit Data Rate: 1600 MT/s

CPU 0 runs /datasets/cs240c-wi22-a00-public/data/Assignment2-gz/soplex_205B.trace.gz
CPU 0 L1D next line prefetcher
CPU 0 L2C IP-based stride prefetcher
Initialize SRRIP state
Heartbeat CPU 0 instructions: 1000000 cycles: 395620 heartbeat IPC: 2.52768 cumulative IPC: 2.52768 (Simulation time: 0 hr 0 min 27 sec) 
Heartbeat CPU 0 instructions: 2000002 cycles: 925599 heartbeat IPC: 1.88687 cumulative IPC: 2.16077 (Simulation time: 0 hr 0 min 54 sec) 
Heartbeat CPU 0 instructions: 3000000 cycles: 1397343 heartbeat IPC: 2.11979 cumulative IPC: 2.14693 (Simulation time: 0 hr 1 min 30 sec) 
Heartbeat CPU 0 instructions: 4000000 cycles: 1758519 heartbeat IPC: 2.76873 cumulative IPC: 2.27464 (Simulation time: 0 hr 1 min 57 sec) 
Heartbeat CPU 0 instructions: 5000003 cycles: 2201910 heartbeat IPC: 2.25535 cumulative IPC: 2.27076 (Simulation time: 0 hr 2 min 25 sec) 
Heartbeat CPU 0 instructions: 6000003 cycles: 2621508 heartbeat IPC: 2.38323 cumulative IPC: 2.28876 (Simulation time: 0 hr 2 min 55 sec) 
Heartbeat CPU 0 instructions: 7000000 cycles: 3005944 heartbeat IPC: 2.60121 cumulative IPC: 2.32872 (Simulation time: 0 hr 3 min 23 sec) 
Heartbeat CPU 0 instructions: 8000000 cycles: 3399822 heartbeat IPC: 2.53886 cumulative IPC: 2.35306 (Simulation time: 0 hr 3 min 46 sec) 
Heartbeat CPU 0 instructions: 9000003 cycles: 3923186 heartbeat IPC: 1.91072 cumulative IPC: 2.29405 (Simulation time: 0 hr 4 min 13 sec) 
Heartbeat CPU 0 instructions: 10000000 cycles: 4408522 heartbeat IPC: 2.06042 cumulative IPC: 2.26833 (Simulation time: 0 hr 4 min 44 sec) 

Warmup complete CPU 0 instructions: 10000004 cycles: 4408524 (Simulation time: 0 hr 4 min 44 sec) 

Heartbeat CPU 0 instructions: 11000001 cycles: 6875318 heartbeat IPC: 0.405385 cumulative IPC: 0.405383 (Simulation time: 0 hr 5 min 17 sec) 
Heartbeat CPU 0 instructions: 12000000 cycles: 9107051 heartbeat IPC: 0.448082 cumulative IPC: 0.425664 (Simulation time: 0 hr 5 min 53 sec) 
Heartbeat CPU 0 instructions: 13000000 cycles: 12525139 heartbeat IPC: 0.292561 cumulative IPC: 0.369612 (Simulation time: 0 hr 6 min 32 sec) 
Heartbeat CPU 0 instructions: 14000003 cycles: 13786927 heartbeat IPC: 0.792529 cumulative IPC: 0.426512 (Simulation time: 0 hr 6 min 58 sec) 
Heartbeat CPU 0 instructions: 15000000 cycles: 15472240 heartbeat IPC: 0.59336 cumulative IPC: 0.451927 (Simulation time: 0 hr 7 min 24 sec) 
Heartbeat CPU 0 instructions: 16000000 cycles: 18627501 heartbeat IPC: 0.316931 cumulative IPC: 0.421971 (Simulation time: 0 hr 8 min 2 sec) 
Heartbeat CPU 0 instructions: 17000001 cycles: 22210865 heartbeat IPC: 0.279068 cumulative IPC: 0.393207 (Simulation time: 0 hr 8 min 49 sec) 
Heartbeat CPU 0 instructions: 18000000 cycles: 28561051 heartbeat IPC: 0.157476 cumulative IPC: 0.331228 (Simulation time: 0 hr 9 min 32 sec) 
Heartbeat CPU 0 instructions: 19000003 cycles: 32944100 heartbeat IPC: 0.228152 cumulative IPC: 0.315396 (Simulation time: 0 hr 10 min 18 sec) 
Heartbeat CPU 0 instructions: 20000000 cycles: 35089162 heartbeat IPC: 0.466186 cumulative IPC: 0.325938 (Simulation time: 0 hr 11 min 1 sec) 
Heartbeat CPU 0 instructions: 21000001 cycles: 39557782 heartbeat IPC: 0.223783 cumulative IPC: 0.312951 (Simulation time: 0 hr 11 min 45 sec) 
Heartbeat CPU 0 instructions: 22000001 cycles: 43622137 heartbeat IPC: 0.246042 cumulative IPC: 0.306016 (Simulation time: 0 hr 12 min 31 sec) 
Heartbeat CPU 0 instructions: 23000002 cycles: 46804422 heartbeat IPC: 0.31424 cumulative IPC: 0.306633 (Simulation time: 0 hr 13 min 12 sec) 
Heartbeat CPU 0 instructions: 24000000 cycles: 50468993 heartbeat IPC: 0.272883 cumulative IPC: 0.303948 (Simulation time: 0 hr 13 min 52 sec) 
Heartbeat CPU 0 instructions: 25000000 cycles: 54050738 heartbeat IPC: 0.279194 cumulative IPC: 0.302162 (Simulation time: 0 hr 14 min 34 sec) 
Heartbeat CPU 0 instructions: 26000002 cycles: 57567246 heartbeat IPC: 0.284374 cumulative IPC: 0.300985 (Simulation time: 0 hr 15 min 25 sec) 
Heartbeat CPU 0 instructions: 27000000 cycles: 60087425 heartbeat IPC: 0.396796 cumulative IPC: 0.305322 (Simulation time: 0 hr 16 min 7 sec) 
Heartbeat CPU 0 instructions: 28000000 cycles: 63556625 heartbeat IPC: 0.288251 cumulative IPC: 0.304321 (Simulation time: 0 hr 16 min 54 sec) 
Heartbeat CPU 0 instructions: 29000000 cycles: 65569298 heartbeat IPC: 0.496852 cumulative IPC: 0.310657 (Simulation time: 0 hr 17 min 33 sec) 
Heartbeat CPU 0 instructions: 30000003 cycles: 66541080 heartbeat IPC: 1.02904 cumulative IPC: 0.321892 (Simulation time: 0 hr 18 min 0 sec) 
Heartbeat CPU 0 instructions: 31000003 cycles: 67923673 heartbeat IPC: 0.723279 cumulative IPC: 0.33063 (Simulation time: 0 hr 18 min 29 sec) 
Heartbeat CPU 0 instructions: 32000000 cycles: 71077099 heartbeat IPC: 0.317114 cumulative IPC: 0.329991 (Simulation time: 0 hr 19 min 11 sec) 
Heartbeat CPU 0 instructions: 33000000 cycles: 73881013 heartbeat IPC: 0.356644 cumulative IPC: 0.331066 (Simulation time: 0 hr 19 min 54 sec) 
Heartbeat CPU 0 instructions: 34000002 cycles: 75498162 heartbeat IPC: 0.618373 cumulative IPC: 0.337602 (Simulation time: 0 hr 20 min 30 sec) 
Heartbeat CPU 0 instructions: 35000003 cycles: 78115058 heartbeat IPC: 0.382133 cumulative IPC: 0.339183 (Simulation time: 0 hr 21 min 4 sec) 
Heartbeat CPU 0 instructions: 36000000 cycles: 80463623 heartbeat IPC: 0.425791 cumulative IPC: 0.341857 (Simulation time: 0 hr 21 min 48 sec) 
Heartbeat CPU 0 instructions: 37000000 cycles: 83771089 heartbeat IPC: 0.302346 cumulative IPC: 0.340211 (Simulation time: 0 hr 22 min 28 sec) 
Heartbeat CPU 0 instructions: 38000002 cycles: 85018263 heartbeat IPC: 0.801814 cumulative IPC: 0.347353 (Simulation time: 0 hr 22 min 52 sec) 
Heartbeat CPU 0 instructions: 39000003 cycles: 86917534 heartbeat IPC: 0.526518 cumulative IPC: 0.351477 (Simulation time: 0 hr 23 min 25 sec) 
Heartbeat CPU 0 instructions: 40000000 cycles: 90129066 heartbeat IPC: 0.311377 cumulative IPC: 0.349974 (Simulation time: 0 hr 24 min 7 sec) 
Heartbeat CPU 0 instructions: 41000000 cycles: 93342498 heartbeat IPC: 0.311194 cumulative IPC: 0.348573 (Simulation time: 0 hr 24 min 44 sec) 
Heartbeat CPU 0 instructions: 42000001 cycles: 95124316 heartbeat IPC: 0.561225 cumulative IPC: 0.35275 (Simulation time: 0 hr 25 min 22 sec) 
Heartbeat CPU 0 instructions: 43000001 cycles: 98551384 heartbeat IPC: 0.291795 cumulative IPC: 0.350531 (Simulation time: 0 hr 26 min 7 sec) 
Heartbeat CPU 0 instructions: 44000000 cycles: 100782400 heartbeat IPC: 0.448226 cumulative IPC: 0.352793 (Simulation time: 0 hr 26 min 36 sec) 
Heartbeat CPU 0 instructions: 45000001 cycles: 102009104 heartbeat IPC: 0.815193 cumulative IPC: 0.358604 (Simulation time: 0 hr 27 min 1 sec) 
Heartbeat CPU 0 instructions: 46000002 cycles: 104837410 heartbeat IPC: 0.353569 cumulative IPC: 0.358463 (Simulation time: 0 hr 27 min 35 sec) 
Heartbeat CPU 0 instructions: 47000000 cycles: 107996572 heartbeat IPC: 0.316539 cumulative IPC: 0.357184 (Simulation time: 0 hr 28 min 17 sec) 
Heartbeat CPU 0 instructions: 48000000 cycles: 111019199 heartbeat IPC: 0.330838 cumulative IPC: 0.356437 (Simulation time: 0 hr 28 min 56 sec) 
Heartbeat CPU 0 instructions: 49000001 cycles: 112981307 heartbeat IPC: 0.509656 cumulative IPC: 0.359206 (Simulation time: 0 hr 29 min 28 sec) 
Heartbeat CPU 0 instructions: 50000000 cycles: 116274404 heartbeat IPC: 0.303665 cumulative IPC: 0.357571 (Simulation time: 0 hr 30 min 10 sec) 
Heartbeat CPU 0 instructions: 51000003 cycles: 118630558 heartbeat IPC: 0.424422 cumulative IPC: 0.35895 (Simulation time: 0 hr 30 min 43 sec) 
Heartbeat CPU 0 instructions: 52000000 cycles: 119858160 heartbeat IPC: 0.814594 cumulative IPC: 0.363795 (Simulation time: 0 hr 31 min 8 sec) 
Heartbeat CPU 0 instructions: 53000003 cycles: 122662610 heartbeat IPC: 0.356577 cumulative IPC: 0.363624 (Simulation time: 0 hr 31 min 40 sec) 
Heartbeat CPU 0 instructions: 54000001 cycles: 125810453 heartbeat IPC: 0.317677 cumulative IPC: 0.362432 (Simulation time: 0 hr 32 min 20 sec) 
Heartbeat CPU 0 instructions: 55000001 cycles: 129003263 heartbeat IPC: 0.313204 cumulative IPC: 0.361171 (Simulation time: 0 hr 33 min 0 sec) 
Heartbeat CPU 0 instructions: 56000000 cycles: 130816570 heartbeat IPC: 0.551478 cumulative IPC: 0.363901 (Simulation time: 0 hr 33 min 31 sec) 
Heartbeat CPU 0 instructions: 57000000 cycles: 134230255 heartbeat IPC: 0.292939 cumulative IPC: 0.362035 (Simulation time: 0 hr 34 min 13 sec) 
Heartbeat CPU 0 instructions: 58000000 cycles: 136453559 heartbeat IPC: 0.449781 cumulative IPC: 0.363512 (Simulation time: 0 hr 34 min 43 sec) 
Heartbeat CPU 0 instructions: 59000001 cycles: 137669988 heartbeat IPC: 0.822079 cumulative IPC: 0.367698 (Simulation time: 0 hr 35 min 6 sec) 
Heartbeat CPU 0 instructions: 60000000 cycles: 140512627 heartbeat IPC: 0.351785 cumulative IPC: 0.367366 (Simulation time: 0 hr 35 min 39 sec) 
Heartbeat CPU 0 instructions: 61000003 cycles: 143673271 heartbeat IPC: 0.316392 cumulative IPC: 0.366209 (Simulation time: 0 hr 36 min 19 sec) 
Heartbeat CPU 0 instructions: 62000002 cycles: 146997798 heartbeat IPC: 0.300794 cumulative IPC: 0.364684 (Simulation time: 0 hr 37 min 0 sec) 
Heartbeat CPU 0 instructions: 63000001 cycles: 148591629 heartbeat IPC: 0.627418 cumulative IPC: 0.367588 (Simulation time: 0 hr 37 min 34 sec) 
Heartbeat CPU 0 instructions: 64000000 cycles: 152289116 heartbeat IPC: 0.270454 cumulative IPC: 0.365159 (Simulation time: 0 hr 38 min 17 sec) 
Heartbeat CPU 0 instructions: 65000001 cycles: 154185518 heartbeat IPC: 0.527315 cumulative IPC: 0.367213 (Simulation time: 0 hr 38 min 45 sec) 
Heartbeat CPU 0 instructions: 66000000 cycles: 155407248 heartbeat IPC: 0.818511 cumulative IPC: 0.370864 (Simulation time: 0 hr 39 min 11 sec) 
Heartbeat CPU 0 instructions: 67000003 cycles: 158310968 heartbeat IPC: 0.344387 cumulative IPC: 0.370364 (Simulation time: 0 hr 39 min 46 sec) 
Heartbeat CPU 0 instructions: 68000000 cycles: 161476474 heartbeat IPC: 0.315904 cumulative IPC: 0.369267 (Simulation time: 0 hr 40 min 28 sec) 
Heartbeat CPU 0 instructions: 69000001 cycles: 164326163 heartbeat IPC: 0.350916 cumulative IPC: 0.36894 (Simulation time: 0 hr 41 min 7 sec) 
Heartbeat CPU 0 instructions: 70000000 cycles: 166162521 heartbeat IPC: 0.544556 cumulative IPC: 0.370934 (Simulation time: 0 hr 41 min 40 sec) 
Heartbeat CPU 0 instructions: 71000001 cycles: 169571031 heartbeat IPC: 0.293384 cumulative IPC: 0.369333 (Simulation time: 0 hr 42 min 21 sec) 
Heartbeat CPU 0 instructions: 72000000 cycles: 171777634 heartbeat IPC: 0.453185 cumulative IPC: 0.370439 (Simulation time: 0 hr 42 min 50 sec) 
Heartbeat CPU 0 instructions: 73000000 cycles: 173010390 heartbeat IPC: 0.811191 cumulative IPC: 0.373661 (Simulation time: 0 hr 43 min 16 sec) 
Heartbeat CPU 0 instructions: 74000001 cycles: 175846217 heartbeat IPC: 0.352631 cumulative IPC: 0.373313 (Simulation time: 0 hr 43 min 50 sec) 
Heartbeat CPU 0 instructions: 75000003 cycles: 178992098 heartbeat IPC: 0.317877 cumulative IPC: 0.372315 (Simulation time: 0 hr 44 min 31 sec) 
Heartbeat CPU 0 instructions: 76000000 cycles: 182231633 heartbeat IPC: 0.308685 cumulative IPC: 0.371155 (Simulation time: 0 hr 45 min 13 sec) 
Heartbeat CPU 0 instructions: 77000000 cycles: 183777211 heartbeat IPC: 0.647007 cumulative IPC: 0.373532 (Simulation time: 0 hr 45 min 50 sec) 
Heartbeat CPU 0 instructions: 78000000 cycles: 187583689 heartbeat IPC: 0.26271 cumulative IPC: 0.371229 (Simulation time: 0 hr 46 min 42 sec) 
Heartbeat CPU 0 instructions: 79000002 cycles: 189370649 heartbeat IPC: 0.559611 cumulative IPC: 0.373049 (Simulation time: 0 hr 47 min 8 sec) 
Heartbeat CPU 0 instructions: 80000000 cycles: 190606990 heartbeat IPC: 0.808837 cumulative IPC: 0.375943 (Simulation time: 0 hr 47 min 33 sec) 
Heartbeat CPU 0 instructions: 81000000 cycles: 193500871 heartbeat IPC: 0.345557 cumulative IPC: 0.375478 (Simulation time: 0 hr 48 min 9 sec) 
Heartbeat CPU 0 instructions: 82000000 cycles: 196713186 heartbeat IPC: 0.311302 cumulative IPC: 0.374406 (Simulation time: 0 hr 48 min 50 sec) 
Heartbeat CPU 0 instructions: 83000000 cycles: 200062375 heartbeat IPC: 0.29858 cumulative IPC: 0.373108 (Simulation time: 0 hr 49 min 32 sec) 
Heartbeat CPU 0 instructions: 84000000 cycles: 201736744 heartbeat IPC: 0.59724 cumulative IPC: 0.37501 (Simulation time: 0 hr 50 min 5 sec) 
Heartbeat CPU 0 instructions: 85000000 cycles: 205649952 heartbeat IPC: 0.255545 cumulative IPC: 0.372687 (Simulation time: 0 hr 50 min 51 sec) 
Heartbeat CPU 0 instructions: 86000002 cycles: 207061747 heartbeat IPC: 0.70832 cumulative IPC: 0.375025 (Simulation time: 0 hr 51 min 15 sec) 
Heartbeat CPU 0 instructions: 87000002 cycles: 208284773 heartbeat IPC: 0.817644 cumulative IPC: 0.37768 (Simulation time: 0 hr 51 min 39 sec) 
Heartbeat CPU 0 instructions: 88000000 cycles: 211197562 heartbeat IPC: 0.343313 cumulative IPC: 0.377196 (Simulation time: 0 hr 52 min 12 sec) 
Heartbeat CPU 0 instructions: 89000003 cycles: 214740037 heartbeat IPC: 0.282289 cumulative IPC: 0.375598 (Simulation time: 0 hr 52 min 56 sec) 
Heartbeat CPU 0 instructions: 90000001 cycles: 217799849 heartbeat IPC: 0.326817 cumulative IPC: 0.374898 (Simulation time: 0 hr 53 min 34 sec) 
Heartbeat CPU 0 instructions: 91000003 cycles: 219622761 heartbeat IPC: 0.548574 cumulative IPC: 0.376369 (Simulation time: 0 hr 54 min 6 sec) 
Heartbeat CPU 0 instructions: 92000000 cycles: 223347412 heartbeat IPC: 0.268481 cumulative IPC: 0.374534 (Simulation time: 0 hr 54 min 50 sec) 
Heartbeat CPU 0 instructions: 93000000 cycles: 224610775 heartbeat IPC: 0.791538 cumulative IPC: 0.376926 (Simulation time: 0 hr 55 min 11 sec) 
Heartbeat CPU 0 instructions: 94000000 cycles: 225977718 heartbeat IPC: 0.731559 cumulative IPC: 0.379114 (Simulation time: 0 hr 55 min 32 sec) 
Heartbeat CPU 0 instructions: 95000002 cycles: 228991364 heartbeat IPC: 0.331825 cumulative IPC: 0.378479 (Simulation time: 0 hr 56 min 3 sec) 
Heartbeat CPU 0 instructions: 96000000 cycles: 231889301 heartbeat IPC: 0.345072 cumulative IPC: 0.378054 (Simulation time: 0 hr 56 min 36 sec) 
Heartbeat CPU 0 instructions: 97000003 cycles: 234571011 heartbeat IPC: 0.372898 cumulative IPC: 0.377994 (Simulation time: 0 hr 57 min 2 sec) 
Heartbeat CPU 0 instructions: 98000003 cycles: 236834956 heartbeat IPC: 0.441707 cumulative IPC: 0.378614 (Simulation time: 0 hr 57 min 27 sec) 
Heartbeat CPU 0 instructions: 99000000 cycles: 240111979 heartbeat IPC: 0.305154 cumulative IPC: 0.377593 (Simulation time: 0 hr 57 min 52 sec) 
Heartbeat CPU 0 instructions: 100000000 cycles: 241358504 heartbeat IPC: 0.80223 cumulative IPC: 0.379827 (Simulation time: 0 hr 58 min 9 sec) 
Heartbeat CPU 0 instructions: 101000003 cycles: 243269657 heartbeat IPC: 0.523246 cumulative IPC: 0.380975 (Simulation time: 0 hr 58 min 28 sec) 
Heartbeat CPU 0 instructions: 102000002 cycles: 246414173 heartbeat IPC: 0.318014 cumulative IPC: 0.380156 (Simulation time: 0 hr 58 min 53 sec) 
Heartbeat CPU 0 instructions: 103000000 cycles: 248564117 heartbeat IPC: 0.465127 cumulative IPC: 0.380905 (Simulation time: 0 hr 59 min 19 sec) 
Heartbeat CPU 0 instructions: 104000000 cycles: 257281658 heartbeat IPC: 0.114711 cumulative IPC: 0.371728 (Simulation time: 0 hr 59 min 49 sec) 
Heartbeat CPU 0 instructions: 105000000 cycles: 259353146 heartbeat IPC: 0.482745 cumulative IPC: 0.37263 (Simulation time: 1 hr 0 min 17 sec) 
Heartbeat CPU 0 instructions: 106000002 cycles: 263265405 heartbeat IPC: 0.255607 cumulative IPC: 0.370861 (Simulation time: 1 hr 0 min 44 sec) 
Heartbeat CPU 0 instructions: 107000003 cycles: 267581285 heartbeat IPC: 0.231703 cumulative IPC: 0.368579 (Simulation time: 1 hr 1 min 10 sec) 
Heartbeat CPU 0 instructions: 108000000 cycles: 270973812 heartbeat IPC: 0.294765 cumulative IPC: 0.36764 (Simulation time: 1 hr 1 min 35 sec) 
Heartbeat CPU 0 instructions: 109000000 cycles: 274316372 heartbeat IPC: 0.299172 cumulative IPC: 0.366792 (Simulation time: 1 hr 1 min 58 sec) 
Heartbeat CPU 0 instructions: 110000003 cycles: 277843730 heartbeat IPC: 0.283499 cumulative IPC: 0.365717 (Simulation time: 1 hr 2 min 17 sec) 
Finished CPU 0 instructions: 100000003 cycles: 273435207 cummulative IPC: 0.365717 (Simulation time: 1 hr 2 min 17 sec) 

ChampSim completed all CPUs

Region of Interest Statistics

CPU 0 cummulative IPC: 0.365717 instructions: 100000003 cycles: 273435207
LLC TOTAL     ACCESS:    8731049  HIT:    4636361  MISS:    4094688
LLC LOAD      ACCESS:    2230774  HIT:    1049307  MISS:    1181467
LLC RFO       ACCESS:     871503  HIT:     330819  MISS:     540684
LLC PREFETCH  ACCESS:    3453870  HIT:    1507557  MISS:    1946313
LLC WRITEBACK ACCESS:    2174902  HIT:    1748678  MISS:     426224
Insertion Distribution: 
	LOAD 396277 178034 726217 
	RFO 179964 157570 246768 
	PREF 0 691779 1537105 
	WRITEBACK 0 0 489948 
Total Prefetch Downgrades: 199323
