
*** ChampSim Multicore Out-of-Order Simulator ***

Warmup Instructions: 10000000
Simulation Instructions: 100000000
Configuration: 2
Number of CPUs: 1
LLC sets: 2048
LLC ways: 16
Off-chip DRAM Channels: 1 Width: 64-bit Data Rate: 1600 MT/s

CPU 0 runs /datasets/cs240c-wi22-a00-public/data/Assignment2-gz/sphinx3_2520B.trace.gz
CPU 0 L1D next line prefetcher
CPU 0 L2C IP-based stride prefetcher
Heartbeat CPU 0 instructions: 1000003 cycles: 338965 heartbeat IPC: 2.95017 cumulative IPC: 2.95017 (Simulation time: 0 hr 0 min 31 sec) 
Heartbeat CPU 0 instructions: 2000000 cycles: 737250 heartbeat IPC: 2.51076 cumulative IPC: 2.71278 (Simulation time: 0 hr 1 min 4 sec) 
Heartbeat CPU 0 instructions: 3000003 cycles: 1185269 heartbeat IPC: 2.23205 cumulative IPC: 2.53107 (Simulation time: 0 hr 1 min 32 sec) 
Heartbeat CPU 0 instructions: 4000000 cycles: 1524301 heartbeat IPC: 2.94957 cumulative IPC: 2.62415 (Simulation time: 0 hr 2 min 3 sec) 
Heartbeat CPU 0 instructions: 5000001 cycles: 1902472 heartbeat IPC: 2.64431 cumulative IPC: 2.62816 (Simulation time: 0 hr 2 min 39 sec) 
Heartbeat CPU 0 instructions: 6000001 cycles: 2368257 heartbeat IPC: 2.14691 cumulative IPC: 2.53351 (Simulation time: 0 hr 3 min 8 sec) 
Heartbeat CPU 0 instructions: 7000001 cycles: 2707198 heartbeat IPC: 2.95037 cumulative IPC: 2.5857 (Simulation time: 0 hr 3 min 38 sec) 
Heartbeat CPU 0 instructions: 8000000 cycles: 3056212 heartbeat IPC: 2.86521 cumulative IPC: 2.61762 (Simulation time: 0 hr 4 min 9 sec) 
Heartbeat CPU 0 instructions: 9000000 cycles: 3509856 heartbeat IPC: 2.20437 cumulative IPC: 2.56421 (Simulation time: 0 hr 4 min 36 sec) 
Heartbeat CPU 0 instructions: 10000000 cycles: 3860017 heartbeat IPC: 2.85583 cumulative IPC: 2.59066 (Simulation time: 0 hr 5 min 5 sec) 

Warmup complete CPU 0 instructions: 10000004 cycles: 3860018 (Simulation time: 0 hr 5 min 5 sec) 

Heartbeat CPU 0 instructions: 11000000 cycles: 4732883 heartbeat IPC: 1.14565 cumulative IPC: 1.14565 (Simulation time: 0 hr 5 min 38 sec) 
Heartbeat CPU 0 instructions: 12000000 cycles: 5677008 heartbeat IPC: 1.05918 cumulative IPC: 1.10072 (Simulation time: 0 hr 6 min 14 sec) 
Heartbeat CPU 0 instructions: 13000002 cycles: 6540219 heartbeat IPC: 1.15847 cumulative IPC: 1.11932 (Simulation time: 0 hr 6 min 48 sec) 
Heartbeat CPU 0 instructions: 14000002 cycles: 7380329 heartbeat IPC: 1.19032 cumulative IPC: 1.13626 (Simulation time: 0 hr 7 min 26 sec) 
Heartbeat CPU 0 instructions: 15000003 cycles: 8313991 heartbeat IPC: 1.07105 cumulative IPC: 1.12259 (Simulation time: 0 hr 8 min 2 sec) 
Heartbeat CPU 0 instructions: 16000000 cycles: 9166799 heartbeat IPC: 1.17259 cumulative IPC: 1.13063 (Simulation time: 0 hr 8 min 35 sec) 
Heartbeat CPU 0 instructions: 17000000 cycles: 9990779 heartbeat IPC: 1.21362 cumulative IPC: 1.14178 (Simulation time: 0 hr 9 min 8 sec) 
Heartbeat CPU 0 instructions: 18000002 cycles: 10904782 heartbeat IPC: 1.09409 cumulative IPC: 1.13559 (Simulation time: 0 hr 9 min 45 sec) 
Heartbeat CPU 0 instructions: 19000001 cycles: 11750560 heartbeat IPC: 1.18234 cumulative IPC: 1.14061 (Simulation time: 0 hr 10 min 15 sec) 
Heartbeat CPU 0 instructions: 20000000 cycles: 12570485 heartbeat IPC: 1.21962 cumulative IPC: 1.14804 (Simulation time: 0 hr 10 min 47 sec) 
Heartbeat CPU 0 instructions: 21000001 cycles: 13751510 heartbeat IPC: 0.846723 cumulative IPC: 1.11207 (Simulation time: 0 hr 11 min 24 sec) 
Heartbeat CPU 0 instructions: 22000002 cycles: 14736043 heartbeat IPC: 1.01571 cumulative IPC: 1.10334 (Simulation time: 0 hr 11 min 56 sec) 
Heartbeat CPU 0 instructions: 23000001 cycles: 15567201 heartbeat IPC: 1.20314 cumulative IPC: 1.11043 (Simulation time: 0 hr 12 min 26 sec) 
Heartbeat CPU 0 instructions: 24000000 cycles: 16399719 heartbeat IPC: 1.20117 cumulative IPC: 1.11645 (Simulation time: 0 hr 12 min 59 sec) 
Heartbeat CPU 0 instructions: 25000003 cycles: 17263305 heartbeat IPC: 1.15797 cumulative IPC: 1.11913 (Simulation time: 0 hr 13 min 36 sec) 
Heartbeat CPU 0 instructions: 26000001 cycles: 18083893 heartbeat IPC: 1.21864 cumulative IPC: 1.12487 (Simulation time: 0 hr 14 min 15 sec) 
Heartbeat CPU 0 instructions: 27000002 cycles: 18919952 heartbeat IPC: 1.19609 cumulative IPC: 1.12882 (Simulation time: 0 hr 14 min 45 sec) 
Heartbeat CPU 0 instructions: 28000000 cycles: 19786884 heartbeat IPC: 1.15349 cumulative IPC: 1.13017 (Simulation time: 0 hr 15 min 17 sec) 
Heartbeat CPU 0 instructions: 29000003 cycles: 20617586 heartbeat IPC: 1.2038 cumulative IPC: 1.13382 (Simulation time: 0 hr 15 min 50 sec) 
Heartbeat CPU 0 instructions: 30000003 cycles: 21446154 heartbeat IPC: 1.2069 cumulative IPC: 1.13726 (Simulation time: 0 hr 16 min 26 sec) 
Heartbeat CPU 0 instructions: 31000001 cycles: 22300512 heartbeat IPC: 1.17047 cumulative IPC: 1.1388 (Simulation time: 0 hr 17 min 3 sec) 
Heartbeat CPU 0 instructions: 32000000 cycles: 23125707 heartbeat IPC: 1.21183 cumulative IPC: 1.14193 (Simulation time: 0 hr 17 min 35 sec) 
Heartbeat CPU 0 instructions: 33000000 cycles: 23955865 heartbeat IPC: 1.20459 cumulative IPC: 1.14451 (Simulation time: 0 hr 18 min 11 sec) 
Heartbeat CPU 0 instructions: 34000000 cycles: 24804165 heartbeat IPC: 1.17883 cumulative IPC: 1.1459 (Simulation time: 0 hr 18 min 47 sec) 
Heartbeat CPU 0 instructions: 35000002 cycles: 25639049 heartbeat IPC: 1.19777 cumulative IPC: 1.14789 (Simulation time: 0 hr 19 min 21 sec) 
Heartbeat CPU 0 instructions: 36000000 cycles: 26447439 heartbeat IPC: 1.23702 cumulative IPC: 1.15108 (Simulation time: 0 hr 19 min 55 sec) 
Heartbeat CPU 0 instructions: 37000000 cycles: 27303476 heartbeat IPC: 1.16817 cumulative IPC: 1.15171 (Simulation time: 0 hr 20 min 28 sec) 
Heartbeat CPU 0 instructions: 38000002 cycles: 28145369 heartbeat IPC: 1.1878 cumulative IPC: 1.15296 (Simulation time: 0 hr 20 min 59 sec) 
Heartbeat CPU 0 instructions: 39000000 cycles: 28997779 heartbeat IPC: 1.17314 cumulative IPC: 1.15364 (Simulation time: 0 hr 21 min 33 sec) 
Heartbeat CPU 0 instructions: 40000000 cycles: 29857429 heartbeat IPC: 1.16326 cumulative IPC: 1.15396 (Simulation time: 0 hr 22 min 5 sec) 
Heartbeat CPU 0 instructions: 41000001 cycles: 30689558 heartbeat IPC: 1.20174 cumulative IPC: 1.15544 (Simulation time: 0 hr 22 min 38 sec) 
Heartbeat CPU 0 instructions: 42000002 cycles: 31532221 heartbeat IPC: 1.18672 cumulative IPC: 1.1564 (Simulation time: 0 hr 23 min 10 sec) 
Heartbeat CPU 0 instructions: 43000001 cycles: 32364537 heartbeat IPC: 1.20147 cumulative IPC: 1.15771 (Simulation time: 0 hr 23 min 46 sec) 
Heartbeat CPU 0 instructions: 44000000 cycles: 33196905 heartbeat IPC: 1.20139 cumulative IPC: 1.15895 (Simulation time: 0 hr 24 min 24 sec) 
Heartbeat CPU 0 instructions: 45000001 cycles: 34029897 heartbeat IPC: 1.20049 cumulative IPC: 1.1601 (Simulation time: 0 hr 25 min 0 sec) 
Heartbeat CPU 0 instructions: 46000001 cycles: 34888334 heartbeat IPC: 1.16491 cumulative IPC: 1.16023 (Simulation time: 0 hr 25 min 36 sec) 
Heartbeat CPU 0 instructions: 47000003 cycles: 35716608 heartbeat IPC: 1.20733 cumulative IPC: 1.16146 (Simulation time: 0 hr 26 min 7 sec) 
Heartbeat CPU 0 instructions: 48000000 cycles: 36561331 heartbeat IPC: 1.18382 cumulative IPC: 1.16203 (Simulation time: 0 hr 26 min 40 sec) 
Heartbeat CPU 0 instructions: 49000002 cycles: 37385112 heartbeat IPC: 1.21392 cumulative IPC: 1.16331 (Simulation time: 0 hr 27 min 15 sec) 
Heartbeat CPU 0 instructions: 50000003 cycles: 38209711 heartbeat IPC: 1.21271 cumulative IPC: 1.16449 (Simulation time: 0 hr 27 min 47 sec) 
Heartbeat CPU 0 instructions: 51000001 cycles: 39051335 heartbeat IPC: 1.18818 cumulative IPC: 1.16506 (Simulation time: 0 hr 28 min 20 sec) 
Heartbeat CPU 0 instructions: 52000000 cycles: 39866608 heartbeat IPC: 1.22658 cumulative IPC: 1.16645 (Simulation time: 0 hr 28 min 56 sec) 
Heartbeat CPU 0 instructions: 53000001 cycles: 40695021 heartbeat IPC: 1.20713 cumulative IPC: 1.16737 (Simulation time: 0 hr 29 min 29 sec) 
Heartbeat CPU 0 instructions: 54000001 cycles: 41517716 heartbeat IPC: 1.21552 cumulative IPC: 1.16842 (Simulation time: 0 hr 30 min 6 sec) 
Heartbeat CPU 0 instructions: 55000000 cycles: 42311721 heartbeat IPC: 1.25944 cumulative IPC: 1.1703 (Simulation time: 0 hr 30 min 41 sec) 
Heartbeat CPU 0 instructions: 56000000 cycles: 43131559 heartbeat IPC: 1.21975 cumulative IPC: 1.17133 (Simulation time: 0 hr 31 min 14 sec) 
Heartbeat CPU 0 instructions: 57000000 cycles: 44049256 heartbeat IPC: 1.08968 cumulative IPC: 1.16947 (Simulation time: 0 hr 31 min 49 sec) 
Heartbeat CPU 0 instructions: 58000002 cycles: 45178390 heartbeat IPC: 0.885636 cumulative IPC: 1.16171 (Simulation time: 0 hr 32 min 21 sec) 
Heartbeat CPU 0 instructions: 59000001 cycles: 46015442 heartbeat IPC: 1.19467 cumulative IPC: 1.16237 (Simulation time: 0 hr 32 min 58 sec) 
Heartbeat CPU 0 instructions: 60000000 cycles: 46837546 heartbeat IPC: 1.21639 cumulative IPC: 1.1634 (Simulation time: 0 hr 33 min 31 sec) 
Heartbeat CPU 0 instructions: 61000001 cycles: 47644517 heartbeat IPC: 1.2392 cumulative IPC: 1.1648 (Simulation time: 0 hr 34 min 5 sec) 
Heartbeat CPU 0 instructions: 62000000 cycles: 48461363 heartbeat IPC: 1.22422 cumulative IPC: 1.16588 (Simulation time: 0 hr 34 min 34 sec) 
Heartbeat CPU 0 instructions: 63000002 cycles: 49278844 heartbeat IPC: 1.22327 cumulative IPC: 1.16692 (Simulation time: 0 hr 35 min 5 sec) 
Heartbeat CPU 0 instructions: 64000000 cycles: 50105137 heartbeat IPC: 1.21022 cumulative IPC: 1.16769 (Simulation time: 0 hr 35 min 41 sec) 
Heartbeat CPU 0 instructions: 65000003 cycles: 50910313 heartbeat IPC: 1.24197 cumulative IPC: 1.16896 (Simulation time: 0 hr 36 min 17 sec) 
Heartbeat CPU 0 instructions: 66000003 cycles: 51733371 heartbeat IPC: 1.21498 cumulative IPC: 1.16975 (Simulation time: 0 hr 36 min 56 sec) 
Heartbeat CPU 0 instructions: 67000003 cycles: 52598048 heartbeat IPC: 1.1565 cumulative IPC: 1.16952 (Simulation time: 0 hr 37 min 33 sec) 
Heartbeat CPU 0 instructions: 68000000 cycles: 53404512 heartbeat IPC: 1.23998 cumulative IPC: 1.17066 (Simulation time: 0 hr 38 min 9 sec) 
Heartbeat CPU 0 instructions: 69000003 cycles: 54230353 heartbeat IPC: 1.21089 cumulative IPC: 1.17132 (Simulation time: 0 hr 38 min 50 sec) 
Heartbeat CPU 0 instructions: 70000000 cycles: 55083227 heartbeat IPC: 1.1725 cumulative IPC: 1.17134 (Simulation time: 0 hr 39 min 38 sec) 
Heartbeat CPU 0 instructions: 71000002 cycles: 55894277 heartbeat IPC: 1.23297 cumulative IPC: 1.1723 (Simulation time: 0 hr 40 min 30 sec) 
Heartbeat CPU 0 instructions: 72000000 cycles: 56717085 heartbeat IPC: 1.21535 cumulative IPC: 1.17297 (Simulation time: 0 hr 41 min 20 sec) 
Heartbeat CPU 0 instructions: 73000003 cycles: 57556857 heartbeat IPC: 1.1908 cumulative IPC: 1.17325 (Simulation time: 0 hr 42 min 15 sec) 
Heartbeat CPU 0 instructions: 74000003 cycles: 58363660 heartbeat IPC: 1.23946 cumulative IPC: 1.17423 (Simulation time: 0 hr 43 min 7 sec) 
Heartbeat CPU 0 instructions: 75000002 cycles: 59191539 heartbeat IPC: 1.2079 cumulative IPC: 1.17474 (Simulation time: 0 hr 44 min 3 sec) 
Heartbeat CPU 0 instructions: 76000000 cycles: 60027668 heartbeat IPC: 1.19599 cumulative IPC: 1.17505 (Simulation time: 0 hr 44 min 55 sec) 
Heartbeat CPU 0 instructions: 77000003 cycles: 60860068 heartbeat IPC: 1.20135 cumulative IPC: 1.17544 (Simulation time: 0 hr 45 min 48 sec) 
Heartbeat CPU 0 instructions: 78000003 cycles: 61679920 heartbeat IPC: 1.21973 cumulative IPC: 1.17607 (Simulation time: 0 hr 46 min 37 sec) 
Heartbeat CPU 0 instructions: 79000003 cycles: 62515289 heartbeat IPC: 1.19708 cumulative IPC: 1.17636 (Simulation time: 0 hr 47 min 28 sec) 
Heartbeat CPU 0 instructions: 80000000 cycles: 63333587 heartbeat IPC: 1.22205 cumulative IPC: 1.17699 (Simulation time: 0 hr 48 min 20 sec) 
Heartbeat CPU 0 instructions: 81000001 cycles: 64154016 heartbeat IPC: 1.21888 cumulative IPC: 1.17756 (Simulation time: 0 hr 49 min 15 sec) 
Heartbeat CPU 0 instructions: 82000002 cycles: 64989880 heartbeat IPC: 1.19637 cumulative IPC: 1.17782 (Simulation time: 0 hr 50 min 1 sec) 
Heartbeat CPU 0 instructions: 83000003 cycles: 65821398 heartbeat IPC: 1.20262 cumulative IPC: 1.17815 (Simulation time: 0 hr 50 min 56 sec) 
Heartbeat CPU 0 instructions: 84000000 cycles: 66638435 heartbeat IPC: 1.22393 cumulative IPC: 1.17875 (Simulation time: 0 hr 51 min 50 sec) 
Heartbeat CPU 0 instructions: 85000001 cycles: 67470124 heartbeat IPC: 1.20237 cumulative IPC: 1.17906 (Simulation time: 0 hr 52 min 38 sec) 
Heartbeat CPU 0 instructions: 86000000 cycles: 68274564 heartbeat IPC: 1.2431 cumulative IPC: 1.17986 (Simulation time: 0 hr 53 min 29 sec) 
Heartbeat CPU 0 instructions: 87000003 cycles: 69099510 heartbeat IPC: 1.2122 cumulative IPC: 1.18027 (Simulation time: 0 hr 54 min 8 sec) 
Heartbeat CPU 0 instructions: 88000000 cycles: 69930449 heartbeat IPC: 1.20345 cumulative IPC: 1.18056 (Simulation time: 0 hr 54 min 46 sec) 
Heartbeat CPU 0 instructions: 89000000 cycles: 70734944 heartbeat IPC: 1.24302 cumulative IPC: 1.18131 (Simulation time: 0 hr 55 min 25 sec) 
Heartbeat CPU 0 instructions: 90000000 cycles: 71538429 heartbeat IPC: 1.24458 cumulative IPC: 1.18206 (Simulation time: 0 hr 56 min 2 sec) 
Heartbeat CPU 0 instructions: 91000001 cycles: 72365309 heartbeat IPC: 1.20937 cumulative IPC: 1.18239 (Simulation time: 0 hr 56 min 40 sec) 
Heartbeat CPU 0 instructions: 92000000 cycles: 73183516 heartbeat IPC: 1.22218 cumulative IPC: 1.18286 (Simulation time: 0 hr 57 min 18 sec) 
Heartbeat CPU 0 instructions: 93000002 cycles: 73970563 heartbeat IPC: 1.27057 cumulative IPC: 1.18384 (Simulation time: 0 hr 57 min 54 sec) 
Heartbeat CPU 0 instructions: 94000000 cycles: 74814804 heartbeat IPC: 1.18449 cumulative IPC: 1.18385 (Simulation time: 0 hr 58 min 31 sec) 
Heartbeat CPU 0 instructions: 95000000 cycles: 75632352 heartbeat IPC: 1.22317 cumulative IPC: 1.1843 (Simulation time: 0 hr 59 min 7 sec) 
Heartbeat CPU 0 instructions: 96000000 cycles: 76438004 heartbeat IPC: 1.24123 cumulative IPC: 1.18493 (Simulation time: 0 hr 59 min 44 sec) 
Heartbeat CPU 0 instructions: 97000002 cycles: 77614021 heartbeat IPC: 0.85033 cumulative IPC: 1.1796 (Simulation time: 1 hr 0 min 23 sec) 
Heartbeat CPU 0 instructions: 98000003 cycles: 78574468 heartbeat IPC: 1.04118 cumulative IPC: 1.17782 (Simulation time: 1 hr 0 min 58 sec) 
Heartbeat CPU 0 instructions: 99000000 cycles: 79405383 heartbeat IPC: 1.20349 cumulative IPC: 1.1781 (Simulation time: 1 hr 1 min 33 sec) 
Heartbeat CPU 0 instructions: 100000000 cycles: 80224533 heartbeat IPC: 1.22078 cumulative IPC: 1.17856 (Simulation time: 1 hr 2 min 8 sec) 
Heartbeat CPU 0 instructions: 101000001 cycles: 81579102 heartbeat IPC: 0.738243 cumulative IPC: 1.17088 (Simulation time: 1 hr 2 min 47 sec) 
Heartbeat CPU 0 instructions: 102000002 cycles: 82426246 heartbeat IPC: 1.18044 cumulative IPC: 1.17099 (Simulation time: 1 hr 3 min 22 sec) 
Heartbeat CPU 0 instructions: 103000001 cycles: 83268054 heartbeat IPC: 1.18792 cumulative IPC: 1.17117 (Simulation time: 1 hr 3 min 58 sec) 
Heartbeat CPU 0 instructions: 104000000 cycles: 84522534 heartbeat IPC: 0.797142 cumulative IPC: 1.16535 (Simulation time: 1 hr 4 min 36 sec) 
Heartbeat CPU 0 instructions: 105000002 cycles: 85373711 heartbeat IPC: 1.17485 cumulative IPC: 1.16545 (Simulation time: 1 hr 5 min 9 sec) 
Heartbeat CPU 0 instructions: 106000000 cycles: 86206990 heartbeat IPC: 1.20008 cumulative IPC: 1.1658 (Simulation time: 1 hr 5 min 38 sec) 
Heartbeat CPU 0 instructions: 107000000 cycles: 87302959 heartbeat IPC: 0.912435 cumulative IPC: 1.16247 (Simulation time: 1 hr 6 min 11 sec) 
Heartbeat CPU 0 instructions: 108000000 cycles: 88302327 heartbeat IPC: 1.00063 cumulative IPC: 1.16056 (Simulation time: 1 hr 6 min 44 sec) 
Heartbeat CPU 0 instructions: 109000003 cycles: 89139168 heartbeat IPC: 1.19497 cumulative IPC: 1.16089 (Simulation time: 1 hr 7 min 16 sec) 
Heartbeat CPU 0 instructions: 110000000 cycles: 90016195 heartbeat IPC: 1.14021 cumulative IPC: 1.16068 (Simulation time: 1 hr 7 min 47 sec) 
Finished CPU 0 instructions: 100000003 cycles: 86156181 cummulative IPC: 1.16068 (Simulation time: 1 hr 7 min 47 sec) 

ChampSim completed all CPUs

Region of Interest Statistics

CPU 0 cummulative IPC: 1.16068 instructions: 100000003 cycles: 86156181
LLC TOTAL     ACCESS:    1445979  HIT:     464031  MISS:     981948
LLC LOAD      ACCESS:     119000  HIT:      99957  MISS:      19043
LLC RFO       ACCESS:     121981  HIT:     120916  MISS:       1065
LLC PREFETCH  ACCESS:    1076604  HIT:     114900  MISS:     961704
LLC WRITEBACK ACCESS:     128394  HIT:     128258  MISS:        136
