
*** ChampSim Multicore Out-of-Order Simulator ***

Warmup Instructions: 10000000
Simulation Instructions: 100000000
Configuration: 2
Number of CPUs: 1
LLC sets: 2048
LLC ways: 16
Off-chip DRAM Channels: 1 Width: 64-bit Data Rate: 1600 MT/s

CPU 0 runs /datasets/cs240c-wi22-a00-public/data/Assignment2-gz/milc_409B.trace.gz
CPU 0 L1D next line prefetcher
CPU 0 L2C IP-based stride prefetcher
Heartbeat CPU 0 instructions: 1000002 cycles: 407040 heartbeat IPC: 2.45677 cumulative IPC: 2.45677 (Simulation time: 0 hr 0 min 35 sec) 
Heartbeat CPU 0 instructions: 2000002 cycles: 889867 heartbeat IPC: 2.07114 cumulative IPC: 2.24753 (Simulation time: 0 hr 1 min 15 sec) 
Heartbeat CPU 0 instructions: 3000003 cycles: 1672034 heartbeat IPC: 1.2785 cumulative IPC: 1.79422 (Simulation time: 0 hr 2 min 1 sec) 
Heartbeat CPU 0 instructions: 4000000 cycles: 2454291 heartbeat IPC: 1.27835 cumulative IPC: 1.6298 (Simulation time: 0 hr 2 min 47 sec) 
Heartbeat CPU 0 instructions: 5000000 cycles: 3135412 heartbeat IPC: 1.46817 cumulative IPC: 1.59469 (Simulation time: 0 hr 3 min 30 sec) 
Heartbeat CPU 0 instructions: 6000003 cycles: 3679804 heartbeat IPC: 1.83692 cumulative IPC: 1.63052 (Simulation time: 0 hr 4 min 7 sec) 
Heartbeat CPU 0 instructions: 7000002 cycles: 4224110 heartbeat IPC: 1.8372 cumulative IPC: 1.65715 (Simulation time: 0 hr 4 min 47 sec) 
Heartbeat CPU 0 instructions: 8000000 cycles: 4768518 heartbeat IPC: 1.83685 cumulative IPC: 1.67767 (Simulation time: 0 hr 5 min 28 sec) 
Heartbeat CPU 0 instructions: 9000003 cycles: 5312844 heartbeat IPC: 1.83714 cumulative IPC: 1.69401 (Simulation time: 0 hr 6 min 5 sec) 
Heartbeat CPU 0 instructions: 10000000 cycles: 5857232 heartbeat IPC: 1.83692 cumulative IPC: 1.70729 (Simulation time: 0 hr 6 min 46 sec) 

Warmup complete CPU 0 instructions: 10000002 cycles: 5857233 (Simulation time: 0 hr 6 min 46 sec) 

Heartbeat CPU 0 instructions: 11000002 cycles: 7521391 heartbeat IPC: 0.600905 cumulative IPC: 0.600904 (Simulation time: 0 hr 7 min 29 sec) 
Heartbeat CPU 0 instructions: 12000000 cycles: 9183724 heartbeat IPC: 0.601563 cumulative IPC: 0.601234 (Simulation time: 0 hr 8 min 11 sec) 
Heartbeat CPU 0 instructions: 13000003 cycles: 10845314 heartbeat IPC: 0.601835 cumulative IPC: 0.601434 (Simulation time: 0 hr 8 min 54 sec) 
Heartbeat CPU 0 instructions: 14000002 cycles: 12502898 heartbeat IPC: 0.603287 cumulative IPC: 0.601896 (Simulation time: 0 hr 9 min 36 sec) 
Heartbeat CPU 0 instructions: 15000001 cycles: 14159999 heartbeat IPC: 0.603463 cumulative IPC: 0.602209 (Simulation time: 0 hr 10 min 19 sec) 
Heartbeat CPU 0 instructions: 16000000 cycles: 15819468 heartbeat IPC: 0.602602 cumulative IPC: 0.602274 (Simulation time: 0 hr 11 min 0 sec) 
Heartbeat CPU 0 instructions: 17000002 cycles: 17473518 heartbeat IPC: 0.604578 cumulative IPC: 0.602602 (Simulation time: 0 hr 11 min 44 sec) 
Heartbeat CPU 0 instructions: 18000000 cycles: 19128986 heartbeat IPC: 0.604058 cumulative IPC: 0.602784 (Simulation time: 0 hr 12 min 29 sec) 
Heartbeat CPU 0 instructions: 19000003 cycles: 20788797 heartbeat IPC: 0.60248 cumulative IPC: 0.60275 (Simulation time: 0 hr 13 min 12 sec) 
Heartbeat CPU 0 instructions: 20000000 cycles: 22444860 heartbeat IPC: 0.60384 cumulative IPC: 0.602859 (Simulation time: 0 hr 13 min 55 sec) 
Heartbeat CPU 0 instructions: 21000001 cycles: 24095030 heartbeat IPC: 0.605999 cumulative IPC: 0.603143 (Simulation time: 0 hr 14 min 36 sec) 
Heartbeat CPU 0 instructions: 22000002 cycles: 25751473 heartbeat IPC: 0.603704 cumulative IPC: 0.60319 (Simulation time: 0 hr 15 min 16 sec) 
Heartbeat CPU 0 instructions: 23000002 cycles: 27411784 heartbeat IPC: 0.602297 cumulative IPC: 0.603121 (Simulation time: 0 hr 15 min 59 sec) 
Heartbeat CPU 0 instructions: 24000000 cycles: 29064068 heartbeat IPC: 0.605222 cumulative IPC: 0.60327 (Simulation time: 0 hr 16 min 42 sec) 
Heartbeat CPU 0 instructions: 25000002 cycles: 30724340 heartbeat IPC: 0.602312 cumulative IPC: 0.603206 (Simulation time: 0 hr 17 min 29 sec) 
Heartbeat CPU 0 instructions: 26000000 cycles: 32378696 heartbeat IPC: 0.604464 cumulative IPC: 0.603285 (Simulation time: 0 hr 18 min 13 sec) 
Heartbeat CPU 0 instructions: 27000002 cycles: 34033505 heartbeat IPC: 0.604301 cumulative IPC: 0.603345 (Simulation time: 0 hr 18 min 56 sec) 
Heartbeat CPU 0 instructions: 28000000 cycles: 35688029 heartbeat IPC: 0.604402 cumulative IPC: 0.603403 (Simulation time: 0 hr 19 min 42 sec) 
Heartbeat CPU 0 instructions: 29000002 cycles: 37338805 heartbeat IPC: 0.605777 cumulative IPC: 0.603528 (Simulation time: 0 hr 20 min 25 sec) 
Heartbeat CPU 0 instructions: 30000000 cycles: 38988388 heartbeat IPC: 0.606213 cumulative IPC: 0.603661 (Simulation time: 0 hr 21 min 9 sec) 
Heartbeat CPU 0 instructions: 31000000 cycles: 40643695 heartbeat IPC: 0.604118 cumulative IPC: 0.603683 (Simulation time: 0 hr 21 min 51 sec) 
Heartbeat CPU 0 instructions: 32000000 cycles: 42302536 heartbeat IPC: 0.602831 cumulative IPC: 0.603644 (Simulation time: 0 hr 22 min 36 sec) 
Heartbeat CPU 0 instructions: 33000000 cycles: 43959231 heartbeat IPC: 0.603611 cumulative IPC: 0.603643 (Simulation time: 0 hr 23 min 23 sec) 
Heartbeat CPU 0 instructions: 34000000 cycles: 45614030 heartbeat IPC: 0.604303 cumulative IPC: 0.60367 (Simulation time: 0 hr 24 min 9 sec) 
Heartbeat CPU 0 instructions: 35000002 cycles: 47267211 heartbeat IPC: 0.604896 cumulative IPC: 0.603719 (Simulation time: 0 hr 24 min 54 sec) 
Heartbeat CPU 0 instructions: 36000000 cycles: 48919544 heartbeat IPC: 0.605204 cumulative IPC: 0.603776 (Simulation time: 0 hr 25 min 38 sec) 
Heartbeat CPU 0 instructions: 37000000 cycles: 50572655 heartbeat IPC: 0.60492 cumulative IPC: 0.603818 (Simulation time: 0 hr 26 min 26 sec) 
Heartbeat CPU 0 instructions: 38000002 cycles: 52223746 heartbeat IPC: 0.605661 cumulative IPC: 0.603884 (Simulation time: 0 hr 27 min 10 sec) 
Heartbeat CPU 0 instructions: 39000001 cycles: 53879352 heartbeat IPC: 0.604008 cumulative IPC: 0.603888 (Simulation time: 0 hr 27 min 57 sec) 
Heartbeat CPU 0 instructions: 40000000 cycles: 55533813 heartbeat IPC: 0.604426 cumulative IPC: 0.603906 (Simulation time: 0 hr 28 min 45 sec) 
Heartbeat CPU 0 instructions: 41000002 cycles: 57185977 heartbeat IPC: 0.605268 cumulative IPC: 0.60395 (Simulation time: 0 hr 29 min 31 sec) 
Heartbeat CPU 0 instructions: 42000001 cycles: 58841615 heartbeat IPC: 0.603996 cumulative IPC: 0.603952 (Simulation time: 0 hr 30 min 16 sec) 
Heartbeat CPU 0 instructions: 43000000 cycles: 60492711 heartbeat IPC: 0.605658 cumulative IPC: 0.604003 (Simulation time: 0 hr 31 min 1 sec) 
Heartbeat CPU 0 instructions: 44000000 cycles: 62152596 heartbeat IPC: 0.602451 cumulative IPC: 0.603957 (Simulation time: 0 hr 31 min 44 sec) 
Heartbeat CPU 0 instructions: 45000000 cycles: 63804836 heartbeat IPC: 0.605239 cumulative IPC: 0.603994 (Simulation time: 0 hr 32 min 26 sec) 
Heartbeat CPU 0 instructions: 46000000 cycles: 65458236 heartbeat IPC: 0.604814 cumulative IPC: 0.604017 (Simulation time: 0 hr 33 min 15 sec) 
Heartbeat CPU 0 instructions: 47000002 cycles: 67112441 heartbeat IPC: 0.604521 cumulative IPC: 0.60403 (Simulation time: 0 hr 34 min 2 sec) 
Heartbeat CPU 0 instructions: 48000000 cycles: 68768515 heartbeat IPC: 0.603837 cumulative IPC: 0.604025 (Simulation time: 0 hr 34 min 47 sec) 
Heartbeat CPU 0 instructions: 49000000 cycles: 70423934 heartbeat IPC: 0.604077 cumulative IPC: 0.604026 (Simulation time: 0 hr 35 min 28 sec) 
Heartbeat CPU 0 instructions: 50000001 cycles: 72079042 heartbeat IPC: 0.604191 cumulative IPC: 0.604031 (Simulation time: 0 hr 36 min 13 sec) 
Heartbeat CPU 0 instructions: 51000002 cycles: 73735590 heartbeat IPC: 0.603666 cumulative IPC: 0.604022 (Simulation time: 0 hr 37 min 5 sec) 
Heartbeat CPU 0 instructions: 52000000 cycles: 75653092 heartbeat IPC: 0.521511 cumulative IPC: 0.601755 (Simulation time: 0 hr 37 min 55 sec) 
Heartbeat CPU 0 instructions: 53000001 cycles: 77822506 heartbeat IPC: 0.460954 cumulative IPC: 0.59751 (Simulation time: 0 hr 38 min 52 sec) 
Heartbeat CPU 0 instructions: 54000001 cycles: 79970004 heartbeat IPC: 0.465658 cumulative IPC: 0.59369 (Simulation time: 0 hr 39 min 51 sec) 
Heartbeat CPU 0 instructions: 55000002 cycles: 82136708 heartbeat IPC: 0.461531 cumulative IPC: 0.589936 (Simulation time: 0 hr 40 min 48 sec) 
Heartbeat CPU 0 instructions: 56000000 cycles: 84303144 heartbeat IPC: 0.461587 cumulative IPC: 0.586391 (Simulation time: 0 hr 41 min 43 sec) 
Heartbeat CPU 0 instructions: 57000002 cycles: 86443621 heartbeat IPC: 0.467187 cumulative IPC: 0.583225 (Simulation time: 0 hr 42 min 36 sec) 
Heartbeat CPU 0 instructions: 58000002 cycles: 88483808 heartbeat IPC: 0.490151 cumulative IPC: 0.580927 (Simulation time: 0 hr 43 min 27 sec) 
Heartbeat CPU 0 instructions: 59000001 cycles: 90246992 heartbeat IPC: 0.567155 cumulative IPC: 0.580639 (Simulation time: 0 hr 44 min 18 sec) 
Heartbeat CPU 0 instructions: 60000000 cycles: 91913208 heartbeat IPC: 0.600162 cumulative IPC: 0.581017 (Simulation time: 0 hr 45 min 5 sec) 
Heartbeat CPU 0 instructions: 61000000 cycles: 93573906 heartbeat IPC: 0.602156 cumulative IPC: 0.581417 (Simulation time: 0 hr 45 min 51 sec) 
Heartbeat CPU 0 instructions: 62000000 cycles: 95238692 heartbeat IPC: 0.600678 cumulative IPC: 0.581776 (Simulation time: 0 hr 46 min 38 sec) 
Heartbeat CPU 0 instructions: 63000003 cycles: 96903919 heartbeat IPC: 0.600521 cumulative IPC: 0.582119 (Simulation time: 0 hr 47 min 23 sec) 
Heartbeat CPU 0 instructions: 64000000 cycles: 98570474 heartbeat IPC: 0.600038 cumulative IPC: 0.582441 (Simulation time: 0 hr 48 min 8 sec) 
Heartbeat CPU 0 instructions: 65000002 cycles: 100241250 heartbeat IPC: 0.598525 cumulative IPC: 0.582726 (Simulation time: 0 hr 48 min 56 sec) 
Heartbeat CPU 0 instructions: 66000002 cycles: 101903425 heartbeat IPC: 0.601621 cumulative IPC: 0.583053 (Simulation time: 0 hr 49 min 40 sec) 
Heartbeat CPU 0 instructions: 67000001 cycles: 103565273 heartbeat IPC: 0.601739 cumulative IPC: 0.583371 (Simulation time: 0 hr 50 min 24 sec) 
Heartbeat CPU 0 instructions: 68000000 cycles: 105232563 heartbeat IPC: 0.599775 cumulative IPC: 0.583646 (Simulation time: 0 hr 51 min 8 sec) 
Heartbeat CPU 0 instructions: 69000000 cycles: 106897132 heartbeat IPC: 0.600756 cumulative IPC: 0.583928 (Simulation time: 0 hr 51 min 52 sec) 
Heartbeat CPU 0 instructions: 70000000 cycles: 108566127 heartbeat IPC: 0.599163 cumulative IPC: 0.584175 (Simulation time: 0 hr 52 min 36 sec) 
Heartbeat CPU 0 instructions: 71000002 cycles: 110229335 heartbeat IPC: 0.601249 cumulative IPC: 0.584447 (Simulation time: 0 hr 53 min 24 sec) 
Heartbeat CPU 0 instructions: 72000000 cycles: 111895705 heartbeat IPC: 0.600106 cumulative IPC: 0.584693 (Simulation time: 0 hr 54 min 8 sec) 
Heartbeat CPU 0 instructions: 73000003 cycles: 113559731 heartbeat IPC: 0.600954 cumulative IPC: 0.584945 (Simulation time: 0 hr 54 min 54 sec) 
Heartbeat CPU 0 instructions: 74000002 cycles: 115228924 heartbeat IPC: 0.599091 cumulative IPC: 0.585161 (Simulation time: 0 hr 55 min 37 sec) 
Heartbeat CPU 0 instructions: 75000003 cycles: 116893106 heartbeat IPC: 0.600896 cumulative IPC: 0.585396 (Simulation time: 0 hr 56 min 19 sec) 
Heartbeat CPU 0 instructions: 76000000 cycles: 118561143 heartbeat IPC: 0.599505 cumulative IPC: 0.585605 (Simulation time: 0 hr 57 min 5 sec) 
Heartbeat CPU 0 instructions: 77000003 cycles: 120231129 heartbeat IPC: 0.598809 cumulative IPC: 0.585798 (Simulation time: 0 hr 57 min 48 sec) 
Heartbeat CPU 0 instructions: 78000000 cycles: 121895936 heartbeat IPC: 0.600668 cumulative IPC: 0.586011 (Simulation time: 0 hr 58 min 32 sec) 
Heartbeat CPU 0 instructions: 79000000 cycles: 123562577 heartbeat IPC: 0.600009 cumulative IPC: 0.58621 (Simulation time: 0 hr 59 min 14 sec) 
Heartbeat CPU 0 instructions: 80000000 cycles: 125225653 heartbeat IPC: 0.601295 cumulative IPC: 0.58642 (Simulation time: 0 hr 59 min 58 sec) 
Heartbeat CPU 0 instructions: 81000000 cycles: 126893513 heartbeat IPC: 0.599571 cumulative IPC: 0.586601 (Simulation time: 1 hr 0 min 41 sec) 
Heartbeat CPU 0 instructions: 82000002 cycles: 128554496 heartbeat IPC: 0.602054 cumulative IPC: 0.58681 (Simulation time: 1 hr 1 min 25 sec) 
Heartbeat CPU 0 instructions: 83000003 cycles: 130213340 heartbeat IPC: 0.60283 cumulative IPC: 0.587024 (Simulation time: 1 hr 2 min 7 sec) 
Heartbeat CPU 0 instructions: 84000000 cycles: 131874340 heartbeat IPC: 0.602045 cumulative IPC: 0.587222 (Simulation time: 1 hr 2 min 52 sec) 
Heartbeat CPU 0 instructions: 85000001 cycles: 133533395 heartbeat IPC: 0.602753 cumulative IPC: 0.587424 (Simulation time: 1 hr 3 min 36 sec) 
Heartbeat CPU 0 instructions: 86000002 cycles: 135196440 heartbeat IPC: 0.601307 cumulative IPC: 0.587602 (Simulation time: 1 hr 4 min 21 sec) 
Heartbeat CPU 0 instructions: 87000003 cycles: 136860790 heartbeat IPC: 0.600836 cumulative IPC: 0.58777 (Simulation time: 1 hr 5 min 2 sec) 
Heartbeat CPU 0 instructions: 88000000 cycles: 138525025 heartbeat IPC: 0.600875 cumulative IPC: 0.587935 (Simulation time: 1 hr 5 min 39 sec) 
Heartbeat CPU 0 instructions: 89000001 cycles: 140186637 heartbeat IPC: 0.601826 cumulative IPC: 0.588107 (Simulation time: 1 hr 6 min 20 sec) 
Heartbeat CPU 0 instructions: 90000002 cycles: 141846875 heartbeat IPC: 0.602324 cumulative IPC: 0.58828 (Simulation time: 1 hr 6 min 59 sec) 
Heartbeat CPU 0 instructions: 91000000 cycles: 143504502 heartbeat IPC: 0.603271 cumulative IPC: 0.588461 (Simulation time: 1 hr 7 min 36 sec) 
Heartbeat CPU 0 instructions: 92000000 cycles: 145164980 heartbeat IPC: 0.602236 cumulative IPC: 0.588625 (Simulation time: 1 hr 8 min 11 sec) 
Heartbeat CPU 0 instructions: 93000003 cycles: 146826208 heartbeat IPC: 0.601966 cumulative IPC: 0.588782 (Simulation time: 1 hr 8 min 46 sec) 
Heartbeat CPU 0 instructions: 94000002 cycles: 148486630 heartbeat IPC: 0.602256 cumulative IPC: 0.588939 (Simulation time: 1 hr 9 min 21 sec) 
Heartbeat CPU 0 instructions: 95000003 cycles: 150146262 heartbeat IPC: 0.602544 cumulative IPC: 0.589095 (Simulation time: 1 hr 9 min 53 sec) 
Heartbeat CPU 0 instructions: 96000000 cycles: 151803508 heartbeat IPC: 0.603409 cumulative IPC: 0.589258 (Simulation time: 1 hr 10 min 26 sec) 
Heartbeat CPU 0 instructions: 97000001 cycles: 153467492 heartbeat IPC: 0.600968 cumulative IPC: 0.58939 (Simulation time: 1 hr 10 min 58 sec) 
Heartbeat CPU 0 instructions: 98000002 cycles: 155128945 heartbeat IPC: 0.601883 cumulative IPC: 0.589529 (Simulation time: 1 hr 11 min 30 sec) 
Heartbeat CPU 0 instructions: 99000003 cycles: 156790851 heartbeat IPC: 0.601719 cumulative IPC: 0.589663 (Simulation time: 1 hr 12 min 1 sec) 
Heartbeat CPU 0 instructions: 100000000 cycles: 158449586 heartbeat IPC: 0.602867 cumulative IPC: 0.589807 (Simulation time: 1 hr 12 min 32 sec) 
Heartbeat CPU 0 instructions: 101000001 cycles: 160105709 heartbeat IPC: 0.603821 cumulative IPC: 0.589957 (Simulation time: 1 hr 13 min 0 sec) 
Heartbeat CPU 0 instructions: 102000002 cycles: 161766769 heartbeat IPC: 0.602026 cumulative IPC: 0.590086 (Simulation time: 1 hr 13 min 27 sec) 
Heartbeat CPU 0 instructions: 103000000 cycles: 163427775 heartbeat IPC: 0.602044 cumulative IPC: 0.590212 (Simulation time: 1 hr 13 min 54 sec) 
Heartbeat CPU 0 instructions: 104000000 cycles: 165084837 heartbeat IPC: 0.603478 cumulative IPC: 0.59035 (Simulation time: 1 hr 14 min 23 sec) 
Heartbeat CPU 0 instructions: 105000003 cycles: 167094273 heartbeat IPC: 0.497654 cumulative IPC: 0.589195 (Simulation time: 1 hr 14 min 52 sec) 
Heartbeat CPU 0 instructions: 106000003 cycles: 171267654 heartbeat IPC: 0.239614 cumulative IPC: 0.580375 (Simulation time: 1 hr 15 min 39 sec) 
Heartbeat CPU 0 instructions: 107000000 cycles: 173052656 heartbeat IPC: 0.560222 cumulative IPC: 0.580159 (Simulation time: 1 hr 15 min 59 sec) 
Heartbeat CPU 0 instructions: 108000000 cycles: 174832526 heartbeat IPC: 0.561839 cumulative IPC: 0.579966 (Simulation time: 1 hr 16 min 21 sec) 
Heartbeat CPU 0 instructions: 109000001 cycles: 176614093 heartbeat IPC: 0.561304 cumulative IPC: 0.579772 (Simulation time: 1 hr 16 min 41 sec) 
Heartbeat CPU 0 instructions: 110000001 cycles: 178395039 heartbeat IPC: 0.561499 cumulative IPC: 0.579583 (Simulation time: 1 hr 17 min 1 sec) 
Finished CPU 0 instructions: 100000003 cycles: 172537807 cummulative IPC: 0.579583 (Simulation time: 1 hr 17 min 1 sec) 

ChampSim completed all CPUs

Region of Interest Statistics

CPU 0 cummulative IPC: 0.579583 instructions: 100000003 cycles: 172537807
LLC TOTAL     ACCESS:    3300884  HIT:     177222  MISS:    3123662
LLC LOAD      ACCESS:     973198  HIT:       1878  MISS:     971320
LLC RFO       ACCESS:     136847  HIT:          4  MISS:     136843
LLC PREFETCH  ACCESS:    1332750  HIT:      24060  MISS:    1308690
LLC WRITEBACK ACCESS:     858089  HIT:     151280  MISS:     706809
