
*** ChampSim Multicore Out-of-Order Simulator ***

Warmup Instructions: 10000000
Simulation Instructions: 100000000
Configuration: 2
Number of CPUs: 1
LLC sets: 2048
LLC ways: 16
Off-chip DRAM Channels: 1 Width: 64-bit Data Rate: 1600 MT/s

CPU 0 runs /datasets/cs240c-wi22-a00-public/data/Assignment2-gz/leslie3d_1116B.trace.gz
CPU 0 L1D next line prefetcher
CPU 0 L2C IP-based stride prefetcher
Heartbeat CPU 0 instructions: 1000003 cycles: 535311 heartbeat IPC: 1.86808 cumulative IPC: 1.86808 (Simulation time: 0 hr 0 min 48 sec) 
Heartbeat CPU 0 instructions: 2000003 cycles: 1071188 heartbeat IPC: 1.8661 cumulative IPC: 1.86709 (Simulation time: 0 hr 1 min 33 sec) 
Heartbeat CPU 0 instructions: 3000003 cycles: 1607882 heartbeat IPC: 1.86326 cumulative IPC: 1.86581 (Simulation time: 0 hr 2 min 15 sec) 
Heartbeat CPU 0 instructions: 4000000 cycles: 2143232 heartbeat IPC: 1.86793 cumulative IPC: 1.86634 (Simulation time: 0 hr 3 min 0 sec) 
Heartbeat CPU 0 instructions: 5000001 cycles: 2678295 heartbeat IPC: 1.86894 cumulative IPC: 1.86686 (Simulation time: 0 hr 3 min 44 sec) 
Heartbeat CPU 0 instructions: 6000001 cycles: 3213679 heartbeat IPC: 1.86782 cumulative IPC: 1.86702 (Simulation time: 0 hr 4 min 29 sec) 
Heartbeat CPU 0 instructions: 7000001 cycles: 3749648 heartbeat IPC: 1.86578 cumulative IPC: 1.86684 (Simulation time: 0 hr 5 min 14 sec) 
Heartbeat CPU 0 instructions: 8000000 cycles: 4285644 heartbeat IPC: 1.86568 cumulative IPC: 1.8667 (Simulation time: 0 hr 5 min 59 sec) 
Heartbeat CPU 0 instructions: 9000003 cycles: 4820706 heartbeat IPC: 1.86895 cumulative IPC: 1.86695 (Simulation time: 0 hr 6 min 41 sec) 
Heartbeat CPU 0 instructions: 10000002 cycles: 5355653 heartbeat IPC: 1.86934 cumulative IPC: 1.86719 (Simulation time: 0 hr 7 min 25 sec) 

Warmup complete CPU 0 instructions: 10000002 cycles: 5355653 (Simulation time: 0 hr 7 min 25 sec) 

Heartbeat CPU 0 instructions: 11000001 cycles: 6455069 heartbeat IPC: 0.909573 cumulative IPC: 0.909573 (Simulation time: 0 hr 8 min 14 sec) 
Heartbeat CPU 0 instructions: 12000000 cycles: 7528462 heartbeat IPC: 0.931624 cumulative IPC: 0.920467 (Simulation time: 0 hr 9 min 3 sec) 
Heartbeat CPU 0 instructions: 13000002 cycles: 8610575 heartbeat IPC: 0.92412 cumulative IPC: 0.921681 (Simulation time: 0 hr 9 min 52 sec) 
Heartbeat CPU 0 instructions: 14000003 cycles: 9697248 heartbeat IPC: 0.920241 cumulative IPC: 0.921321 (Simulation time: 0 hr 10 min 39 sec) 
Heartbeat CPU 0 instructions: 15000000 cycles: 10799568 heartbeat IPC: 0.907175 cumulative IPC: 0.918456 (Simulation time: 0 hr 11 min 29 sec) 
Heartbeat CPU 0 instructions: 16000000 cycles: 11896276 heartbeat IPC: 0.91182 cumulative IPC: 0.917343 (Simulation time: 0 hr 12 min 17 sec) 
Heartbeat CPU 0 instructions: 17000003 cycles: 12987506 heartbeat IPC: 0.9164 cumulative IPC: 0.917209 (Simulation time: 0 hr 13 min 7 sec) 
Heartbeat CPU 0 instructions: 18000001 cycles: 14093164 heartbeat IPC: 0.904437 cumulative IPC: 0.915592 (Simulation time: 0 hr 13 min 55 sec) 
Heartbeat CPU 0 instructions: 19000001 cycles: 15196976 heartbeat IPC: 0.905951 cumulative IPC: 0.914511 (Simulation time: 0 hr 14 min 45 sec) 
Heartbeat CPU 0 instructions: 20000000 cycles: 16286928 heartbeat IPC: 0.917471 cumulative IPC: 0.914806 (Simulation time: 0 hr 15 min 37 sec) 
Heartbeat CPU 0 instructions: 21000000 cycles: 17394295 heartbeat IPC: 0.903043 cumulative IPC: 0.913724 (Simulation time: 0 hr 16 min 31 sec) 
Heartbeat CPU 0 instructions: 22000000 cycles: 18490950 heartbeat IPC: 0.911864 cumulative IPC: 0.913569 (Simulation time: 0 hr 17 min 22 sec) 
Heartbeat CPU 0 instructions: 23000003 cycles: 19587246 heartbeat IPC: 0.912165 cumulative IPC: 0.913461 (Simulation time: 0 hr 18 min 13 sec) 
Heartbeat CPU 0 instructions: 24000000 cycles: 20675339 heartbeat IPC: 0.919036 cumulative IPC: 0.913857 (Simulation time: 0 hr 19 min 0 sec) 
Heartbeat CPU 0 instructions: 25000001 cycles: 21765482 heartbeat IPC: 0.917312 cumulative IPC: 0.914086 (Simulation time: 0 hr 19 min 44 sec) 
Heartbeat CPU 0 instructions: 26000002 cycles: 22881315 heartbeat IPC: 0.896192 cumulative IPC: 0.912947 (Simulation time: 0 hr 20 min 24 sec) 
Heartbeat CPU 0 instructions: 27000001 cycles: 23981260 heartbeat IPC: 0.909135 cumulative IPC: 0.912722 (Simulation time: 0 hr 21 min 5 sec) 
Heartbeat CPU 0 instructions: 28000000 cycles: 25067056 heartbeat IPC: 0.920982 cumulative IPC: 0.913177 (Simulation time: 0 hr 21 min 47 sec) 
Heartbeat CPU 0 instructions: 29000003 cycles: 26157850 heartbeat IPC: 0.916766 cumulative IPC: 0.913365 (Simulation time: 0 hr 22 min 28 sec) 
Heartbeat CPU 0 instructions: 30000002 cycles: 27284852 heartbeat IPC: 0.887309 cumulative IPC: 0.912026 (Simulation time: 0 hr 23 min 12 sec) 
Heartbeat CPU 0 instructions: 31000001 cycles: 28381075 heartbeat IPC: 0.912222 cumulative IPC: 0.912035 (Simulation time: 0 hr 23 min 54 sec) 
Heartbeat CPU 0 instructions: 32000000 cycles: 29485048 heartbeat IPC: 0.905818 cumulative IPC: 0.911751 (Simulation time: 0 hr 24 min 39 sec) 
Heartbeat CPU 0 instructions: 33000002 cycles: 30588257 heartbeat IPC: 0.906448 cumulative IPC: 0.911519 (Simulation time: 0 hr 25 min 24 sec) 
Heartbeat CPU 0 instructions: 34000002 cycles: 31706370 heartbeat IPC: 0.894364 cumulative IPC: 0.910791 (Simulation time: 0 hr 26 min 3 sec) 
Heartbeat CPU 0 instructions: 35000000 cycles: 32820781 heartbeat IPC: 0.897333 cumulative IPC: 0.910245 (Simulation time: 0 hr 26 min 47 sec) 
Heartbeat CPU 0 instructions: 36000000 cycles: 33922752 heartbeat IPC: 0.907465 cumulative IPC: 0.910138 (Simulation time: 0 hr 27 min 31 sec) 
Heartbeat CPU 0 instructions: 37000003 cycles: 35496329 heartbeat IPC: 0.635497 cumulative IPC: 0.895799 (Simulation time: 0 hr 28 min 21 sec) 
Heartbeat CPU 0 instructions: 38000003 cycles: 37087473 heartbeat IPC: 0.628479 cumulative IPC: 0.882395 (Simulation time: 0 hr 29 min 8 sec) 
Heartbeat CPU 0 instructions: 39000003 cycles: 38682406 heartbeat IPC: 0.626986 cumulative IPC: 0.870172 (Simulation time: 0 hr 29 min 55 sec) 
Heartbeat CPU 0 instructions: 40000000 cycles: 40282681 heartbeat IPC: 0.624891 cumulative IPC: 0.858934 (Simulation time: 0 hr 30 min 44 sec) 
Heartbeat CPU 0 instructions: 41000002 cycles: 41860007 heartbeat IPC: 0.633986 cumulative IPC: 0.849214 (Simulation time: 0 hr 31 min 33 sec) 
Heartbeat CPU 0 instructions: 42000001 cycles: 43445036 heartbeat IPC: 0.630903 cumulative IPC: 0.840129 (Simulation time: 0 hr 32 min 17 sec) 
Heartbeat CPU 0 instructions: 43000003 cycles: 45018696 heartbeat IPC: 0.635463 cumulative IPC: 0.832009 (Simulation time: 0 hr 33 min 0 sec) 
Heartbeat CPU 0 instructions: 44000000 cycles: 46597126 heartbeat IPC: 0.633539 cumulative IPC: 0.824413 (Simulation time: 0 hr 33 min 43 sec) 
Heartbeat CPU 0 instructions: 45000002 cycles: 48174755 heartbeat IPC: 0.633864 cumulative IPC: 0.817392 (Simulation time: 0 hr 34 min 26 sec) 
Heartbeat CPU 0 instructions: 46000002 cycles: 49686591 heartbeat IPC: 0.661447 cumulative IPC: 0.812074 (Simulation time: 0 hr 35 min 7 sec) 
Heartbeat CPU 0 instructions: 47000001 cycles: 51155908 heartbeat IPC: 0.680588 cumulative IPC: 0.807856 (Simulation time: 0 hr 35 min 49 sec) 
Heartbeat CPU 0 instructions: 48000000 cycles: 52607508 heartbeat IPC: 0.688894 cumulative IPC: 0.804201 (Simulation time: 0 hr 36 min 29 sec) 
Heartbeat CPU 0 instructions: 49000000 cycles: 54785812 heartbeat IPC: 0.459073 cumulative IPC: 0.788992 (Simulation time: 0 hr 37 min 17 sec) 
Heartbeat CPU 0 instructions: 50000000 cycles: 57295913 heartbeat IPC: 0.39839 cumulative IPC: 0.770115 (Simulation time: 0 hr 38 min 5 sec) 
Heartbeat CPU 0 instructions: 51000003 cycles: 59771781 heartbeat IPC: 0.4039 cumulative IPC: 0.753453 (Simulation time: 0 hr 38 min 58 sec) 
Heartbeat CPU 0 instructions: 52000000 cycles: 62272425 heartbeat IPC: 0.399896 cumulative IPC: 0.73792 (Simulation time: 0 hr 39 min 47 sec) 
Heartbeat CPU 0 instructions: 53000003 cycles: 64768105 heartbeat IPC: 0.400694 cumulative IPC: 0.723754 (Simulation time: 0 hr 40 min 38 sec) 
Heartbeat CPU 0 instructions: 54000000 cycles: 67124255 heartbeat IPC: 0.42442 cumulative IPC: 0.712336 (Simulation time: 0 hr 41 min 35 sec) 
Heartbeat CPU 0 instructions: 55000002 cycles: 69461016 heartbeat IPC: 0.427944 cumulative IPC: 0.701969 (Simulation time: 0 hr 42 min 30 sec) 
Heartbeat CPU 0 instructions: 56000000 cycles: 71860233 heartbeat IPC: 0.416802 cumulative IPC: 0.691682 (Simulation time: 0 hr 43 min 24 sec) 
Heartbeat CPU 0 instructions: 57000001 cycles: 74215299 heartbeat IPC: 0.424617 cumulative IPC: 0.682548 (Simulation time: 0 hr 44 min 17 sec) 
Heartbeat CPU 0 instructions: 58000001 cycles: 76484848 heartbeat IPC: 0.440616 cumulative IPC: 0.674828 (Simulation time: 0 hr 45 min 9 sec) 
Heartbeat CPU 0 instructions: 59000000 cycles: 77795570 heartbeat IPC: 0.762938 cumulative IPC: 0.676423 (Simulation time: 0 hr 45 min 52 sec) 
Heartbeat CPU 0 instructions: 60000000 cycles: 79103097 heartbeat IPC: 0.764803 cumulative IPC: 0.67799 (Simulation time: 0 hr 46 min 38 sec) 
Heartbeat CPU 0 instructions: 61000000 cycles: 80465467 heartbeat IPC: 0.734015 cumulative IPC: 0.679006 (Simulation time: 0 hr 47 min 21 sec) 
Heartbeat CPU 0 instructions: 62000002 cycles: 81854494 heartbeat IPC: 0.71993 cumulative IPC: 0.679749 (Simulation time: 0 hr 48 min 6 sec) 
Heartbeat CPU 0 instructions: 63000003 cycles: 83103722 heartbeat IPC: 0.800495 cumulative IPC: 0.681689 (Simulation time: 0 hr 48 min 52 sec) 
Heartbeat CPU 0 instructions: 64000000 cycles: 84367550 heartbeat IPC: 0.791245 cumulative IPC: 0.683441 (Simulation time: 0 hr 49 min 33 sec) 
Heartbeat CPU 0 instructions: 65000001 cycles: 85827636 heartbeat IPC: 0.684892 cumulative IPC: 0.683468 (Simulation time: 0 hr 50 min 20 sec) 
Heartbeat CPU 0 instructions: 66000000 cycles: 87049952 heartbeat IPC: 0.818118 cumulative IPC: 0.685482 (Simulation time: 0 hr 51 min 3 sec) 
Heartbeat CPU 0 instructions: 67000001 cycles: 88292431 heartbeat IPC: 0.804843 cumulative IPC: 0.68727 (Simulation time: 0 hr 51 min 45 sec) 
Heartbeat CPU 0 instructions: 68000000 cycles: 89705218 heartbeat IPC: 0.70782 cumulative IPC: 0.687615 (Simulation time: 0 hr 52 min 28 sec) 
Heartbeat CPU 0 instructions: 69000002 cycles: 90987394 heartbeat IPC: 0.779926 cumulative IPC: 0.688997 (Simulation time: 0 hr 53 min 11 sec) 
Heartbeat CPU 0 instructions: 70000000 cycles: 92204031 heartbeat IPC: 0.821936 cumulative IPC: 0.690859 (Simulation time: 0 hr 53 min 54 sec) 
Heartbeat CPU 0 instructions: 71000002 cycles: 93439353 heartbeat IPC: 0.809507 cumulative IPC: 0.692523 (Simulation time: 0 hr 54 min 36 sec) 
Heartbeat CPU 0 instructions: 72000000 cycles: 94851864 heartbeat IPC: 0.707958 cumulative IPC: 0.692767 (Simulation time: 0 hr 55 min 21 sec) 
Heartbeat CPU 0 instructions: 73000000 cycles: 96080147 heartbeat IPC: 0.814145 cumulative IPC: 0.69441 (Simulation time: 0 hr 56 min 3 sec) 
Heartbeat CPU 0 instructions: 74000000 cycles: 97298216 heartbeat IPC: 0.820972 cumulative IPC: 0.696087 (Simulation time: 0 hr 56 min 44 sec) 
Heartbeat CPU 0 instructions: 75000002 cycles: 98716526 heartbeat IPC: 0.705066 cumulative IPC: 0.696223 (Simulation time: 0 hr 57 min 25 sec) 
Heartbeat CPU 0 instructions: 76000000 cycles: 99926943 heartbeat IPC: 0.82616 cumulative IPC: 0.697886 (Simulation time: 0 hr 58 min 11 sec) 
Heartbeat CPU 0 instructions: 77000001 cycles: 101130842 heartbeat IPC: 0.830635 cumulative IPC: 0.699555 (Simulation time: 0 hr 58 min 50 sec) 
Heartbeat CPU 0 instructions: 78000000 cycles: 102433727 heartbeat IPC: 0.767527 cumulative IPC: 0.700467 (Simulation time: 0 hr 59 min 30 sec) 
Heartbeat CPU 0 instructions: 79000001 cycles: 103749946 heartbeat IPC: 0.759753 cumulative IPC: 0.70126 (Simulation time: 1 hr 0 min 9 sec) 
Heartbeat CPU 0 instructions: 80000000 cycles: 104964023 heartbeat IPC: 0.82367 cumulative IPC: 0.702752 (Simulation time: 1 hr 0 min 51 sec) 
Heartbeat CPU 0 instructions: 81000003 cycles: 106176903 heartbeat IPC: 0.824486 cumulative IPC: 0.704217 (Simulation time: 1 hr 1 min 28 sec) 
Heartbeat CPU 0 instructions: 82000000 cycles: 107579902 heartbeat IPC: 0.712757 cumulative IPC: 0.704334 (Simulation time: 1 hr 2 min 7 sec) 
Heartbeat CPU 0 instructions: 83000001 cycles: 108794137 heartbeat IPC: 0.823565 cumulative IPC: 0.705733 (Simulation time: 1 hr 2 min 53 sec) 
Heartbeat CPU 0 instructions: 84000000 cycles: 110021244 heartbeat IPC: 0.814924 cumulative IPC: 0.707014 (Simulation time: 1 hr 3 min 32 sec) 
Heartbeat CPU 0 instructions: 85000003 cycles: 111414208 heartbeat IPC: 0.717896 cumulative IPC: 0.707157 (Simulation time: 1 hr 4 min 10 sec) 
Heartbeat CPU 0 instructions: 86000002 cycles: 112644641 heartbeat IPC: 0.812721 cumulative IPC: 0.708367 (Simulation time: 1 hr 4 min 50 sec) 
Heartbeat CPU 0 instructions: 87000001 cycles: 113854656 heartbeat IPC: 0.826435 cumulative IPC: 0.709684 (Simulation time: 1 hr 5 min 28 sec) 
Heartbeat CPU 0 instructions: 88000000 cycles: 115087505 heartbeat IPC: 0.811129 cumulative IPC: 0.710824 (Simulation time: 1 hr 6 min 7 sec) 
Heartbeat CPU 0 instructions: 89000001 cycles: 116469177 heartbeat IPC: 0.723761 cumulative IPC: 0.710985 (Simulation time: 1 hr 6 min 42 sec) 
Heartbeat CPU 0 instructions: 90000003 cycles: 117678431 heartbeat IPC: 0.826958 cumulative IPC: 0.712233 (Simulation time: 1 hr 7 min 21 sec) 
Heartbeat CPU 0 instructions: 91000000 cycles: 118894636 heartbeat IPC: 0.822227 cumulative IPC: 0.713411 (Simulation time: 1 hr 7 min 52 sec) 
Heartbeat CPU 0 instructions: 92000000 cycles: 120305637 heartbeat IPC: 0.708717 cumulative IPC: 0.713354 (Simulation time: 1 hr 8 min 22 sec) 
Heartbeat CPU 0 instructions: 93000002 cycles: 121508670 heartbeat IPC: 0.831234 cumulative IPC: 0.714575 (Simulation time: 1 hr 8 min 53 sec) 
Heartbeat CPU 0 instructions: 94000000 cycles: 122723303 heartbeat IPC: 0.823292 cumulative IPC: 0.7157 (Simulation time: 1 hr 9 min 26 sec) 
Heartbeat CPU 0 instructions: 95000003 cycles: 124058693 heartbeat IPC: 0.748847 cumulative IPC: 0.716073 (Simulation time: 1 hr 10 min 0 sec) 
Heartbeat CPU 0 instructions: 96000000 cycles: 125369966 heartbeat IPC: 0.762615 cumulative IPC: 0.716581 (Simulation time: 1 hr 10 min 36 sec) 
Heartbeat CPU 0 instructions: 97000000 cycles: 126567160 heartbeat IPC: 0.835286 cumulative IPC: 0.717754 (Simulation time: 1 hr 11 min 6 sec) 
Heartbeat CPU 0 instructions: 98000000 cycles: 127790571 heartbeat IPC: 0.817387 cumulative IPC: 0.718749 (Simulation time: 1 hr 11 min 34 sec) 
Heartbeat CPU 0 instructions: 99000003 cycles: 129198844 heartbeat IPC: 0.710092 cumulative IPC: 0.718651 (Simulation time: 1 hr 12 min 1 sec) 
Heartbeat CPU 0 instructions: 100000000 cycles: 130427314 heartbeat IPC: 0.814018 cumulative IPC: 0.719587 (Simulation time: 1 hr 12 min 34 sec) 
Heartbeat CPU 0 instructions: 101000001 cycles: 131658311 heartbeat IPC: 0.81235 cumulative IPC: 0.720492 (Simulation time: 1 hr 13 min 4 sec) 
Heartbeat CPU 0 instructions: 102000003 cycles: 133074559 heartbeat IPC: 0.706092 cumulative IPC: 0.720332 (Simulation time: 1 hr 13 min 31 sec) 
Heartbeat CPU 0 instructions: 103000002 cycles: 134304791 heartbeat IPC: 0.812854 cumulative IPC: 0.721215 (Simulation time: 1 hr 13 min 56 sec) 
Heartbeat CPU 0 instructions: 104000000 cycles: 135538997 heartbeat IPC: 0.810236 cumulative IPC: 0.722059 (Simulation time: 1 hr 14 min 22 sec) 
Heartbeat CPU 0 instructions: 105000000 cycles: 136789948 heartbeat IPC: 0.799392 cumulative IPC: 0.722795 (Simulation time: 1 hr 14 min 45 sec) 
Heartbeat CPU 0 instructions: 106000003 cycles: 138662755 heartbeat IPC: 0.533959 cumulative IPC: 0.720142 (Simulation time: 1 hr 15 min 9 sec) 
Heartbeat CPU 0 instructions: 107000002 cycles: 140667138 heartbeat IPC: 0.498906 cumulative IPC: 0.716865 (Simulation time: 1 hr 15 min 34 sec) 
Heartbeat CPU 0 instructions: 108000000 cycles: 142759235 heartbeat IPC: 0.477988 cumulative IPC: 0.713227 (Simulation time: 1 hr 15 min 57 sec) 
Heartbeat CPU 0 instructions: 109000003 cycles: 144852467 heartbeat IPC: 0.477732 cumulative IPC: 0.709694 (Simulation time: 1 hr 16 min 18 sec) 
Heartbeat CPU 0 instructions: 110000003 cycles: 146846267 heartbeat IPC: 0.501555 cumulative IPC: 0.706761 (Simulation time: 1 hr 16 min 40 sec) 
Finished CPU 0 instructions: 100000001 cycles: 141490614 cummulative IPC: 0.706761 (Simulation time: 1 hr 16 min 40 sec) 

ChampSim completed all CPUs

Region of Interest Statistics

CPU 0 cummulative IPC: 0.706761 instructions: 100000001 cycles: 141490614
LLC TOTAL     ACCESS:    3584067  HIT:     810263  MISS:    2773804
LLC LOAD      ACCESS:     298968  HIT:      43298  MISS:     255670
LLC RFO       ACCESS:     622457  HIT:     117253  MISS:     505204
LLC PREFETCH  ACCESS:    1899456  HIT:     131492  MISS:    1767964
LLC WRITEBACK ACCESS:     763186  HIT:     518220  MISS:     244966
