
*** ChampSim Multicore Out-of-Order Simulator ***

Warmup Instructions: 10000000
Simulation Instructions: 100000000
Configuration: 1
Number of CPUs: 1
LLC sets: 2048
LLC ways: 16
Off-chip DRAM Channels: 1 Width: 64-bit Data Rate: 1600 MT/s

CPU 0 runs /datasets/cs240c-wi22-a00-public/data/Assignment2-gz/soplex_217B.trace.gz
Heartbeat CPU 0 instructions: 1000000 cycles: 437368 heartbeat IPC: 2.2864 cumulative IPC: 2.2864 (Simulation time: 0 hr 0 min 28 sec) 
select_counter is 1023
Heartbeat CPU 0 instructions: 2000003 cycles: 797982 heartbeat IPC: 2.77306 cumulative IPC: 2.50633 (Simulation time: 0 hr 0 min 52 sec) 
select_counter is 1022
Heartbeat CPU 0 instructions: 3000000 cycles: 1248959 heartbeat IPC: 2.2174 cumulative IPC: 2.402 (Simulation time: 0 hr 1 min 19 sec) 
select_counter is 1022
Heartbeat CPU 0 instructions: 4000000 cycles: 1686715 heartbeat IPC: 2.28438 cumulative IPC: 2.37147 (Simulation time: 0 hr 1 min 50 sec) 
select_counter is 1023
Heartbeat CPU 0 instructions: 5000001 cycles: 2071730 heartbeat IPC: 2.5973 cumulative IPC: 2.41344 (Simulation time: 0 hr 2 min 13 sec) 
select_counter is 1023
Heartbeat CPU 0 instructions: 6000000 cycles: 2446359 heartbeat IPC: 2.6693 cumulative IPC: 2.45262 (Simulation time: 0 hr 2 min 38 sec) 
select_counter is 1022
Heartbeat CPU 0 instructions: 7000003 cycles: 2921938 heartbeat IPC: 2.10271 cumulative IPC: 2.39567 (Simulation time: 0 hr 3 min 1 sec) 
select_counter is 1023
Heartbeat CPU 0 instructions: 8000000 cycles: 3365520 heartbeat IPC: 2.25437 cumulative IPC: 2.37705 (Simulation time: 0 hr 3 min 31 sec) 
select_counter is 1023
Heartbeat CPU 0 instructions: 9000001 cycles: 3792423 heartbeat IPC: 2.34245 cumulative IPC: 2.37315 (Simulation time: 0 hr 3 min 58 sec) 
select_counter is 1023
Heartbeat CPU 0 instructions: 10000000 cycles: 4204134 heartbeat IPC: 2.42889 cumulative IPC: 2.37861 (Simulation time: 0 hr 4 min 24 sec) 
select_counter is 1005

Warmup complete CPU 0 instructions: 10000004 cycles: 4204135 (Simulation time: 0 hr 4 min 24 sec) 

Heartbeat CPU 0 instructions: 11000002 cycles: 9042759 heartbeat IPC: 0.206671 cumulative IPC: 0.20667 (Simulation time: 0 hr 5 min 10 sec) 
select_counter is 1023
Heartbeat CPU 0 instructions: 12000000 cycles: 12274032 heartbeat IPC: 0.309475 cumulative IPC: 0.247834 (Simulation time: 0 hr 5 min 44 sec) 
select_counter is 1022
Heartbeat CPU 0 instructions: 13000000 cycles: 14061278 heartbeat IPC: 0.55952 cumulative IPC: 0.304347 (Simulation time: 0 hr 6 min 7 sec) 
select_counter is 1023
Heartbeat CPU 0 instructions: 14000000 cycles: 17984121 heartbeat IPC: 0.254917 cumulative IPC: 0.290276 (Simulation time: 0 hr 6 min 37 sec) 
select_counter is 1023
Heartbeat CPU 0 instructions: 15000000 cycles: 21611633 heartbeat IPC: 0.275671 cumulative IPC: 0.287232 (Simulation time: 0 hr 7 min 12 sec) 
select_counter is 1023
Heartbeat CPU 0 instructions: 16000000 cycles: 26327386 heartbeat IPC: 0.212055 cumulative IPC: 0.271208 (Simulation time: 0 hr 7 min 57 sec) 
select_counter is 1020
Heartbeat CPU 0 instructions: 17000002 cycles: 29528055 heartbeat IPC: 0.312435 cumulative IPC: 0.276418 (Simulation time: 0 hr 8 min 29 sec) 
select_counter is 1022
Heartbeat CPU 0 instructions: 18000002 cycles: 32844632 heartbeat IPC: 0.301516 cumulative IPC: 0.279325 (Simulation time: 0 hr 9 min 7 sec) 
select_counter is 1023
Heartbeat CPU 0 instructions: 19000000 cycles: 37296358 heartbeat IPC: 0.224632 cumulative IPC: 0.271967 (Simulation time: 0 hr 9 min 47 sec) 
select_counter is 1023
Heartbeat CPU 0 instructions: 20000000 cycles: 38938261 heartbeat IPC: 0.609049 cumulative IPC: 0.287901 (Simulation time: 0 hr 10 min 8 sec) 
select_counter is 1022
Heartbeat CPU 0 instructions: 21000000 cycles: 40742589 heartbeat IPC: 0.554223 cumulative IPC: 0.301053 (Simulation time: 0 hr 10 min 29 sec) 
select_counter is 1023
Heartbeat CPU 0 instructions: 22000001 cycles: 45620865 heartbeat IPC: 0.204991 cumulative IPC: 0.289738 (Simulation time: 0 hr 11 min 9 sec) 
select_counter is 1023
Heartbeat CPU 0 instructions: 23000003 cycles: 49955921 heartbeat IPC: 0.230678 cumulative IPC: 0.284142 (Simulation time: 0 hr 11 min 45 sec) 
select_counter is 1022
Heartbeat CPU 0 instructions: 24000000 cycles: 54225023 heartbeat IPC: 0.234241 cumulative IPC: 0.279883 (Simulation time: 0 hr 12 min 23 sec) 
select_counter is 1023
Heartbeat CPU 0 instructions: 25000001 cycles: 56172402 heartbeat IPC: 0.513511 cumulative IPC: 0.288638 (Simulation time: 0 hr 12 min 56 sec) 
select_counter is 1010
Heartbeat CPU 0 instructions: 26000003 cycles: 61237015 heartbeat IPC: 0.197449 cumulative IPC: 0.28054 (Simulation time: 0 hr 13 min 43 sec) 
select_counter is 1023
Heartbeat CPU 0 instructions: 27000002 cycles: 64215754 heartbeat IPC: 0.335712 cumulative IPC: 0.283278 (Simulation time: 0 hr 14 min 11 sec) 
select_counter is 1021
Heartbeat CPU 0 instructions: 28000000 cycles: 65771193 heartbeat IPC: 0.642904 cumulative IPC: 0.292364 (Simulation time: 0 hr 14 min 33 sec) 
select_counter is 1023
Heartbeat CPU 0 instructions: 29000002 cycles: 69720428 heartbeat IPC: 0.253214 cumulative IPC: 0.290004 (Simulation time: 0 hr 15 min 5 sec) 
select_counter is 1023
Heartbeat CPU 0 instructions: 30000002 cycles: 73567054 heartbeat IPC: 0.259968 cumulative IPC: 0.288338 (Simulation time: 0 hr 15 min 43 sec) 
select_counter is 1022
Heartbeat CPU 0 instructions: 31000000 cycles: 77862862 heartbeat IPC: 0.232785 cumulative IPC: 0.285099 (Simulation time: 0 hr 16 min 23 sec) 
select_counter is 1021
Heartbeat CPU 0 instructions: 32000000 cycles: 80271630 heartbeat IPC: 0.41515 cumulative IPC: 0.289217 (Simulation time: 0 hr 16 min 58 sec) 
select_counter is 1022
Heartbeat CPU 0 instructions: 33000001 cycles: 84935163 heartbeat IPC: 0.21443 cumulative IPC: 0.284897 (Simulation time: 0 hr 17 min 40 sec) 
select_counter is 1023
Heartbeat CPU 0 instructions: 34000000 cycles: 88425510 heartbeat IPC: 0.286504 cumulative IPC: 0.284963 (Simulation time: 0 hr 18 min 11 sec) 
select_counter is 1022
Heartbeat CPU 0 instructions: 35000002 cycles: 90031425 heartbeat IPC: 0.622699 cumulative IPC: 0.291283 (Simulation time: 0 hr 18 min 34 sec) 
select_counter is 1023
Heartbeat CPU 0 instructions: 36000000 cycles: 93075459 heartbeat IPC: 0.328511 cumulative IPC: 0.292558 (Simulation time: 0 hr 19 min 1 sec) 
select_counter is 1022
Heartbeat CPU 0 instructions: 37000002 cycles: 96712765 heartbeat IPC: 0.274929 cumulative IPC: 0.291865 (Simulation time: 0 hr 19 min 38 sec) 
select_counter is 1022
Heartbeat CPU 0 instructions: 38000000 cycles: 101177652 heartbeat IPC: 0.223969 cumulative IPC: 0.288739 (Simulation time: 0 hr 20 min 28 sec) 
select_counter is 1023
Heartbeat CPU 0 instructions: 39000001 cycles: 104175815 heartbeat IPC: 0.333538 cumulative IPC: 0.290082 (Simulation time: 0 hr 20 min 58 sec) 
select_counter is 1022
Heartbeat CPU 0 instructions: 40000000 cycles: 108328400 heartbeat IPC: 0.240814 cumulative IPC: 0.288117 (Simulation time: 0 hr 21 min 34 sec) 
select_counter is 1023
Heartbeat CPU 0 instructions: 41000000 cycles: 112233506 heartbeat IPC: 0.256075 cumulative IPC: 0.286959 (Simulation time: 0 hr 22 min 4 sec) 
select_counter is 1023
Heartbeat CPU 0 instructions: 42000002 cycles: 113870412 heartbeat IPC: 0.61091 cumulative IPC: 0.291794 (Simulation time: 0 hr 22 min 24 sec) 
select_counter is 1023
Heartbeat CPU 0 instructions: 43000001 cycles: 116270006 heartbeat IPC: 0.416737 cumulative IPC: 0.29447 (Simulation time: 0 hr 22 min 52 sec) 
select_counter is 1021
Heartbeat CPU 0 instructions: 44000000 cycles: 120237137 heartbeat IPC: 0.252071 cumulative IPC: 0.29302 (Simulation time: 0 hr 23 min 28 sec) 
select_counter is 1023
Heartbeat CPU 0 instructions: 45000003 cycles: 124881960 heartbeat IPC: 0.215294 cumulative IPC: 0.290028 (Simulation time: 0 hr 24 min 6 sec) 
select_counter is 1023
Heartbeat CPU 0 instructions: 46000000 cycles: 128491040 heartbeat IPC: 0.277078 cumulative IPC: 0.289652 (Simulation time: 0 hr 24 min 49 sec) 
select_counter is 1023
Heartbeat CPU 0 instructions: 47000001 cycles: 130705992 heartbeat IPC: 0.451477 cumulative IPC: 0.292486 (Simulation time: 0 hr 25 min 19 sec) 
select_counter is 1017
Heartbeat CPU 0 instructions: 48000000 cycles: 135455822 heartbeat IPC: 0.210534 cumulative IPC: 0.28952 (Simulation time: 0 hr 26 min 3 sec) 
select_counter is 1022
Heartbeat CPU 0 instructions: 49000000 cycles: 138709699 heartbeat IPC: 0.307326 cumulative IPC: 0.289951 (Simulation time: 0 hr 26 min 33 sec) 
select_counter is 1023
Heartbeat CPU 0 instructions: 50000001 cycles: 140302999 heartbeat IPC: 0.627629 cumulative IPC: 0.293904 (Simulation time: 0 hr 26 min 56 sec) 
select_counter is 1023
Heartbeat CPU 0 instructions: 51000000 cycles: 143758272 heartbeat IPC: 0.289412 cumulative IPC: 0.293793 (Simulation time: 0 hr 27 min 21 sec) 
select_counter is 1023
Heartbeat CPU 0 instructions: 52000000 cycles: 147399942 heartbeat IPC: 0.274599 cumulative IPC: 0.293305 (Simulation time: 0 hr 27 min 56 sec) 
select_counter is 1023
Heartbeat CPU 0 instructions: 53000000 cycles: 151757845 heartbeat IPC: 0.229468 cumulative IPC: 0.291419 (Simulation time: 0 hr 28 min 36 sec) 
select_counter is 1023
Heartbeat CPU 0 instructions: 54000000 cycles: 154426461 heartbeat IPC: 0.374726 cumulative IPC: 0.292899 (Simulation time: 0 hr 29 min 12 sec) 
select_counter is 1023
Heartbeat CPU 0 instructions: 55000000 cycles: 158861355 heartbeat IPC: 0.225485 cumulative IPC: 0.290966 (Simulation time: 0 hr 29 min 53 sec) 
select_counter is 1023
Heartbeat CPU 0 instructions: 56000000 cycles: 162482442 heartbeat IPC: 0.27616 cumulative IPC: 0.290627 (Simulation time: 0 hr 30 min 23 sec) 
select_counter is 1023
Heartbeat CPU 0 instructions: 57000003 cycles: 164101047 heartbeat IPC: 0.617818 cumulative IPC: 0.293939 (Simulation time: 0 hr 30 min 44 sec) 
select_counter is 1021
Heartbeat CPU 0 instructions: 58000000 cycles: 167046693 heartbeat IPC: 0.339483 cumulative IPC: 0.294763 (Simulation time: 0 hr 31 min 13 sec) 
select_counter is 1023
Heartbeat CPU 0 instructions: 59000003 cycles: 170669232 heartbeat IPC: 0.27605 cumulative IPC: 0.294356 (Simulation time: 0 hr 31 min 45 sec) 
select_counter is 1023
Heartbeat CPU 0 instructions: 60000000 cycles: 175018144 heartbeat IPC: 0.229942 cumulative IPC: 0.292716 (Simulation time: 0 hr 32 min 25 sec) 
select_counter is 1023
Heartbeat CPU 0 instructions: 61000000 cycles: 178271451 heartbeat IPC: 0.30738 cumulative IPC: 0.29299 (Simulation time: 0 hr 33 min 0 sec) 
select_counter is 1023
Heartbeat CPU 0 instructions: 62000001 cycles: 181867956 heartbeat IPC: 0.278048 cumulative IPC: 0.292688 (Simulation time: 0 hr 33 min 38 sec) 
select_counter is 1023
Heartbeat CPU 0 instructions: 63000001 cycles: 186202678 heartbeat IPC: 0.230695 cumulative IPC: 0.291211 (Simulation time: 0 hr 34 min 9 sec) 
select_counter is 1023
Heartbeat CPU 0 instructions: 64000000 cycles: 187834474 heartbeat IPC: 0.612821 cumulative IPC: 0.294069 (Simulation time: 0 hr 34 min 27 sec) 
select_counter is 1022
Heartbeat CPU 0 instructions: 65000000 cycles: 189741479 heartbeat IPC: 0.524382 cumulative IPC: 0.296436 (Simulation time: 0 hr 34 min 51 sec) 
select_counter is 1023
Heartbeat CPU 0 instructions: 66000002 cycles: 194100466 heartbeat IPC: 0.229412 cumulative IPC: 0.294898 (Simulation time: 0 hr 35 min 21 sec) 
select_counter is 1023
Heartbeat CPU 0 instructions: 67000000 cycles: 198365904 heartbeat IPC: 0.234442 cumulative IPC: 0.29357 (Simulation time: 0 hr 35 min 53 sec) 
select_counter is 1023
Heartbeat CPU 0 instructions: 68000000 cycles: 204938383 heartbeat IPC: 0.15215 cumulative IPC: 0.288939 (Simulation time: 0 hr 36 min 33 sec) 
select_counter is 1023
Heartbeat CPU 0 instructions: 69000001 cycles: 209922492 heartbeat IPC: 0.200638 cumulative IPC: 0.2868 (Simulation time: 0 hr 37 min 7 sec) 
select_counter is 1023
Heartbeat CPU 0 instructions: 70000002 cycles: 214725661 heartbeat IPC: 0.208196 cumulative IPC: 0.285006 (Simulation time: 0 hr 37 min 39 sec) 
select_counter is 1023
Heartbeat CPU 0 instructions: 71000000 cycles: 220004272 heartbeat IPC: 0.189443 cumulative IPC: 0.282669 (Simulation time: 0 hr 38 min 10 sec) 
select_counter is 1023
Heartbeat CPU 0 instructions: 72000000 cycles: 224692894 heartbeat IPC: 0.213282 cumulative IPC: 0.281193 (Simulation time: 0 hr 38 min 44 sec) 
select_counter is 1023
Heartbeat CPU 0 instructions: 73000000 cycles: 229270257 heartbeat IPC: 0.218466 cumulative IPC: 0.279918 (Simulation time: 0 hr 39 min 19 sec) 
select_counter is 1023
Heartbeat CPU 0 instructions: 74000000 cycles: 233901633 heartbeat IPC: 0.215919 cumulative IPC: 0.278627 (Simulation time: 0 hr 39 min 47 sec) 
select_counter is 1022
Heartbeat CPU 0 instructions: 75000002 cycles: 237983823 heartbeat IPC: 0.244967 cumulative IPC: 0.27804 (Simulation time: 0 hr 40 min 14 sec) 
select_counter is 1023
Heartbeat CPU 0 instructions: 76000000 cycles: 241154746 heartbeat IPC: 0.315365 cumulative IPC: 0.278539 (Simulation time: 0 hr 40 min 40 sec) 
select_counter is 1023
Heartbeat CPU 0 instructions: 77000000 cycles: 245317578 heartbeat IPC: 0.240221 cumulative IPC: 0.277877 (Simulation time: 0 hr 41 min 8 sec) 
select_counter is 1023
Heartbeat CPU 0 instructions: 78000002 cycles: 247701783 heartbeat IPC: 0.419428 cumulative IPC: 0.279263 (Simulation time: 0 hr 41 min 35 sec) 
select_counter is 1023
Heartbeat CPU 0 instructions: 79000001 cycles: 249952591 heartbeat IPC: 0.444284 cumulative IPC: 0.280775 (Simulation time: 0 hr 42 min 5 sec) 
select_counter is 1023
Heartbeat CPU 0 instructions: 80000000 cycles: 252091471 heartbeat IPC: 0.467534 cumulative IPC: 0.282386 (Simulation time: 0 hr 42 min 27 sec) 
select_counter is 1023
Heartbeat CPU 0 instructions: 81000003 cycles: 255408791 heartbeat IPC: 0.301449 cumulative IPC: 0.282638 (Simulation time: 0 hr 42 min 53 sec) 
select_counter is 1022
Heartbeat CPU 0 instructions: 82000001 cycles: 259095897 heartbeat IPC: 0.271215 cumulative IPC: 0.282473 (Simulation time: 0 hr 43 min 20 sec) 
select_counter is 1022
Heartbeat CPU 0 instructions: 83000002 cycles: 262430319 heartbeat IPC: 0.299902 cumulative IPC: 0.282698 (Simulation time: 0 hr 43 min 42 sec) 
select_counter is 1019
Heartbeat CPU 0 instructions: 84000000 cycles: 266121235 heartbeat IPC: 0.270935 cumulative IPC: 0.282532 (Simulation time: 0 hr 44 min 5 sec) 
select_counter is 1023
Heartbeat CPU 0 instructions: 85000000 cycles: 268032936 heartbeat IPC: 0.523094 cumulative IPC: 0.284275 (Simulation time: 0 hr 44 min 24 sec) 
select_counter is 1023
Heartbeat CPU 0 instructions: 86000000 cycles: 273075507 heartbeat IPC: 0.198312 cumulative IPC: 0.282663 (Simulation time: 0 hr 44 min 50 sec) 
select_counter is 1023
Heartbeat CPU 0 instructions: 87000000 cycles: 276335727 heartbeat IPC: 0.306728 cumulative IPC: 0.282951 (Simulation time: 0 hr 45 min 7 sec) 
select_counter is 1022
Heartbeat CPU 0 instructions: 88000000 cycles: 277935965 heartbeat IPC: 0.624907 cumulative IPC: 0.28495 (Simulation time: 0 hr 45 min 19 sec) 
select_counter is 1023
Heartbeat CPU 0 instructions: 89000003 cycles: 281501714 heartbeat IPC: 0.280447 cumulative IPC: 0.284892 (Simulation time: 0 hr 45 min 37 sec) 
select_counter is 1023
Heartbeat CPU 0 instructions: 90000002 cycles: 285195587 heartbeat IPC: 0.270718 cumulative IPC: 0.284706 (Simulation time: 0 hr 45 min 58 sec) 
select_counter is 1022
Heartbeat CPU 0 instructions: 91000001 cycles: 289522816 heartbeat IPC: 0.231095 cumulative IPC: 0.283893 (Simulation time: 0 hr 46 min 19 sec) 
select_counter is 1023
Heartbeat CPU 0 instructions: 92000000 cycles: 292121813 heartbeat IPC: 0.384763 cumulative IPC: 0.284804 (Simulation time: 0 hr 46 min 35 sec) 
select_counter is 1023
Heartbeat CPU 0 instructions: 93000000 cycles: 296678942 heartbeat IPC: 0.219436 cumulative IPC: 0.283785 (Simulation time: 0 hr 46 min 55 sec) 
select_counter is 1023
Heartbeat CPU 0 instructions: 94000001 cycles: 300259767 heartbeat IPC: 0.279266 cumulative IPC: 0.28373 (Simulation time: 0 hr 47 min 10 sec) 
select_counter is 1023
Heartbeat CPU 0 instructions: 95000003 cycles: 301874666 heartbeat IPC: 0.619235 cumulative IPC: 0.285551 (Simulation time: 0 hr 47 min 20 sec) 
select_counter is 1020
Heartbeat CPU 0 instructions: 96000000 cycles: 304911743 heartbeat IPC: 0.329263 cumulative IPC: 0.285992 (Simulation time: 0 hr 47 min 31 sec) 
select_counter is 1023
Heartbeat CPU 0 instructions: 97000002 cycles: 308392665 heartbeat IPC: 0.287281 cumulative IPC: 0.286007 (Simulation time: 0 hr 47 min 44 sec) 
select_counter is 1023
Heartbeat CPU 0 instructions: 98000003 cycles: 313523951 heartbeat IPC: 0.194883 cumulative IPC: 0.284495 (Simulation time: 0 hr 48 min 0 sec) 
select_counter is 1023
Heartbeat CPU 0 instructions: 99000000 cycles: 317226442 heartbeat IPC: 0.270088 cumulative IPC: 0.284325 (Simulation time: 0 hr 48 min 12 sec) 
select_counter is 1023
Heartbeat CPU 0 instructions: 100000000 cycles: 319692392 heartbeat IPC: 0.405523 cumulative IPC: 0.285272 (Simulation time: 0 hr 48 min 23 sec) 
select_counter is 1023
Heartbeat CPU 0 instructions: 101000000 cycles: 324765779 heartbeat IPC: 0.197107 cumulative IPC: 0.283877 (Simulation time: 0 hr 48 min 35 sec) 
select_counter is 1023
Heartbeat CPU 0 instructions: 102000000 cycles: 326775859 heartbeat IPC: 0.497493 cumulative IPC: 0.285208 (Simulation time: 0 hr 48 min 41 sec) 
select_counter is 1023
Heartbeat CPU 0 instructions: 103000001 cycles: 328283239 heartbeat IPC: 0.663403 cumulative IPC: 0.286967 (Simulation time: 0 hr 48 min 47 sec) 
select_counter is 1023
Heartbeat CPU 0 instructions: 104000000 cycles: 332796601 heartbeat IPC: 0.221564 cumulative IPC: 0.286069 (Simulation time: 0 hr 48 min 56 sec) 
select_counter is 1020
Heartbeat CPU 0 instructions: 105000003 cycles: 336879171 heartbeat IPC: 0.244944 cumulative IPC: 0.285564 (Simulation time: 0 hr 49 min 6 sec) 
select_counter is 1023
Heartbeat CPU 0 instructions: 106000002 cycles: 340695051 heartbeat IPC: 0.262062 cumulative IPC: 0.285297 (Simulation time: 0 hr 49 min 15 sec) 
select_counter is 1020
Heartbeat CPU 0 instructions: 107000002 cycles: 342915246 heartbeat IPC: 0.450411 cumulative IPC: 0.28638 (Simulation time: 0 hr 49 min 23 sec) 
select_counter is 1022
Heartbeat CPU 0 instructions: 108000000 cycles: 348091733 heartbeat IPC: 0.193181 cumulative IPC: 0.284977 (Simulation time: 0 hr 49 min 34 sec) 
select_counter is 1023
Heartbeat CPU 0 instructions: 109000000 cycles: 350496146 heartbeat IPC: 0.415902 cumulative IPC: 0.285886 (Simulation time: 0 hr 49 min 40 sec) 
select_counter is 1020
Heartbeat CPU 0 instructions: 110000002 cycles: 352024151 heartbeat IPC: 0.654449 cumulative IPC: 0.287505 (Simulation time: 0 hr 49 min 46 sec) 
select_counter is 1023
Finished CPU 0 instructions: 100000000 cycles: 347820020 cummulative IPC: 0.287505 (Simulation time: 0 hr 49 min 46 sec) 

ChampSim completed all CPUs

Region of Interest Statistics

CPU 0 cummulative IPC: 0.287505 instructions: 100000000 cycles: 347820020
LLC TOTAL     ACCESS:    6993476  HIT:    3830142  MISS:    3163334
LLC LOAD      ACCESS:    4167409  HIT:    1817581  MISS:    2349828
LLC RFO       ACCESS:     751801  HIT:     302677  MISS:     449124
LLC PREFETCH  ACCESS:          0  HIT:          0  MISS:          0
LLC WRITEBACK ACCESS:    2074266  HIT:    1709884  MISS:     364382
Insertion Distribution: 
	LOAD 13331 0 0 0 0 0 8733 61664 
	RFO 4650 0 0 0 0 0 3060 7667 
	PREF 0 0 0 0 0 0 0 0 
	WRITEBACK 0 0 0 0 0 0 0 16323 
Total Prefetch Downgrades: 0
