
*** ChampSim Multicore Out-of-Order Simulator ***

Warmup Instructions: 10000000
Simulation Instructions: 100000000
Configuration: 1
Number of CPUs: 1
LLC sets: 2048
LLC ways: 16
Off-chip DRAM Channels: 1 Width: 64-bit Data Rate: 1600 MT/s

CPU 0 runs /datasets/cs240c-wi22-a00-public/data/Assignment2-gz/lbm_564B.trace.gz
Heartbeat CPU 0 instructions: 1000000 cycles: 390238 heartbeat IPC: 2.56254 cumulative IPC: 2.56254 (Simulation time: 0 hr 0 min 24 sec) 
select_counter is 1023
Heartbeat CPU 0 instructions: 2000003 cycles: 785321 heartbeat IPC: 2.53112 cumulative IPC: 2.54673 (Simulation time: 0 hr 0 min 49 sec) 
select_counter is 1023
Heartbeat CPU 0 instructions: 3000002 cycles: 1175571 heartbeat IPC: 2.56246 cumulative IPC: 2.55195 (Simulation time: 0 hr 1 min 14 sec) 
select_counter is 1023
Heartbeat CPU 0 instructions: 4000000 cycles: 1565781 heartbeat IPC: 2.56272 cumulative IPC: 2.55464 (Simulation time: 0 hr 1 min 41 sec) 
select_counter is 1021
Heartbeat CPU 0 instructions: 5000000 cycles: 1960940 heartbeat IPC: 2.53063 cumulative IPC: 2.5498 (Simulation time: 0 hr 2 min 5 sec) 
select_counter is 1022
Heartbeat CPU 0 instructions: 6000002 cycles: 2351139 heartbeat IPC: 2.5628 cumulative IPC: 2.55196 (Simulation time: 0 hr 2 min 35 sec) 
select_counter is 1021
Heartbeat CPU 0 instructions: 7000001 cycles: 2741413 heartbeat IPC: 2.5623 cumulative IPC: 2.55343 (Simulation time: 0 hr 3 min 0 sec) 
select_counter is 1023
Heartbeat CPU 0 instructions: 8000000 cycles: 3136504 heartbeat IPC: 2.53106 cumulative IPC: 2.55061 (Simulation time: 0 hr 3 min 26 sec) 
select_counter is 1023
Heartbeat CPU 0 instructions: 9000000 cycles: 3526748 heartbeat IPC: 2.5625 cumulative IPC: 2.55193 (Simulation time: 0 hr 3 min 49 sec) 
select_counter is 1023
Heartbeat CPU 0 instructions: 10000002 cycles: 3916970 heartbeat IPC: 2.56265 cumulative IPC: 2.55299 (Simulation time: 0 hr 4 min 14 sec) 
select_counter is 1023

Warmup complete CPU 0 instructions: 10000002 cycles: 3916970 (Simulation time: 0 hr 4 min 14 sec) 

Heartbeat CPU 0 instructions: 11000000 cycles: 5524664 heartbeat IPC: 0.622008 cumulative IPC: 0.622008 (Simulation time: 0 hr 4 min 47 sec) 
select_counter is 1022
Heartbeat CPU 0 instructions: 12000000 cycles: 7093044 heartbeat IPC: 0.637601 cumulative IPC: 0.629708 (Simulation time: 0 hr 5 min 18 sec) 
select_counter is 1023
Heartbeat CPU 0 instructions: 13000001 cycles: 8718560 heartbeat IPC: 0.61519 cumulative IPC: 0.624793 (Simulation time: 0 hr 5 min 51 sec) 
select_counter is 1023
Heartbeat CPU 0 instructions: 14000003 cycles: 10397538 heartbeat IPC: 0.595602 cumulative IPC: 0.61723 (Simulation time: 0 hr 6 min 22 sec) 
select_counter is 1022
Heartbeat CPU 0 instructions: 15000000 cycles: 11998162 heartbeat IPC: 0.624754 cumulative IPC: 0.61872 (Simulation time: 0 hr 6 min 47 sec) 
select_counter is 1021
Heartbeat CPU 0 instructions: 16000000 cycles: 13585744 heartbeat IPC: 0.629889 cumulative IPC: 0.620554 (Simulation time: 0 hr 7 min 13 sec) 
select_counter is 1018
Heartbeat CPU 0 instructions: 17000000 cycles: 15215406 heartbeat IPC: 0.613624 cumulative IPC: 0.619555 (Simulation time: 0 hr 7 min 40 sec) 
select_counter is 1023
Heartbeat CPU 0 instructions: 18000000 cycles: 16888479 heartbeat IPC: 0.597703 cumulative IPC: 0.616736 (Simulation time: 0 hr 8 min 6 sec) 
select_counter is 1023
Heartbeat CPU 0 instructions: 19000003 cycles: 18432640 heartbeat IPC: 0.647603 cumulative IPC: 0.62002 (Simulation time: 0 hr 8 min 34 sec) 
select_counter is 1022
Heartbeat CPU 0 instructions: 20000000 cycles: 20047248 heartbeat IPC: 0.619344 cumulative IPC: 0.619952 (Simulation time: 0 hr 8 min 58 sec) 
select_counter is 1022
Heartbeat CPU 0 instructions: 21000003 cycles: 21664837 heartbeat IPC: 0.618206 cumulative IPC: 0.619793 (Simulation time: 0 hr 9 min 23 sec) 
select_counter is 1023
Heartbeat CPU 0 instructions: 22000003 cycles: 23956794 heartbeat IPC: 0.436308 cumulative IPC: 0.598808 (Simulation time: 0 hr 9 min 55 sec) 
select_counter is 1023
Heartbeat CPU 0 instructions: 23000002 cycles: 26460927 heartbeat IPC: 0.399339 cumulative IPC: 0.576651 (Simulation time: 0 hr 10 min 29 sec) 
select_counter is 1022
Heartbeat CPU 0 instructions: 24000000 cycles: 33617845 heartbeat IPC: 0.139725 cumulative IPC: 0.471367 (Simulation time: 0 hr 11 min 34 sec) 
select_counter is 1023
Heartbeat CPU 0 instructions: 25000003 cycles: 36622343 heartbeat IPC: 0.332835 cumulative IPC: 0.45864 (Simulation time: 0 hr 12 min 12 sec) 
select_counter is 1023
Heartbeat CPU 0 instructions: 26000002 cycles: 38866683 heartbeat IPC: 0.445565 cumulative IPC: 0.457801 (Simulation time: 0 hr 12 min 44 sec) 
select_counter is 1023
Heartbeat CPU 0 instructions: 27000001 cycles: 40611902 heartbeat IPC: 0.572993 cumulative IPC: 0.463279 (Simulation time: 0 hr 13 min 12 sec) 
select_counter is 1019
Heartbeat CPU 0 instructions: 28000000 cycles: 42300108 heartbeat IPC: 0.592344 cumulative IPC: 0.468956 (Simulation time: 0 hr 13 min 43 sec) 
select_counter is 1023
Heartbeat CPU 0 instructions: 29000003 cycles: 44003408 heartbeat IPC: 0.587097 cumulative IPC: 0.473976 (Simulation time: 0 hr 14 min 10 sec) 
select_counter is 1022
Heartbeat CPU 0 instructions: 30000000 cycles: 45630234 heartbeat IPC: 0.614692 cumulative IPC: 0.479464 (Simulation time: 0 hr 14 min 38 sec) 
select_counter is 1023
Heartbeat CPU 0 instructions: 31000000 cycles: 47213706 heartbeat IPC: 0.631524 cumulative IPC: 0.485025 (Simulation time: 0 hr 15 min 5 sec) 
select_counter is 1023
Heartbeat CPU 0 instructions: 32000000 cycles: 48817729 heartbeat IPC: 0.623432 cumulative IPC: 0.489969 (Simulation time: 0 hr 15 min 31 sec) 
select_counter is 1023
Heartbeat CPU 0 instructions: 33000001 cycles: 50551904 heartbeat IPC: 0.576644 cumulative IPC: 0.493192 (Simulation time: 0 hr 16 min 0 sec) 
select_counter is 1020
Heartbeat CPU 0 instructions: 34000001 cycles: 52067259 heartbeat IPC: 0.659911 cumulative IPC: 0.498439 (Simulation time: 0 hr 16 min 26 sec) 
select_counter is 1023
Heartbeat CPU 0 instructions: 35000002 cycles: 53590898 heartbeat IPC: 0.656324 cumulative IPC: 0.503282 (Simulation time: 0 hr 16 min 57 sec) 
select_counter is 1023
Heartbeat CPU 0 instructions: 36000000 cycles: 55216006 heartbeat IPC: 0.615342 cumulative IPC: 0.506832 (Simulation time: 0 hr 17 min 29 sec) 
select_counter is 1022
Heartbeat CPU 0 instructions: 37000000 cycles: 56902291 heartbeat IPC: 0.59302 cumulative IPC: 0.509575 (Simulation time: 0 hr 17 min 57 sec) 
select_counter is 1023
Heartbeat CPU 0 instructions: 38000002 cycles: 58422785 heartbeat IPC: 0.657682 cumulative IPC: 0.513707 (Simulation time: 0 hr 18 min 23 sec) 
select_counter is 1023
Heartbeat CPU 0 instructions: 39000002 cycles: 60030819 heartbeat IPC: 0.621877 cumulative IPC: 0.516806 (Simulation time: 0 hr 18 min 50 sec) 
select_counter is 1023
Heartbeat CPU 0 instructions: 40000000 cycles: 61755981 heartbeat IPC: 0.579655 cumulative IPC: 0.518681 (Simulation time: 0 hr 19 min 18 sec) 
select_counter is 1023
Heartbeat CPU 0 instructions: 41000000 cycles: 63356362 heartbeat IPC: 0.624851 cumulative IPC: 0.52154 (Simulation time: 0 hr 19 min 44 sec) 
select_counter is 1023
Heartbeat CPU 0 instructions: 42000002 cycles: 64934519 heartbeat IPC: 0.633652 cumulative IPC: 0.524439 (Simulation time: 0 hr 20 min 8 sec) 
select_counter is 1021
Heartbeat CPU 0 instructions: 43000001 cycles: 66566772 heartbeat IPC: 0.61265 cumulative IPC: 0.526738 (Simulation time: 0 hr 20 min 35 sec) 
select_counter is 1021
Heartbeat CPU 0 instructions: 44000000 cycles: 68242132 heartbeat IPC: 0.596886 cumulative IPC: 0.528565 (Simulation time: 0 hr 21 min 1 sec) 
select_counter is 1023
Heartbeat CPU 0 instructions: 45000001 cycles: 69801863 heartbeat IPC: 0.641137 cumulative IPC: 0.531229 (Simulation time: 0 hr 21 min 26 sec) 
select_counter is 1022
Heartbeat CPU 0 instructions: 46000002 cycles: 71383054 heartbeat IPC: 0.632435 cumulative IPC: 0.533601 (Simulation time: 0 hr 21 min 50 sec) 
select_counter is 1023
Heartbeat CPU 0 instructions: 47000001 cycles: 73057165 heartbeat IPC: 0.597331 cumulative IPC: 0.535145 (Simulation time: 0 hr 22 min 15 sec) 
select_counter is 1022
Heartbeat CPU 0 instructions: 48000000 cycles: 74642265 heartbeat IPC: 0.630874 cumulative IPC: 0.53729 (Simulation time: 0 hr 22 min 41 sec) 
select_counter is 1023
Heartbeat CPU 0 instructions: 49000001 cycles: 76214026 heartbeat IPC: 0.63623 cumulative IPC: 0.539441 (Simulation time: 0 hr 23 min 9 sec) 
select_counter is 1023
Heartbeat CPU 0 instructions: 50000000 cycles: 77873071 heartbeat IPC: 0.602756 cumulative IPC: 0.540861 (Simulation time: 0 hr 23 min 41 sec) 
select_counter is 1016
Heartbeat CPU 0 instructions: 51000002 cycles: 79505576 heartbeat IPC: 0.612557 cumulative IPC: 0.54241 (Simulation time: 0 hr 24 min 7 sec) 
select_counter is 1023
Heartbeat CPU 0 instructions: 52000000 cycles: 81098308 heartbeat IPC: 0.627851 cumulative IPC: 0.544173 (Simulation time: 0 hr 24 min 33 sec) 
select_counter is 1023
Heartbeat CPU 0 instructions: 53000001 cycles: 82699060 heartbeat IPC: 0.624707 cumulative IPC: 0.545809 (Simulation time: 0 hr 24 min 57 sec) 
select_counter is 1020
Heartbeat CPU 0 instructions: 54000001 cycles: 84353296 heartbeat IPC: 0.604509 cumulative IPC: 0.547017 (Simulation time: 0 hr 25 min 22 sec) 
select_counter is 1023
Heartbeat CPU 0 instructions: 55000000 cycles: 85986700 heartbeat IPC: 0.612218 cumulative IPC: 0.548314 (Simulation time: 0 hr 25 min 49 sec) 
select_counter is 1021
Heartbeat CPU 0 instructions: 56000000 cycles: 87585266 heartbeat IPC: 0.625561 cumulative IPC: 0.54979 (Simulation time: 0 hr 26 min 14 sec) 
select_counter is 1023
Heartbeat CPU 0 instructions: 57000001 cycles: 89248093 heartbeat IPC: 0.601386 cumulative IPC: 0.550795 (Simulation time: 0 hr 26 min 40 sec) 
select_counter is 1021
Heartbeat CPU 0 instructions: 58000002 cycles: 90905269 heartbeat IPC: 0.603437 cumulative IPC: 0.551798 (Simulation time: 0 hr 27 min 5 sec) 
select_counter is 1021
Heartbeat CPU 0 instructions: 59000001 cycles: 92513096 heartbeat IPC: 0.621957 cumulative IPC: 0.553072 (Simulation time: 0 hr 27 min 30 sec) 
select_counter is 1023
Heartbeat CPU 0 instructions: 60000000 cycles: 94152846 heartbeat IPC: 0.609848 cumulative IPC: 0.554103 (Simulation time: 0 hr 27 min 54 sec) 
select_counter is 1022
Heartbeat CPU 0 instructions: 61000003 cycles: 95845290 heartbeat IPC: 0.590863 cumulative IPC: 0.55478 (Simulation time: 0 hr 28 min 21 sec) 
select_counter is 1022
Heartbeat CPU 0 instructions: 62000003 cycles: 97474678 heartbeat IPC: 0.613727 cumulative IPC: 0.555807 (Simulation time: 0 hr 28 min 45 sec) 
select_counter is 1022
Heartbeat CPU 0 instructions: 63000000 cycles: 99122023 heartbeat IPC: 0.607036 cumulative IPC: 0.556693 (Simulation time: 0 hr 29 min 11 sec) 
select_counter is 1023
Heartbeat CPU 0 instructions: 64000000 cycles: 100791741 heartbeat IPC: 0.598904 cumulative IPC: 0.557421 (Simulation time: 0 hr 29 min 35 sec) 
select_counter is 1023
Heartbeat CPU 0 instructions: 65000003 cycles: 102417673 heartbeat IPC: 0.615034 cumulative IPC: 0.558372 (Simulation time: 0 hr 30 min 0 sec) 
select_counter is 1023
Heartbeat CPU 0 instructions: 66000000 cycles: 104013342 heartbeat IPC: 0.626695 cumulative IPC: 0.559461 (Simulation time: 0 hr 30 min 26 sec) 
select_counter is 1023
Heartbeat CPU 0 instructions: 67000001 cycles: 105727936 heartbeat IPC: 0.583229 cumulative IPC: 0.559861 (Simulation time: 0 hr 30 min 53 sec) 
select_counter is 1023
Heartbeat CPU 0 instructions: 68000000 cycles: 107492461 heartbeat IPC: 0.566724 cumulative IPC: 0.559978 (Simulation time: 0 hr 31 min 19 sec) 
select_counter is 1023
Heartbeat CPU 0 instructions: 69000003 cycles: 109084487 heartbeat IPC: 0.628132 cumulative IPC: 0.56101 (Simulation time: 0 hr 31 min 45 sec) 
select_counter is 1021
Heartbeat CPU 0 instructions: 70000003 cycles: 110723568 heartbeat IPC: 0.610098 cumulative IPC: 0.561763 (Simulation time: 0 hr 32 min 13 sec) 
select_counter is 1023
Heartbeat CPU 0 instructions: 71000000 cycles: 112478252 heartbeat IPC: 0.569901 cumulative IPC: 0.561895 (Simulation time: 0 hr 32 min 40 sec) 
select_counter is 1023
Heartbeat CPU 0 instructions: 72000000 cycles: 114073312 heartbeat IPC: 0.626936 cumulative IPC: 0.562836 (Simulation time: 0 hr 33 min 12 sec) 
select_counter is 1023
Heartbeat CPU 0 instructions: 73000003 cycles: 115706552 heartbeat IPC: 0.612282 cumulative IPC: 0.563559 (Simulation time: 0 hr 33 min 38 sec) 
select_counter is 1023
Heartbeat CPU 0 instructions: 74000002 cycles: 117508952 heartbeat IPC: 0.554815 cumulative IPC: 0.56342 (Simulation time: 0 hr 34 min 4 sec) 
select_counter is 1023
Heartbeat CPU 0 instructions: 75000002 cycles: 119122596 heartbeat IPC: 0.619715 cumulative IPC: 0.564209 (Simulation time: 0 hr 34 min 26 sec) 
select_counter is 1022
Heartbeat CPU 0 instructions: 76000000 cycles: 120792731 heartbeat IPC: 0.598753 cumulative IPC: 0.564702 (Simulation time: 0 hr 34 min 50 sec) 
select_counter is 1023
Heartbeat CPU 0 instructions: 77000003 cycles: 122620568 heartbeat IPC: 0.547096 cumulative IPC: 0.564431 (Simulation time: 0 hr 35 min 14 sec) 
select_counter is 1023
Heartbeat CPU 0 instructions: 78000002 cycles: 124242200 heartbeat IPC: 0.616662 cumulative IPC: 0.565135 (Simulation time: 0 hr 35 min 36 sec) 
select_counter is 1023
Heartbeat CPU 0 instructions: 79000000 cycles: 125892214 heartbeat IPC: 0.606054 cumulative IPC: 0.565689 (Simulation time: 0 hr 35 min 58 sec) 
select_counter is 1022
Heartbeat CPU 0 instructions: 80000000 cycles: 127683396 heartbeat IPC: 0.558291 cumulative IPC: 0.565582 (Simulation time: 0 hr 36 min 21 sec) 
select_counter is 1023
Heartbeat CPU 0 instructions: 81000003 cycles: 129287677 heartbeat IPC: 0.623334 cumulative IPC: 0.56632 (Simulation time: 0 hr 36 min 43 sec) 
select_counter is 1023
Heartbeat CPU 0 instructions: 82000000 cycles: 130982609 heartbeat IPC: 0.589992 cumulative IPC: 0.566636 (Simulation time: 0 hr 37 min 8 sec) 
select_counter is 1023
Heartbeat CPU 0 instructions: 83000003 cycles: 132765881 heartbeat IPC: 0.560769 cumulative IPC: 0.566555 (Simulation time: 0 hr 37 min 31 sec) 
select_counter is 1023
Heartbeat CPU 0 instructions: 84000000 cycles: 134470106 heartbeat IPC: 0.586775 cumulative IPC: 0.566819 (Simulation time: 0 hr 37 min 53 sec) 
select_counter is 1023
Heartbeat CPU 0 instructions: 85000002 cycles: 136070332 heartbeat IPC: 0.624913 cumulative IPC: 0.567522 (Simulation time: 0 hr 38 min 15 sec) 
select_counter is 1022
Heartbeat CPU 0 instructions: 86000002 cycles: 137893473 heartbeat IPC: 0.548504 cumulative IPC: 0.567264 (Simulation time: 0 hr 38 min 37 sec) 
select_counter is 1023
Heartbeat CPU 0 instructions: 87000003 cycles: 139604436 heartbeat IPC: 0.584467 cumulative IPC: 0.567481 (Simulation time: 0 hr 38 min 58 sec) 
select_counter is 1023
Heartbeat CPU 0 instructions: 88000000 cycles: 141190989 heartbeat IPC: 0.630295 cumulative IPC: 0.568207 (Simulation time: 0 hr 39 min 19 sec) 
select_counter is 1022
Heartbeat CPU 0 instructions: 89000003 cycles: 143016083 heartbeat IPC: 0.547919 cumulative IPC: 0.56794 (Simulation time: 0 hr 39 min 41 sec) 
select_counter is 1023
Heartbeat CPU 0 instructions: 90000001 cycles: 144732438 heartbeat IPC: 0.582629 cumulative IPC: 0.568119 (Simulation time: 0 hr 40 min 1 sec) 
select_counter is 1023
Heartbeat CPU 0 instructions: 91000000 cycles: 146281835 heartbeat IPC: 0.645412 cumulative IPC: 0.568961 (Simulation time: 0 hr 40 min 22 sec) 
select_counter is 1022
Heartbeat CPU 0 instructions: 92000000 cycles: 148128625 heartbeat IPC: 0.54148 cumulative IPC: 0.568609 (Simulation time: 0 hr 40 min 46 sec) 
select_counter is 1023
Heartbeat CPU 0 instructions: 93000003 cycles: 149941921 heartbeat IPC: 0.551484 cumulative IPC: 0.568396 (Simulation time: 0 hr 41 min 8 sec) 
select_counter is 1023
Heartbeat CPU 0 instructions: 94000002 cycles: 151523267 heartbeat IPC: 0.632372 cumulative IPC: 0.569081 (Simulation time: 0 hr 41 min 30 sec) 
select_counter is 1022
Heartbeat CPU 0 instructions: 95000001 cycles: 153317158 heartbeat IPC: 0.557447 cumulative IPC: 0.568942 (Simulation time: 0 hr 41 min 51 sec) 
select_counter is 1018
Heartbeat CPU 0 instructions: 96000000 cycles: 155093381 heartbeat IPC: 0.562992 cumulative IPC: 0.568872 (Simulation time: 0 hr 42 min 11 sec) 
select_counter is 1023
Heartbeat CPU 0 instructions: 97000001 cycles: 156681885 heartbeat IPC: 0.629524 cumulative IPC: 0.569502 (Simulation time: 0 hr 42 min 30 sec) 
select_counter is 1021
Heartbeat CPU 0 instructions: 98000000 cycles: 158534114 heartbeat IPC: 0.53989 cumulative IPC: 0.569148 (Simulation time: 0 hr 42 min 50 sec) 
select_counter is 1023
Heartbeat CPU 0 instructions: 99000003 cycles: 160290026 heartbeat IPC: 0.569506 cumulative IPC: 0.569152 (Simulation time: 0 hr 43 min 10 sec) 
select_counter is 1023
Heartbeat CPU 0 instructions: 100000000 cycles: 161886207 heartbeat IPC: 0.626494 cumulative IPC: 0.569731 (Simulation time: 0 hr 43 min 28 sec) 
select_counter is 1022
Heartbeat CPU 0 instructions: 101000002 cycles: 163763966 heartbeat IPC: 0.532551 cumulative IPC: 0.569294 (Simulation time: 0 hr 43 min 48 sec) 
select_counter is 1023
Heartbeat CPU 0 instructions: 102000002 cycles: 165485826 heartbeat IPC: 0.580767 cumulative IPC: 0.569417 (Simulation time: 0 hr 44 min 6 sec) 
select_counter is 1023
Heartbeat CPU 0 instructions: 103000001 cycles: 167092034 heartbeat IPC: 0.622584 cumulative IPC: 0.56994 (Simulation time: 0 hr 44 min 23 sec) 
select_counter is 1023
Heartbeat CPU 0 instructions: 104000000 cycles: 168950557 heartbeat IPC: 0.538061 cumulative IPC: 0.569581 (Simulation time: 0 hr 44 min 41 sec) 
select_counter is 1023
Heartbeat CPU 0 instructions: 105000001 cycles: 170730699 heartbeat IPC: 0.561754 cumulative IPC: 0.569497 (Simulation time: 0 hr 44 min 59 sec) 
select_counter is 1021
Heartbeat CPU 0 instructions: 106000001 cycles: 172325821 heartbeat IPC: 0.626911 cumulative IPC: 0.570041 (Simulation time: 0 hr 45 min 15 sec) 
select_counter is 1023
Heartbeat CPU 0 instructions: 107000000 cycles: 174207517 heartbeat IPC: 0.531435 cumulative IPC: 0.569615 (Simulation time: 0 hr 45 min 31 sec) 
select_counter is 1022
Heartbeat CPU 0 instructions: 108000000 cycles: 175993942 heartbeat IPC: 0.559777 cumulative IPC: 0.569513 (Simulation time: 0 hr 45 min 47 sec) 
select_counter is 1023
Heartbeat CPU 0 instructions: 109000003 cycles: 177586147 heartbeat IPC: 0.628062 cumulative IPC: 0.570049 (Simulation time: 0 hr 46 min 2 sec) 
select_counter is 1023
Heartbeat CPU 0 instructions: 110000001 cycles: 179484581 heartbeat IPC: 0.526749 cumulative IPC: 0.569581 (Simulation time: 0 hr 46 min 18 sec) 
select_counter is 1020
Finished CPU 0 instructions: 100000003 cycles: 175567612 cummulative IPC: 0.569581 (Simulation time: 0 hr 46 min 18 sec) 

ChampSim completed all CPUs

Region of Interest Statistics

CPU 0 cummulative IPC: 0.569581 instructions: 100000003 cycles: 175567612
LLC TOTAL     ACCESS:    6027264  HIT:    1683667  MISS:    4343597
LLC LOAD      ACCESS:     843450  HIT:        132  MISS:     843318
LLC RFO       ACCESS:    2591802  HIT:     543953  MISS:    2047849
LLC PREFETCH  ACCESS:          0  HIT:          0  MISS:          0
LLC WRITEBACK ACCESS:    2592012  HIT:    1139582  MISS:    1452430
Insertion Distribution: 
	LOAD 0 0 0 0 0 0 241 28566 
	RFO 3251 0 0 0 0 0 13313 59019 
	PREF 0 0 0 0 0 0 0 0 
	WRITEBACK 0 0 0 0 0 0 0 56406 
Total Prefetch Downgrades: 0
