
*** ChampSim Multicore Out-of-Order Simulator ***

Warmup Instructions: 10000000
Simulation Instructions: 100000000
Configuration: 1
Number of CPUs: 1
LLC sets: 2048
LLC ways: 16
Off-chip DRAM Channels: 1 Width: 64-bit Data Rate: 1600 MT/s

CPU 0 runs /datasets/cs240c-wi22-a00-public/data/Assignment2-gz/calculix_2655B.trace.gz
Heartbeat CPU 0 instructions: 1000003 cycles: 371402 heartbeat IPC: 2.69251 cumulative IPC: 2.69251 (Simulation time: 0 hr 0 min 18 sec) 
select_counter is 619
Heartbeat CPU 0 instructions: 2000001 cycles: 746536 heartbeat IPC: 2.66571 cumulative IPC: 2.67904 (Simulation time: 0 hr 0 min 35 sec) 
select_counter is 626
Heartbeat CPU 0 instructions: 3000002 cycles: 1121180 heartbeat IPC: 2.6692 cumulative IPC: 2.67575 (Simulation time: 0 hr 0 min 52 sec) 
select_counter is 646
Heartbeat CPU 0 instructions: 4000000 cycles: 1487470 heartbeat IPC: 2.73007 cumulative IPC: 2.68913 (Simulation time: 0 hr 1 min 8 sec) 
select_counter is 775
Heartbeat CPU 0 instructions: 5000003 cycles: 1860159 heartbeat IPC: 2.68321 cumulative IPC: 2.68794 (Simulation time: 0 hr 1 min 28 sec) 
select_counter is 791
Heartbeat CPU 0 instructions: 6000003 cycles: 2234456 heartbeat IPC: 2.67168 cumulative IPC: 2.68522 (Simulation time: 0 hr 1 min 44 sec) 
select_counter is 796
Heartbeat CPU 0 instructions: 7000002 cycles: 2609638 heartbeat IPC: 2.66537 cumulative IPC: 2.68237 (Simulation time: 0 hr 2 min 2 sec) 
select_counter is 796
Heartbeat CPU 0 instructions: 8000000 cycles: 2984442 heartbeat IPC: 2.66806 cumulative IPC: 2.68057 (Simulation time: 0 hr 2 min 21 sec) 
select_counter is 796
Heartbeat CPU 0 instructions: 9000001 cycles: 3359277 heartbeat IPC: 2.66784 cumulative IPC: 2.67915 (Simulation time: 0 hr 2 min 38 sec) 
select_counter is 796
Heartbeat CPU 0 instructions: 10000000 cycles: 3724709 heartbeat IPC: 2.73648 cumulative IPC: 2.68477 (Simulation time: 0 hr 2 min 56 sec) 
select_counter is 933

Warmup complete CPU 0 instructions: 10000004 cycles: 3724710 (Simulation time: 0 hr 2 min 56 sec) 

Heartbeat CPU 0 instructions: 11000001 cycles: 4300972 heartbeat IPC: 1.73532 cumulative IPC: 1.73532 (Simulation time: 0 hr 3 min 19 sec) 
select_counter is 936
Heartbeat CPU 0 instructions: 12000000 cycles: 4873665 heartbeat IPC: 1.74613 cumulative IPC: 1.74071 (Simulation time: 0 hr 3 min 42 sec) 
select_counter is 936
Heartbeat CPU 0 instructions: 13000000 cycles: 5452561 heartbeat IPC: 1.72743 cumulative IPC: 1.73626 (Simulation time: 0 hr 4 min 5 sec) 
select_counter is 936
Heartbeat CPU 0 instructions: 14000001 cycles: 6021189 heartbeat IPC: 1.75862 cumulative IPC: 1.7418 (Simulation time: 0 hr 4 min 28 sec) 
select_counter is 936
Heartbeat CPU 0 instructions: 15000000 cycles: 6583064 heartbeat IPC: 1.77975 cumulative IPC: 1.74926 (Simulation time: 0 hr 4 min 51 sec) 
select_counter is 936
Heartbeat CPU 0 instructions: 16000000 cycles: 7523228 heartbeat IPC: 1.06364 cumulative IPC: 1.57956 (Simulation time: 0 hr 5 min 18 sec) 
select_counter is 1023
Heartbeat CPU 0 instructions: 17000002 cycles: 8087181 heartbeat IPC: 1.7732 cumulative IPC: 1.60459 (Simulation time: 0 hr 5 min 43 sec) 
select_counter is 1023
Heartbeat CPU 0 instructions: 18000000 cycles: 8645742 heartbeat IPC: 1.79031 cumulative IPC: 1.62567 (Simulation time: 0 hr 6 min 4 sec) 
select_counter is 1023
Heartbeat CPU 0 instructions: 19000000 cycles: 9203920 heartbeat IPC: 1.79154 cumulative IPC: 1.64257 (Simulation time: 0 hr 6 min 22 sec) 
select_counter is 1023
Heartbeat CPU 0 instructions: 20000000 cycles: 9766590 heartbeat IPC: 1.77724 cumulative IPC: 1.65511 (Simulation time: 0 hr 6 min 43 sec) 
select_counter is 1023
Heartbeat CPU 0 instructions: 21000000 cycles: 10326271 heartbeat IPC: 1.78673 cumulative IPC: 1.66627 (Simulation time: 0 hr 7 min 2 sec) 
select_counter is 1023
Heartbeat CPU 0 instructions: 22000003 cycles: 11265762 heartbeat IPC: 1.06441 cumulative IPC: 1.59129 (Simulation time: 0 hr 7 min 23 sec) 
select_counter is 1023
Heartbeat CPU 0 instructions: 23000000 cycles: 11837319 heartbeat IPC: 1.7496 cumulative IPC: 1.60244 (Simulation time: 0 hr 7 min 42 sec) 
select_counter is 1023
Heartbeat CPU 0 instructions: 24000000 cycles: 12404043 heartbeat IPC: 1.76453 cumulative IPC: 1.61303 (Simulation time: 0 hr 8 min 1 sec) 
select_counter is 1023
Heartbeat CPU 0 instructions: 25000003 cycles: 12970925 heartbeat IPC: 1.76404 cumulative IPC: 1.62229 (Simulation time: 0 hr 8 min 21 sec) 
select_counter is 1023
Heartbeat CPU 0 instructions: 26000001 cycles: 13532921 heartbeat IPC: 1.77937 cumulative IPC: 1.63129 (Simulation time: 0 hr 8 min 41 sec) 
select_counter is 1023
Heartbeat CPU 0 instructions: 27000000 cycles: 14145959 heartbeat IPC: 1.63122 cumulative IPC: 1.63128 (Simulation time: 0 hr 8 min 59 sec) 
select_counter is 1023
Heartbeat CPU 0 instructions: 28000000 cycles: 15086844 heartbeat IPC: 1.06283 cumulative IPC: 1.58421 (Simulation time: 0 hr 9 min 20 sec) 
select_counter is 1020
Heartbeat CPU 0 instructions: 29000003 cycles: 15659071 heartbeat IPC: 1.74756 cumulative IPC: 1.59204 (Simulation time: 0 hr 9 min 38 sec) 
select_counter is 1023
Heartbeat CPU 0 instructions: 30000001 cycles: 16225488 heartbeat IPC: 1.76548 cumulative IPC: 1.5999 (Simulation time: 0 hr 9 min 59 sec) 
select_counter is 1023
Heartbeat CPU 0 instructions: 31000000 cycles: 16785621 heartbeat IPC: 1.78529 cumulative IPC: 1.60785 (Simulation time: 0 hr 10 min 20 sec) 
select_counter is 1023
Heartbeat CPU 0 instructions: 32000000 cycles: 17341505 heartbeat IPC: 1.79894 cumulative IPC: 1.61565 (Simulation time: 0 hr 10 min 37 sec) 
select_counter is 1023
Heartbeat CPU 0 instructions: 33000003 cycles: 18037679 heartbeat IPC: 1.43643 cumulative IPC: 1.60693 (Simulation time: 0 hr 10 min 55 sec) 
select_counter is 1022
Heartbeat CPU 0 instructions: 34000002 cycles: 19144015 heartbeat IPC: 0.903884 cumulative IPC: 1.55649 (Simulation time: 0 hr 11 min 15 sec) 
select_counter is 997
Heartbeat CPU 0 instructions: 35000002 cycles: 19741632 heartbeat IPC: 1.67331 cumulative IPC: 1.56085 (Simulation time: 0 hr 11 min 34 sec) 
select_counter is 1002
Heartbeat CPU 0 instructions: 36000000 cycles: 20314644 heartbeat IPC: 1.74516 cumulative IPC: 1.56722 (Simulation time: 0 hr 11 min 53 sec) 
select_counter is 1004
Heartbeat CPU 0 instructions: 37000002 cycles: 20885486 heartbeat IPC: 1.7518 cumulative IPC: 1.57336 (Simulation time: 0 hr 12 min 11 sec) 
select_counter is 1006
Heartbeat CPU 0 instructions: 38000003 cycles: 21450417 heartbeat IPC: 1.77013 cumulative IPC: 1.57963 (Simulation time: 0 hr 12 min 30 sec) 
select_counter is 1007
Heartbeat CPU 0 instructions: 39000002 cycles: 22169030 heartbeat IPC: 1.39157 cumulative IPC: 1.5723 (Simulation time: 0 hr 12 min 49 sec) 
select_counter is 1023
Heartbeat CPU 0 instructions: 40000000 cycles: 22850209 heartbeat IPC: 1.46804 cumulative IPC: 1.56859 (Simulation time: 0 hr 13 min 6 sec) 
select_counter is 1023
Heartbeat CPU 0 instructions: 41000001 cycles: 23526646 heartbeat IPC: 1.47834 cumulative IPC: 1.5655 (Simulation time: 0 hr 13 min 25 sec) 
select_counter is 1023
Heartbeat CPU 0 instructions: 42000003 cycles: 24331301 heartbeat IPC: 1.24277 cumulative IPC: 1.5529 (Simulation time: 0 hr 13 min 44 sec) 
select_counter is 1021
Heartbeat CPU 0 instructions: 43000001 cycles: 25007996 heartbeat IPC: 1.47777 cumulative IPC: 1.55051 (Simulation time: 0 hr 14 min 7 sec) 
select_counter is 1022
Heartbeat CPU 0 instructions: 44000000 cycles: 25941621 heartbeat IPC: 1.07109 cumulative IPC: 1.53037 (Simulation time: 0 hr 14 min 29 sec) 
select_counter is 1023
Heartbeat CPU 0 instructions: 45000002 cycles: 26469916 heartbeat IPC: 1.89289 cumulative IPC: 1.53879 (Simulation time: 0 hr 14 min 53 sec) 
select_counter is 1020
Heartbeat CPU 0 instructions: 46000003 cycles: 27192302 heartbeat IPC: 1.3843 cumulative IPC: 1.53403 (Simulation time: 0 hr 15 min 13 sec) 
select_counter is 1018
Heartbeat CPU 0 instructions: 47000001 cycles: 27773874 heartbeat IPC: 1.71947 cumulative IPC: 1.53851 (Simulation time: 0 hr 15 min 31 sec) 
select_counter is 1010
Heartbeat CPU 0 instructions: 48000000 cycles: 28499936 heartbeat IPC: 1.37729 cumulative IPC: 1.53379 (Simulation time: 0 hr 15 min 49 sec) 
select_counter is 1023
Heartbeat CPU 0 instructions: 49000000 cycles: 29000027 heartbeat IPC: 1.99964 cumulative IPC: 1.54301 (Simulation time: 0 hr 16 min 7 sec) 
select_counter is 1023
Heartbeat CPU 0 instructions: 50000002 cycles: 29580957 heartbeat IPC: 1.72138 cumulative IPC: 1.54701 (Simulation time: 0 hr 16 min 27 sec) 
select_counter is 1023
Heartbeat CPU 0 instructions: 51000000 cycles: 30160964 heartbeat IPC: 1.72411 cumulative IPC: 1.5509 (Simulation time: 0 hr 16 min 46 sec) 
select_counter is 1022
Heartbeat CPU 0 instructions: 52000000 cycles: 30630921 heartbeat IPC: 2.12785 cumulative IPC: 1.56098 (Simulation time: 0 hr 17 min 5 sec) 
select_counter is 1022
Heartbeat CPU 0 instructions: 53000002 cycles: 31330682 heartbeat IPC: 1.42906 cumulative IPC: 1.55763 (Simulation time: 0 hr 17 min 25 sec) 
select_counter is 1023
Heartbeat CPU 0 instructions: 54000002 cycles: 32423488 heartbeat IPC: 0.915075 cumulative IPC: 1.53317 (Simulation time: 0 hr 17 min 46 sec) 
select_counter is 1023
Heartbeat CPU 0 instructions: 55000002 cycles: 33177926 heartbeat IPC: 1.32549 cumulative IPC: 1.52785 (Simulation time: 0 hr 18 min 7 sec) 
select_counter is 1021
Heartbeat CPU 0 instructions: 56000000 cycles: 33717599 heartbeat IPC: 1.85297 cumulative IPC: 1.5337 (Simulation time: 0 hr 18 min 25 sec) 
select_counter is 1020
Heartbeat CPU 0 instructions: 57000000 cycles: 34475436 heartbeat IPC: 1.31954 cumulative IPC: 1.52842 (Simulation time: 0 hr 18 min 44 sec) 
select_counter is 1021
Heartbeat CPU 0 instructions: 58000001 cycles: 34979084 heartbeat IPC: 1.98552 cumulative IPC: 1.53578 (Simulation time: 0 hr 19 min 4 sec) 
select_counter is 1023
Heartbeat CPU 0 instructions: 59000000 cycles: 35709561 heartbeat IPC: 1.36897 cumulative IPC: 1.53198 (Simulation time: 0 hr 19 min 24 sec) 
select_counter is 1023
Heartbeat CPU 0 instructions: 60000000 cycles: 36244675 heartbeat IPC: 1.86876 cumulative IPC: 1.53752 (Simulation time: 0 hr 19 min 44 sec) 
select_counter is 1023
Heartbeat CPU 0 instructions: 61000002 cycles: 36847626 heartbeat IPC: 1.65851 cumulative IPC: 1.53972 (Simulation time: 0 hr 20 min 3 sec) 
select_counter is 1023
Heartbeat CPU 0 instructions: 62000003 cycles: 37480115 heartbeat IPC: 1.58106 cumulative IPC: 1.54049 (Simulation time: 0 hr 20 min 22 sec) 
select_counter is 1023
Heartbeat CPU 0 instructions: 63000002 cycles: 38370631 heartbeat IPC: 1.12294 cumulative IPC: 1.52976 (Simulation time: 0 hr 20 min 41 sec) 
select_counter is 1023
Heartbeat CPU 0 instructions: 64000000 cycles: 38971574 heartbeat IPC: 1.66405 cumulative IPC: 1.53205 (Simulation time: 0 hr 21 min 0 sec) 
select_counter is 1023
Heartbeat CPU 0 instructions: 65000001 cycles: 39599716 heartbeat IPC: 1.592 cumulative IPC: 1.5331 (Simulation time: 0 hr 21 min 19 sec) 
select_counter is 1023
Heartbeat CPU 0 instructions: 66000001 cycles: 40571264 heartbeat IPC: 1.02929 cumulative IPC: 1.51982 (Simulation time: 0 hr 21 min 39 sec) 
select_counter is 1022
Heartbeat CPU 0 instructions: 67000003 cycles: 41389563 heartbeat IPC: 1.22205 cumulative IPC: 1.51335 (Simulation time: 0 hr 21 min 59 sec) 
select_counter is 1023
Heartbeat CPU 0 instructions: 68000000 cycles: 42035175 heartbeat IPC: 1.54891 cumulative IPC: 1.51395 (Simulation time: 0 hr 22 min 18 sec) 
select_counter is 1023
Heartbeat CPU 0 instructions: 69000003 cycles: 42667397 heartbeat IPC: 1.58173 cumulative IPC: 1.51505 (Simulation time: 0 hr 22 min 39 sec) 
select_counter is 1023
Heartbeat CPU 0 instructions: 70000002 cycles: 43319502 heartbeat IPC: 1.53349 cumulative IPC: 1.51535 (Simulation time: 0 hr 22 min 57 sec) 
select_counter is 1023
Heartbeat CPU 0 instructions: 71000001 cycles: 43973978 heartbeat IPC: 1.52794 cumulative IPC: 1.51556 (Simulation time: 0 hr 23 min 16 sec) 
select_counter is 1023
Heartbeat CPU 0 instructions: 72000000 cycles: 44618796 heartbeat IPC: 1.55082 cumulative IPC: 1.51611 (Simulation time: 0 hr 23 min 35 sec) 
select_counter is 1023
Heartbeat CPU 0 instructions: 73000000 cycles: 45269136 heartbeat IPC: 1.53766 cumulative IPC: 1.51645 (Simulation time: 0 hr 23 min 55 sec) 
select_counter is 1023
Heartbeat CPU 0 instructions: 74000000 cycles: 45895043 heartbeat IPC: 1.59768 cumulative IPC: 1.51765 (Simulation time: 0 hr 24 min 13 sec) 
select_counter is 1023
Heartbeat CPU 0 instructions: 75000000 cycles: 46759321 heartbeat IPC: 1.15704 cumulative IPC: 1.51041 (Simulation time: 0 hr 24 min 34 sec) 
select_counter is 1022
Heartbeat CPU 0 instructions: 76000000 cycles: 47556995 heartbeat IPC: 1.25364 cumulative IPC: 1.50574 (Simulation time: 0 hr 24 min 53 sec) 
select_counter is 1023
Heartbeat CPU 0 instructions: 77000003 cycles: 48161260 heartbeat IPC: 1.65491 cumulative IPC: 1.50777 (Simulation time: 0 hr 25 min 14 sec) 
select_counter is 1023
Heartbeat CPU 0 instructions: 78000002 cycles: 48764326 heartbeat IPC: 1.65819 cumulative IPC: 1.50978 (Simulation time: 0 hr 25 min 32 sec) 
select_counter is 1023
Heartbeat CPU 0 instructions: 79000003 cycles: 49356777 heartbeat IPC: 1.6879 cumulative IPC: 1.51209 (Simulation time: 0 hr 25 min 50 sec) 
select_counter is 1023
Heartbeat CPU 0 instructions: 80000000 cycles: 49953442 heartbeat IPC: 1.67598 cumulative IPC: 1.51421 (Simulation time: 0 hr 26 min 9 sec) 
select_counter is 1023
Heartbeat CPU 0 instructions: 81000001 cycles: 50548596 heartbeat IPC: 1.68024 cumulative IPC: 1.51632 (Simulation time: 0 hr 26 min 28 sec) 
select_counter is 1023
Heartbeat CPU 0 instructions: 82000001 cycles: 51137698 heartbeat IPC: 1.6975 cumulative IPC: 1.51857 (Simulation time: 0 hr 26 min 47 sec) 
select_counter is 1023
Heartbeat CPU 0 instructions: 83000001 cycles: 51723837 heartbeat IPC: 1.70608 cumulative IPC: 1.52086 (Simulation time: 0 hr 27 min 6 sec) 
select_counter is 1023
Heartbeat CPU 0 instructions: 84000000 cycles: 52443457 heartbeat IPC: 1.38962 cumulative IPC: 1.51892 (Simulation time: 0 hr 27 min 24 sec) 
select_counter is 1023
Heartbeat CPU 0 instructions: 85000002 cycles: 53148895 heartbeat IPC: 1.41756 cumulative IPC: 1.51748 (Simulation time: 0 hr 27 min 43 sec) 
select_counter is 1023
Heartbeat CPU 0 instructions: 86000000 cycles: 53991691 heartbeat IPC: 1.18652 cumulative IPC: 1.51193 (Simulation time: 0 hr 28 min 4 sec) 
select_counter is 1023
Heartbeat CPU 0 instructions: 87000003 cycles: 54861410 heartbeat IPC: 1.1498 cumulative IPC: 1.50577 (Simulation time: 0 hr 28 min 24 sec) 
select_counter is 1022
Heartbeat CPU 0 instructions: 88000000 cycles: 55407237 heartbeat IPC: 1.83208 cumulative IPC: 1.50921 (Simulation time: 0 hr 28 min 42 sec) 
select_counter is 1023
Heartbeat CPU 0 instructions: 89000001 cycles: 55934760 heartbeat IPC: 1.89565 cumulative IPC: 1.51312 (Simulation time: 0 hr 29 min 0 sec) 
select_counter is 1023
Heartbeat CPU 0 instructions: 90000001 cycles: 56459457 heartbeat IPC: 1.90586 cumulative IPC: 1.51703 (Simulation time: 0 hr 29 min 20 sec) 
select_counter is 1023
Heartbeat CPU 0 instructions: 91000002 cycles: 57285868 heartbeat IPC: 1.21005 cumulative IPC: 1.51229 (Simulation time: 0 hr 29 min 39 sec) 
select_counter is 1023
Heartbeat CPU 0 instructions: 92000000 cycles: 57950703 heartbeat IPC: 1.50413 cumulative IPC: 1.51219 (Simulation time: 0 hr 29 min 58 sec) 
select_counter is 1023
Heartbeat CPU 0 instructions: 93000000 cycles: 58542215 heartbeat IPC: 1.69058 cumulative IPC: 1.51411 (Simulation time: 0 hr 30 min 16 sec) 
select_counter is 1023
Heartbeat CPU 0 instructions: 94000003 cycles: 59107874 heartbeat IPC: 1.76785 cumulative IPC: 1.51671 (Simulation time: 0 hr 30 min 33 sec) 
select_counter is 1023
Heartbeat CPU 0 instructions: 95000001 cycles: 59914398 heartbeat IPC: 1.23989 cumulative IPC: 1.51273 (Simulation time: 0 hr 30 min 52 sec) 
select_counter is 1023
Heartbeat CPU 0 instructions: 96000000 cycles: 60509587 heartbeat IPC: 1.68014 cumulative IPC: 1.51449 (Simulation time: 0 hr 31 min 12 sec) 
select_counter is 1023
Heartbeat CPU 0 instructions: 97000002 cycles: 61083934 heartbeat IPC: 1.74111 cumulative IPC: 1.51676 (Simulation time: 0 hr 31 min 29 sec) 
select_counter is 1023
Heartbeat CPU 0 instructions: 98000001 cycles: 61622329 heartbeat IPC: 1.85737 cumulative IPC: 1.51992 (Simulation time: 0 hr 31 min 48 sec) 
select_counter is 1023
Heartbeat CPU 0 instructions: 99000003 cycles: 62406318 heartbeat IPC: 1.27553 cumulative IPC: 1.51666 (Simulation time: 0 hr 32 min 10 sec) 
select_counter is 1023
Heartbeat CPU 0 instructions: 100000000 cycles: 63027751 heartbeat IPC: 1.60918 cumulative IPC: 1.51763 (Simulation time: 0 hr 32 min 27 sec) 
select_counter is 1023
Heartbeat CPU 0 instructions: 101000002 cycles: 63579902 heartbeat IPC: 1.8111 cumulative IPC: 1.52034 (Simulation time: 0 hr 32 min 46 sec) 
select_counter is 1023
Heartbeat CPU 0 instructions: 102000003 cycles: 64108306 heartbeat IPC: 1.89249 cumulative IPC: 1.52359 (Simulation time: 0 hr 33 min 4 sec) 
select_counter is 1023
Heartbeat CPU 0 instructions: 103000003 cycles: 64712429 heartbeat IPC: 1.65529 cumulative IPC: 1.5249 (Simulation time: 0 hr 33 min 23 sec) 
select_counter is 1022
Heartbeat CPU 0 instructions: 104000000 cycles: 65461700 heartbeat IPC: 1.33463 cumulative IPC: 1.52259 (Simulation time: 0 hr 33 min 42 sec) 
select_counter is 1023
Heartbeat CPU 0 instructions: 105000001 cycles: 65937532 heartbeat IPC: 2.10158 cumulative IPC: 1.52702 (Simulation time: 0 hr 34 min 0 sec) 
select_counter is 1023
Heartbeat CPU 0 instructions: 106000001 cycles: 66486276 heartbeat IPC: 1.82234 cumulative IPC: 1.5296 (Simulation time: 0 hr 34 min 18 sec) 
select_counter is 1023
Heartbeat CPU 0 instructions: 107000002 cycles: 67067112 heartbeat IPC: 1.72166 cumulative IPC: 1.53136 (Simulation time: 0 hr 34 min 34 sec) 
select_counter is 1023
Heartbeat CPU 0 instructions: 108000000 cycles: 67536761 heartbeat IPC: 2.12925 cumulative IPC: 1.53576 (Simulation time: 0 hr 34 min 51 sec) 
select_counter is 1023
Heartbeat CPU 0 instructions: 109000002 cycles: 68191296 heartbeat IPC: 1.52781 cumulative IPC: 1.53568 (Simulation time: 0 hr 35 min 9 sec) 
select_counter is 1023
Heartbeat CPU 0 instructions: 110000003 cycles: 68660267 heartbeat IPC: 2.13233 cumulative IPC: 1.53999 (Simulation time: 0 hr 35 min 25 sec) 
select_counter is 1023
Finished CPU 0 instructions: 100000003 cycles: 64935558 cummulative IPC: 1.53999 (Simulation time: 0 hr 35 min 25 sec) 

ChampSim completed all CPUs

Region of Interest Statistics

CPU 0 cummulative IPC: 1.53999 instructions: 100000003 cycles: 64935558
LLC TOTAL     ACCESS:     827374  HIT:     686753  MISS:     140621
LLC LOAD      ACCESS:     730855  HIT:     590729  MISS:     140126
LLC RFO       ACCESS:        414  HIT:        404  MISS:         10
LLC PREFETCH  ACCESS:          0  HIT:          0  MISS:          0
LLC WRITEBACK ACCESS:      96105  HIT:      95620  MISS:        485
Insertion Distribution: 
	LOAD 1778 0 0 0 0 0 1318 5716 
	RFO 0 0 0 0 0 0 2 1 
	PREF 0 0 0 0 0 0 0 0 
	WRITEBACK 0 0 0 0 0 0 0 33 
Total Prefetch Downgrades: 0
