
*** ChampSim Multicore Out-of-Order Simulator ***

Warmup Instructions: 10000000
Simulation Instructions: 100000000
Configuration: 1
Number of CPUs: 1
LLC sets: 2048
LLC ways: 16
Off-chip DRAM Channels: 1 Width: 64-bit Data Rate: 1600 MT/s

CPU 0 runs /datasets/cs240c-wi22-a00-public/data/Assignment2-gz/soplex_66B.trace.gz
Heartbeat CPU 0 instructions: 1000003 cycles: 416344 heartbeat IPC: 2.40187 cumulative IPC: 2.40187 (Simulation time: 0 hr 0 min 26 sec) 
select_counter is 1020
Heartbeat CPU 0 instructions: 2000002 cycles: 842802 heartbeat IPC: 2.34489 cumulative IPC: 2.37304 (Simulation time: 0 hr 0 min 49 sec) 
select_counter is 1023
Heartbeat CPU 0 instructions: 3000003 cycles: 1252438 heartbeat IPC: 2.44119 cumulative IPC: 2.39533 (Simulation time: 0 hr 1 min 15 sec) 
select_counter is 1021
Heartbeat CPU 0 instructions: 4000000 cycles: 1637666 heartbeat IPC: 2.59586 cumulative IPC: 2.4425 (Simulation time: 0 hr 1 min 36 sec) 
select_counter is 1023
Heartbeat CPU 0 instructions: 5000000 cycles: 2038267 heartbeat IPC: 2.49625 cumulative IPC: 2.45306 (Simulation time: 0 hr 2 min 3 sec) 
select_counter is 1023
Heartbeat CPU 0 instructions: 6000000 cycles: 2498418 heartbeat IPC: 2.1732 cumulative IPC: 2.40152 (Simulation time: 0 hr 2 min 29 sec) 
select_counter is 1022
Heartbeat CPU 0 instructions: 7000002 cycles: 2870752 heartbeat IPC: 2.68577 cumulative IPC: 2.43839 (Simulation time: 0 hr 2 min 54 sec) 
select_counter is 1023
Heartbeat CPU 0 instructions: 8000000 cycles: 3297111 heartbeat IPC: 2.34544 cumulative IPC: 2.42637 (Simulation time: 0 hr 3 min 22 sec) 
select_counter is 1023
Heartbeat CPU 0 instructions: 9000003 cycles: 3736902 heartbeat IPC: 2.27381 cumulative IPC: 2.40841 (Simulation time: 0 hr 3 min 47 sec) 
select_counter is 1023
Heartbeat CPU 0 instructions: 10000001 cycles: 4150761 heartbeat IPC: 2.41628 cumulative IPC: 2.4092 (Simulation time: 0 hr 4 min 11 sec) 
select_counter is 1023

Warmup complete CPU 0 instructions: 10000001 cycles: 4150761 (Simulation time: 0 hr 4 min 11 sec) 

Heartbeat CPU 0 instructions: 11000001 cycles: 7966895 heartbeat IPC: 0.262045 cumulative IPC: 0.262045 (Simulation time: 0 hr 4 min 44 sec) 
select_counter is 1023
Heartbeat CPU 0 instructions: 12000000 cycles: 9673870 heartbeat IPC: 0.585831 cumulative IPC: 0.362115 (Simulation time: 0 hr 5 min 4 sec) 
select_counter is 1023
Heartbeat CPU 0 instructions: 13000001 cycles: 12934935 heartbeat IPC: 0.306649 cumulative IPC: 0.341523 (Simulation time: 0 hr 5 min 31 sec) 
select_counter is 1023
Heartbeat CPU 0 instructions: 14000002 cycles: 16042131 heartbeat IPC: 0.321834 cumulative IPC: 0.336378 (Simulation time: 0 hr 6 min 1 sec) 
select_counter is 1022
Heartbeat CPU 0 instructions: 15000002 cycles: 18766187 heartbeat IPC: 0.3671 cumulative IPC: 0.342104 (Simulation time: 0 hr 6 min 26 sec) 
select_counter is 1021
Heartbeat CPU 0 instructions: 16000000 cycles: 21909340 heartbeat IPC: 0.318151 cumulative IPC: 0.337865 (Simulation time: 0 hr 7 min 2 sec) 
select_counter is 1022
Heartbeat CPU 0 instructions: 17000001 cycles: 24771720 heartbeat IPC: 0.34936 cumulative IPC: 0.33946 (Simulation time: 0 hr 7 min 36 sec) 
select_counter is 1023
Heartbeat CPU 0 instructions: 18000000 cycles: 27323933 heartbeat IPC: 0.391816 cumulative IPC: 0.345227 (Simulation time: 0 hr 8 min 9 sec) 
select_counter is 1023
Heartbeat CPU 0 instructions: 19000002 cycles: 31785277 heartbeat IPC: 0.224148 cumulative IPC: 0.32568 (Simulation time: 0 hr 8 min 42 sec) 
select_counter is 1022
Heartbeat CPU 0 instructions: 20000000 cycles: 33490900 heartbeat IPC: 0.586295 cumulative IPC: 0.34083 (Simulation time: 0 hr 9 min 0 sec) 
select_counter is 1023
Heartbeat CPU 0 instructions: 21000000 cycles: 36285353 heartbeat IPC: 0.357852 cumulative IPC: 0.34231 (Simulation time: 0 hr 9 min 26 sec) 
select_counter is 1022
Heartbeat CPU 0 instructions: 22000000 cycles: 39739918 heartbeat IPC: 0.289472 cumulative IPC: 0.337181 (Simulation time: 0 hr 10 min 0 sec) 
select_counter is 1023
Heartbeat CPU 0 instructions: 23000000 cycles: 42480695 heartbeat IPC: 0.36486 cumulative IPC: 0.33916 (Simulation time: 0 hr 10 min 26 sec) 
select_counter is 1022
Heartbeat CPU 0 instructions: 24000000 cycles: 45353002 heartbeat IPC: 0.348152 cumulative IPC: 0.339787 (Simulation time: 0 hr 10 min 51 sec) 
select_counter is 1023
Heartbeat CPU 0 instructions: 25000003 cycles: 48004755 heartbeat IPC: 0.37711 cumulative IPC: 0.342044 (Simulation time: 0 hr 11 min 29 sec) 
select_counter is 1023
Heartbeat CPU 0 instructions: 26000001 cycles: 51082308 heartbeat IPC: 0.324933 cumulative IPC: 0.340922 (Simulation time: 0 hr 12 min 1 sec) 
select_counter is 1002
Heartbeat CPU 0 instructions: 27000002 cycles: 55469235 heartbeat IPC: 0.22795 cumulative IPC: 0.331265 (Simulation time: 0 hr 12 min 40 sec) 
select_counter is 1023
Heartbeat CPU 0 instructions: 28000000 cycles: 57180167 heartbeat IPC: 0.584476 cumulative IPC: 0.339434 (Simulation time: 0 hr 13 min 0 sec) 
select_counter is 1023
Heartbeat CPU 0 instructions: 29000002 cycles: 59527835 heartbeat IPC: 0.425955 cumulative IPC: 0.343102 (Simulation time: 0 hr 13 min 29 sec) 
select_counter is 1023
Heartbeat CPU 0 instructions: 30000000 cycles: 63256546 heartbeat IPC: 0.268189 cumulative IPC: 0.338376 (Simulation time: 0 hr 14 min 9 sec) 
select_counter is 1023
Heartbeat CPU 0 instructions: 31000001 cycles: 66035829 heartbeat IPC: 0.359805 cumulative IPC: 0.339339 (Simulation time: 0 hr 14 min 34 sec) 
select_counter is 1023
Heartbeat CPU 0 instructions: 32000000 cycles: 68837665 heartbeat IPC: 0.356908 cumulative IPC: 0.3401 (Simulation time: 0 hr 15 min 0 sec) 
select_counter is 1022
Heartbeat CPU 0 instructions: 33000001 cycles: 72884722 heartbeat IPC: 0.247093 cumulative IPC: 0.334624 (Simulation time: 0 hr 15 min 37 sec) 
select_counter is 1023
Heartbeat CPU 0 instructions: 34000003 cycles: 75515139 heartbeat IPC: 0.380169 cumulative IPC: 0.336302 (Simulation time: 0 hr 16 min 9 sec) 
select_counter is 1023
Heartbeat CPU 0 instructions: 35000003 cycles: 79375012 heartbeat IPC: 0.259076 cumulative IPC: 0.33234 (Simulation time: 0 hr 16 min 45 sec) 
select_counter is 1023
Heartbeat CPU 0 instructions: 36000000 cycles: 81080662 heartbeat IPC: 0.586285 cumulative IPC: 0.33797 (Simulation time: 0 hr 17 min 6 sec) 
select_counter is 1023
Heartbeat CPU 0 instructions: 37000000 cycles: 84345445 heartbeat IPC: 0.306299 cumulative IPC: 0.336681 (Simulation time: 0 hr 17 min 37 sec) 
select_counter is 1023
Heartbeat CPU 0 instructions: 38000000 cycles: 87437030 heartbeat IPC: 0.323459 cumulative IPC: 0.33619 (Simulation time: 0 hr 18 min 11 sec) 
select_counter is 1021
Heartbeat CPU 0 instructions: 39000003 cycles: 90219344 heartbeat IPC: 0.359414 cumulative IPC: 0.336941 (Simulation time: 0 hr 18 min 34 sec) 
select_counter is 1023
Heartbeat CPU 0 instructions: 40000000 cycles: 93380503 heartbeat IPC: 0.316339 cumulative IPC: 0.336211 (Simulation time: 0 hr 19 min 1 sec) 
select_counter is 1023
Heartbeat CPU 0 instructions: 41000001 cycles: 96101076 heartbeat IPC: 0.36757 cumulative IPC: 0.337139 (Simulation time: 0 hr 19 min 31 sec) 
select_counter is 1023
Heartbeat CPU 0 instructions: 42000003 cycles: 98700622 heartbeat IPC: 0.384683 cumulative IPC: 0.338446 (Simulation time: 0 hr 20 min 2 sec) 
select_counter is 1022
Heartbeat CPU 0 instructions: 43000000 cycles: 102927895 heartbeat IPC: 0.236558 cumulative IPC: 0.334085 (Simulation time: 0 hr 20 min 37 sec) 
select_counter is 1022
Heartbeat CPU 0 instructions: 44000000 cycles: 104626974 heartbeat IPC: 0.588554 cumulative IPC: 0.338389 (Simulation time: 0 hr 21 min 0 sec) 
select_counter is 1023
Heartbeat CPU 0 instructions: 45000003 cycles: 107424672 heartbeat IPC: 0.357438 cumulative IPC: 0.338905 (Simulation time: 0 hr 21 min 26 sec) 
select_counter is 1022
Heartbeat CPU 0 instructions: 46000003 cycles: 110914580 heartbeat IPC: 0.286541 cumulative IPC: 0.337193 (Simulation time: 0 hr 21 min 55 sec) 
select_counter is 1022
Heartbeat CPU 0 instructions: 47000001 cycles: 113682961 heartbeat IPC: 0.361221 cumulative IPC: 0.3378 (Simulation time: 0 hr 22 min 21 sec) 
select_counter is 1021
Heartbeat CPU 0 instructions: 48000000 cycles: 116553259 heartbeat IPC: 0.348396 cumulative IPC: 0.338071 (Simulation time: 0 hr 22 min 49 sec) 
select_counter is 1023
Heartbeat CPU 0 instructions: 49000000 cycles: 120339306 heartbeat IPC: 0.264128 cumulative IPC: 0.335661 (Simulation time: 0 hr 23 min 31 sec) 
select_counter is 1023
Heartbeat CPU 0 instructions: 50000003 cycles: 127245697 heartbeat IPC: 0.144794 cumulative IPC: 0.324952 (Simulation time: 0 hr 24 min 12 sec) 
select_counter is 1022
Heartbeat CPU 0 instructions: 51000002 cycles: 130151337 heartbeat IPC: 0.344158 cumulative IPC: 0.325395 (Simulation time: 0 hr 24 min 51 sec) 
select_counter is 1023
Heartbeat CPU 0 instructions: 52000000 cycles: 135163758 heartbeat IPC: 0.199504 cumulative IPC: 0.320579 (Simulation time: 0 hr 25 min 31 sec) 
select_counter is 1023
Heartbeat CPU 0 instructions: 53000003 cycles: 139176829 heartbeat IPC: 0.249186 cumulative IPC: 0.318457 (Simulation time: 0 hr 26 min 9 sec) 
select_counter is 1023
Heartbeat CPU 0 instructions: 54000000 cycles: 142944462 heartbeat IPC: 0.265418 cumulative IPC: 0.317017 (Simulation time: 0 hr 26 min 54 sec) 
select_counter is 1021
Heartbeat CPU 0 instructions: 55000002 cycles: 147639631 heartbeat IPC: 0.212985 cumulative IPC: 0.313613 (Simulation time: 0 hr 27 min 29 sec) 
select_counter is 1019
Heartbeat CPU 0 instructions: 56000000 cycles: 151454722 heartbeat IPC: 0.262116 cumulative IPC: 0.312279 (Simulation time: 0 hr 28 min 5 sec) 
select_counter is 1021
Heartbeat CPU 0 instructions: 57000003 cycles: 154439347 heartbeat IPC: 0.335051 cumulative IPC: 0.312732 (Simulation time: 0 hr 28 min 40 sec) 
select_counter is 1023
Heartbeat CPU 0 instructions: 58000002 cycles: 156801857 heartbeat IPC: 0.423278 cumulative IPC: 0.314443 (Simulation time: 0 hr 29 min 10 sec) 
select_counter is 1021
Heartbeat CPU 0 instructions: 59000002 cycles: 158635249 heartbeat IPC: 0.545437 cumulative IPC: 0.317184 (Simulation time: 0 hr 29 min 45 sec) 
select_counter is 1022
Heartbeat CPU 0 instructions: 60000000 cycles: 160749809 heartbeat IPC: 0.472911 cumulative IPC: 0.319287 (Simulation time: 0 hr 30 min 12 sec) 
select_counter is 1023
Heartbeat CPU 0 instructions: 61000002 cycles: 164484852 heartbeat IPC: 0.267735 cumulative IPC: 0.318086 (Simulation time: 0 hr 30 min 51 sec) 
select_counter is 1023
Heartbeat CPU 0 instructions: 62000000 cycles: 167851926 heartbeat IPC: 0.296993 cumulative IPC: 0.317652 (Simulation time: 0 hr 31 min 28 sec) 
select_counter is 1021
Heartbeat CPU 0 instructions: 63000002 cycles: 171196801 heartbeat IPC: 0.298965 cumulative IPC: 0.317278 (Simulation time: 0 hr 32 min 3 sec) 
select_counter is 1019
Heartbeat CPU 0 instructions: 64000000 cycles: 174548873 heartbeat IPC: 0.298322 cumulative IPC: 0.316905 (Simulation time: 0 hr 32 min 29 sec) 
select_counter is 1023
Heartbeat CPU 0 instructions: 65000000 cycles: 179118022 heartbeat IPC: 0.218859 cumulative IPC: 0.314345 (Simulation time: 0 hr 33 min 8 sec) 
select_counter is 1023
Heartbeat CPU 0 instructions: 66000001 cycles: 180889955 heartbeat IPC: 0.564356 cumulative IPC: 0.316851 (Simulation time: 0 hr 33 min 30 sec) 
select_counter is 1023
Heartbeat CPU 0 instructions: 67000000 cycles: 182650875 heartbeat IPC: 0.567884 cumulative IPC: 0.319328 (Simulation time: 0 hr 33 min 52 sec) 
select_counter is 1023
Heartbeat CPU 0 instructions: 68000000 cycles: 186830240 heartbeat IPC: 0.239271 cumulative IPC: 0.317496 (Simulation time: 0 hr 34 min 26 sec) 
select_counter is 1023
Heartbeat CPU 0 instructions: 69000000 cycles: 189844862 heartbeat IPC: 0.331717 cumulative IPC: 0.317727 (Simulation time: 0 hr 34 min 48 sec) 
select_counter is 1022
Heartbeat CPU 0 instructions: 70000001 cycles: 192632307 heartbeat IPC: 0.358752 cumulative IPC: 0.318334 (Simulation time: 0 hr 35 min 10 sec) 
select_counter is 1023
Heartbeat CPU 0 instructions: 71000000 cycles: 195448589 heartbeat IPC: 0.355078 cumulative IPC: 0.318875 (Simulation time: 0 hr 35 min 41 sec) 
select_counter is 1021
Heartbeat CPU 0 instructions: 72000000 cycles: 199255073 heartbeat IPC: 0.26271 cumulative IPC: 0.317779 (Simulation time: 0 hr 36 min 11 sec) 
select_counter is 1020
Heartbeat CPU 0 instructions: 73000002 cycles: 202930033 heartbeat IPC: 0.272112 cumulative IPC: 0.316934 (Simulation time: 0 hr 36 min 54 sec) 
select_counter is 1021
Heartbeat CPU 0 instructions: 74000000 cycles: 205464397 heartbeat IPC: 0.394576 cumulative IPC: 0.317912 (Simulation time: 0 hr 37 min 17 sec) 
select_counter is 1023
Heartbeat CPU 0 instructions: 75000002 cycles: 207190876 heartbeat IPC: 0.579215 cumulative IPC: 0.320134 (Simulation time: 0 hr 37 min 36 sec) 
select_counter is 1022
Heartbeat CPU 0 instructions: 76000000 cycles: 211181455 heartbeat IPC: 0.25059 cumulative IPC: 0.318793 (Simulation time: 0 hr 38 min 4 sec) 
select_counter is 1023
Heartbeat CPU 0 instructions: 77000000 cycles: 214009189 heartbeat IPC: 0.35364 cumulative IPC: 0.319263 (Simulation time: 0 hr 38 min 23 sec) 
select_counter is 1023
Heartbeat CPU 0 instructions: 78000003 cycles: 216745250 heartbeat IPC: 0.36549 cumulative IPC: 0.319858 (Simulation time: 0 hr 38 min 44 sec) 
select_counter is 1023
Heartbeat CPU 0 instructions: 79000001 cycles: 220153927 heartbeat IPC: 0.293368 cumulative IPC: 0.31944 (Simulation time: 0 hr 39 min 16 sec) 
select_counter is 1023
Heartbeat CPU 0 instructions: 80000000 cycles: 223781875 heartbeat IPC: 0.275638 cumulative IPC: 0.318716 (Simulation time: 0 hr 39 min 42 sec) 
select_counter is 1023
Heartbeat CPU 0 instructions: 81000003 cycles: 227631253 heartbeat IPC: 0.259783 cumulative IPC: 0.317701 (Simulation time: 0 hr 40 min 12 sec) 
select_counter is 1023
Heartbeat CPU 0 instructions: 82000000 cycles: 229833962 heartbeat IPC: 0.453985 cumulative IPC: 0.319031 (Simulation time: 0 hr 40 min 30 sec) 
select_counter is 1021
Heartbeat CPU 0 instructions: 83000001 cycles: 231550657 heartbeat IPC: 0.582515 cumulative IPC: 0.32102 (Simulation time: 0 hr 40 min 50 sec) 
select_counter is 1022
Heartbeat CPU 0 instructions: 84000000 cycles: 235623971 heartbeat IPC: 0.2455 cumulative IPC: 0.319691 (Simulation time: 0 hr 41 min 21 sec) 
select_counter is 1023
Heartbeat CPU 0 instructions: 85000000 cycles: 238397708 heartbeat IPC: 0.360524 cumulative IPC: 0.320175 (Simulation time: 0 hr 41 min 43 sec) 
select_counter is 1023
Heartbeat CPU 0 instructions: 86000000 cycles: 241195665 heartbeat IPC: 0.357404 cumulative IPC: 0.320614 (Simulation time: 0 hr 42 min 0 sec) 
select_counter is 1023
Heartbeat CPU 0 instructions: 87000000 cycles: 244378995 heartbeat IPC: 0.314136 cumulative IPC: 0.320529 (Simulation time: 0 hr 42 min 24 sec) 
select_counter is 1014
Heartbeat CPU 0 instructions: 88000000 cycles: 247688191 heartbeat IPC: 0.302188 cumulative IPC: 0.320279 (Simulation time: 0 hr 42 min 45 sec) 
select_counter is 1023
Heartbeat CPU 0 instructions: 89000001 cycles: 251779652 heartbeat IPC: 0.244412 cumulative IPC: 0.319026 (Simulation time: 0 hr 43 min 10 sec) 
select_counter is 1022
Heartbeat CPU 0 instructions: 90000002 cycles: 253483702 heartbeat IPC: 0.586838 cumulative IPC: 0.320856 (Simulation time: 0 hr 43 min 25 sec) 
select_counter is 1023
Heartbeat CPU 0 instructions: 91000000 cycles: 255298018 heartbeat IPC: 0.551171 cumulative IPC: 0.32252 (Simulation time: 0 hr 43 min 41 sec) 
select_counter is 1023
Heartbeat CPU 0 instructions: 92000000 cycles: 259378991 heartbeat IPC: 0.24504 cumulative IPC: 0.321281 (Simulation time: 0 hr 44 min 5 sec) 
select_counter is 1021
Heartbeat CPU 0 instructions: 93000000 cycles: 262299004 heartbeat IPC: 0.342464 cumulative IPC: 0.321521 (Simulation time: 0 hr 44 min 20 sec) 
select_counter is 1023
Heartbeat CPU 0 instructions: 94000001 cycles: 265068967 heartbeat IPC: 0.361016 cumulative IPC: 0.32194 (Simulation time: 0 hr 44 min 35 sec) 
select_counter is 1023
Heartbeat CPU 0 instructions: 95000003 cycles: 268935590 heartbeat IPC: 0.258624 cumulative IPC: 0.321015 (Simulation time: 0 hr 44 min 58 sec) 
select_counter is 1023
Heartbeat CPU 0 instructions: 96000000 cycles: 271523790 heartbeat IPC: 0.386368 cumulative IPC: 0.321648 (Simulation time: 0 hr 45 min 16 sec) 
select_counter is 1023
Heartbeat CPU 0 instructions: 97000003 cycles: 275613483 heartbeat IPC: 0.244518 cumulative IPC: 0.320486 (Simulation time: 0 hr 45 min 35 sec) 
select_counter is 1023
Heartbeat CPU 0 instructions: 98000003 cycles: 277315951 heartbeat IPC: 0.587383 cumulative IPC: 0.322149 (Simulation time: 0 hr 45 min 47 sec) 
select_counter is 1023
Heartbeat CPU 0 instructions: 99000000 cycles: 280321584 heartbeat IPC: 0.332708 cumulative IPC: 0.322264 (Simulation time: 0 hr 46 min 2 sec) 
select_counter is 1023
Heartbeat CPU 0 instructions: 100000000 cycles: 283623072 heartbeat IPC: 0.302894 cumulative IPC: 0.322035 (Simulation time: 0 hr 46 min 20 sec) 
select_counter is 1022
Heartbeat CPU 0 instructions: 101000001 cycles: 286285211 heartbeat IPC: 0.375638 cumulative IPC: 0.322541 (Simulation time: 0 hr 46 min 32 sec) 
select_counter is 1023
Heartbeat CPU 0 instructions: 102000000 cycles: 289227074 heartbeat IPC: 0.33992 cumulative IPC: 0.322721 (Simulation time: 0 hr 46 min 46 sec) 
select_counter is 1023
Heartbeat CPU 0 instructions: 103000002 cycles: 293366921 heartbeat IPC: 0.241555 cumulative IPC: 0.321559 (Simulation time: 0 hr 47 min 6 sec) 
select_counter is 1023
Heartbeat CPU 0 instructions: 104000000 cycles: 296265138 heartbeat IPC: 0.345039 cumulative IPC: 0.321792 (Simulation time: 0 hr 47 min 22 sec) 
select_counter is 1023
Heartbeat CPU 0 instructions: 105000000 cycles: 299296916 heartbeat IPC: 0.329839 cumulative IPC: 0.321874 (Simulation time: 0 hr 47 min 33 sec) 
select_counter is 1023
Heartbeat CPU 0 instructions: 106000001 cycles: 301007046 heartbeat IPC: 0.584751 cumulative IPC: 0.323389 (Simulation time: 0 hr 47 min 41 sec) 
select_counter is 1023
Heartbeat CPU 0 instructions: 107000001 cycles: 304716307 heartbeat IPC: 0.269595 cumulative IPC: 0.322725 (Simulation time: 0 hr 47 min 54 sec) 
select_counter is 1023
Heartbeat CPU 0 instructions: 108000000 cycles: 307549259 heartbeat IPC: 0.352988 cumulative IPC: 0.323008 (Simulation time: 0 hr 48 min 4 sec) 
select_counter is 1022
Heartbeat CPU 0 instructions: 109000003 cycles: 310365867 heartbeat IPC: 0.355038 cumulative IPC: 0.323302 (Simulation time: 0 hr 48 min 13 sec) 
select_counter is 1023
Heartbeat CPU 0 instructions: 110000003 cycles: 313788534 heartbeat IPC: 0.29217 cumulative IPC: 0.322958 (Simulation time: 0 hr 48 min 23 sec) 
select_counter is 1023
Finished CPU 0 instructions: 100000002 cycles: 309637773 cummulative IPC: 0.322958 (Simulation time: 0 hr 48 min 23 sec) 

ChampSim completed all CPUs

Region of Interest Statistics

CPU 0 cummulative IPC: 0.322958 instructions: 100000002 cycles: 309637773
LLC TOTAL     ACCESS:    5290157  HIT:    2685672  MISS:    2604485
LLC LOAD      ACCESS:    3127284  HIT:    1366801  MISS:    1760483
LLC RFO       ACCESS:     652054  HIT:     257791  MISS:     394263
LLC PREFETCH  ACCESS:          0  HIT:          0  MISS:          0
LLC WRITEBACK ACCESS:    1510819  HIT:    1061080  MISS:     449739
Insertion Distribution: 
	LOAD 11102 0 0 0 0 0 6889 43715 
	RFO 3531 0 0 0 0 0 2969 7385 
	PREF 0 0 0 0 0 0 0 0 
	WRITEBACK 0 0 0 0 0 0 0 13352 
Total Prefetch Downgrades: 0
