
*** ChampSim Multicore Out-of-Order Simulator ***

Warmup Instructions: 10000000
Simulation Instructions: 100000000
Configuration: 1
Number of CPUs: 1
LLC sets: 2048
LLC ways: 16
Off-chip DRAM Channels: 1 Width: 64-bit Data Rate: 1600 MT/s

CPU 0 runs /datasets/cs240c-wi22-a00-public/data/Assignment2-gz/leslie3d_94B.trace.gz
Heartbeat CPU 0 instructions: 1000003 cycles: 592147 heartbeat IPC: 1.68877 cumulative IPC: 1.68877 (Simulation time: 0 hr 0 min 29 sec) 
select_counter is 1023
Heartbeat CPU 0 instructions: 2000002 cycles: 1206641 heartbeat IPC: 1.62735 cumulative IPC: 1.6575 (Simulation time: 0 hr 0 min 57 sec) 
select_counter is 1023
Heartbeat CPU 0 instructions: 3000002 cycles: 1854532 heartbeat IPC: 1.54347 cumulative IPC: 1.61766 (Simulation time: 0 hr 1 min 30 sec) 
select_counter is 1023
Heartbeat CPU 0 instructions: 4000000 cycles: 2502067 heartbeat IPC: 1.54431 cumulative IPC: 1.59868 (Simulation time: 0 hr 2 min 0 sec) 
select_counter is 1021
Heartbeat CPU 0 instructions: 5000002 cycles: 3062664 heartbeat IPC: 1.78382 cumulative IPC: 1.63257 (Simulation time: 0 hr 2 min 31 sec) 
select_counter is 1023
Heartbeat CPU 0 instructions: 6000002 cycles: 3709771 heartbeat IPC: 1.54534 cumulative IPC: 1.61735 (Simulation time: 0 hr 3 min 5 sec) 
select_counter is 1023
Heartbeat CPU 0 instructions: 7000000 cycles: 4356825 heartbeat IPC: 1.54546 cumulative IPC: 1.60667 (Simulation time: 0 hr 3 min 37 sec) 
select_counter is 1022
Heartbeat CPU 0 instructions: 8000000 cycles: 4917169 heartbeat IPC: 1.78462 cumulative IPC: 1.62695 (Simulation time: 0 hr 4 min 7 sec) 
select_counter is 1023
Heartbeat CPU 0 instructions: 9000000 cycles: 5564793 heartbeat IPC: 1.54411 cumulative IPC: 1.61731 (Simulation time: 0 hr 4 min 41 sec) 
select_counter is 1022
Heartbeat CPU 0 instructions: 10000001 cycles: 6212777 heartbeat IPC: 1.54325 cumulative IPC: 1.60959 (Simulation time: 0 hr 5 min 13 sec) 
select_counter is 1021

Warmup complete CPU 0 instructions: 10000001 cycles: 6212777 (Simulation time: 0 hr 5 min 13 sec) 

Heartbeat CPU 0 instructions: 11000000 cycles: 8116492 heartbeat IPC: 0.525288 cumulative IPC: 0.525288 (Simulation time: 0 hr 5 min 50 sec) 
select_counter is 1023
Heartbeat CPU 0 instructions: 12000000 cycles: 10373543 heartbeat IPC: 0.443056 cumulative IPC: 0.48068 (Simulation time: 0 hr 6 min 27 sec) 
select_counter is 1023
Heartbeat CPU 0 instructions: 13000000 cycles: 12661975 heartbeat IPC: 0.43698 cumulative IPC: 0.465174 (Simulation time: 0 hr 7 min 2 sec) 
select_counter is 1023
Heartbeat CPU 0 instructions: 14000000 cycles: 15007176 heartbeat IPC: 0.426403 cumulative IPC: 0.454835 (Simulation time: 0 hr 7 min 39 sec) 
select_counter is 1023
Heartbeat CPU 0 instructions: 15000001 cycles: 17152281 heartbeat IPC: 0.466178 cumulative IPC: 0.457059 (Simulation time: 0 hr 8 min 14 sec) 
select_counter is 1022
Heartbeat CPU 0 instructions: 16000000 cycles: 19545116 heartbeat IPC: 0.417914 cumulative IPC: 0.450033 (Simulation time: 0 hr 8 min 48 sec) 
select_counter is 1023
Heartbeat CPU 0 instructions: 17000001 cycles: 21680581 heartbeat IPC: 0.468283 cumulative IPC: 0.452553 (Simulation time: 0 hr 9 min 27 sec) 
select_counter is 1023
Heartbeat CPU 0 instructions: 18000002 cycles: 23910518 heartbeat IPC: 0.448444 cumulative IPC: 0.452035 (Simulation time: 0 hr 10 min 3 sec) 
select_counter is 1023
Heartbeat CPU 0 instructions: 19000001 cycles: 26016871 heartbeat IPC: 0.474754 cumulative IPC: 0.454452 (Simulation time: 0 hr 10 min 36 sec) 
select_counter is 1023
Heartbeat CPU 0 instructions: 20000000 cycles: 28280299 heartbeat IPC: 0.441807 cumulative IPC: 0.453155 (Simulation time: 0 hr 11 min 17 sec) 
select_counter is 1023
Heartbeat CPU 0 instructions: 21000002 cycles: 30380589 heartbeat IPC: 0.476126 cumulative IPC: 0.455151 (Simulation time: 0 hr 11 min 55 sec) 
select_counter is 1023
Heartbeat CPU 0 instructions: 22000002 cycles: 33105579 heartbeat IPC: 0.366974 cumulative IPC: 0.446216 (Simulation time: 0 hr 12 min 29 sec) 
select_counter is 1023
Heartbeat CPU 0 instructions: 23000000 cycles: 35953698 heartbeat IPC: 0.351108 cumulative IPC: 0.437108 (Simulation time: 0 hr 13 min 8 sec) 
select_counter is 1022
Heartbeat CPU 0 instructions: 24000000 cycles: 38830307 heartbeat IPC: 0.347632 cumulative IPC: 0.429217 (Simulation time: 0 hr 13 min 43 sec) 
select_counter is 1023
Heartbeat CPU 0 instructions: 25000000 cycles: 42019933 heartbeat IPC: 0.313516 cumulative IPC: 0.418911 (Simulation time: 0 hr 14 min 18 sec) 
select_counter is 1023
Heartbeat CPU 0 instructions: 26000002 cycles: 46037455 heartbeat IPC: 0.24891 cumulative IPC: 0.401761 (Simulation time: 0 hr 15 min 9 sec) 
select_counter is 1023
Heartbeat CPU 0 instructions: 27000001 cycles: 50113486 heartbeat IPC: 0.245336 cumulative IPC: 0.387237 (Simulation time: 0 hr 15 min 53 sec) 
select_counter is 1023
Heartbeat CPU 0 instructions: 28000000 cycles: 54194449 heartbeat IPC: 0.24504 cumulative IPC: 0.375143 (Simulation time: 0 hr 16 min 40 sec) 
select_counter is 1023
Heartbeat CPU 0 instructions: 29000000 cycles: 58167641 heartbeat IPC: 0.251687 cumulative IPC: 0.365702 (Simulation time: 0 hr 17 min 31 sec) 
select_counter is 1021
Heartbeat CPU 0 instructions: 30000002 cycles: 60159477 heartbeat IPC: 0.50205 cumulative IPC: 0.370736 (Simulation time: 0 hr 18 min 5 sec) 
select_counter is 1022
Heartbeat CPU 0 instructions: 31000002 cycles: 61948499 heartbeat IPC: 0.558965 cumulative IPC: 0.376778 (Simulation time: 0 hr 18 min 39 sec) 
select_counter is 1023
Heartbeat CPU 0 instructions: 32000000 cycles: 63783283 heartbeat IPC: 0.545022 cumulative IPC: 0.38214 (Simulation time: 0 hr 19 min 13 sec) 
select_counter is 1023
Heartbeat CPU 0 instructions: 33000001 cycles: 65582558 heartbeat IPC: 0.55578 cumulative IPC: 0.387402 (Simulation time: 0 hr 19 min 47 sec) 
select_counter is 1023
Heartbeat CPU 0 instructions: 34000003 cycles: 67432822 heartbeat IPC: 0.540465 cumulative IPC: 0.392028 (Simulation time: 0 hr 20 min 21 sec) 
select_counter is 1023
Heartbeat CPU 0 instructions: 35000000 cycles: 69198520 heartbeat IPC: 0.566347 cumulative IPC: 0.396915 (Simulation time: 0 hr 20 min 56 sec) 
select_counter is 1023
Heartbeat CPU 0 instructions: 36000000 cycles: 71063712 heartbeat IPC: 0.536138 cumulative IPC: 0.400919 (Simulation time: 0 hr 21 min 30 sec) 
select_counter is 1023
Heartbeat CPU 0 instructions: 37000003 cycles: 72892553 heartbeat IPC: 0.546796 cumulative IPC: 0.40492 (Simulation time: 0 hr 22 min 4 sec) 
select_counter is 1023
Heartbeat CPU 0 instructions: 38000000 cycles: 74699368 heartbeat IPC: 0.553458 cumulative IPC: 0.408839 (Simulation time: 0 hr 22 min 41 sec) 
select_counter is 1022
Heartbeat CPU 0 instructions: 39000001 cycles: 76521517 heartbeat IPC: 0.548803 cumulative IPC: 0.412466 (Simulation time: 0 hr 23 min 17 sec) 
select_counter is 1023
Heartbeat CPU 0 instructions: 40000000 cycles: 78293965 heartbeat IPC: 0.564191 cumulative IPC: 0.416197 (Simulation time: 0 hr 23 min 51 sec) 
select_counter is 1022
Heartbeat CPU 0 instructions: 41000002 cycles: 80164416 heartbeat IPC: 0.534631 cumulative IPC: 0.419193 (Simulation time: 0 hr 24 min 25 sec) 
select_counter is 1020
Heartbeat CPU 0 instructions: 42000002 cycles: 81989575 heartbeat IPC: 0.547897 cumulative IPC: 0.422293 (Simulation time: 0 hr 25 min 1 sec) 
select_counter is 1021
Heartbeat CPU 0 instructions: 43000002 cycles: 83844746 heartbeat IPC: 0.539034 cumulative IPC: 0.425083 (Simulation time: 0 hr 25 min 35 sec) 
select_counter is 1023
Heartbeat CPU 0 instructions: 44000000 cycles: 85647123 heartbeat IPC: 0.554822 cumulative IPC: 0.428026 (Simulation time: 0 hr 26 min 11 sec) 
select_counter is 1023
Heartbeat CPU 0 instructions: 45000001 cycles: 87497589 heartbeat IPC: 0.540405 cumulative IPC: 0.430585 (Simulation time: 0 hr 26 min 47 sec) 
select_counter is 1023
Heartbeat CPU 0 instructions: 46000001 cycles: 89390111 heartbeat IPC: 0.528395 cumulative IPC: 0.43281 (Simulation time: 0 hr 27 min 22 sec) 
select_counter is 1022
Heartbeat CPU 0 instructions: 47000000 cycles: 91190041 heartbeat IPC: 0.555577 cumulative IPC: 0.435411 (Simulation time: 0 hr 27 min 54 sec) 
select_counter is 1020
Heartbeat CPU 0 instructions: 48000000 cycles: 93062097 heartbeat IPC: 0.534172 cumulative IPC: 0.437539 (Simulation time: 0 hr 28 min 26 sec) 
select_counter is 1021
Heartbeat CPU 0 instructions: 49000001 cycles: 94890457 heartbeat IPC: 0.546939 cumulative IPC: 0.439795 (Simulation time: 0 hr 29 min 1 sec) 
select_counter is 1023
Heartbeat CPU 0 instructions: 50000001 cycles: 96741819 heartbeat IPC: 0.540143 cumulative IPC: 0.441847 (Simulation time: 0 hr 29 min 37 sec) 
select_counter is 1022
Heartbeat CPU 0 instructions: 51000003 cycles: 98553071 heartbeat IPC: 0.552105 cumulative IPC: 0.44401 (Simulation time: 0 hr 30 min 9 sec) 
select_counter is 1023
Heartbeat CPU 0 instructions: 52000000 cycles: 100347276 heartbeat IPC: 0.557348 cumulative IPC: 0.44617 (Simulation time: 0 hr 30 min 48 sec) 
select_counter is 1023
Heartbeat CPU 0 instructions: 53000002 cycles: 102210735 heartbeat IPC: 0.536637 cumulative IPC: 0.447926 (Simulation time: 0 hr 31 min 26 sec) 
select_counter is 1023
Heartbeat CPU 0 instructions: 54000001 cycles: 104005039 heartbeat IPC: 0.557319 cumulative IPC: 0.449933 (Simulation time: 0 hr 32 min 0 sec) 
select_counter is 1022
Heartbeat CPU 0 instructions: 55000000 cycles: 105853677 heartbeat IPC: 0.540938 cumulative IPC: 0.451622 (Simulation time: 0 hr 32 min 30 sec) 
select_counter is 1023
Heartbeat CPU 0 instructions: 56000000 cycles: 107675023 heartbeat IPC: 0.549044 cumulative IPC: 0.453371 (Simulation time: 0 hr 33 min 9 sec) 
select_counter is 1022
Heartbeat CPU 0 instructions: 57000000 cycles: 109519073 heartbeat IPC: 0.542285 cumulative IPC: 0.454958 (Simulation time: 0 hr 33 min 45 sec) 
select_counter is 1023
Heartbeat CPU 0 instructions: 58000001 cycles: 111306206 heartbeat IPC: 0.559556 cumulative IPC: 0.456736 (Simulation time: 0 hr 34 min 18 sec) 
select_counter is 1021
Heartbeat CPU 0 instructions: 59000003 cycles: 113074586 heartbeat IPC: 0.56549 cumulative IPC: 0.458536 (Simulation time: 0 hr 34 min 52 sec) 
select_counter is 1023
Heartbeat CPU 0 instructions: 60000000 cycles: 114897977 heartbeat IPC: 0.548427 cumulative IPC: 0.460044 (Simulation time: 0 hr 35 min 26 sec) 
select_counter is 1023
Heartbeat CPU 0 instructions: 61000001 cycles: 116687017 heartbeat IPC: 0.55896 cumulative IPC: 0.461646 (Simulation time: 0 hr 35 min 54 sec) 
select_counter is 1023
Heartbeat CPU 0 instructions: 62000002 cycles: 118490731 heartbeat IPC: 0.554412 cumulative IPC: 0.463136 (Simulation time: 0 hr 36 min 30 sec) 
select_counter is 1023
Heartbeat CPU 0 instructions: 63000001 cycles: 120281284 heartbeat IPC: 0.558486 cumulative IPC: 0.464633 (Simulation time: 0 hr 36 min 59 sec) 
select_counter is 1023
Heartbeat CPU 0 instructions: 64000000 cycles: 122117340 heartbeat IPC: 0.544645 cumulative IPC: 0.465901 (Simulation time: 0 hr 37 min 28 sec) 
select_counter is 1023
Heartbeat CPU 0 instructions: 65000000 cycles: 123950564 heartbeat IPC: 0.545487 cumulative IPC: 0.46714 (Simulation time: 0 hr 37 min 54 sec) 
select_counter is 1021
Heartbeat CPU 0 instructions: 66000000 cycles: 125781255 heartbeat IPC: 0.546242 cumulative IPC: 0.468351 (Simulation time: 0 hr 38 min 23 sec) 
select_counter is 1023
Heartbeat CPU 0 instructions: 67000002 cycles: 127627606 heartbeat IPC: 0.54161 cumulative IPC: 0.469465 (Simulation time: 0 hr 38 min 50 sec) 
select_counter is 1023
Heartbeat CPU 0 instructions: 68000000 cycles: 129444121 heartbeat IPC: 0.550504 cumulative IPC: 0.470659 (Simulation time: 0 hr 39 min 19 sec) 
select_counter is 1021
Heartbeat CPU 0 instructions: 69000000 cycles: 131262215 heartbeat IPC: 0.550027 cumulative IPC: 0.471813 (Simulation time: 0 hr 39 min 47 sec) 
select_counter is 1022
Heartbeat CPU 0 instructions: 70000001 cycles: 133071548 heartbeat IPC: 0.55269 cumulative IPC: 0.472967 (Simulation time: 0 hr 40 min 13 sec) 
select_counter is 1020
Heartbeat CPU 0 instructions: 71000002 cycles: 134940339 heartbeat IPC: 0.535106 cumulative IPC: 0.473869 (Simulation time: 0 hr 40 min 40 sec) 
select_counter is 1023
Heartbeat CPU 0 instructions: 72000000 cycles: 136708733 heartbeat IPC: 0.565484 cumulative IPC: 0.475111 (Simulation time: 0 hr 41 min 4 sec) 
select_counter is 1023
Heartbeat CPU 0 instructions: 73000002 cycles: 138512838 heartbeat IPC: 0.554293 cumulative IPC: 0.47619 (Simulation time: 0 hr 41 min 31 sec) 
select_counter is 1023
Heartbeat CPU 0 instructions: 74000000 cycles: 140316597 heartbeat IPC: 0.554397 cumulative IPC: 0.477242 (Simulation time: 0 hr 41 min 58 sec) 
select_counter is 1021
Heartbeat CPU 0 instructions: 75000000 cycles: 142117658 heartbeat IPC: 0.555228 cumulative IPC: 0.478276 (Simulation time: 0 hr 42 min 24 sec) 
select_counter is 1022
Heartbeat CPU 0 instructions: 76000000 cycles: 143952239 heartbeat IPC: 0.545084 cumulative IPC: 0.479165 (Simulation time: 0 hr 42 min 52 sec) 
select_counter is 1023
Heartbeat CPU 0 instructions: 77000000 cycles: 145738061 heartbeat IPC: 0.559966 cumulative IPC: 0.4802 (Simulation time: 0 hr 43 min 19 sec) 
select_counter is 1023
Heartbeat CPU 0 instructions: 78000003 cycles: 147619660 heartbeat IPC: 0.531464 cumulative IPC: 0.480882 (Simulation time: 0 hr 43 min 44 sec) 
select_counter is 1022
Heartbeat CPU 0 instructions: 79000000 cycles: 149600182 heartbeat IPC: 0.504916 cumulative IPC: 0.481214 (Simulation time: 0 hr 44 min 5 sec) 
select_counter is 1023
Heartbeat CPU 0 instructions: 80000000 cycles: 151873514 heartbeat IPC: 0.439883 cumulative IPC: 0.480569 (Simulation time: 0 hr 44 min 25 sec) 
select_counter is 1022
Heartbeat CPU 0 instructions: 81000002 cycles: 154117373 heartbeat IPC: 0.445662 cumulative IPC: 0.480039 (Simulation time: 0 hr 44 min 46 sec) 
select_counter is 1023
Heartbeat CPU 0 instructions: 82000003 cycles: 156440259 heartbeat IPC: 0.430499 cumulative IPC: 0.479273 (Simulation time: 0 hr 45 min 7 sec) 
select_counter is 1023
Heartbeat CPU 0 instructions: 83000003 cycles: 158794602 heartbeat IPC: 0.424747 cumulative IPC: 0.478432 (Simulation time: 0 hr 45 min 26 sec) 
select_counter is 1023
Heartbeat CPU 0 instructions: 84000000 cycles: 161052359 heartbeat IPC: 0.442916 cumulative IPC: 0.477914 (Simulation time: 0 hr 45 min 45 sec) 
select_counter is 1022
Heartbeat CPU 0 instructions: 85000000 cycles: 163388572 heartbeat IPC: 0.428043 cumulative IPC: 0.477173 (Simulation time: 0 hr 46 min 3 sec) 
select_counter is 1023
Heartbeat CPU 0 instructions: 86000002 cycles: 165614192 heartbeat IPC: 0.449314 cumulative IPC: 0.476784 (Simulation time: 0 hr 46 min 23 sec) 
select_counter is 1023
Heartbeat CPU 0 instructions: 87000000 cycles: 167892564 heartbeat IPC: 0.438909 cumulative IPC: 0.47625 (Simulation time: 0 hr 46 min 41 sec) 
select_counter is 1023
Heartbeat CPU 0 instructions: 88000000 cycles: 170195380 heartbeat IPC: 0.434251 cumulative IPC: 0.47566 (Simulation time: 0 hr 46 min 58 sec) 
select_counter is 1021
Heartbeat CPU 0 instructions: 89000002 cycles: 172451536 heartbeat IPC: 0.443233 cumulative IPC: 0.47522 (Simulation time: 0 hr 47 min 12 sec) 
select_counter is 1022
Heartbeat CPU 0 instructions: 90000001 cycles: 174708623 heartbeat IPC: 0.443049 cumulative IPC: 0.474789 (Simulation time: 0 hr 47 min 28 sec) 
select_counter is 1020
Heartbeat CPU 0 instructions: 91000003 cycles: 176968076 heartbeat IPC: 0.442586 cumulative IPC: 0.474363 (Simulation time: 0 hr 47 min 41 sec) 
select_counter is 1023
Heartbeat CPU 0 instructions: 92000000 cycles: 179249233 heartbeat IPC: 0.438373 cumulative IPC: 0.473889 (Simulation time: 0 hr 47 min 54 sec) 
select_counter is 1023
Heartbeat CPU 0 instructions: 93000001 cycles: 181586822 heartbeat IPC: 0.427792 cumulative IPC: 0.473274 (Simulation time: 0 hr 48 min 6 sec) 
select_counter is 1023
Heartbeat CPU 0 instructions: 94000003 cycles: 183883364 heartbeat IPC: 0.435438 cumulative IPC: 0.472785 (Simulation time: 0 hr 48 min 17 sec) 
select_counter is 1023
Heartbeat CPU 0 instructions: 95000002 cycles: 186255055 heartbeat IPC: 0.42164 cumulative IPC: 0.472111 (Simulation time: 0 hr 48 min 28 sec) 
select_counter is 1023
Heartbeat CPU 0 instructions: 96000000 cycles: 188510907 heartbeat IPC: 0.443291 cumulative IPC: 0.471755 (Simulation time: 0 hr 48 min 38 sec) 
select_counter is 1021
Heartbeat CPU 0 instructions: 97000003 cycles: 191279159 heartbeat IPC: 0.36124 cumulative IPC: 0.470102 (Simulation time: 0 hr 48 min 49 sec) 
select_counter is 1020
Heartbeat CPU 0 instructions: 98000002 cycles: 197322362 heartbeat IPC: 0.165475 cumulative IPC: 0.460469 (Simulation time: 0 hr 49 min 9 sec) 
select_counter is 1023
Heartbeat CPU 0 instructions: 99000000 cycles: 201054981 heartbeat IPC: 0.267908 cumulative IPC: 0.45678 (Simulation time: 0 hr 49 min 24 sec) 
select_counter is 1023
Heartbeat CPU 0 instructions: 100000000 cycles: 203508520 heartbeat IPC: 0.407575 cumulative IPC: 0.456168 (Simulation time: 0 hr 49 min 34 sec) 
select_counter is 1022
Heartbeat CPU 0 instructions: 101000002 cycles: 205646472 heartbeat IPC: 0.467738 cumulative IPC: 0.456292 (Simulation time: 0 hr 49 min 41 sec) 
select_counter is 1022
Heartbeat CPU 0 instructions: 102000003 cycles: 207574808 heartbeat IPC: 0.518582 cumulative IPC: 0.456889 (Simulation time: 0 hr 49 min 49 sec) 
select_counter is 1023
Heartbeat CPU 0 instructions: 103000002 cycles: 209492235 heartbeat IPC: 0.521532 cumulative IPC: 0.457498 (Simulation time: 0 hr 49 min 56 sec) 
select_counter is 1023
Heartbeat CPU 0 instructions: 104000000 cycles: 211578557 heartbeat IPC: 0.479311 cumulative IPC: 0.45772 (Simulation time: 0 hr 50 min 2 sec) 
select_counter is 1022
Heartbeat CPU 0 instructions: 105000001 cycles: 213713692 heartbeat IPC: 0.468355 cumulative IPC: 0.457829 (Simulation time: 0 hr 50 min 8 sec) 
select_counter is 1021
Heartbeat CPU 0 instructions: 106000001 cycles: 215833968 heartbeat IPC: 0.471637 cumulative IPC: 0.457969 (Simulation time: 0 hr 50 min 13 sec) 
select_counter is 1023
Heartbeat CPU 0 instructions: 107000000 cycles: 217947604 heartbeat IPC: 0.473118 cumulative IPC: 0.45812 (Simulation time: 0 hr 50 min 18 sec) 
select_counter is 1023
Heartbeat CPU 0 instructions: 108000000 cycles: 220069740 heartbeat IPC: 0.471223 cumulative IPC: 0.45825 (Simulation time: 0 hr 50 min 22 sec) 
select_counter is 1023
Heartbeat CPU 0 instructions: 109000001 cycles: 222071920 heartbeat IPC: 0.499456 cumulative IPC: 0.458632 (Simulation time: 0 hr 50 min 26 sec) 
select_counter is 1021
Heartbeat CPU 0 instructions: 110000001 cycles: 224050592 heartbeat IPC: 0.505389 cumulative IPC: 0.459057 (Simulation time: 0 hr 50 min 29 sec) 
select_counter is 1022
Finished CPU 0 instructions: 100000000 cycles: 217837815 cummulative IPC: 0.459057 (Simulation time: 0 hr 50 min 29 sec) 

ChampSim completed all CPUs

Region of Interest Statistics

CPU 0 cummulative IPC: 0.459057 instructions: 100000000 cycles: 217837815
LLC TOTAL     ACCESS:    4478173  HIT:    1446325  MISS:    3031848
LLC LOAD      ACCESS:    2621125  HIT:     677561  MISS:    1943564
LLC RFO       ACCESS:     760595  HIT:      91157  MISS:     669438
LLC PREFETCH  ACCESS:          0  HIT:          0  MISS:          0
LLC WRITEBACK ACCESS:    1096453  HIT:     677607  MISS:     418846
Insertion Distribution: 
	LOAD 5351 0 0 0 0 0 5360 56709 
	RFO 8 0 0 0 0 0 1579 19291 
	PREF 0 0 0 0 0 0 0 0 
	WRITEBACK 0 0 0 0 0 0 0 25581 
Total Prefetch Downgrades: 0
