
*** ChampSim Multicore Out-of-Order Simulator ***

Warmup Instructions: 10000000
Simulation Instructions: 100000000
Configuration: 1
Number of CPUs: 1
LLC sets: 2048
LLC ways: 16
Off-chip DRAM Channels: 1 Width: 64-bit Data Rate: 1600 MT/s

CPU 0 runs /datasets/cs240c-wi22-a00-public/data/Assignment2-gz/sphinx3_883B.trace.gz
Heartbeat CPU 0 instructions: 1000003 cycles: 413061 heartbeat IPC: 2.42096 cumulative IPC: 2.42096 (Simulation time: 0 hr 0 min 24 sec) 
select_counter is 875
Heartbeat CPU 0 instructions: 2000000 cycles: 821530 heartbeat IPC: 2.44816 cumulative IPC: 2.43448 (Simulation time: 0 hr 0 min 50 sec) 
select_counter is 1022
Heartbeat CPU 0 instructions: 3000003 cycles: 1294917 heartbeat IPC: 2.11244 cumulative IPC: 2.31675 (Simulation time: 0 hr 1 min 12 sec) 
select_counter is 1023
Heartbeat CPU 0 instructions: 4000000 cycles: 1633289 heartbeat IPC: 2.95532 cumulative IPC: 2.44905 (Simulation time: 0 hr 1 min 39 sec) 
select_counter is 1023
Heartbeat CPU 0 instructions: 5000000 cycles: 1987091 heartbeat IPC: 2.82644 cumulative IPC: 2.51624 (Simulation time: 0 hr 2 min 2 sec) 
select_counter is 1023
Heartbeat CPU 0 instructions: 6000000 cycles: 2399941 heartbeat IPC: 2.42219 cumulative IPC: 2.50006 (Simulation time: 0 hr 2 min 26 sec) 
select_counter is 1023
Heartbeat CPU 0 instructions: 7000002 cycles: 2807751 heartbeat IPC: 2.45213 cumulative IPC: 2.4931 (Simulation time: 0 hr 2 min 52 sec) 
select_counter is 1021
Heartbeat CPU 0 instructions: 8000000 cycles: 3281845 heartbeat IPC: 2.10928 cumulative IPC: 2.43765 (Simulation time: 0 hr 3 min 18 sec) 
select_counter is 1018
Heartbeat CPU 0 instructions: 9000001 cycles: 3620268 heartbeat IPC: 2.95488 cumulative IPC: 2.486 (Simulation time: 0 hr 3 min 41 sec) 
select_counter is 1023
Heartbeat CPU 0 instructions: 10000000 cycles: 3973607 heartbeat IPC: 2.83014 cumulative IPC: 2.51661 (Simulation time: 0 hr 4 min 2 sec) 
select_counter is 1023

Warmup complete CPU 0 instructions: 10000004 cycles: 3973608 (Simulation time: 0 hr 4 min 2 sec) 

Heartbeat CPU 0 instructions: 11000002 cycles: 6305783 heartbeat IPC: 0.428785 cumulative IPC: 0.428783 (Simulation time: 0 hr 4 min 33 sec) 
select_counter is 1023
Heartbeat CPU 0 instructions: 12000000 cycles: 8571630 heartbeat IPC: 0.441335 cumulative IPC: 0.434969 (Simulation time: 0 hr 5 min 3 sec) 
select_counter is 1023
Heartbeat CPU 0 instructions: 13000001 cycles: 10396264 heartbeat IPC: 0.548056 cumulative IPC: 0.467096 (Simulation time: 0 hr 5 min 36 sec) 
select_counter is 1007
Heartbeat CPU 0 instructions: 14000001 cycles: 12043898 heartbeat IPC: 0.606931 cumulative IPC: 0.495645 (Simulation time: 0 hr 6 min 7 sec) 
select_counter is 1009
Heartbeat CPU 0 instructions: 15000000 cycles: 13713429 heartbeat IPC: 0.59897 cumulative IPC: 0.513356 (Simulation time: 0 hr 6 min 35 sec) 
select_counter is 1022
Heartbeat CPU 0 instructions: 16000000 cycles: 15928015 heartbeat IPC: 0.451552 cumulative IPC: 0.501907 (Simulation time: 0 hr 7 min 4 sec) 
select_counter is 1023
Heartbeat CPU 0 instructions: 17000000 cycles: 18087895 heartbeat IPC: 0.462989 cumulative IPC: 0.495951 (Simulation time: 0 hr 7 min 33 sec) 
select_counter is 1021
Heartbeat CPU 0 instructions: 18000002 cycles: 20056357 heartbeat IPC: 0.508012 cumulative IPC: 0.497427 (Simulation time: 0 hr 8 min 4 sec) 
select_counter is 1020
Heartbeat CPU 0 instructions: 19000000 cycles: 21576896 heartbeat IPC: 0.65766 cumulative IPC: 0.511268 (Simulation time: 0 hr 8 min 36 sec) 
select_counter is 1020
Heartbeat CPU 0 instructions: 20000000 cycles: 23184351 heartbeat IPC: 0.622101 cumulative IPC: 0.520542 (Simulation time: 0 hr 9 min 7 sec) 
select_counter is 1023
Heartbeat CPU 0 instructions: 21000000 cycles: 25443833 heartbeat IPC: 0.442579 cumulative IPC: 0.512337 (Simulation time: 0 hr 9 min 33 sec) 
select_counter is 1023
Heartbeat CPU 0 instructions: 22000002 cycles: 27675699 heartbeat IPC: 0.448056 cumulative IPC: 0.506284 (Simulation time: 0 hr 10 min 0 sec) 
select_counter is 1023
Heartbeat CPU 0 instructions: 23000003 cycles: 29923946 heartbeat IPC: 0.444791 cumulative IPC: 0.500957 (Simulation time: 0 hr 10 min 25 sec) 
select_counter is 1022
Heartbeat CPU 0 instructions: 24000000 cycles: 31405192 heartbeat IPC: 0.675105 cumulative IPC: 0.51036 (Simulation time: 0 hr 10 min 52 sec) 
select_counter is 1020
Heartbeat CPU 0 instructions: 25000003 cycles: 33040387 heartbeat IPC: 0.61155 cumulative IPC: 0.516053 (Simulation time: 0 hr 11 min 20 sec) 
select_counter is 988
Heartbeat CPU 0 instructions: 26000001 cycles: 35030211 heartbeat IPC: 0.502556 cumulative IPC: 0.515188 (Simulation time: 0 hr 11 min 52 sec) 
select_counter is 1023
Heartbeat CPU 0 instructions: 27000001 cycles: 37211783 heartbeat IPC: 0.458385 cumulative IPC: 0.51146 (Simulation time: 0 hr 12 min 24 sec) 
select_counter is 1023
Heartbeat CPU 0 instructions: 28000000 cycles: 39365082 heartbeat IPC: 0.464403 cumulative IPC: 0.508597 (Simulation time: 0 hr 12 min 53 sec) 
select_counter is 1023
Heartbeat CPU 0 instructions: 29000000 cycles: 40936493 heartbeat IPC: 0.636371 cumulative IPC: 0.514029 (Simulation time: 0 hr 13 min 22 sec) 
select_counter is 1023
Heartbeat CPU 0 instructions: 30000000 cycles: 42550776 heartbeat IPC: 0.61947 cumulative IPC: 0.518441 (Simulation time: 0 hr 13 min 49 sec) 
select_counter is 1002
Heartbeat CPU 0 instructions: 31000002 cycles: 44411287 heartbeat IPC: 0.537488 cumulative IPC: 0.519318 (Simulation time: 0 hr 14 min 19 sec) 
select_counter is 1023
Heartbeat CPU 0 instructions: 32000000 cycles: 46491735 heartbeat IPC: 0.480665 cumulative IPC: 0.517426 (Simulation time: 0 hr 14 min 51 sec) 
select_counter is 1023
Heartbeat CPU 0 instructions: 33000000 cycles: 48550987 heartbeat IPC: 0.485613 cumulative IPC: 0.515957 (Simulation time: 0 hr 15 min 23 sec) 
select_counter is 1023
Heartbeat CPU 0 instructions: 34000000 cycles: 50213509 heartbeat IPC: 0.601496 cumulative IPC: 0.519032 (Simulation time: 0 hr 15 min 50 sec) 
select_counter is 1023
Heartbeat CPU 0 instructions: 35000003 cycles: 51820006 heartbeat IPC: 0.622474 cumulative IPC: 0.522505 (Simulation time: 0 hr 16 min 19 sec) 
select_counter is 1005
Heartbeat CPU 0 instructions: 36000000 cycles: 53653520 heartbeat IPC: 0.545399 cumulative IPC: 0.52335 (Simulation time: 0 hr 16 min 46 sec) 
select_counter is 1023
Heartbeat CPU 0 instructions: 37000001 cycles: 55734960 heartbeat IPC: 0.480437 cumulative IPC: 0.521625 (Simulation time: 0 hr 17 min 20 sec) 
select_counter is 1022
Heartbeat CPU 0 instructions: 38000000 cycles: 57783211 heartbeat IPC: 0.488221 cumulative IPC: 0.520353 (Simulation time: 0 hr 17 min 49 sec) 
select_counter is 1023
Heartbeat CPU 0 instructions: 39000000 cycles: 59432047 heartbeat IPC: 0.606488 cumulative IPC: 0.522914 (Simulation time: 0 hr 18 min 15 sec) 
select_counter is 1023
Heartbeat CPU 0 instructions: 40000000 cycles: 61027402 heartbeat IPC: 0.62682 cumulative IPC: 0.525819 (Simulation time: 0 hr 18 min 43 sec) 
select_counter is 1006
Heartbeat CPU 0 instructions: 41000003 cycles: 62842424 heartbeat IPC: 0.550959 cumulative IPC: 0.526595 (Simulation time: 0 hr 19 min 15 sec) 
select_counter is 1023
Heartbeat CPU 0 instructions: 42000000 cycles: 64906703 heartbeat IPC: 0.484429 cumulative IPC: 0.525166 (Simulation time: 0 hr 19 min 47 sec) 
select_counter is 1023
Heartbeat CPU 0 instructions: 43000003 cycles: 66953979 heartbeat IPC: 0.488455 cumulative IPC: 0.523973 (Simulation time: 0 hr 20 min 17 sec) 
select_counter is 1023
Heartbeat CPU 0 instructions: 44000000 cycles: 68514089 heartbeat IPC: 0.640979 cumulative IPC: 0.526801 (Simulation time: 0 hr 20 min 46 sec) 
select_counter is 1022
Heartbeat CPU 0 instructions: 45000002 cycles: 70122897 heartbeat IPC: 0.621579 cumulative IPC: 0.529106 (Simulation time: 0 hr 21 min 13 sec) 
select_counter is 1003
Heartbeat CPU 0 instructions: 46000001 cycles: 71965854 heartbeat IPC: 0.542606 cumulative IPC: 0.529472 (Simulation time: 0 hr 21 min 45 sec) 
select_counter is 1023
Heartbeat CPU 0 instructions: 47000002 cycles: 74041452 heartbeat IPC: 0.481789 cumulative IPC: 0.52806 (Simulation time: 0 hr 22 min 18 sec) 
select_counter is 1023
Heartbeat CPU 0 instructions: 48000000 cycles: 76124929 heartbeat IPC: 0.479966 cumulative IPC: 0.526671 (Simulation time: 0 hr 22 min 49 sec) 
select_counter is 1023
Heartbeat CPU 0 instructions: 49000001 cycles: 77605241 heartbeat IPC: 0.675534 cumulative IPC: 0.529664 (Simulation time: 0 hr 23 min 19 sec) 
select_counter is 1022
Heartbeat CPU 0 instructions: 50000003 cycles: 79204013 heartbeat IPC: 0.625481 cumulative IPC: 0.5317 (Simulation time: 0 hr 23 min 50 sec) 
select_counter is 996
Heartbeat CPU 0 instructions: 51000003 cycles: 81076284 heartbeat IPC: 0.534111 cumulative IPC: 0.531758 (Simulation time: 0 hr 24 min 18 sec) 
select_counter is 1020
Heartbeat CPU 0 instructions: 52000000 cycles: 83211062 heartbeat IPC: 0.468431 cumulative IPC: 0.530052 (Simulation time: 0 hr 24 min 50 sec) 
select_counter is 1023
Heartbeat CPU 0 instructions: 53000000 cycles: 85393717 heartbeat IPC: 0.458158 cumulative IPC: 0.528125 (Simulation time: 0 hr 25 min 19 sec) 
select_counter is 1022
Heartbeat CPU 0 instructions: 54000003 cycles: 86705603 heartbeat IPC: 0.762264 cumulative IPC: 0.531838 (Simulation time: 0 hr 25 min 50 sec) 
select_counter is 1023
Heartbeat CPU 0 instructions: 55000003 cycles: 88143812 heartbeat IPC: 0.695309 cumulative IPC: 0.534631 (Simulation time: 0 hr 26 min 16 sec) 
select_counter is 1023
Heartbeat CPU 0 instructions: 56000000 cycles: 89799136 heartbeat IPC: 0.60411 cumulative IPC: 0.535971 (Simulation time: 0 hr 26 min 48 sec) 
select_counter is 997
Heartbeat CPU 0 instructions: 57000002 cycles: 91690257 heartbeat IPC: 0.528788 cumulative IPC: 0.535816 (Simulation time: 0 hr 27 min 15 sec) 
select_counter is 1023
Heartbeat CPU 0 instructions: 58000001 cycles: 93209954 heartbeat IPC: 0.658025 cumulative IPC: 0.537897 (Simulation time: 0 hr 27 min 42 sec) 
select_counter is 1019
Heartbeat CPU 0 instructions: 59000001 cycles: 94770273 heartbeat IPC: 0.640895 cumulative IPC: 0.539667 (Simulation time: 0 hr 28 min 16 sec) 
select_counter is 1014
Heartbeat CPU 0 instructions: 60000000 cycles: 96484756 heartbeat IPC: 0.583266 cumulative IPC: 0.540475 (Simulation time: 0 hr 28 min 49 sec) 
select_counter is 1023
Heartbeat CPU 0 instructions: 61000001 cycles: 98080131 heartbeat IPC: 0.626813 cumulative IPC: 0.541939 (Simulation time: 0 hr 29 min 17 sec) 
select_counter is 1020
Heartbeat CPU 0 instructions: 62000001 cycles: 99177529 heartbeat IPC: 0.911246 cumulative IPC: 0.546196 (Simulation time: 0 hr 29 min 44 sec) 
select_counter is 1023
Heartbeat CPU 0 instructions: 63000003 cycles: 100542255 heartbeat IPC: 0.732749 cumulative IPC: 0.548832 (Simulation time: 0 hr 30 min 11 sec) 
select_counter is 1022
Heartbeat CPU 0 instructions: 64000000 cycles: 102287836 heartbeat IPC: 0.572873 cumulative IPC: 0.549259 (Simulation time: 0 hr 30 min 41 sec) 
select_counter is 1023
Heartbeat CPU 0 instructions: 65000003 cycles: 103411151 heartbeat IPC: 0.890225 cumulative IPC: 0.553111 (Simulation time: 0 hr 31 min 11 sec) 
select_counter is 1023
Heartbeat CPU 0 instructions: 66000002 cycles: 104666665 heartbeat IPC: 0.796486 cumulative IPC: 0.556146 (Simulation time: 0 hr 31 min 40 sec) 
select_counter is 1013
Heartbeat CPU 0 instructions: 67000000 cycles: 106625517 heartbeat IPC: 0.510502 cumulative IPC: 0.555275 (Simulation time: 0 hr 32 min 9 sec) 
select_counter is 1023
Heartbeat CPU 0 instructions: 68000000 cycles: 108990568 heartbeat IPC: 0.422824 cumulative IPC: 0.552292 (Simulation time: 0 hr 32 min 36 sec) 
select_counter is 1022
Heartbeat CPU 0 instructions: 69000003 cycles: 110145524 heartbeat IPC: 0.865836 cumulative IPC: 0.555703 (Simulation time: 0 hr 33 min 5 sec) 
select_counter is 1023
Heartbeat CPU 0 instructions: 70000001 cycles: 111414159 heartbeat IPC: 0.788247 cumulative IPC: 0.558448 (Simulation time: 0 hr 33 min 31 sec) 
select_counter is 1015
Heartbeat CPU 0 instructions: 71000002 cycles: 113275451 heartbeat IPC: 0.537262 cumulative IPC: 0.558088 (Simulation time: 0 hr 34 min 0 sec) 
select_counter is 1023
Heartbeat CPU 0 instructions: 72000000 cycles: 115453100 heartbeat IPC: 0.45921 cumulative IPC: 0.556156 (Simulation time: 0 hr 34 min 24 sec) 
select_counter is 1023
Heartbeat CPU 0 instructions: 73000000 cycles: 116619314 heartbeat IPC: 0.857476 cumulative IPC: 0.559276 (Simulation time: 0 hr 34 min 49 sec) 
select_counter is 1023
Heartbeat CPU 0 instructions: 74000002 cycles: 117902392 heartbeat IPC: 0.779377 cumulative IPC: 0.561754 (Simulation time: 0 hr 35 min 15 sec) 
select_counter is 1013
Heartbeat CPU 0 instructions: 75000000 cycles: 119796236 heartbeat IPC: 0.528026 cumulative IPC: 0.561203 (Simulation time: 0 hr 35 min 47 sec) 
select_counter is 1023
Heartbeat CPU 0 instructions: 76000000 cycles: 121715511 heartbeat IPC: 0.52103 cumulative IPC: 0.560548 (Simulation time: 0 hr 36 min 17 sec) 
select_counter is 1023
Heartbeat CPU 0 instructions: 77000000 cycles: 122864543 heartbeat IPC: 0.870298 cumulative IPC: 0.563542 (Simulation time: 0 hr 36 min 43 sec) 
select_counter is 1023
Heartbeat CPU 0 instructions: 78000003 cycles: 124197846 heartbeat IPC: 0.750019 cumulative IPC: 0.56561 (Simulation time: 0 hr 37 min 10 sec) 
select_counter is 1005
Heartbeat CPU 0 instructions: 79000001 cycles: 126289053 heartbeat IPC: 0.478192 cumulative IPC: 0.564115 (Simulation time: 0 hr 37 min 38 sec) 
select_counter is 1023
Heartbeat CPU 0 instructions: 80000000 cycles: 128005593 heartbeat IPC: 0.582567 cumulative IPC: 0.564371 (Simulation time: 0 hr 38 min 0 sec) 
select_counter is 1020
Heartbeat CPU 0 instructions: 81000002 cycles: 129154721 heartbeat IPC: 0.870227 cumulative IPC: 0.567178 (Simulation time: 0 hr 38 min 25 sec) 
select_counter is 1020
Heartbeat CPU 0 instructions: 82000000 cycles: 130558743 heartbeat IPC: 0.712238 cumulative IPC: 0.568787 (Simulation time: 0 hr 38 min 49 sec) 
select_counter is 1023
Heartbeat CPU 0 instructions: 83000001 cycles: 132736250 heartbeat IPC: 0.459241 cumulative IPC: 0.566935 (Simulation time: 0 hr 39 min 19 sec) 
select_counter is 1023
Heartbeat CPU 0 instructions: 84000000 cycles: 133967580 heartbeat IPC: 0.812129 cumulative IPC: 0.569257 (Simulation time: 0 hr 39 min 43 sec) 
select_counter is 1023
Heartbeat CPU 0 instructions: 85000001 cycles: 135225953 heartbeat IPC: 0.794678 cumulative IPC: 0.571418 (Simulation time: 0 hr 40 min 3 sec) 
select_counter is 1020
Heartbeat CPU 0 instructions: 86000001 cycles: 136889031 heartbeat IPC: 0.601295 cumulative IPC: 0.571792 (Simulation time: 0 hr 40 min 26 sec) 
select_counter is 1023
Heartbeat CPU 0 instructions: 87000000 cycles: 138585122 heartbeat IPC: 0.58959 cumulative IPC: 0.572016 (Simulation time: 0 hr 40 min 48 sec) 
select_counter is 1023
Heartbeat CPU 0 instructions: 88000000 cycles: 139684667 heartbeat IPC: 0.909467 cumulative IPC: 0.57475 (Simulation time: 0 hr 41 min 10 sec) 
select_counter is 1023
Heartbeat CPU 0 instructions: 89000001 cycles: 141027560 heartbeat IPC: 0.744662 cumulative IPC: 0.576415 (Simulation time: 0 hr 41 min 35 sec) 
select_counter is 1022
Heartbeat CPU 0 instructions: 90000000 cycles: 143018683 heartbeat IPC: 0.502229 cumulative IPC: 0.575353 (Simulation time: 0 hr 41 min 57 sec) 
select_counter is 1023
Heartbeat CPU 0 instructions: 91000003 cycles: 144349894 heartbeat IPC: 0.751198 cumulative IPC: 0.577021 (Simulation time: 0 hr 42 min 16 sec) 
select_counter is 1022
Heartbeat CPU 0 instructions: 92000000 cycles: 145526253 heartbeat IPC: 0.850078 cumulative IPC: 0.57929 (Simulation time: 0 hr 42 min 35 sec) 
select_counter is 1022
Heartbeat CPU 0 instructions: 93000000 cycles: 146691899 heartbeat IPC: 0.857893 cumulative IPC: 0.581565 (Simulation time: 0 hr 42 min 55 sec) 
select_counter is 1022
Heartbeat CPU 0 instructions: 94000002 cycles: 148117467 heartbeat IPC: 0.701476 cumulative IPC: 0.582751 (Simulation time: 0 hr 43 min 15 sec) 
select_counter is 1023
Heartbeat CPU 0 instructions: 95000001 cycles: 150196997 heartbeat IPC: 0.480877 cumulative IPC: 0.581302 (Simulation time: 0 hr 43 min 34 sec) 
select_counter is 1023
Heartbeat CPU 0 instructions: 96000000 cycles: 151365867 heartbeat IPC: 0.855526 cumulative IPC: 0.583477 (Simulation time: 0 hr 43 min 51 sec) 
select_counter is 1023
Heartbeat CPU 0 instructions: 97000000 cycles: 152628295 heartbeat IPC: 0.792124 cumulative IPC: 0.585249 (Simulation time: 0 hr 44 min 12 sec) 
select_counter is 1012
Heartbeat CPU 0 instructions: 98000003 cycles: 154520600 heartbeat IPC: 0.528458 cumulative IPC: 0.584535 (Simulation time: 0 hr 44 min 30 sec) 
select_counter is 1023
Heartbeat CPU 0 instructions: 99000000 cycles: 156006578 heartbeat IPC: 0.672955 cumulative IPC: 0.585399 (Simulation time: 0 hr 44 min 48 sec) 
select_counter is 1023
Heartbeat CPU 0 instructions: 100000000 cycles: 157136877 heartbeat IPC: 0.884722 cumulative IPC: 0.587608 (Simulation time: 0 hr 45 min 7 sec) 
select_counter is 1023
Heartbeat CPU 0 instructions: 101000002 cycles: 158505455 heartbeat IPC: 0.730687 cumulative IPC: 0.588875 (Simulation time: 0 hr 45 min 23 sec) 
select_counter is 1023
Heartbeat CPU 0 instructions: 102000003 cycles: 160731835 heartbeat IPC: 0.44916 cumulative IPC: 0.586891 (Simulation time: 0 hr 45 min 40 sec) 
select_counter is 1023
Heartbeat CPU 0 instructions: 103000000 cycles: 161995705 heartbeat IPC: 0.791218 cumulative IPC: 0.588525 (Simulation time: 0 hr 45 min 56 sec) 
select_counter is 1022
Heartbeat CPU 0 instructions: 104000000 cycles: 163215079 heartbeat IPC: 0.820093 cumulative IPC: 0.590298 (Simulation time: 0 hr 46 min 12 sec) 
select_counter is 1017
Heartbeat CPU 0 instructions: 105000002 cycles: 164985850 heartbeat IPC: 0.564727 cumulative IPC: 0.590017 (Simulation time: 0 hr 46 min 28 sec) 
select_counter is 1022
Heartbeat CPU 0 instructions: 106000000 cycles: 167239568 heartbeat IPC: 0.44371 cumulative IPC: 0.587998 (Simulation time: 0 hr 46 min 42 sec) 
select_counter is 1023
Heartbeat CPU 0 instructions: 107000001 cycles: 168450934 heartbeat IPC: 0.825515 cumulative IPC: 0.589747 (Simulation time: 0 hr 46 min 56 sec) 
select_counter is 1023
Heartbeat CPU 0 instructions: 108000000 cycles: 169757330 heartbeat IPC: 0.765464 cumulative IPC: 0.591132 (Simulation time: 0 hr 47 min 9 sec) 
select_counter is 1013
Heartbeat CPU 0 instructions: 109000001 cycles: 171638799 heartbeat IPC: 0.5315 cumulative IPC: 0.590462 (Simulation time: 0 hr 47 min 23 sec) 
select_counter is 1023
Heartbeat CPU 0 instructions: 110000000 cycles: 173740593 heartbeat IPC: 0.475784 cumulative IPC: 0.589043 (Simulation time: 0 hr 47 min 36 sec) 
select_counter is 1023
Finished CPU 0 instructions: 100000000 cycles: 169766986 cummulative IPC: 0.589043 (Simulation time: 0 hr 47 min 36 sec) 

ChampSim completed all CPUs

Region of Interest Statistics

CPU 0 cummulative IPC: 0.589043 instructions: 100000000 cycles: 169766986
LLC TOTAL     ACCESS:    1575112  HIT:     741069  MISS:     834043
LLC LOAD      ACCESS:    1332849  HIT:     546310  MISS:     786539
LLC RFO       ACCESS:     103773  HIT:      69122  MISS:      34651
LLC PREFETCH  ACCESS:          0  HIT:          0  MISS:          0
LLC WRITEBACK ACCESS:     138490  HIT:     125637  MISS:      12853
Insertion Distribution: 
	LOAD 145 0 0 0 0 0 2641 23161 
	RFO 11 0 0 0 0 0 160 1079 
	PREF 0 0 0 0 0 0 0 0 
	WRITEBACK 0 0 0 0 0 0 0 1134 
Total Prefetch Downgrades: 0
