
*** ChampSim Multicore Out-of-Order Simulator ***

Warmup Instructions: 10000000
Simulation Instructions: 100000000
Configuration: 1
Number of CPUs: 1
LLC sets: 2048
LLC ways: 16
Off-chip DRAM Channels: 1 Width: 64-bit Data Rate: 1600 MT/s

CPU 0 runs /datasets/cs240c-wi22-a00-public/data/Assignment2-gz/sphinx3_1339B.trace.gz
Heartbeat CPU 0 instructions: 1000001 cycles: 338437 heartbeat IPC: 2.95476 cumulative IPC: 2.95476 (Simulation time: 0 hr 0 min 24 sec) 
select_counter is 836
Heartbeat CPU 0 instructions: 2000001 cycles: 691941 heartbeat IPC: 2.82882 cumulative IPC: 2.89042 (Simulation time: 0 hr 0 min 48 sec) 
select_counter is 1021
Heartbeat CPU 0 instructions: 3000000 cycles: 1081973 heartbeat IPC: 2.56389 cumulative IPC: 2.77271 (Simulation time: 0 hr 1 min 15 sec) 
select_counter is 1022
Heartbeat CPU 0 instructions: 4000000 cycles: 1526806 heartbeat IPC: 2.24803 cumulative IPC: 2.61985 (Simulation time: 0 hr 1 min 40 sec) 
select_counter is 1023
Heartbeat CPU 0 instructions: 5000003 cycles: 1865249 heartbeat IPC: 2.95472 cumulative IPC: 2.68061 (Simulation time: 0 hr 2 min 4 sec) 
select_counter is 1020
Heartbeat CPU 0 instructions: 6000002 cycles: 2248334 heartbeat IPC: 2.61038 cumulative IPC: 2.66864 (Simulation time: 0 hr 2 min 27 sec) 
select_counter is 1022
Heartbeat CPU 0 instructions: 7000002 cycles: 2711411 heartbeat IPC: 2.15947 cumulative IPC: 2.58168 (Simulation time: 0 hr 2 min 48 sec) 
select_counter is 1023
Heartbeat CPU 0 instructions: 8000000 cycles: 3049993 heartbeat IPC: 2.95349 cumulative IPC: 2.62296 (Simulation time: 0 hr 3 min 11 sec) 
select_counter is 1022
Heartbeat CPU 0 instructions: 9000003 cycles: 3405791 heartbeat IPC: 2.81059 cumulative IPC: 2.64256 (Simulation time: 0 hr 3 min 34 sec) 
select_counter is 1022
Heartbeat CPU 0 instructions: 10000001 cycles: 3791573 heartbeat IPC: 2.59213 cumulative IPC: 2.63743 (Simulation time: 0 hr 3 min 57 sec) 
select_counter is 1017

Warmup complete CPU 0 instructions: 10000001 cycles: 3791573 (Simulation time: 0 hr 3 min 57 sec) 

Heartbeat CPU 0 instructions: 11000000 cycles: 5021964 heartbeat IPC: 0.812749 cumulative IPC: 0.812749 (Simulation time: 0 hr 4 min 24 sec) 
select_counter is 1023
Heartbeat CPU 0 instructions: 12000000 cycles: 6254807 heartbeat IPC: 0.811133 cumulative IPC: 0.81194 (Simulation time: 0 hr 4 min 55 sec) 
select_counter is 1016
Heartbeat CPU 0 instructions: 13000000 cycles: 8235189 heartbeat IPC: 0.504953 cumulative IPC: 0.675126 (Simulation time: 0 hr 5 min 24 sec) 
select_counter is 1022
Heartbeat CPU 0 instructions: 14000000 cycles: 9571436 heartbeat IPC: 0.748365 cumulative IPC: 0.692058 (Simulation time: 0 hr 5 min 53 sec) 
select_counter is 1023
Heartbeat CPU 0 instructions: 15000002 cycles: 10762860 heartbeat IPC: 0.839333 cumulative IPC: 0.717228 (Simulation time: 0 hr 6 min 19 sec) 
select_counter is 1023
Heartbeat CPU 0 instructions: 16000000 cycles: 12376002 heartbeat IPC: 0.619907 cumulative IPC: 0.69894 (Simulation time: 0 hr 6 min 53 sec) 
select_counter is 1023
Heartbeat CPU 0 instructions: 17000001 cycles: 14099902 heartbeat IPC: 0.580081 cumulative IPC: 0.679063 (Simulation time: 0 hr 7 min 24 sec) 
select_counter is 1022
Heartbeat CPU 0 instructions: 18000003 cycles: 15343554 heartbeat IPC: 0.804085 cumulative IPC: 0.692522 (Simulation time: 0 hr 7 min 51 sec) 
select_counter is 1022
Heartbeat CPU 0 instructions: 19000000 cycles: 16585347 heartbeat IPC: 0.805285 cumulative IPC: 0.703467 (Simulation time: 0 hr 8 min 14 sec) 
select_counter is 1023
Heartbeat CPU 0 instructions: 20000000 cycles: 17800362 heartbeat IPC: 0.823035 cumulative IPC: 0.713838 (Simulation time: 0 hr 8 min 37 sec) 
select_counter is 1021
Heartbeat CPU 0 instructions: 21000000 cycles: 19697305 heartbeat IPC: 0.527164 cumulative IPC: 0.691575 (Simulation time: 0 hr 9 min 0 sec) 
select_counter is 1018
Heartbeat CPU 0 instructions: 22000000 cycles: 21204179 heartbeat IPC: 0.663625 cumulative IPC: 0.689156 (Simulation time: 0 hr 9 min 23 sec) 
select_counter is 1010
Heartbeat CPU 0 instructions: 23000002 cycles: 22354073 heartbeat IPC: 0.869647 cumulative IPC: 0.700337 (Simulation time: 0 hr 9 min 48 sec) 
select_counter is 1023
Heartbeat CPU 0 instructions: 24000000 cycles: 23723340 heartbeat IPC: 0.730316 cumulative IPC: 0.702396 (Simulation time: 0 hr 10 min 10 sec) 
select_counter is 1021
Heartbeat CPU 0 instructions: 25000001 cycles: 25273781 heartbeat IPC: 0.644978 cumulative IPC: 0.698252 (Simulation time: 0 hr 10 min 33 sec) 
select_counter is 1002
Heartbeat CPU 0 instructions: 26000002 cycles: 26288706 heartbeat IPC: 0.985295 cumulative IPC: 0.711202 (Simulation time: 0 hr 10 min 55 sec) 
select_counter is 1023
Heartbeat CPU 0 instructions: 27000003 cycles: 27416574 heartbeat IPC: 0.886629 cumulative IPC: 0.719577 (Simulation time: 0 hr 11 min 19 sec) 
select_counter is 1009
Heartbeat CPU 0 instructions: 28000000 cycles: 28958252 heartbeat IPC: 0.648642 cumulative IPC: 0.715231 (Simulation time: 0 hr 11 min 42 sec) 
select_counter is 1014
Heartbeat CPU 0 instructions: 29000003 cycles: 29965668 heartbeat IPC: 0.992642 cumulative IPC: 0.725909 (Simulation time: 0 hr 12 min 7 sec) 
select_counter is 1023
Heartbeat CPU 0 instructions: 30000002 cycles: 31004918 heartbeat IPC: 0.962231 cumulative IPC: 0.734934 (Simulation time: 0 hr 12 min 31 sec) 
select_counter is 1013
Heartbeat CPU 0 instructions: 31000003 cycles: 32478749 heartbeat IPC: 0.678505 cumulative IPC: 0.732035 (Simulation time: 0 hr 12 min 54 sec) 
select_counter is 1016
Heartbeat CPU 0 instructions: 32000000 cycles: 33580328 heartbeat IPC: 0.907785 cumulative IPC: 0.738534 (Simulation time: 0 hr 13 min 16 sec) 
select_counter is 1023
Heartbeat CPU 0 instructions: 33000001 cycles: 34615047 heartbeat IPC: 0.966447 cumulative IPC: 0.746185 (Simulation time: 0 hr 13 min 38 sec) 
select_counter is 1018
Heartbeat CPU 0 instructions: 34000001 cycles: 36647810 heartbeat IPC: 0.491941 cumulative IPC: 0.730455 (Simulation time: 0 hr 14 min 1 sec) 
select_counter is 1023
Heartbeat CPU 0 instructions: 35000001 cycles: 38040649 heartbeat IPC: 0.717958 cumulative IPC: 0.729947 (Simulation time: 0 hr 14 min 24 sec) 
select_counter is 1023
Heartbeat CPU 0 instructions: 36000000 cycles: 39109798 heartbeat IPC: 0.935322 cumulative IPC: 0.736164 (Simulation time: 0 hr 14 min 48 sec) 
select_counter is 1023
Heartbeat CPU 0 instructions: 37000003 cycles: 40614183 heartbeat IPC: 0.664725 cumulative IPC: 0.733245 (Simulation time: 0 hr 15 min 11 sec) 
select_counter is 1023
Heartbeat CPU 0 instructions: 38000002 cycles: 42496184 heartbeat IPC: 0.531349 cumulative IPC: 0.723428 (Simulation time: 0 hr 15 min 36 sec) 
select_counter is 1018
Heartbeat CPU 0 instructions: 39000003 cycles: 43640833 heartbeat IPC: 0.873631 cumulative IPC: 0.727743 (Simulation time: 0 hr 15 min 59 sec) 
select_counter is 1023
Heartbeat CPU 0 instructions: 40000000 cycles: 44757953 heartbeat IPC: 0.895156 cumulative IPC: 0.732308 (Simulation time: 0 hr 16 min 23 sec) 
select_counter is 1018
Heartbeat CPU 0 instructions: 41000003 cycles: 46704325 heartbeat IPC: 0.513778 cumulative IPC: 0.722396 (Simulation time: 0 hr 16 min 46 sec) 
select_counter is 1023
Heartbeat CPU 0 instructions: 42000002 cycles: 48011423 heartbeat IPC: 0.765053 cumulative IPC: 0.723657 (Simulation time: 0 hr 17 min 9 sec) 
select_counter is 1023
Heartbeat CPU 0 instructions: 43000001 cycles: 49054975 heartbeat IPC: 0.958265 cumulative IPC: 0.729066 (Simulation time: 0 hr 17 min 32 sec) 
select_counter is 1023
Heartbeat CPU 0 instructions: 44000000 cycles: 50658220 heartbeat IPC: 0.623734 cumulative IPC: 0.725463 (Simulation time: 0 hr 17 min 59 sec) 
select_counter is 1022
Heartbeat CPU 0 instructions: 45000002 cycles: 52260612 heartbeat IPC: 0.624068 cumulative IPC: 0.72211 (Simulation time: 0 hr 18 min 22 sec) 
select_counter is 1001
Heartbeat CPU 0 instructions: 46000003 cycles: 53251199 heartbeat IPC: 1.0095 cumulative IPC: 0.727866 (Simulation time: 0 hr 18 min 46 sec) 
select_counter is 1023
Heartbeat CPU 0 instructions: 47000001 cycles: 54377081 heartbeat IPC: 0.888191 cumulative IPC: 0.731435 (Simulation time: 0 hr 19 min 11 sec) 
select_counter is 1008
Heartbeat CPU 0 instructions: 48000000 cycles: 55973598 heartbeat IPC: 0.626363 cumulative IPC: 0.72822 (Simulation time: 0 hr 19 min 37 sec) 
select_counter is 1012
Heartbeat CPU 0 instructions: 49000003 cycles: 57053138 heartbeat IPC: 0.926323 cumulative IPC: 0.732235 (Simulation time: 0 hr 20 min 1 sec) 
select_counter is 1023
Heartbeat CPU 0 instructions: 50000000 cycles: 58113023 heartbeat IPC: 0.943496 cumulative IPC: 0.736357 (Simulation time: 0 hr 20 min 24 sec) 
select_counter is 1013
Heartbeat CPU 0 instructions: 51000003 cycles: 60018608 heartbeat IPC: 0.524775 cumulative IPC: 0.729187 (Simulation time: 0 hr 20 min 55 sec) 
select_counter is 1021
Heartbeat CPU 0 instructions: 52000000 cycles: 61212636 heartbeat IPC: 0.837499 cumulative IPC: 0.731439 (Simulation time: 0 hr 21 min 18 sec) 
select_counter is 1023
Heartbeat CPU 0 instructions: 53000002 cycles: 62231945 heartbeat IPC: 0.981059 cumulative IPC: 0.735793 (Simulation time: 0 hr 21 min 40 sec) 
select_counter is 1023
Heartbeat CPU 0 instructions: 54000003 cycles: 64010304 heartbeat IPC: 0.562317 cumulative IPC: 0.73067 (Simulation time: 0 hr 22 min 5 sec) 
select_counter is 1023
Heartbeat CPU 0 instructions: 55000001 cycles: 65341384 heartbeat IPC: 0.751268 cumulative IPC: 0.731115 (Simulation time: 0 hr 22 min 28 sec) 
select_counter is 1018
Heartbeat CPU 0 instructions: 56000000 cycles: 66385403 heartbeat IPC: 0.957836 cumulative IPC: 0.734897 (Simulation time: 0 hr 22 min 52 sec) 
select_counter is 1023
Heartbeat CPU 0 instructions: 57000000 cycles: 67810155 heartbeat IPC: 0.701877 cumulative IPC: 0.734162 (Simulation time: 0 hr 23 min 16 sec) 
select_counter is 1023
Heartbeat CPU 0 instructions: 58000000 cycles: 69555484 heartbeat IPC: 0.572958 cumulative IPC: 0.729884 (Simulation time: 0 hr 23 min 41 sec) 
select_counter is 1004
Heartbeat CPU 0 instructions: 59000001 cycles: 70603221 heartbeat IPC: 0.954439 cumulative IPC: 0.733405 (Simulation time: 0 hr 24 min 5 sec) 
select_counter is 1023
Heartbeat CPU 0 instructions: 60000000 cycles: 71738256 heartbeat IPC: 0.881029 cumulative IPC: 0.735871 (Simulation time: 0 hr 24 min 29 sec) 
select_counter is 1011
Heartbeat CPU 0 instructions: 61000000 cycles: 73709170 heartbeat IPC: 0.507379 cumulative IPC: 0.72943 (Simulation time: 0 hr 24 min 54 sec) 
select_counter is 1023
Heartbeat CPU 0 instructions: 62000002 cycles: 74869287 heartbeat IPC: 0.861984 cumulative IPC: 0.731594 (Simulation time: 0 hr 25 min 19 sec) 
select_counter is 1022
Heartbeat CPU 0 instructions: 63000003 cycles: 76121791 heartbeat IPC: 0.798401 cumulative IPC: 0.73275 (Simulation time: 0 hr 25 min 42 sec) 
select_counter is 1023
Heartbeat CPU 0 instructions: 64000000 cycles: 77191367 heartbeat IPC: 0.934947 cumulative IPC: 0.735697 (Simulation time: 0 hr 26 min 5 sec) 
select_counter is 1023
Heartbeat CPU 0 instructions: 65000000 cycles: 78859372 heartbeat IPC: 0.599519 cumulative IPC: 0.732671 (Simulation time: 0 hr 26 min 30 sec) 
select_counter is 1021
Heartbeat CPU 0 instructions: 66000001 cycles: 80369888 heartbeat IPC: 0.662026 cumulative IPC: 0.731278 (Simulation time: 0 hr 26 min 55 sec) 
select_counter is 1002
Heartbeat CPU 0 instructions: 67000000 cycles: 81436129 heartbeat IPC: 0.937873 cumulative IPC: 0.734115 (Simulation time: 0 hr 27 min 18 sec) 
select_counter is 1023
Heartbeat CPU 0 instructions: 68000000 cycles: 82714214 heartbeat IPC: 0.782421 cumulative IPC: 0.734897 (Simulation time: 0 hr 27 min 42 sec) 
select_counter is 1021
Heartbeat CPU 0 instructions: 69000003 cycles: 84522743 heartbeat IPC: 0.552937 cumulative IPC: 0.730821 (Simulation time: 0 hr 28 min 5 sec) 
select_counter is 1019
Heartbeat CPU 0 instructions: 70000003 cycles: 85646726 heartbeat IPC: 0.889693 cumulative IPC: 0.733002 (Simulation time: 0 hr 28 min 28 sec) 
select_counter is 1023
Heartbeat CPU 0 instructions: 71000001 cycles: 86727783 heartbeat IPC: 0.925019 cumulative IPC: 0.735505 (Simulation time: 0 hr 28 min 51 sec) 
select_counter is 1016
Heartbeat CPU 0 instructions: 72000000 cycles: 88624369 heartbeat IPC: 0.527263 cumulative IPC: 0.730849 (Simulation time: 0 hr 29 min 16 sec) 
select_counter is 1022
Heartbeat CPU 0 instructions: 73000001 cycles: 89849003 heartbeat IPC: 0.816571 cumulative IPC: 0.732069 (Simulation time: 0 hr 29 min 38 sec) 
select_counter is 1023
Heartbeat CPU 0 instructions: 74000000 cycles: 90892201 heartbeat IPC: 0.95859 cumulative IPC: 0.734782 (Simulation time: 0 hr 30 min 1 sec) 
select_counter is 1023
Heartbeat CPU 0 instructions: 75000003 cycles: 92588282 heartbeat IPC: 0.589596 cumulative IPC: 0.732009 (Simulation time: 0 hr 30 min 24 sec) 
select_counter is 1023
Heartbeat CPU 0 instructions: 76000000 cycles: 93981989 heartbeat IPC: 0.717509 cumulative IPC: 0.731785 (Simulation time: 0 hr 30 min 46 sec) 
select_counter is 1010
Heartbeat CPU 0 instructions: 77000002 cycles: 95044401 heartbeat IPC: 0.941256 cumulative IPC: 0.734224 (Simulation time: 0 hr 31 min 8 sec) 
select_counter is 1023
Heartbeat CPU 0 instructions: 78000002 cycles: 96366109 heartbeat IPC: 0.756597 cumulative IPC: 0.734543 (Simulation time: 0 hr 31 min 30 sec) 
select_counter is 1023
Heartbeat CPU 0 instructions: 79000001 cycles: 98082721 heartbeat IPC: 0.582542 cumulative IPC: 0.731776 (Simulation time: 0 hr 31 min 52 sec) 
select_counter is 1013
Heartbeat CPU 0 instructions: 80000000 cycles: 99167077 heartbeat IPC: 0.922205 cumulative IPC: 0.733941 (Simulation time: 0 hr 32 min 17 sec) 
select_counter is 1023
Heartbeat CPU 0 instructions: 81000003 cycles: 100251871 heartbeat IPC: 0.921837 cumulative IPC: 0.736054 (Simulation time: 0 hr 32 min 40 sec) 
select_counter is 1012
Heartbeat CPU 0 instructions: 82000003 cycles: 102107012 heartbeat IPC: 0.539043 cumulative IPC: 0.732337 (Simulation time: 0 hr 33 min 4 sec) 
select_counter is 1020
Heartbeat CPU 0 instructions: 83000001 cycles: 103293239 heartbeat IPC: 0.843007 cumulative IPC: 0.733656 (Simulation time: 0 hr 33 min 26 sec) 
select_counter is 1023
Heartbeat CPU 0 instructions: 84000000 cycles: 104334973 heartbeat IPC: 0.959937 cumulative IPC: 0.736001 (Simulation time: 0 hr 33 min 46 sec) 
select_counter is 1023
Heartbeat CPU 0 instructions: 85000002 cycles: 106091492 heartbeat IPC: 0.569309 cumulative IPC: 0.733138 (Simulation time: 0 hr 34 min 9 sec) 
select_counter is 1023
Heartbeat CPU 0 instructions: 86000003 cycles: 107431327 heartbeat IPC: 0.746361 cumulative IPC: 0.733309 (Simulation time: 0 hr 34 min 30 sec) 
select_counter is 1023
Heartbeat CPU 0 instructions: 87000003 cycles: 108470037 heartbeat IPC: 0.962733 cumulative IPC: 0.735586 (Simulation time: 0 hr 34 min 52 sec) 
select_counter is 1023
Heartbeat CPU 0 instructions: 88000000 cycles: 109982871 heartbeat IPC: 0.661009 cumulative IPC: 0.734523 (Simulation time: 0 hr 35 min 13 sec) 
select_counter is 1023
Heartbeat CPU 0 instructions: 89000000 cycles: 111551316 heartbeat IPC: 0.637574 cumulative IPC: 0.733112 (Simulation time: 0 hr 35 min 34 sec) 
select_counter is 1007
Heartbeat CPU 0 instructions: 90000000 cycles: 112571917 heartbeat IPC: 0.979815 cumulative IPC: 0.735427 (Simulation time: 0 hr 35 min 53 sec) 
select_counter is 1023
Heartbeat CPU 0 instructions: 91000000 cycles: 113713975 heartbeat IPC: 0.875612 cumulative IPC: 0.736883 (Simulation time: 0 hr 36 min 13 sec) 
select_counter is 1011
Heartbeat CPU 0 instructions: 92000000 cycles: 115583378 heartbeat IPC: 0.53493 cumulative IPC: 0.733506 (Simulation time: 0 hr 36 min 33 sec) 
select_counter is 1020
Heartbeat CPU 0 instructions: 93000001 cycles: 116717622 heartbeat IPC: 0.881645 cumulative IPC: 0.734994 (Simulation time: 0 hr 36 min 52 sec) 
select_counter is 1023
Heartbeat CPU 0 instructions: 94000000 cycles: 117773449 heartbeat IPC: 0.947124 cumulative IPC: 0.736959 (Simulation time: 0 hr 37 min 11 sec) 
select_counter is 1019
Heartbeat CPU 0 instructions: 95000003 cycles: 119656980 heartbeat IPC: 0.530919 cumulative IPC: 0.73361 (Simulation time: 0 hr 37 min 31 sec) 
select_counter is 1021
Heartbeat CPU 0 instructions: 96000000 cycles: 120917548 heartbeat IPC: 0.793291 cumulative IPC: 0.734252 (Simulation time: 0 hr 37 min 50 sec) 
select_counter is 1023
Heartbeat CPU 0 instructions: 97000002 cycles: 121966593 heartbeat IPC: 0.95325 cumulative IPC: 0.736196 (Simulation time: 0 hr 38 min 9 sec) 
select_counter is 1023
Heartbeat CPU 0 instructions: 98000000 cycles: 123630725 heartbeat IPC: 0.600913 cumulative IPC: 0.734318 (Simulation time: 0 hr 38 min 28 sec) 
select_counter is 1023
Heartbeat CPU 0 instructions: 99000003 cycles: 125317622 heartbeat IPC: 0.592806 cumulative IPC: 0.732353 (Simulation time: 0 hr 38 min 47 sec) 
select_counter is 1010
Heartbeat CPU 0 instructions: 100000000 cycles: 126388839 heartbeat IPC: 0.933515 cumulative IPC: 0.734111 (Simulation time: 0 hr 39 min 5 sec) 
select_counter is 1023
Heartbeat CPU 0 instructions: 101000000 cycles: 127564990 heartbeat IPC: 0.850231 cumulative IPC: 0.735214 (Simulation time: 0 hr 39 min 23 sec) 
select_counter is 1009
Heartbeat CPU 0 instructions: 102000001 cycles: 129831361 heartbeat IPC: 0.441234 cumulative IPC: 0.729928 (Simulation time: 0 hr 39 min 44 sec) 
select_counter is 1022
Heartbeat CPU 0 instructions: 103000000 cycles: 131185810 heartbeat IPC: 0.738307 cumulative IPC: 0.730017 (Simulation time: 0 hr 40 min 2 sec) 
select_counter is 1023
Heartbeat CPU 0 instructions: 104000000 cycles: 132475888 heartbeat IPC: 0.775147 cumulative IPC: 0.73047 (Simulation time: 0 hr 40 min 21 sec) 
select_counter is 1005
Heartbeat CPU 0 instructions: 105000003 cycles: 133573220 heartbeat IPC: 0.911304 cumulative IPC: 0.731999 (Simulation time: 0 hr 40 min 40 sec) 
select_counter is 1023
Heartbeat CPU 0 instructions: 106000000 cycles: 134836032 heartbeat IPC: 0.791881 cumulative IPC: 0.732576 (Simulation time: 0 hr 40 min 59 sec) 
select_counter is 1013
Heartbeat CPU 0 instructions: 107000001 cycles: 137163468 heartbeat IPC: 0.429658 cumulative IPC: 0.72729 (Simulation time: 0 hr 41 min 21 sec) 
select_counter is 1021
Heartbeat CPU 0 instructions: 108000000 cycles: 138522430 heartbeat IPC: 0.735855 cumulative IPC: 0.727376 (Simulation time: 0 hr 41 min 39 sec) 
select_counter is 1023
Heartbeat CPU 0 instructions: 109000000 cycles: 139588054 heartbeat IPC: 0.938417 cumulative IPC: 0.729032 (Simulation time: 0 hr 41 min 57 sec) 
select_counter is 1023
Heartbeat CPU 0 instructions: 110000003 cycles: 141293979 heartbeat IPC: 0.586194 cumulative IPC: 0.72726 (Simulation time: 0 hr 42 min 16 sec) 
select_counter is 1023
Finished CPU 0 instructions: 100000002 cycles: 137502406 cummulative IPC: 0.72726 (Simulation time: 0 hr 42 min 16 sec) 

ChampSim completed all CPUs

Region of Interest Statistics

CPU 0 cummulative IPC: 0.72726 instructions: 100000002 cycles: 137502406
LLC TOTAL     ACCESS:    1449232  HIT:     899027  MISS:     550205
LLC LOAD      ACCESS:    1202431  HIT:     705636  MISS:     496795
LLC RFO       ACCESS:     114009  HIT:      82910  MISS:      31099
LLC PREFETCH  ACCESS:          0  HIT:          0  MISS:          0
LLC WRITEBACK ACCESS:     132792  HIT:     110481  MISS:      22311
Insertion Distribution: 
	LOAD 108 0 0 0 0 0 2585 16986 
	RFO 23 0 0 0 0 0 224 153 
	PREF 0 0 0 0 0 0 0 0 
	WRITEBACK 0 0 0 0 0 0 0 138 
Total Prefetch Downgrades: 0
