
*** ChampSim Multicore Out-of-Order Simulator ***

Warmup Instructions: 10000000
Simulation Instructions: 100000000
Configuration: 1
Number of CPUs: 1
LLC sets: 2048
LLC ways: 16
Off-chip DRAM Channels: 1 Width: 64-bit Data Rate: 1600 MT/s

CPU 0 runs /datasets/cs240c-wi22-a00-public/data/Assignment2-gz/cactusADM_1039B.trace.gz
Heartbeat CPU 0 instructions: 1000000 cycles: 595112 heartbeat IPC: 1.68036 cumulative IPC: 1.68036 (Simulation time: 0 hr 0 min 28 sec) 
select_counter is 616
Heartbeat CPU 0 instructions: 2000002 cycles: 1190036 heartbeat IPC: 1.68089 cumulative IPC: 1.68062 (Simulation time: 0 hr 0 min 53 sec) 
select_counter is 710
Heartbeat CPU 0 instructions: 3000003 cycles: 1785063 heartbeat IPC: 1.6806 cumulative IPC: 1.68061 (Simulation time: 0 hr 1 min 18 sec) 
select_counter is 828
Heartbeat CPU 0 instructions: 4000000 cycles: 2380257 heartbeat IPC: 1.68012 cumulative IPC: 1.68049 (Simulation time: 0 hr 1 min 43 sec) 
select_counter is 977
Heartbeat CPU 0 instructions: 5000001 cycles: 2975033 heartbeat IPC: 1.68131 cumulative IPC: 1.68065 (Simulation time: 0 hr 2 min 8 sec) 
select_counter is 1023
Heartbeat CPU 0 instructions: 6000002 cycles: 3569920 heartbeat IPC: 1.68099 cumulative IPC: 1.68071 (Simulation time: 0 hr 2 min 33 sec) 
select_counter is 1023
Heartbeat CPU 0 instructions: 7000000 cycles: 4164833 heartbeat IPC: 1.68091 cumulative IPC: 1.68074 (Simulation time: 0 hr 2 min 59 sec) 
select_counter is 1022
Heartbeat CPU 0 instructions: 8000000 cycles: 4759664 heartbeat IPC: 1.68115 cumulative IPC: 1.68079 (Simulation time: 0 hr 3 min 23 sec) 
select_counter is 1023
Heartbeat CPU 0 instructions: 9000002 cycles: 5354877 heartbeat IPC: 1.68007 cumulative IPC: 1.68071 (Simulation time: 0 hr 3 min 48 sec) 
select_counter is 1023
Heartbeat CPU 0 instructions: 10000003 cycles: 5968774 heartbeat IPC: 1.62894 cumulative IPC: 1.67539 (Simulation time: 0 hr 4 min 12 sec) 
select_counter is 1023

Warmup complete CPU 0 instructions: 10000003 cycles: 5968774 (Simulation time: 0 hr 4 min 12 sec) 

Heartbeat CPU 0 instructions: 11000003 cycles: 12546190 heartbeat IPC: 0.152035 cumulative IPC: 0.152035 (Simulation time: 0 hr 4 min 45 sec) 
select_counter is 1020
Heartbeat CPU 0 instructions: 12000000 cycles: 14680230 heartbeat IPC: 0.468593 cumulative IPC: 0.229582 (Simulation time: 0 hr 5 min 13 sec) 
select_counter is 1023
Heartbeat CPU 0 instructions: 13000002 cycles: 16740270 heartbeat IPC: 0.485428 cumulative IPC: 0.278513 (Simulation time: 0 hr 5 min 41 sec) 
select_counter is 1023
Heartbeat CPU 0 instructions: 14000001 cycles: 18813578 heartbeat IPC: 0.482321 cumulative IPC: 0.31141 (Simulation time: 0 hr 6 min 10 sec) 
select_counter is 1023
Heartbeat CPU 0 instructions: 15000002 cycles: 20953532 heartbeat IPC: 0.4673 cumulative IPC: 0.333672 (Simulation time: 0 hr 6 min 42 sec) 
select_counter is 1023
Heartbeat CPU 0 instructions: 16000000 cycles: 23078236 heartbeat IPC: 0.470653 cumulative IPC: 0.350683 (Simulation time: 0 hr 7 min 20 sec) 
select_counter is 1023
Heartbeat CPU 0 instructions: 17000003 cycles: 25157566 heartbeat IPC: 0.480926 cumulative IPC: 0.364796 (Simulation time: 0 hr 7 min 48 sec) 
select_counter is 1023
Heartbeat CPU 0 instructions: 18000002 cycles: 27207259 heartbeat IPC: 0.487877 cumulative IPC: 0.376675 (Simulation time: 0 hr 8 min 18 sec) 
select_counter is 1023
Heartbeat CPU 0 instructions: 19000003 cycles: 29321247 heartbeat IPC: 0.47304 cumulative IPC: 0.385398 (Simulation time: 0 hr 8 min 48 sec) 
select_counter is 1023
Heartbeat CPU 0 instructions: 20000000 cycles: 31461244 heartbeat IPC: 0.467289 cumulative IPC: 0.392273 (Simulation time: 0 hr 9 min 18 sec) 
select_counter is 1023
Heartbeat CPU 0 instructions: 21000002 cycles: 33587963 heartbeat IPC: 0.470209 cumulative IPC: 0.398274 (Simulation time: 0 hr 9 min 47 sec) 
select_counter is 1021
Heartbeat CPU 0 instructions: 22000003 cycles: 35656853 heartbeat IPC: 0.483351 cumulative IPC: 0.404203 (Simulation time: 0 hr 10 min 15 sec) 
select_counter is 1023
Heartbeat CPU 0 instructions: 23000001 cycles: 37714146 heartbeat IPC: 0.486075 cumulative IPC: 0.409508 (Simulation time: 0 hr 10 min 44 sec) 
select_counter is 1022
Heartbeat CPU 0 instructions: 24000000 cycles: 44818719 heartbeat IPC: 0.140754 cumulative IPC: 0.360361 (Simulation time: 0 hr 11 min 17 sec) 
select_counter is 1023
Heartbeat CPU 0 instructions: 25000002 cycles: 46930502 heartbeat IPC: 0.473534 cumulative IPC: 0.366195 (Simulation time: 0 hr 11 min 46 sec) 
select_counter is 1022
Heartbeat CPU 0 instructions: 26000002 cycles: 49007676 heartbeat IPC: 0.481423 cumulative IPC: 0.371757 (Simulation time: 0 hr 12 min 19 sec) 
select_counter is 1023
Heartbeat CPU 0 instructions: 27000001 cycles: 51031128 heartbeat IPC: 0.494204 cumulative IPC: 0.377255 (Simulation time: 0 hr 12 min 51 sec) 
select_counter is 1022
Heartbeat CPU 0 instructions: 28000000 cycles: 53118314 heartbeat IPC: 0.479114 cumulative IPC: 0.381764 (Simulation time: 0 hr 13 min 23 sec) 
select_counter is 1022
Heartbeat CPU 0 instructions: 29000000 cycles: 55215713 heartbeat IPC: 0.476781 cumulative IPC: 0.385811 (Simulation time: 0 hr 13 min 58 sec) 
select_counter is 1022
Heartbeat CPU 0 instructions: 30000003 cycles: 57309740 heartbeat IPC: 0.47755 cumulative IPC: 0.389552 (Simulation time: 0 hr 14 min 28 sec) 
select_counter is 1023
Heartbeat CPU 0 instructions: 31000001 cycles: 59352284 heartbeat IPC: 0.489585 cumulative IPC: 0.39338 (Simulation time: 0 hr 14 min 59 sec) 
select_counter is 1021
Heartbeat CPU 0 instructions: 32000000 cycles: 61364284 heartbeat IPC: 0.497017 cumulative IPC: 0.397144 (Simulation time: 0 hr 15 min 29 sec) 
select_counter is 1023
Heartbeat CPU 0 instructions: 33000001 cycles: 63474058 heartbeat IPC: 0.473985 cumulative IPC: 0.399963 (Simulation time: 0 hr 15 min 57 sec) 
select_counter is 1023
Heartbeat CPU 0 instructions: 34000000 cycles: 65561872 heartbeat IPC: 0.478969 cumulative IPC: 0.402731 (Simulation time: 0 hr 16 min 25 sec) 
select_counter is 1023
Heartbeat CPU 0 instructions: 35000001 cycles: 67630222 heartbeat IPC: 0.483478 cumulative IPC: 0.40544 (Simulation time: 0 hr 16 min 54 sec) 
select_counter is 1023
Heartbeat CPU 0 instructions: 36000000 cycles: 69636065 heartbeat IPC: 0.498543 cumulative IPC: 0.408373 (Simulation time: 0 hr 17 min 22 sec) 
select_counter is 1020
Heartbeat CPU 0 instructions: 37000002 cycles: 76653138 heartbeat IPC: 0.14251 cumulative IPC: 0.38198 (Simulation time: 0 hr 18 min 2 sec) 
select_counter is 1023
Heartbeat CPU 0 instructions: 38000001 cycles: 78692163 heartbeat IPC: 0.49043 cumulative IPC: 0.385021 (Simulation time: 0 hr 18 min 33 sec) 
select_counter is 1023
Heartbeat CPU 0 instructions: 39000002 cycles: 80757830 heartbeat IPC: 0.484106 cumulative IPC: 0.387757 (Simulation time: 0 hr 19 min 5 sec) 
select_counter is 1023
Heartbeat CPU 0 instructions: 40000000 cycles: 82752689 heartbeat IPC: 0.501288 cumulative IPC: 0.390707 (Simulation time: 0 hr 19 min 36 sec) 
select_counter is 1023
Heartbeat CPU 0 instructions: 41000003 cycles: 84717560 heartbeat IPC: 0.508941 cumulative IPC: 0.393657 (Simulation time: 0 hr 20 min 6 sec) 
select_counter is 1023
Heartbeat CPU 0 instructions: 42000000 cycles: 86686877 heartbeat IPC: 0.507789 cumulative IPC: 0.396441 (Simulation time: 0 hr 20 min 41 sec) 
select_counter is 1023
Heartbeat CPU 0 instructions: 43000000 cycles: 88660382 heartbeat IPC: 0.506713 cumulative IPC: 0.399073 (Simulation time: 0 hr 21 min 13 sec) 
select_counter is 1023
Heartbeat CPU 0 instructions: 44000000 cycles: 90643259 heartbeat IPC: 0.504318 cumulative IPC: 0.401538 (Simulation time: 0 hr 21 min 41 sec) 
select_counter is 1021
Heartbeat CPU 0 instructions: 45000000 cycles: 92557133 heartbeat IPC: 0.5225 cumulative IPC: 0.404211 (Simulation time: 0 hr 22 min 10 sec) 
select_counter is 1022
Heartbeat CPU 0 instructions: 46000003 cycles: 94551966 heartbeat IPC: 0.501297 cumulative IPC: 0.406398 (Simulation time: 0 hr 22 min 43 sec) 
select_counter is 1023
Heartbeat CPU 0 instructions: 47000001 cycles: 96555464 heartbeat IPC: 0.499126 cumulative IPC: 0.408449 (Simulation time: 0 hr 23 min 15 sec) 
select_counter is 1023
Heartbeat CPU 0 instructions: 48000000 cycles: 98547595 heartbeat IPC: 0.501975 cumulative IPC: 0.410461 (Simulation time: 0 hr 23 min 46 sec) 
select_counter is 1023
Heartbeat CPU 0 instructions: 49000001 cycles: 100509489 heartbeat IPC: 0.509712 cumulative IPC: 0.412521 (Simulation time: 0 hr 24 min 17 sec) 
select_counter is 1023
Heartbeat CPU 0 instructions: 50000002 cycles: 107623690 heartbeat IPC: 0.140564 cumulative IPC: 0.393488 (Simulation time: 0 hr 24 min 58 sec) 
select_counter is 1023
Heartbeat CPU 0 instructions: 51000003 cycles: 109657898 heartbeat IPC: 0.491592 cumulative IPC: 0.395413 (Simulation time: 0 hr 25 min 31 sec) 
select_counter is 1023
Heartbeat CPU 0 instructions: 52000000 cycles: 111683110 heartbeat IPC: 0.493774 cumulative IPC: 0.397297 (Simulation time: 0 hr 25 min 59 sec) 
select_counter is 1023
Heartbeat CPU 0 instructions: 53000003 cycles: 113659600 heartbeat IPC: 0.505949 cumulative IPC: 0.399291 (Simulation time: 0 hr 26 min 29 sec) 
select_counter is 1018
Heartbeat CPU 0 instructions: 54000002 cycles: 115576650 heartbeat IPC: 0.521634 cumulative IPC: 0.401431 (Simulation time: 0 hr 26 min 57 sec) 
select_counter is 1023
Heartbeat CPU 0 instructions: 55000001 cycles: 117516475 heartbeat IPC: 0.51551 cumulative IPC: 0.403415 (Simulation time: 0 hr 27 min 26 sec) 
select_counter is 1023
Heartbeat CPU 0 instructions: 56000000 cycles: 119465668 heartbeat IPC: 0.513032 cumulative IPC: 0.405297 (Simulation time: 0 hr 27 min 54 sec) 
select_counter is 1023
Heartbeat CPU 0 instructions: 57000000 cycles: 121446198 heartbeat IPC: 0.504915 cumulative IPC: 0.407006 (Simulation time: 0 hr 28 min 23 sec) 
select_counter is 1021
Heartbeat CPU 0 instructions: 58000000 cycles: 123444080 heartbeat IPC: 0.50053 cumulative IPC: 0.408596 (Simulation time: 0 hr 28 min 50 sec) 
select_counter is 1021
Heartbeat CPU 0 instructions: 59000002 cycles: 125385042 heartbeat IPC: 0.515209 cumulative IPC: 0.410329 (Simulation time: 0 hr 29 min 21 sec) 
select_counter is 1023
Heartbeat CPU 0 instructions: 60000000 cycles: 127386669 heartbeat IPC: 0.499593 cumulative IPC: 0.411801 (Simulation time: 0 hr 29 min 50 sec) 
select_counter is 1023
Heartbeat CPU 0 instructions: 61000001 cycles: 129393801 heartbeat IPC: 0.498224 cumulative IPC: 0.413206 (Simulation time: 0 hr 30 min 19 sec) 
select_counter is 1023
Heartbeat CPU 0 instructions: 62000000 cycles: 131411011 heartbeat IPC: 0.495734 cumulative IPC: 0.414533 (Simulation time: 0 hr 30 min 47 sec) 
select_counter is 1023
Heartbeat CPU 0 instructions: 63000001 cycles: 138027771 heartbeat IPC: 0.151132 cumulative IPC: 0.401336 (Simulation time: 0 hr 31 min 22 sec) 
select_counter is 1022
Heartbeat CPU 0 instructions: 64000000 cycles: 140575314 heartbeat IPC: 0.392535 cumulative IPC: 0.401169 (Simulation time: 0 hr 31 min 50 sec) 
select_counter is 1023
Heartbeat CPU 0 instructions: 65000002 cycles: 142577757 heartbeat IPC: 0.499391 cumulative IPC: 0.402609 (Simulation time: 0 hr 32 min 19 sec) 
select_counter is 1022
Heartbeat CPU 0 instructions: 66000001 cycles: 144555533 heartbeat IPC: 0.505618 cumulative IPC: 0.404079 (Simulation time: 0 hr 32 min 48 sec) 
select_counter is 1023
Heartbeat CPU 0 instructions: 67000003 cycles: 146540589 heartbeat IPC: 0.503765 cumulative IPC: 0.405487 (Simulation time: 0 hr 33 min 15 sec) 
select_counter is 1023
Heartbeat CPU 0 instructions: 68000000 cycles: 148454124 heartbeat IPC: 0.522591 cumulative IPC: 0.407059 (Simulation time: 0 hr 33 min 42 sec) 
select_counter is 1022
Heartbeat CPU 0 instructions: 69000003 cycles: 150424168 heartbeat IPC: 0.507604 cumulative IPC: 0.408431 (Simulation time: 0 hr 34 min 9 sec) 
select_counter is 1023
Heartbeat CPU 0 instructions: 70000002 cycles: 152412951 heartbeat IPC: 0.50282 cumulative IPC: 0.409712 (Simulation time: 0 hr 34 min 34 sec) 
select_counter is 1022
Heartbeat CPU 0 instructions: 71000000 cycles: 154411013 heartbeat IPC: 0.500484 cumulative IPC: 0.410934 (Simulation time: 0 hr 34 min 58 sec) 
select_counter is 1022
Heartbeat CPU 0 instructions: 72000000 cycles: 156405344 heartbeat IPC: 0.501421 cumulative IPC: 0.412134 (Simulation time: 0 hr 35 min 28 sec) 
select_counter is 1022
Heartbeat CPU 0 instructions: 73000001 cycles: 158362387 heartbeat IPC: 0.510975 cumulative IPC: 0.413403 (Simulation time: 0 hr 35 min 53 sec) 
select_counter is 1022
Heartbeat CPU 0 instructions: 74000003 cycles: 160362690 heartbeat IPC: 0.499925 cumulative IPC: 0.414524 (Simulation time: 0 hr 36 min 18 sec) 
select_counter is 1023
Heartbeat CPU 0 instructions: 75000002 cycles: 162373120 heartbeat IPC: 0.497406 cumulative IPC: 0.415589 (Simulation time: 0 hr 36 min 43 sec) 
select_counter is 1023
Heartbeat CPU 0 instructions: 76000000 cycles: 168022420 heartbeat IPC: 0.177013 cumulative IPC: 0.407273 (Simulation time: 0 hr 37 min 11 sec) 
select_counter is 1022
Heartbeat CPU 0 instructions: 77000001 cycles: 171493225 heartbeat IPC: 0.288118 cumulative IPC: 0.404774 (Simulation time: 0 hr 37 min 37 sec) 
select_counter is 1023
Heartbeat CPU 0 instructions: 78000000 cycles: 173480458 heartbeat IPC: 0.503212 cumulative IPC: 0.405942 (Simulation time: 0 hr 38 min 0 sec) 
select_counter is 1023
Heartbeat CPU 0 instructions: 79000002 cycles: 175462333 heartbeat IPC: 0.504574 cumulative IPC: 0.407095 (Simulation time: 0 hr 38 min 26 sec) 
select_counter is 1023
Heartbeat CPU 0 instructions: 80000000 cycles: 177419108 heartbeat IPC: 0.511044 cumulative IPC: 0.408281 (Simulation time: 0 hr 38 min 48 sec) 
select_counter is 1022
Heartbeat CPU 0 instructions: 81000002 cycles: 179361011 heartbeat IPC: 0.51496 cumulative IPC: 0.409476 (Simulation time: 0 hr 39 min 11 sec) 
select_counter is 1023
Heartbeat CPU 0 instructions: 82000002 cycles: 181251752 heartbeat IPC: 0.528893 cumulative IPC: 0.410764 (Simulation time: 0 hr 39 min 34 sec) 
select_counter is 1023
Heartbeat CPU 0 instructions: 83000003 cycles: 183217919 heartbeat IPC: 0.508604 cumulative IPC: 0.41185 (Simulation time: 0 hr 39 min 57 sec) 
select_counter is 1023
Heartbeat CPU 0 instructions: 84000000 cycles: 185254359 heartbeat IPC: 0.491052 cumulative IPC: 0.412749 (Simulation time: 0 hr 40 min 21 sec) 
select_counter is 1023
Heartbeat CPU 0 instructions: 85000002 cycles: 187277665 heartbeat IPC: 0.494242 cumulative IPC: 0.413659 (Simulation time: 0 hr 40 min 43 sec) 
select_counter is 1023
Heartbeat CPU 0 instructions: 86000003 cycles: 189232955 heartbeat IPC: 0.511434 cumulative IPC: 0.414702 (Simulation time: 0 hr 41 min 5 sec) 
select_counter is 1023
Heartbeat CPU 0 instructions: 87000000 cycles: 191214365 heartbeat IPC: 0.50469 cumulative IPC: 0.415664 (Simulation time: 0 hr 41 min 30 sec) 
select_counter is 1020
Heartbeat CPU 0 instructions: 88000000 cycles: 193231686 heartbeat IPC: 0.495707 cumulative IPC: 0.416527 (Simulation time: 0 hr 41 min 52 sec) 
select_counter is 1023
Heartbeat CPU 0 instructions: 89000001 cycles: 197936481 heartbeat IPC: 0.212549 cumulative IPC: 0.411528 (Simulation time: 0 hr 42 min 17 sec) 
select_counter is 1023
Heartbeat CPU 0 instructions: 90000002 cycles: 202421141 heartbeat IPC: 0.222983 cumulative IPC: 0.407223 (Simulation time: 0 hr 42 min 40 sec) 
select_counter is 1023
Heartbeat CPU 0 instructions: 91000002 cycles: 204350528 heartbeat IPC: 0.518299 cumulative IPC: 0.408304 (Simulation time: 0 hr 43 min 2 sec) 
select_counter is 1023
Heartbeat CPU 0 instructions: 92000000 cycles: 206336851 heartbeat IPC: 0.503442 cumulative IPC: 0.409247 (Simulation time: 0 hr 43 min 23 sec) 
select_counter is 1023
Heartbeat CPU 0 instructions: 93000001 cycles: 208281154 heartbeat IPC: 0.514324 cumulative IPC: 0.410257 (Simulation time: 0 hr 43 min 44 sec) 
select_counter is 1023
Heartbeat CPU 0 instructions: 94000003 cycles: 210294890 heartbeat IPC: 0.49659 cumulative IPC: 0.411108 (Simulation time: 0 hr 44 min 5 sec) 
select_counter is 1023
Heartbeat CPU 0 instructions: 95000000 cycles: 212219812 heartbeat IPC: 0.5195 cumulative IPC: 0.412119 (Simulation time: 0 hr 44 min 23 sec) 
select_counter is 1022
Heartbeat CPU 0 instructions: 96000000 cycles: 214154103 heartbeat IPC: 0.516985 cumulative IPC: 0.413093 (Simulation time: 0 hr 44 min 44 sec) 
select_counter is 1023
Heartbeat CPU 0 instructions: 97000002 cycles: 216184277 heartbeat IPC: 0.49257 cumulative IPC: 0.413861 (Simulation time: 0 hr 45 min 3 sec) 
select_counter is 1020
Heartbeat CPU 0 instructions: 98000000 cycles: 218221018 heartbeat IPC: 0.490979 cumulative IPC: 0.414601 (Simulation time: 0 hr 45 min 22 sec) 
select_counter is 1022
Heartbeat CPU 0 instructions: 99000002 cycles: 220226118 heartbeat IPC: 0.498729 cumulative IPC: 0.415388 (Simulation time: 0 hr 45 min 39 sec) 
select_counter is 1023
Heartbeat CPU 0 instructions: 100000000 cycles: 222191477 heartbeat IPC: 0.508812 cumulative IPC: 0.416238 (Simulation time: 0 hr 45 min 57 sec) 
select_counter is 1022
Heartbeat CPU 0 instructions: 101000002 cycles: 224211759 heartbeat IPC: 0.494981 cumulative IPC: 0.416966 (Simulation time: 0 hr 46 min 14 sec) 
select_counter is 1023
Heartbeat CPU 0 instructions: 102000000 cycles: 227915332 heartbeat IPC: 0.270009 cumulative IPC: 0.414514 (Simulation time: 0 hr 46 min 37 sec) 
select_counter is 1023
Heartbeat CPU 0 instructions: 103000002 cycles: 233430375 heartbeat IPC: 0.181323 cumulative IPC: 0.40886 (Simulation time: 0 hr 46 min 56 sec) 
select_counter is 1023
Heartbeat CPU 0 instructions: 104000000 cycles: 235379872 heartbeat IPC: 0.512952 cumulative IPC: 0.409745 (Simulation time: 0 hr 47 min 10 sec) 
select_counter is 1022
Heartbeat CPU 0 instructions: 105000002 cycles: 237303628 heartbeat IPC: 0.519817 cumulative IPC: 0.41066 (Simulation time: 0 hr 47 min 24 sec) 
select_counter is 1023
Heartbeat CPU 0 instructions: 106000001 cycles: 239296358 heartbeat IPC: 0.501824 cumulative IPC: 0.411439 (Simulation time: 0 hr 47 min 37 sec) 
select_counter is 1019
Heartbeat CPU 0 instructions: 107000003 cycles: 241303294 heartbeat IPC: 0.498273 cumulative IPC: 0.412179 (Simulation time: 0 hr 47 min 49 sec) 
select_counter is 1023
Heartbeat CPU 0 instructions: 108000000 cycles: 243288236 heartbeat IPC: 0.503792 cumulative IPC: 0.412945 (Simulation time: 0 hr 48 min 0 sec) 
select_counter is 1023
Heartbeat CPU 0 instructions: 109000003 cycles: 245177015 heartbeat IPC: 0.529444 cumulative IPC: 0.413865 (Simulation time: 0 hr 48 min 11 sec) 
select_counter is 1023
Heartbeat CPU 0 instructions: 110000002 cycles: 247189599 heartbeat IPC: 0.496873 cumulative IPC: 0.414558 (Simulation time: 0 hr 48 min 21 sec) 
select_counter is 1023
Finished CPU 0 instructions: 100000003 cycles: 241220826 cummulative IPC: 0.414558 (Simulation time: 0 hr 48 min 21 sec) 

ChampSim completed all CPUs

Region of Interest Statistics

CPU 0 cummulative IPC: 0.414558 instructions: 100000003 cycles: 241220826
LLC TOTAL     ACCESS:    1165597  HIT:     334959  MISS:     830638
LLC LOAD      ACCESS:     633144  HIT:     142690  MISS:     490454
LLC RFO       ACCESS:     265372  HIT:      56058  MISS:     209314
LLC PREFETCH  ACCESS:          0  HIT:          0  MISS:          0
LLC WRITEBACK ACCESS:     267081  HIT:     136211  MISS:     130870
Insertion Distribution: 
	LOAD 1668 0 0 0 0 0 2193 11707 
	RFO 256 0 0 0 0 0 691 5334 
	PREF 0 0 0 0 0 0 0 0 
	WRITEBACK 0 0 0 0 0 0 0 4459 
Total Prefetch Downgrades: 0
