
*** ChampSim Multicore Out-of-Order Simulator ***

Warmup Instructions: 10000000
Simulation Instructions: 100000000
Configuration: 1
Number of CPUs: 1
LLC sets: 2048
LLC ways: 16
Off-chip DRAM Channels: 1 Width: 64-bit Data Rate: 1600 MT/s

CPU 0 runs /datasets/cs240c-wi22-a00-public/data/Assignment2-gz/milc_360B.trace.gz
Heartbeat CPU 0 instructions: 1000001 cycles: 549889 heartbeat IPC: 1.81855 cumulative IPC: 1.81855 (Simulation time: 0 hr 0 min 24 sec) 
select_counter is 963
Heartbeat CPU 0 instructions: 2000003 cycles: 1099779 heartbeat IPC: 1.81855 cumulative IPC: 1.81855 (Simulation time: 0 hr 0 min 48 sec) 
select_counter is 1022
Heartbeat CPU 0 instructions: 3000001 cycles: 1649612 heartbeat IPC: 1.81873 cumulative IPC: 1.81861 (Simulation time: 0 hr 1 min 12 sec) 
select_counter is 1023
Heartbeat CPU 0 instructions: 4000000 cycles: 2199464 heartbeat IPC: 1.81867 cumulative IPC: 1.81862 (Simulation time: 0 hr 1 min 37 sec) 
select_counter is 1023
Heartbeat CPU 0 instructions: 5000002 cycles: 2749347 heartbeat IPC: 1.81857 cumulative IPC: 1.81861 (Simulation time: 0 hr 2 min 1 sec) 
select_counter is 1022
Heartbeat CPU 0 instructions: 6000001 cycles: 3299240 heartbeat IPC: 1.81853 cumulative IPC: 1.8186 (Simulation time: 0 hr 2 min 25 sec) 
select_counter is 1023
Heartbeat CPU 0 instructions: 7000000 cycles: 3849091 heartbeat IPC: 1.81867 cumulative IPC: 1.81861 (Simulation time: 0 hr 2 min 48 sec) 
select_counter is 1023
Heartbeat CPU 0 instructions: 8000000 cycles: 4398930 heartbeat IPC: 1.81871 cumulative IPC: 1.81862 (Simulation time: 0 hr 3 min 9 sec) 
select_counter is 1022
Heartbeat CPU 0 instructions: 9000001 cycles: 4948828 heartbeat IPC: 1.81852 cumulative IPC: 1.81861 (Simulation time: 0 hr 3 min 30 sec) 
select_counter is 1023
Heartbeat CPU 0 instructions: 10000001 cycles: 5498685 heartbeat IPC: 1.81865 cumulative IPC: 1.81862 (Simulation time: 0 hr 3 min 52 sec) 
select_counter is 1022

Warmup complete CPU 0 instructions: 10000001 cycles: 5498685 (Simulation time: 0 hr 3 min 52 sec) 

Heartbeat CPU 0 instructions: 11000001 cycles: 7443758 heartbeat IPC: 0.51412 cumulative IPC: 0.51412 (Simulation time: 0 hr 4 min 19 sec) 
select_counter is 1023
Heartbeat CPU 0 instructions: 12000000 cycles: 9397935 heartbeat IPC: 0.511724 cumulative IPC: 0.512919 (Simulation time: 0 hr 4 min 44 sec) 
select_counter is 1023
Heartbeat CPU 0 instructions: 13000001 cycles: 11332547 heartbeat IPC: 0.5169 cumulative IPC: 0.514239 (Simulation time: 0 hr 5 min 9 sec) 
select_counter is 1023
Heartbeat CPU 0 instructions: 14000001 cycles: 13287337 heartbeat IPC: 0.511564 cumulative IPC: 0.513568 (Simulation time: 0 hr 5 min 35 sec) 
select_counter is 1023
Heartbeat CPU 0 instructions: 15000003 cycles: 15218835 heartbeat IPC: 0.517734 cumulative IPC: 0.514396 (Simulation time: 0 hr 6 min 0 sec) 
select_counter is 1022
Heartbeat CPU 0 instructions: 16000000 cycles: 17155890 heartbeat IPC: 0.516246 cumulative IPC: 0.514703 (Simulation time: 0 hr 6 min 27 sec) 
select_counter is 1023
Heartbeat CPU 0 instructions: 17000003 cycles: 19102637 heartbeat IPC: 0.513679 cumulative IPC: 0.514557 (Simulation time: 0 hr 6 min 54 sec) 
select_counter is 1022
Heartbeat CPU 0 instructions: 18000002 cycles: 21056310 heartbeat IPC: 0.511856 cumulative IPC: 0.514217 (Simulation time: 0 hr 7 min 20 sec) 
select_counter is 1023
Heartbeat CPU 0 instructions: 19000000 cycles: 23016523 heartbeat IPC: 0.510148 cumulative IPC: 0.513762 (Simulation time: 0 hr 7 min 47 sec) 
select_counter is 1023
Heartbeat CPU 0 instructions: 20000000 cycles: 24986265 heartbeat IPC: 0.507681 cumulative IPC: 0.513147 (Simulation time: 0 hr 8 min 14 sec) 
select_counter is 1023
Heartbeat CPU 0 instructions: 21000002 cycles: 26901759 heartbeat IPC: 0.52206 cumulative IPC: 0.513945 (Simulation time: 0 hr 8 min 45 sec) 
select_counter is 1023
Heartbeat CPU 0 instructions: 22000003 cycles: 28859164 heartbeat IPC: 0.510881 cumulative IPC: 0.513688 (Simulation time: 0 hr 9 min 13 sec) 
select_counter is 1023
Heartbeat CPU 0 instructions: 23000001 cycles: 30793798 heartbeat IPC: 0.516893 cumulative IPC: 0.513933 (Simulation time: 0 hr 9 min 40 sec) 
select_counter is 1023
Heartbeat CPU 0 instructions: 24000000 cycles: 32760791 heartbeat IPC: 0.50839 cumulative IPC: 0.513533 (Simulation time: 0 hr 10 min 6 sec) 
select_counter is 1023
Heartbeat CPU 0 instructions: 25000003 cycles: 34702582 heartbeat IPC: 0.51499 cumulative IPC: 0.51363 (Simulation time: 0 hr 10 min 32 sec) 
select_counter is 1019
Heartbeat CPU 0 instructions: 26000003 cycles: 36629113 heartbeat IPC: 0.519068 cumulative IPC: 0.513967 (Simulation time: 0 hr 10 min 58 sec) 
select_counter is 1020
Heartbeat CPU 0 instructions: 27000001 cycles: 38555684 heartbeat IPC: 0.519056 cumulative IPC: 0.514263 (Simulation time: 0 hr 11 min 27 sec) 
select_counter is 1023
Heartbeat CPU 0 instructions: 28000000 cycles: 40474848 heartbeat IPC: 0.52106 cumulative IPC: 0.514636 (Simulation time: 0 hr 11 min 57 sec) 
select_counter is 1023
Heartbeat CPU 0 instructions: 29000003 cycles: 42431198 heartbeat IPC: 0.511158 cumulative IPC: 0.514452 (Simulation time: 0 hr 12 min 25 sec) 
select_counter is 1023
Heartbeat CPU 0 instructions: 30000000 cycles: 44349803 heartbeat IPC: 0.52121 cumulative IPC: 0.514786 (Simulation time: 0 hr 12 min 54 sec) 
select_counter is 1023
Heartbeat CPU 0 instructions: 31000000 cycles: 46289197 heartbeat IPC: 0.515625 cumulative IPC: 0.514826 (Simulation time: 0 hr 13 min 22 sec) 
select_counter is 1020
Heartbeat CPU 0 instructions: 32000000 cycles: 48211968 heartbeat IPC: 0.520083 cumulative IPC: 0.515062 (Simulation time: 0 hr 13 min 47 sec) 
select_counter is 1021
Heartbeat CPU 0 instructions: 33000000 cycles: 50140177 heartbeat IPC: 0.518616 cumulative IPC: 0.515216 (Simulation time: 0 hr 14 min 15 sec) 
select_counter is 1023
Heartbeat CPU 0 instructions: 34000002 cycles: 52052546 heartbeat IPC: 0.522913 cumulative IPC: 0.515532 (Simulation time: 0 hr 14 min 41 sec) 
select_counter is 1023
Heartbeat CPU 0 instructions: 35000001 cycles: 53989661 heartbeat IPC: 0.516231 cumulative IPC: 0.51556 (Simulation time: 0 hr 15 min 9 sec) 
select_counter is 1023
Heartbeat CPU 0 instructions: 36000000 cycles: 55907508 heartbeat IPC: 0.521417 cumulative IPC: 0.515783 (Simulation time: 0 hr 15 min 36 sec) 
select_counter is 1023
Heartbeat CPU 0 instructions: 37000000 cycles: 57836704 heartbeat IPC: 0.518351 cumulative IPC: 0.515877 (Simulation time: 0 hr 16 min 6 sec) 
select_counter is 1023
Heartbeat CPU 0 instructions: 38000001 cycles: 59771910 heartbeat IPC: 0.516741 cumulative IPC: 0.515908 (Simulation time: 0 hr 16 min 34 sec) 
select_counter is 1022
Heartbeat CPU 0 instructions: 39000000 cycles: 61708163 heartbeat IPC: 0.516461 cumulative IPC: 0.515927 (Simulation time: 0 hr 17 min 1 sec) 
select_counter is 1023
Heartbeat CPU 0 instructions: 40000000 cycles: 63639554 heartbeat IPC: 0.517762 cumulative IPC: 0.515988 (Simulation time: 0 hr 17 min 28 sec) 
select_counter is 1022
Heartbeat CPU 0 instructions: 41000001 cycles: 65588071 heartbeat IPC: 0.513211 cumulative IPC: 0.515898 (Simulation time: 0 hr 17 min 55 sec) 
select_counter is 1023
Heartbeat CPU 0 instructions: 42000001 cycles: 67509028 heartbeat IPC: 0.520574 cumulative IPC: 0.516043 (Simulation time: 0 hr 18 min 23 sec) 
select_counter is 1023
Heartbeat CPU 0 instructions: 43000000 cycles: 69437175 heartbeat IPC: 0.518632 cumulative IPC: 0.516121 (Simulation time: 0 hr 18 min 51 sec) 
select_counter is 1021
Heartbeat CPU 0 instructions: 44000000 cycles: 72265895 heartbeat IPC: 0.353517 cumulative IPC: 0.509232 (Simulation time: 0 hr 19 min 24 sec) 
select_counter is 1023
Heartbeat CPU 0 instructions: 45000002 cycles: 75797406 heartbeat IPC: 0.283165 cumulative IPC: 0.497875 (Simulation time: 0 hr 20 min 0 sec) 
select_counter is 1023
Heartbeat CPU 0 instructions: 46000001 cycles: 79307092 heartbeat IPC: 0.284925 cumulative IPC: 0.487749 (Simulation time: 0 hr 20 min 38 sec) 
select_counter is 1022
Heartbeat CPU 0 instructions: 47000002 cycles: 82862577 heartbeat IPC: 0.281256 cumulative IPC: 0.478259 (Simulation time: 0 hr 21 min 16 sec) 
select_counter is 1023
Heartbeat CPU 0 instructions: 48000000 cycles: 86357720 heartbeat IPC: 0.286111 cumulative IPC: 0.469954 (Simulation time: 0 hr 21 min 50 sec) 
select_counter is 1023
Heartbeat CPU 0 instructions: 49000003 cycles: 89798673 heartbeat IPC: 0.290618 cumulative IPC: 0.462634 (Simulation time: 0 hr 22 min 23 sec) 
select_counter is 1023
Heartbeat CPU 0 instructions: 50000002 cycles: 92851669 heartbeat IPC: 0.327547 cumulative IPC: 0.457912 (Simulation time: 0 hr 22 min 56 sec) 
select_counter is 1023
Heartbeat CPU 0 instructions: 51000002 cycles: 94823632 heartbeat IPC: 0.507109 cumulative IPC: 0.458998 (Simulation time: 0 hr 23 min 22 sec) 
select_counter is 1022
Heartbeat CPU 0 instructions: 52000000 cycles: 97437411 heartbeat IPC: 0.382587 cumulative IPC: 0.456826 (Simulation time: 0 hr 23 min 50 sec) 
select_counter is 1023
Heartbeat CPU 0 instructions: 53000001 cycles: 100388711 heartbeat IPC: 0.338834 cumulative IPC: 0.453156 (Simulation time: 0 hr 24 min 18 sec) 
select_counter is 1023
Heartbeat CPU 0 instructions: 54000003 cycles: 103293563 heartbeat IPC: 0.344252 cumulative IPC: 0.449921 (Simulation time: 0 hr 24 min 51 sec) 
select_counter is 1023
Heartbeat CPU 0 instructions: 55000003 cycles: 106184953 heartbeat IPC: 0.345854 cumulative IPC: 0.446933 (Simulation time: 0 hr 25 min 24 sec) 
select_counter is 1022
Heartbeat CPU 0 instructions: 56000000 cycles: 109071619 heartbeat IPC: 0.346419 cumulative IPC: 0.444131 (Simulation time: 0 hr 25 min 55 sec) 
select_counter is 1023
Heartbeat CPU 0 instructions: 57000000 cycles: 111966650 heartbeat IPC: 0.345419 cumulative IPC: 0.441447 (Simulation time: 0 hr 26 min 23 sec) 
select_counter is 1022
Heartbeat CPU 0 instructions: 58000001 cycles: 114842561 heartbeat IPC: 0.347716 cumulative IPC: 0.438982 (Simulation time: 0 hr 26 min 53 sec) 
select_counter is 1023
Heartbeat CPU 0 instructions: 59000001 cycles: 117739049 heartbeat IPC: 0.345246 cumulative IPC: 0.436563 (Simulation time: 0 hr 27 min 23 sec) 
select_counter is 1022
Heartbeat CPU 0 instructions: 60000000 cycles: 120624367 heartbeat IPC: 0.346582 cumulative IPC: 0.434308 (Simulation time: 0 hr 27 min 49 sec) 
select_counter is 1023
Heartbeat CPU 0 instructions: 61000002 cycles: 123510257 heartbeat IPC: 0.346514 cumulative IPC: 0.432161 (Simulation time: 0 hr 28 min 14 sec) 
select_counter is 1022
Heartbeat CPU 0 instructions: 62000003 cycles: 126385042 heartbeat IPC: 0.347852 cumulative IPC: 0.430156 (Simulation time: 0 hr 28 min 40 sec) 
select_counter is 1023
Heartbeat CPU 0 instructions: 63000000 cycles: 129283659 heartbeat IPC: 0.344991 cumulative IPC: 0.428162 (Simulation time: 0 hr 29 min 9 sec) 
select_counter is 1023
Heartbeat CPU 0 instructions: 64000000 cycles: 132162417 heartbeat IPC: 0.347372 cumulative IPC: 0.426326 (Simulation time: 0 hr 29 min 34 sec) 
select_counter is 1023
Heartbeat CPU 0 instructions: 65000000 cycles: 135039011 heartbeat IPC: 0.347633 cumulative IPC: 0.424578 (Simulation time: 0 hr 30 min 3 sec) 
select_counter is 1023
Heartbeat CPU 0 instructions: 66000001 cycles: 137911105 heartbeat IPC: 0.348178 cumulative IPC: 0.422921 (Simulation time: 0 hr 30 min 30 sec) 
select_counter is 1022
Heartbeat CPU 0 instructions: 67000002 cycles: 140776403 heartbeat IPC: 0.349004 cumulative IPC: 0.421355 (Simulation time: 0 hr 31 min 1 sec) 
select_counter is 1023
Heartbeat CPU 0 instructions: 68000000 cycles: 143641176 heartbeat IPC: 0.349067 cumulative IPC: 0.419856 (Simulation time: 0 hr 31 min 30 sec) 
select_counter is 1023
Heartbeat CPU 0 instructions: 69000003 cycles: 146478141 heartbeat IPC: 0.35249 cumulative IPC: 0.418501 (Simulation time: 0 hr 32 min 0 sec) 
select_counter is 1023
Heartbeat CPU 0 instructions: 70000000 cycles: 149326314 heartbeat IPC: 0.351101 cumulative IPC: 0.417166 (Simulation time: 0 hr 32 min 28 sec) 
select_counter is 1021
Heartbeat CPU 0 instructions: 71000000 cycles: 152167625 heartbeat IPC: 0.35195 cumulative IPC: 0.415903 (Simulation time: 0 hr 32 min 56 sec) 
select_counter is 1023
Heartbeat CPU 0 instructions: 72000000 cycles: 154984852 heartbeat IPC: 0.354959 cumulative IPC: 0.414754 (Simulation time: 0 hr 33 min 24 sec) 
select_counter is 1022
Heartbeat CPU 0 instructions: 73000001 cycles: 157772794 heartbeat IPC: 0.358688 cumulative IPC: 0.413728 (Simulation time: 0 hr 33 min 51 sec) 
select_counter is 1018
Heartbeat CPU 0 instructions: 74000002 cycles: 159774276 heartbeat IPC: 0.49963 cumulative IPC: 0.414842 (Simulation time: 0 hr 34 min 17 sec) 
select_counter is 1023
Heartbeat CPU 0 instructions: 75000002 cycles: 161757791 heartbeat IPC: 0.504156 cumulative IPC: 0.415976 (Simulation time: 0 hr 34 min 44 sec) 
select_counter is 1023
Heartbeat CPU 0 instructions: 76000000 cycles: 163729386 heartbeat IPC: 0.507203 cumulative IPC: 0.417112 (Simulation time: 0 hr 35 min 8 sec) 
select_counter is 1023
Heartbeat CPU 0 instructions: 77000000 cycles: 165704800 heartbeat IPC: 0.506223 cumulative IPC: 0.418211 (Simulation time: 0 hr 35 min 32 sec) 
select_counter is 1023
Heartbeat CPU 0 instructions: 78000002 cycles: 167707072 heartbeat IPC: 0.499434 cumulative IPC: 0.419214 (Simulation time: 0 hr 35 min 59 sec) 
select_counter is 1022
Heartbeat CPU 0 instructions: 79000002 cycles: 169709531 heartbeat IPC: 0.499386 cumulative IPC: 0.420191 (Simulation time: 0 hr 36 min 29 sec) 
select_counter is 1022
Heartbeat CPU 0 instructions: 80000000 cycles: 171723204 heartbeat IPC: 0.496604 cumulative IPC: 0.421117 (Simulation time: 0 hr 36 min 57 sec) 
select_counter is 1022
Heartbeat CPU 0 instructions: 81000003 cycles: 173720940 heartbeat IPC: 0.500568 cumulative IPC: 0.422061 (Simulation time: 0 hr 37 min 23 sec) 
select_counter is 1022
Heartbeat CPU 0 instructions: 82000000 cycles: 175736838 heartbeat IPC: 0.496055 cumulative IPC: 0.422937 (Simulation time: 0 hr 37 min 45 sec) 
select_counter is 1023
Heartbeat CPU 0 instructions: 83000002 cycles: 177780179 heartbeat IPC: 0.489396 cumulative IPC: 0.423725 (Simulation time: 0 hr 38 min 7 sec) 
select_counter is 1023
Heartbeat CPU 0 instructions: 84000000 cycles: 179815946 heartbeat IPC: 0.491214 cumulative IPC: 0.424513 (Simulation time: 0 hr 38 min 29 sec) 
select_counter is 1021
Heartbeat CPU 0 instructions: 85000001 cycles: 181833110 heartbeat IPC: 0.495746 cumulative IPC: 0.425328 (Simulation time: 0 hr 38 min 52 sec) 
select_counter is 1023
Heartbeat CPU 0 instructions: 86000000 cycles: 183868467 heartbeat IPC: 0.491314 cumulative IPC: 0.426081 (Simulation time: 0 hr 39 min 15 sec) 
select_counter is 1023
Heartbeat CPU 0 instructions: 87000000 cycles: 185888525 heartbeat IPC: 0.495035 cumulative IPC: 0.426853 (Simulation time: 0 hr 39 min 38 sec) 
select_counter is 1023
Heartbeat CPU 0 instructions: 88000000 cycles: 187926197 heartbeat IPC: 0.490756 cumulative IPC: 0.427567 (Simulation time: 0 hr 40 min 0 sec) 
select_counter is 1021
Heartbeat CPU 0 instructions: 89000002 cycles: 189980477 heartbeat IPC: 0.48679 cumulative IPC: 0.428227 (Simulation time: 0 hr 40 min 22 sec) 
select_counter is 1021
Heartbeat CPU 0 instructions: 90000002 cycles: 192019334 heartbeat IPC: 0.490471 cumulative IPC: 0.428907 (Simulation time: 0 hr 40 min 44 sec) 
select_counter is 1020
Heartbeat CPU 0 instructions: 91000003 cycles: 194058824 heartbeat IPC: 0.490319 cumulative IPC: 0.429571 (Simulation time: 0 hr 41 min 6 sec) 
select_counter is 1023
Heartbeat CPU 0 instructions: 92000000 cycles: 196099897 heartbeat IPC: 0.489937 cumulative IPC: 0.430218 (Simulation time: 0 hr 41 min 31 sec) 
select_counter is 1023
Heartbeat CPU 0 instructions: 93000003 cycles: 198134371 heartbeat IPC: 0.491529 cumulative IPC: 0.430865 (Simulation time: 0 hr 41 min 52 sec) 
select_counter is 1022
Heartbeat CPU 0 instructions: 94000001 cycles: 200156622 heartbeat IPC: 0.494497 cumulative IPC: 0.431526 (Simulation time: 0 hr 42 min 13 sec) 
select_counter is 1023
Heartbeat CPU 0 instructions: 95000000 cycles: 202182010 heartbeat IPC: 0.493732 cumulative IPC: 0.432167 (Simulation time: 0 hr 42 min 33 sec) 
select_counter is 1023
Heartbeat CPU 0 instructions: 96000000 cycles: 204206995 heartbeat IPC: 0.493831 cumulative IPC: 0.432795 (Simulation time: 0 hr 42 min 54 sec) 
select_counter is 1023
Heartbeat CPU 0 instructions: 97000002 cycles: 206236168 heartbeat IPC: 0.492813 cumulative IPC: 0.433402 (Simulation time: 0 hr 43 min 14 sec) 
select_counter is 1021
Heartbeat CPU 0 instructions: 98000003 cycles: 208270995 heartbeat IPC: 0.491443 cumulative IPC: 0.433984 (Simulation time: 0 hr 43 min 34 sec) 
select_counter is 1022
Heartbeat CPU 0 instructions: 99000000 cycles: 210304406 heartbeat IPC: 0.491783 cumulative IPC: 0.434558 (Simulation time: 0 hr 43 min 54 sec) 
select_counter is 1023
Heartbeat CPU 0 instructions: 100000000 cycles: 212347909 heartbeat IPC: 0.489356 cumulative IPC: 0.4351 (Simulation time: 0 hr 44 min 12 sec) 
select_counter is 1023
Heartbeat CPU 0 instructions: 101000000 cycles: 214372539 heartbeat IPC: 0.493917 cumulative IPC: 0.43567 (Simulation time: 0 hr 44 min 30 sec) 
select_counter is 1023
Heartbeat CPU 0 instructions: 102000000 cycles: 216394997 heartbeat IPC: 0.494448 cumulative IPC: 0.436233 (Simulation time: 0 hr 44 min 49 sec) 
select_counter is 1023
Heartbeat CPU 0 instructions: 103000002 cycles: 218422328 heartbeat IPC: 0.49326 cumulative IPC: 0.436776 (Simulation time: 0 hr 45 min 6 sec) 
select_counter is 1023
Heartbeat CPU 0 instructions: 104000000 cycles: 220471495 heartbeat IPC: 0.488002 cumulative IPC: 0.437265 (Simulation time: 0 hr 45 min 23 sec) 
select_counter is 1023
Heartbeat CPU 0 instructions: 105000003 cycles: 222518790 heartbeat IPC: 0.488451 cumulative IPC: 0.437747 (Simulation time: 0 hr 45 min 39 sec) 
select_counter is 1022
Heartbeat CPU 0 instructions: 106000002 cycles: 224553432 heartbeat IPC: 0.491486 cumulative IPC: 0.438247 (Simulation time: 0 hr 45 min 55 sec) 
select_counter is 1022
Heartbeat CPU 0 instructions: 107000000 cycles: 226602665 heartbeat IPC: 0.487986 cumulative IPC: 0.438708 (Simulation time: 0 hr 46 min 11 sec) 
select_counter is 1020
Heartbeat CPU 0 instructions: 108000000 cycles: 228629501 heartbeat IPC: 0.49338 cumulative IPC: 0.439204 (Simulation time: 0 hr 46 min 26 sec) 
select_counter is 1021
Heartbeat CPU 0 instructions: 109000002 cycles: 230645719 heartbeat IPC: 0.495979 cumulative IPC: 0.439713 (Simulation time: 0 hr 46 min 42 sec) 
select_counter is 1023
Heartbeat CPU 0 instructions: 110000000 cycles: 232671023 heartbeat IPC: 0.493752 cumulative IPC: 0.440194 (Simulation time: 0 hr 46 min 57 sec) 
select_counter is 1023
Finished CPU 0 instructions: 100000003 cycles: 227172339 cummulative IPC: 0.440194 (Simulation time: 0 hr 46 min 57 sec) 

ChampSim completed all CPUs

Region of Interest Statistics

CPU 0 cummulative IPC: 0.440194 instructions: 100000003 cycles: 227172339
LLC TOTAL     ACCESS:    2838711  HIT:     274077  MISS:    2564634
LLC LOAD      ACCESS:    1956031  HIT:      14266  MISS:    1941765
LLC RFO       ACCESS:     140009  HIT:          0  MISS:     140009
LLC PREFETCH  ACCESS:          0  HIT:          0  MISS:          0
LLC WRITEBACK ACCESS:     742671  HIT:     259811  MISS:     482860
Insertion Distribution: 
	LOAD 0 0 0 0 0 0 2615 58749 
	RFO 0 0 0 0 0 0 803 3583 
	PREF 0 0 0 0 0 0 0 0 
	WRITEBACK 0 0 0 0 0 0 0 21638 
Total Prefetch Downgrades: 0
