
*** ChampSim Multicore Out-of-Order Simulator ***

Warmup Instructions: 10000000
Simulation Instructions: 100000000
Configuration: 1
Number of CPUs: 1
LLC sets: 2048
LLC ways: 16
Off-chip DRAM Channels: 1 Width: 64-bit Data Rate: 1600 MT/s

CPU 0 runs /datasets/cs240c-wi22-a00-public/data/Assignment2-gz/libquantum_1735B.trace.gz
Heartbeat CPU 0 instructions: 1000003 cycles: 333345 heartbeat IPC: 2.9999 cumulative IPC: 2.9999 (Simulation time: 0 hr 0 min 13 sec) 
select_counter is 1022
Heartbeat CPU 0 instructions: 2000003 cycles: 666677 heartbeat IPC: 3.00001 cumulative IPC: 2.99996 (Simulation time: 0 hr 0 min 26 sec) 
select_counter is 1023
Heartbeat CPU 0 instructions: 3000001 cycles: 989047 heartbeat IPC: 3.10202 cumulative IPC: 3.03322 (Simulation time: 0 hr 0 min 40 sec) 
select_counter is 1023
Heartbeat CPU 0 instructions: 4000000 cycles: 1290772 heartbeat IPC: 3.31427 cumulative IPC: 3.09892 (Simulation time: 0 hr 0 min 53 sec) 
select_counter is 1021
Heartbeat CPU 0 instructions: 5000000 cycles: 1592498 heartbeat IPC: 3.31427 cumulative IPC: 3.13972 (Simulation time: 0 hr 1 min 6 sec) 
select_counter is 1023
Heartbeat CPU 0 instructions: 6000003 cycles: 1894221 heartbeat IPC: 3.31431 cumulative IPC: 3.16753 (Simulation time: 0 hr 1 min 19 sec) 
select_counter is 1023
Heartbeat CPU 0 instructions: 7000000 cycles: 2195944 heartbeat IPC: 3.31429 cumulative IPC: 3.1877 (Simulation time: 0 hr 1 min 32 sec) 
select_counter is 1022
Heartbeat CPU 0 instructions: 8000000 cycles: 2501901 heartbeat IPC: 3.26843 cumulative IPC: 3.19757 (Simulation time: 0 hr 1 min 44 sec) 
select_counter is 1023
Heartbeat CPU 0 instructions: 9000001 cycles: 2835236 heartbeat IPC: 2.99999 cumulative IPC: 3.17434 (Simulation time: 0 hr 1 min 57 sec) 
select_counter is 1022
Heartbeat CPU 0 instructions: 10000001 cycles: 3168569 heartbeat IPC: 3 cumulative IPC: 3.156 (Simulation time: 0 hr 2 min 9 sec) 
select_counter is 1022

Warmup complete CPU 0 instructions: 10000001 cycles: 3168569 (Simulation time: 0 hr 2 min 9 sec) 

Heartbeat CPU 0 instructions: 11000001 cycles: 5166671 heartbeat IPC: 0.500475 cumulative IPC: 0.500475 (Simulation time: 0 hr 2 min 33 sec) 
select_counter is 1023
Heartbeat CPU 0 instructions: 12000000 cycles: 7164493 heartbeat IPC: 0.500545 cumulative IPC: 0.50051 (Simulation time: 0 hr 2 min 57 sec) 
select_counter is 1023
Heartbeat CPU 0 instructions: 13000003 cycles: 9719772 heartbeat IPC: 0.391348 cumulative IPC: 0.457931 (Simulation time: 0 hr 3 min 18 sec) 
select_counter is 1023
Heartbeat CPU 0 instructions: 14000000 cycles: 13213247 heartbeat IPC: 0.286247 cumulative IPC: 0.398221 (Simulation time: 0 hr 3 min 38 sec) 
select_counter is 1022
Heartbeat CPU 0 instructions: 15000000 cycles: 16689996 heartbeat IPC: 0.287625 cumulative IPC: 0.369783 (Simulation time: 0 hr 3 min 59 sec) 
select_counter is 1021
Heartbeat CPU 0 instructions: 16000000 cycles: 20155954 heartbeat IPC: 0.288521 cumulative IPC: 0.353203 (Simulation time: 0 hr 4 min 19 sec) 
select_counter is 1023
Heartbeat CPU 0 instructions: 17000002 cycles: 23638423 heartbeat IPC: 0.287153 cumulative IPC: 0.341966 (Simulation time: 0 hr 4 min 40 sec) 
select_counter is 1023
Heartbeat CPU 0 instructions: 18000001 cycles: 26598646 heartbeat IPC: 0.337812 cumulative IPC: 0.341441 (Simulation time: 0 hr 5 min 1 sec) 
select_counter is 1022
Heartbeat CPU 0 instructions: 19000000 cycles: 28516524 heartbeat IPC: 0.521409 cumulative IPC: 0.355058 (Simulation time: 0 hr 5 min 25 sec) 
select_counter is 1023
Heartbeat CPU 0 instructions: 20000000 cycles: 30430351 heartbeat IPC: 0.522513 cumulative IPC: 0.366814 (Simulation time: 0 hr 5 min 48 sec) 
select_counter is 952
Heartbeat CPU 0 instructions: 21000001 cycles: 32344512 heartbeat IPC: 0.522423 cumulative IPC: 0.377023 (Simulation time: 0 hr 6 min 14 sec) 
select_counter is 1022
Heartbeat CPU 0 instructions: 22000000 cycles: 34262485 heartbeat IPC: 0.521383 cumulative IPC: 0.385928 (Simulation time: 0 hr 6 min 37 sec) 
select_counter is 1022
Heartbeat CPU 0 instructions: 23000001 cycles: 37211163 heartbeat IPC: 0.339135 cumulative IPC: 0.381875 (Simulation time: 0 hr 6 min 58 sec) 
select_counter is 1023
Heartbeat CPU 0 instructions: 24000000 cycles: 40813698 heartbeat IPC: 0.277582 cumulative IPC: 0.371894 (Simulation time: 0 hr 7 min 18 sec) 
select_counter is 1022
Heartbeat CPU 0 instructions: 25000000 cycles: 44413897 heartbeat IPC: 0.277762 cumulative IPC: 0.363678 (Simulation time: 0 hr 7 min 38 sec) 
select_counter is 1023
Heartbeat CPU 0 instructions: 26000000 cycles: 47882816 heartbeat IPC: 0.288274 cumulative IPC: 0.357828 (Simulation time: 0 hr 7 min 59 sec) 
select_counter is 1023
Heartbeat CPU 0 instructions: 27000001 cycles: 50242365 heartbeat IPC: 0.42381 cumulative IPC: 0.361135 (Simulation time: 0 hr 8 min 16 sec) 
select_counter is 1023
Heartbeat CPU 0 instructions: 28000000 cycles: 52261082 heartbeat IPC: 0.495364 cumulative IPC: 0.366655 (Simulation time: 0 hr 8 min 37 sec) 
select_counter is 1023
Heartbeat CPU 0 instructions: 29000000 cycles: 54261990 heartbeat IPC: 0.499773 cumulative IPC: 0.371868 (Simulation time: 0 hr 9 min 3 sec) 
select_counter is 1023
Heartbeat CPU 0 instructions: 30000001 cycles: 56262858 heartbeat IPC: 0.499784 cumulative IPC: 0.376688 (Simulation time: 0 hr 9 min 28 sec) 
select_counter is 1023
Heartbeat CPU 0 instructions: 31000000 cycles: 58263630 heartbeat IPC: 0.499807 cumulative IPC: 0.381159 (Simulation time: 0 hr 9 min 56 sec) 
select_counter is 1023
Heartbeat CPU 0 instructions: 32000000 cycles: 60264495 heartbeat IPC: 0.499784 cumulative IPC: 0.385316 (Simulation time: 0 hr 10 min 21 sec) 
select_counter is 1022
Heartbeat CPU 0 instructions: 33000002 cycles: 63215110 heartbeat IPC: 0.338913 cumulative IPC: 0.383036 (Simulation time: 0 hr 10 min 42 sec) 
select_counter is 1023
Heartbeat CPU 0 instructions: 34000000 cycles: 66357281 heartbeat IPC: 0.318251 cumulative IPC: 0.379815 (Simulation time: 0 hr 11 min 4 sec) 
select_counter is 1023
Heartbeat CPU 0 instructions: 35000000 cycles: 69474895 heartbeat IPC: 0.320758 cumulative IPC: 0.377038 (Simulation time: 0 hr 11 min 26 sec) 
select_counter is 1022
Heartbeat CPU 0 instructions: 36000000 cycles: 72599100 heartbeat IPC: 0.320081 cumulative IPC: 0.374475 (Simulation time: 0 hr 11 min 46 sec) 
select_counter is 1022
Heartbeat CPU 0 instructions: 37000002 cycles: 75737247 heartbeat IPC: 0.31866 cumulative IPC: 0.372061 (Simulation time: 0 hr 12 min 7 sec) 
select_counter is 1023
Heartbeat CPU 0 instructions: 38000003 cycles: 78165180 heartbeat IPC: 0.411873 cumulative IPC: 0.37335 (Simulation time: 0 hr 12 min 31 sec) 
select_counter is 1022
Heartbeat CPU 0 instructions: 39000002 cycles: 80165952 heartbeat IPC: 0.499807 cumulative IPC: 0.376636 (Simulation time: 0 hr 12 min 57 sec) 
select_counter is 1023
Heartbeat CPU 0 instructions: 40000000 cycles: 82154849 heartbeat IPC: 0.50279 cumulative IPC: 0.379813 (Simulation time: 0 hr 13 min 22 sec) 
select_counter is 860
Heartbeat CPU 0 instructions: 41000000 cycles: 84153962 heartbeat IPC: 0.500222 cumulative IPC: 0.382785 (Simulation time: 0 hr 13 min 49 sec) 
select_counter is 1023
Heartbeat CPU 0 instructions: 42000001 cycles: 86154830 heartbeat IPC: 0.499784 cumulative IPC: 0.385606 (Simulation time: 0 hr 14 min 14 sec) 
select_counter is 1023
Heartbeat CPU 0 instructions: 43000002 cycles: 89161299 heartbeat IPC: 0.332616 cumulative IPC: 0.383753 (Simulation time: 0 hr 14 min 38 sec) 
select_counter is 1023
Heartbeat CPU 0 instructions: 44000000 cycles: 92310424 heartbeat IPC: 0.317548 cumulative IPC: 0.381415 (Simulation time: 0 hr 14 min 59 sec) 
select_counter is 1022
Heartbeat CPU 0 instructions: 45000001 cycles: 95454343 heartbeat IPC: 0.318075 cumulative IPC: 0.379257 (Simulation time: 0 hr 15 min 21 sec) 
select_counter is 1023
Heartbeat CPU 0 instructions: 46000002 cycles: 98358314 heartbeat IPC: 0.344356 cumulative IPC: 0.378192 (Simulation time: 0 hr 15 min 41 sec) 
select_counter is 1022
Heartbeat CPU 0 instructions: 47000000 cycles: 100220123 heartbeat IPC: 0.537111 cumulative IPC: 0.381241 (Simulation time: 0 hr 16 min 1 sec) 
select_counter is 1023
Heartbeat CPU 0 instructions: 48000000 cycles: 102143267 heartbeat IPC: 0.519982 cumulative IPC: 0.383936 (Simulation time: 0 hr 16 min 25 sec) 
select_counter is 1023
Heartbeat CPU 0 instructions: 49000002 cycles: 104140703 heartbeat IPC: 0.500643 cumulative IPC: 0.386245 (Simulation time: 0 hr 16 min 51 sec) 
select_counter is 1023
Heartbeat CPU 0 instructions: 50000001 cycles: 106138098 heartbeat IPC: 0.500652 cumulative IPC: 0.388464 (Simulation time: 0 hr 17 min 16 sec) 
select_counter is 1023
Heartbeat CPU 0 instructions: 51000000 cycles: 108135497 heartbeat IPC: 0.500651 cumulative IPC: 0.390599 (Simulation time: 0 hr 17 min 41 sec) 
select_counter is 1023
Heartbeat CPU 0 instructions: 52000000 cycles: 110133011 heartbeat IPC: 0.500622 cumulative IPC: 0.392654 (Simulation time: 0 hr 18 min 4 sec) 
select_counter is 1023
Heartbeat CPU 0 instructions: 53000002 cycles: 112130559 heartbeat IPC: 0.500615 cumulative IPC: 0.394633 (Simulation time: 0 hr 18 min 28 sec) 
select_counter is 1022
Heartbeat CPU 0 instructions: 54000001 cycles: 114127624 heartbeat IPC: 0.500734 cumulative IPC: 0.396543 (Simulation time: 0 hr 18 min 55 sec) 
select_counter is 1023
Heartbeat CPU 0 instructions: 55000000 cycles: 116124924 heartbeat IPC: 0.500675 cumulative IPC: 0.398384 (Simulation time: 0 hr 19 min 19 sec) 
select_counter is 1022
Heartbeat CPU 0 instructions: 56000000 cycles: 118122427 heartbeat IPC: 0.500625 cumulative IPC: 0.400161 (Simulation time: 0 hr 19 min 47 sec) 
select_counter is 1022
Heartbeat CPU 0 instructions: 57000000 cycles: 120119864 heartbeat IPC: 0.500642 cumulative IPC: 0.401877 (Simulation time: 0 hr 20 min 11 sec) 
select_counter is 1023
Heartbeat CPU 0 instructions: 58000002 cycles: 122117260 heartbeat IPC: 0.500653 cumulative IPC: 0.403535 (Simulation time: 0 hr 20 min 36 sec) 
select_counter is 1022
Heartbeat CPU 0 instructions: 59000001 cycles: 124111043 heartbeat IPC: 0.501559 cumulative IPC: 0.405151 (Simulation time: 0 hr 21 min 4 sec) 
select_counter is 969
Heartbeat CPU 0 instructions: 60000000 cycles: 126098477 heartbeat IPC: 0.503161 cumulative IPC: 0.406736 (Simulation time: 0 hr 21 min 30 sec) 
select_counter is 1023
Heartbeat CPU 0 instructions: 61000003 cycles: 128095911 heartbeat IPC: 0.500644 cumulative IPC: 0.408237 (Simulation time: 0 hr 21 min 54 sec) 
select_counter is 1023
Heartbeat CPU 0 instructions: 62000002 cycles: 130093304 heartbeat IPC: 0.500652 cumulative IPC: 0.409692 (Simulation time: 0 hr 22 min 18 sec) 
select_counter is 1023
Heartbeat CPU 0 instructions: 63000001 cycles: 132090606 heartbeat IPC: 0.500675 cumulative IPC: 0.411101 (Simulation time: 0 hr 22 min 41 sec) 
select_counter is 1023
Heartbeat CPU 0 instructions: 64000000 cycles: 134087996 heartbeat IPC: 0.500653 cumulative IPC: 0.412467 (Simulation time: 0 hr 23 min 4 sec) 
select_counter is 1021
Heartbeat CPU 0 instructions: 65000001 cycles: 135951787 heartbeat IPC: 0.536541 cumulative IPC: 0.414209 (Simulation time: 0 hr 23 min 30 sec) 
select_counter is 1023
Heartbeat CPU 0 instructions: 66000000 cycles: 137105945 heartbeat IPC: 0.866432 cumulative IPC: 0.418106 (Simulation time: 0 hr 23 min 54 sec) 
select_counter is 1023
Heartbeat CPU 0 instructions: 67000001 cycles: 138894455 heartbeat IPC: 0.559125 cumulative IPC: 0.419964 (Simulation time: 0 hr 24 min 22 sec) 
select_counter is 1022
Heartbeat CPU 0 instructions: 68000000 cycles: 140803310 heartbeat IPC: 0.523874 cumulative IPC: 0.421405 (Simulation time: 0 hr 24 min 47 sec) 
select_counter is 1022
Heartbeat CPU 0 instructions: 69000002 cycles: 142712204 heartbeat IPC: 0.523865 cumulative IPC: 0.422807 (Simulation time: 0 hr 25 min 11 sec) 
select_counter is 1023
Heartbeat CPU 0 instructions: 70000001 cycles: 144620974 heartbeat IPC: 0.523897 cumulative IPC: 0.424171 (Simulation time: 0 hr 25 min 35 sec) 
select_counter is 1022
Heartbeat CPU 0 instructions: 71000003 cycles: 146660869 heartbeat IPC: 0.490222 cumulative IPC: 0.42511 (Simulation time: 0 hr 25 min 57 sec) 
select_counter is 1023
Heartbeat CPU 0 instructions: 72000000 cycles: 149791869 heartbeat IPC: 0.319386 cumulative IPC: 0.422852 (Simulation time: 0 hr 26 min 17 sec) 
select_counter is 1023
Heartbeat CPU 0 instructions: 73000000 cycles: 152928488 heartbeat IPC: 0.318815 cumulative IPC: 0.420673 (Simulation time: 0 hr 26 min 39 sec) 
select_counter is 1023
Heartbeat CPU 0 instructions: 74000000 cycles: 156040410 heartbeat IPC: 0.321345 cumulative IPC: 0.418651 (Simulation time: 0 hr 26 min 59 sec) 
select_counter is 1022
Heartbeat CPU 0 instructions: 75000000 cycles: 159162144 heartbeat IPC: 0.320335 cumulative IPC: 0.416684 (Simulation time: 0 hr 27 min 21 sec) 
select_counter is 1023
Heartbeat CPU 0 instructions: 76000000 cycles: 162299702 heartbeat IPC: 0.318719 cumulative IPC: 0.414752 (Simulation time: 0 hr 27 min 41 sec) 
select_counter is 1023
Heartbeat CPU 0 instructions: 77000001 cycles: 164344105 heartbeat IPC: 0.489141 cumulative IPC: 0.415696 (Simulation time: 0 hr 28 min 4 sec) 
select_counter is 1023
Heartbeat CPU 0 instructions: 78000000 cycles: 166252962 heartbeat IPC: 0.523873 cumulative IPC: 0.416962 (Simulation time: 0 hr 28 min 29 sec) 
select_counter is 1022
Heartbeat CPU 0 instructions: 79000001 cycles: 168151664 heartbeat IPC: 0.526676 cumulative IPC: 0.418225 (Simulation time: 0 hr 28 min 52 sec) 
select_counter is 947
Heartbeat CPU 0 instructions: 80000000 cycles: 170060519 heartbeat IPC: 0.523874 cumulative IPC: 0.419433 (Simulation time: 0 hr 29 min 14 sec) 
select_counter is 1023
Heartbeat CPU 0 instructions: 81000002 cycles: 172179962 heartbeat IPC: 0.471823 cumulative IPC: 0.42009 (Simulation time: 0 hr 29 min 36 sec) 
select_counter is 1021
Heartbeat CPU 0 instructions: 82000003 cycles: 175301841 heartbeat IPC: 0.32032 cumulative IPC: 0.418281 (Simulation time: 0 hr 29 min 57 sec) 
select_counter is 1022
Heartbeat CPU 0 instructions: 83000000 cycles: 178445877 heartbeat IPC: 0.318062 cumulative IPC: 0.416483 (Simulation time: 0 hr 30 min 17 sec) 
select_counter is 1022
Heartbeat CPU 0 instructions: 84000000 cycles: 181573522 heartbeat IPC: 0.319729 cumulative IPC: 0.414787 (Simulation time: 0 hr 30 min 38 sec) 
select_counter is 1023
Heartbeat CPU 0 instructions: 85000002 cycles: 184214157 heartbeat IPC: 0.378698 cumulative IPC: 0.41426 (Simulation time: 0 hr 30 min 57 sec) 
select_counter is 1022
Heartbeat CPU 0 instructions: 86000002 cycles: 185958724 heartbeat IPC: 0.573208 cumulative IPC: 0.415777 (Simulation time: 0 hr 31 min 15 sec) 
select_counter is 1023
Heartbeat CPU 0 instructions: 87000002 cycles: 188489911 heartbeat IPC: 0.395072 cumulative IPC: 0.415495 (Simulation time: 0 hr 31 min 43 sec) 
select_counter is 1022
Heartbeat CPU 0 instructions: 88000000 cycles: 190492582 heartbeat IPC: 0.499332 cumulative IPC: 0.416391 (Simulation time: 0 hr 32 min 10 sec) 
select_counter is 1023
Heartbeat CPU 0 instructions: 89000000 cycles: 192444088 heartbeat IPC: 0.512425 cumulative IPC: 0.417381 (Simulation time: 0 hr 32 min 38 sec) 
select_counter is 1023
Heartbeat CPU 0 instructions: 90000000 cycles: 194903434 heartbeat IPC: 0.406612 cumulative IPC: 0.417243 (Simulation time: 0 hr 33 min 2 sec) 
select_counter is 1023
Heartbeat CPU 0 instructions: 91000002 cycles: 198653064 heartbeat IPC: 0.266694 cumulative IPC: 0.414355 (Simulation time: 0 hr 33 min 28 sec) 
select_counter is 1023
Heartbeat CPU 0 instructions: 92000000 cycles: 202931752 heartbeat IPC: 0.233716 cumulative IPC: 0.410486 (Simulation time: 0 hr 33 min 52 sec) 
select_counter is 1023
Heartbeat CPU 0 instructions: 93000001 cycles: 206882038 heartbeat IPC: 0.253146 cumulative IPC: 0.407435 (Simulation time: 0 hr 34 min 14 sec) 
select_counter is 1023
Heartbeat CPU 0 instructions: 94000001 cycles: 210421044 heartbeat IPC: 0.282565 cumulative IPC: 0.405303 (Simulation time: 0 hr 34 min 38 sec) 
select_counter is 1023
Heartbeat CPU 0 instructions: 95000000 cycles: 212307750 heartbeat IPC: 0.530024 cumulative IPC: 0.406428 (Simulation time: 0 hr 35 min 2 sec) 
select_counter is 1023
Heartbeat CPU 0 instructions: 96000000 cycles: 214191144 heartbeat IPC: 0.530956 cumulative IPC: 0.407539 (Simulation time: 0 hr 35 min 26 sec) 
select_counter is 893
Heartbeat CPU 0 instructions: 97000002 cycles: 216077916 heartbeat IPC: 0.530007 cumulative IPC: 0.408625 (Simulation time: 0 hr 35 min 49 sec) 
select_counter is 1023
Heartbeat CPU 0 instructions: 98000001 cycles: 218887778 heartbeat IPC: 0.355889 cumulative IPC: 0.407938 (Simulation time: 0 hr 36 min 15 sec) 
select_counter is 1023
Heartbeat CPU 0 instructions: 99000003 cycles: 222613463 heartbeat IPC: 0.268408 cumulative IPC: 0.405569 (Simulation time: 0 hr 36 min 38 sec) 
select_counter is 1023
Heartbeat CPU 0 instructions: 100000000 cycles: 226341857 heartbeat IPC: 0.268211 cumulative IPC: 0.403274 (Simulation time: 0 hr 36 min 59 sec) 
select_counter is 1022
Heartbeat CPU 0 instructions: 101000000 cycles: 230054459 heartbeat IPC: 0.269353 cumulative IPC: 0.401083 (Simulation time: 0 hr 37 min 21 sec) 
select_counter is 1023
Heartbeat CPU 0 instructions: 102000000 cycles: 233125327 heartbeat IPC: 0.325641 cumulative IPC: 0.400075 (Simulation time: 0 hr 37 min 41 sec) 
select_counter is 1023
Heartbeat CPU 0 instructions: 103000002 cycles: 235122282 heartbeat IPC: 0.500763 cumulative IPC: 0.400942 (Simulation time: 0 hr 38 min 1 sec) 
select_counter is 1023
Heartbeat CPU 0 instructions: 104000000 cycles: 237119243 heartbeat IPC: 0.50076 cumulative IPC: 0.401794 (Simulation time: 0 hr 38 min 21 sec) 
select_counter is 1023
Heartbeat CPU 0 instructions: 105000000 cycles: 239116239 heartbeat IPC: 0.500752 cumulative IPC: 0.402632 (Simulation time: 0 hr 38 min 42 sec) 
select_counter is 1023
Heartbeat CPU 0 instructions: 106000003 cycles: 241113115 heartbeat IPC: 0.500784 cumulative IPC: 0.403455 (Simulation time: 0 hr 39 min 2 sec) 
select_counter is 1022
Heartbeat CPU 0 instructions: 107000000 cycles: 244107976 heartbeat IPC: 0.333904 cumulative IPC: 0.402591 (Simulation time: 0 hr 39 min 19 sec) 
select_counter is 1023
Heartbeat CPU 0 instructions: 108000000 cycles: 247563715 heartbeat IPC: 0.289374 cumulative IPC: 0.40099 (Simulation time: 0 hr 39 min 37 sec) 
select_counter is 1021
Heartbeat CPU 0 instructions: 109000002 cycles: 249850724 heartbeat IPC: 0.437253 cumulative IPC: 0.401326 (Simulation time: 0 hr 39 min 51 sec) 
select_counter is 1023
Heartbeat CPU 0 instructions: 110000002 cycles: 252618160 heartbeat IPC: 0.361345 cumulative IPC: 0.400883 (Simulation time: 0 hr 40 min 7 sec) 
select_counter is 1023
Finished CPU 0 instructions: 100000001 cycles: 249449591 cummulative IPC: 0.400883 (Simulation time: 0 hr 40 min 7 sec) 

ChampSim completed all CPUs

Region of Interest Statistics

CPU 0 cummulative IPC: 0.400883 instructions: 100000001 cycles: 249449591
LLC TOTAL     ACCESS:    3801525  HIT:     331441  MISS:    3470084
LLC LOAD      ACCESS:    2789401  HIT:     153656  MISS:    2635745
LLC RFO       ACCESS:         20  HIT:         15  MISS:          5
LLC PREFETCH  ACCESS:          0  HIT:          0  MISS:          0
LLC WRITEBACK ACCESS:    1012104  HIT:     177770  MISS:     834334
Insertion Distribution: 
	LOAD 0 0 0 0 0 0 718 90416 
	RFO 0 0 0 0 0 0 0 0 
	PREF 0 0 0 0 0 0 0 0 
	WRITEBACK 0 0 0 0 0 0 0 33974 
Total Prefetch Downgrades: 0
