
*** ChampSim Multicore Out-of-Order Simulator ***

Warmup Instructions: 10000000
Simulation Instructions: 100000000
Configuration: 1
Number of CPUs: 1
LLC sets: 2048
LLC ways: 16
Off-chip DRAM Channels: 1 Width: 64-bit Data Rate: 1600 MT/s

CPU 0 runs /datasets/cs240c-wi22-a00-public/data/Assignment2-gz/astar_23B.trace.gz
Heartbeat CPU 0 instructions: 1000000 cycles: 360107 heartbeat IPC: 2.77695 cumulative IPC: 2.77695 (Simulation time: 0 hr 0 min 27 sec) 
select_counter is 601
Heartbeat CPU 0 instructions: 2000001 cycles: 721008 heartbeat IPC: 2.77085 cumulative IPC: 2.7739 (Simulation time: 0 hr 0 min 52 sec) 
select_counter is 671
Heartbeat CPU 0 instructions: 3000000 cycles: 1079959 heartbeat IPC: 2.78589 cumulative IPC: 2.77788 (Simulation time: 0 hr 1 min 17 sec) 
select_counter is 713
Heartbeat CPU 0 instructions: 4000000 cycles: 1441420 heartbeat IPC: 2.76655 cumulative IPC: 2.77504 (Simulation time: 0 hr 1 min 44 sec) 
select_counter is 785
Heartbeat CPU 0 instructions: 5000000 cycles: 1803507 heartbeat IPC: 2.76177 cumulative IPC: 2.77238 (Simulation time: 0 hr 2 min 14 sec) 
select_counter is 830
Heartbeat CPU 0 instructions: 6000002 cycles: 2165185 heartbeat IPC: 2.7649 cumulative IPC: 2.77113 (Simulation time: 0 hr 2 min 39 sec) 
select_counter is 910
Heartbeat CPU 0 instructions: 7000002 cycles: 2526776 heartbeat IPC: 2.76556 cumulative IPC: 2.77033 (Simulation time: 0 hr 3 min 4 sec) 
select_counter is 952
Heartbeat CPU 0 instructions: 8000000 cycles: 2889684 heartbeat IPC: 2.75551 cumulative IPC: 2.76847 (Simulation time: 0 hr 3 min 29 sec) 
select_counter is 995
Heartbeat CPU 0 instructions: 9000000 cycles: 3252707 heartbeat IPC: 2.75465 cumulative IPC: 2.76693 (Simulation time: 0 hr 3 min 55 sec) 
select_counter is 1022
Heartbeat CPU 0 instructions: 10000003 cycles: 3617606 heartbeat IPC: 2.74049 cumulative IPC: 2.76426 (Simulation time: 0 hr 4 min 26 sec) 
select_counter is 1023

Warmup complete CPU 0 instructions: 10000003 cycles: 3617606 (Simulation time: 0 hr 4 min 26 sec) 

Heartbeat CPU 0 instructions: 11000000 cycles: 6794618 heartbeat IPC: 0.31476 cumulative IPC: 0.31476 (Simulation time: 0 hr 4 min 51 sec) 
select_counter is 1023
Heartbeat CPU 0 instructions: 12000000 cycles: 9656402 heartbeat IPC: 0.349432 cumulative IPC: 0.331191 (Simulation time: 0 hr 5 min 17 sec) 
select_counter is 1021
Heartbeat CPU 0 instructions: 13000002 cycles: 12379172 heartbeat IPC: 0.367274 cumulative IPC: 0.342404 (Simulation time: 0 hr 5 min 41 sec) 
select_counter is 1023
Heartbeat CPU 0 instructions: 14000001 cycles: 15377439 heartbeat IPC: 0.333526 cumulative IPC: 0.340141 (Simulation time: 0 hr 6 min 2 sec) 
select_counter is 1023
Heartbeat CPU 0 instructions: 15000000 cycles: 18696629 heartbeat IPC: 0.301278 cumulative IPC: 0.331586 (Simulation time: 0 hr 6 min 31 sec) 
select_counter is 1023
Heartbeat CPU 0 instructions: 16000000 cycles: 21630656 heartbeat IPC: 0.340828 cumulative IPC: 0.333092 (Simulation time: 0 hr 6 min 59 sec) 
select_counter is 1023
Heartbeat CPU 0 instructions: 17000002 cycles: 24366584 heartbeat IPC: 0.365507 cumulative IPC: 0.337366 (Simulation time: 0 hr 7 min 22 sec) 
select_counter is 1023
Heartbeat CPU 0 instructions: 18000000 cycles: 27186530 heartbeat IPC: 0.354616 cumulative IPC: 0.33943 (Simulation time: 0 hr 7 min 44 sec) 
select_counter is 1023
Heartbeat CPU 0 instructions: 19000000 cycles: 30138628 heartbeat IPC: 0.338742 cumulative IPC: 0.339353 (Simulation time: 0 hr 8 min 8 sec) 
select_counter is 1023
Heartbeat CPU 0 instructions: 20000000 cycles: 33118085 heartbeat IPC: 0.335632 cumulative IPC: 0.338977 (Simulation time: 0 hr 8 min 36 sec) 
select_counter is 1022
Heartbeat CPU 0 instructions: 21000001 cycles: 36167180 heartbeat IPC: 0.327966 cumulative IPC: 0.337946 (Simulation time: 0 hr 9 min 1 sec) 
select_counter is 1023
Heartbeat CPU 0 instructions: 22000002 cycles: 39272642 heartbeat IPC: 0.322014 cumulative IPC: 0.336558 (Simulation time: 0 hr 9 min 23 sec) 
select_counter is 1021
Heartbeat CPU 0 instructions: 23000003 cycles: 42604552 heartbeat IPC: 0.300128 cumulative IPC: 0.333445 (Simulation time: 0 hr 9 min 49 sec) 
select_counter is 1023
Heartbeat CPU 0 instructions: 24000000 cycles: 46134346 heartbeat IPC: 0.283302 cumulative IPC: 0.329282 (Simulation time: 0 hr 10 min 15 sec) 
select_counter is 1022
Heartbeat CPU 0 instructions: 25000000 cycles: 50005016 heartbeat IPC: 0.258353 cumulative IPC: 0.323364 (Simulation time: 0 hr 10 min 45 sec) 
select_counter is 1023
Heartbeat CPU 0 instructions: 26000000 cycles: 54154276 heartbeat IPC: 0.241007 cumulative IPC: 0.316602 (Simulation time: 0 hr 11 min 11 sec) 
select_counter is 1023
Heartbeat CPU 0 instructions: 27000000 cycles: 58133715 heartbeat IPC: 0.251292 cumulative IPC: 0.311834 (Simulation time: 0 hr 11 min 33 sec) 
select_counter is 1023
Heartbeat CPU 0 instructions: 28000000 cycles: 61970246 heartbeat IPC: 0.260652 cumulative IPC: 0.308469 (Simulation time: 0 hr 11 min 55 sec) 
select_counter is 1023
Heartbeat CPU 0 instructions: 29000000 cycles: 65504058 heartbeat IPC: 0.282981 cumulative IPC: 0.307014 (Simulation time: 0 hr 12 min 18 sec) 
select_counter is 1011
Heartbeat CPU 0 instructions: 30000000 cycles: 69124292 heartbeat IPC: 0.276225 cumulative IPC: 0.305312 (Simulation time: 0 hr 12 min 43 sec) 
select_counter is 1023
Heartbeat CPU 0 instructions: 31000001 cycles: 72806411 heartbeat IPC: 0.271583 cumulative IPC: 0.303517 (Simulation time: 0 hr 13 min 7 sec) 
select_counter is 1023
Heartbeat CPU 0 instructions: 32000000 cycles: 76636913 heartbeat IPC: 0.261062 cumulative IPC: 0.30129 (Simulation time: 0 hr 13 min 32 sec) 
select_counter is 1023
Heartbeat CPU 0 instructions: 33000001 cycles: 80674186 heartbeat IPC: 0.247692 cumulative IPC: 0.298482 (Simulation time: 0 hr 13 min 57 sec) 
select_counter is 1020
Heartbeat CPU 0 instructions: 34000003 cycles: 84861919 heartbeat IPC: 0.238793 cumulative IPC: 0.295405 (Simulation time: 0 hr 14 min 21 sec) 
select_counter is 1023
Heartbeat CPU 0 instructions: 35000003 cycles: 88879240 heartbeat IPC: 0.248922 cumulative IPC: 0.293215 (Simulation time: 0 hr 14 min 46 sec) 
select_counter is 1023
Heartbeat CPU 0 instructions: 36000000 cycles: 93043956 heartbeat IPC: 0.240112 cumulative IPC: 0.290742 (Simulation time: 0 hr 15 min 13 sec) 
select_counter is 1023
Heartbeat CPU 0 instructions: 37000000 cycles: 97357965 heartbeat IPC: 0.231803 cumulative IPC: 0.28803 (Simulation time: 0 hr 15 min 38 sec) 
select_counter is 1013
Heartbeat CPU 0 instructions: 38000003 cycles: 101493460 heartbeat IPC: 0.24181 cumulative IPC: 0.286077 (Simulation time: 0 hr 16 min 4 sec) 
select_counter is 1023
Heartbeat CPU 0 instructions: 39000000 cycles: 105476109 heartbeat IPC: 0.251088 cumulative IPC: 0.284709 (Simulation time: 0 hr 16 min 29 sec) 
select_counter is 1023
Heartbeat CPU 0 instructions: 40000000 cycles: 109401387 heartbeat IPC: 0.254759 cumulative IPC: 0.283597 (Simulation time: 0 hr 16 min 55 sec) 
select_counter is 1021
Heartbeat CPU 0 instructions: 41000003 cycles: 113187336 heartbeat IPC: 0.264135 cumulative IPC: 0.282925 (Simulation time: 0 hr 17 min 20 sec) 
select_counter is 1023
Heartbeat CPU 0 instructions: 42000000 cycles: 116940553 heartbeat IPC: 0.266437 cumulative IPC: 0.282379 (Simulation time: 0 hr 17 min 45 sec) 
select_counter is 1023
Heartbeat CPU 0 instructions: 43000000 cycles: 120321682 heartbeat IPC: 0.295759 cumulative IPC: 0.282766 (Simulation time: 0 hr 18 min 11 sec) 
select_counter is 1023
Heartbeat CPU 0 instructions: 44000000 cycles: 123576302 heartbeat IPC: 0.307256 cumulative IPC: 0.283431 (Simulation time: 0 hr 18 min 34 sec) 
select_counter is 1018
Heartbeat CPU 0 instructions: 45000001 cycles: 126967643 heartbeat IPC: 0.294869 cumulative IPC: 0.283745 (Simulation time: 0 hr 19 min 4 sec) 
select_counter is 1023
Heartbeat CPU 0 instructions: 46000003 cycles: 130171724 heartbeat IPC: 0.312103 cumulative IPC: 0.284463 (Simulation time: 0 hr 19 min 30 sec) 
select_counter is 1022
Heartbeat CPU 0 instructions: 47000002 cycles: 133460436 heartbeat IPC: 0.30407 cumulative IPC: 0.28496 (Simulation time: 0 hr 19 min 55 sec) 
select_counter is 1021
Heartbeat CPU 0 instructions: 48000000 cycles: 136799298 heartbeat IPC: 0.299503 cumulative IPC: 0.285324 (Simulation time: 0 hr 20 min 20 sec) 
select_counter is 1023
Heartbeat CPU 0 instructions: 49000003 cycles: 140212282 heartbeat IPC: 0.293 cumulative IPC: 0.285516 (Simulation time: 0 hr 20 min 46 sec) 
select_counter is 1022
Heartbeat CPU 0 instructions: 50000000 cycles: 143554382 heartbeat IPC: 0.299212 cumulative IPC: 0.285843 (Simulation time: 0 hr 21 min 12 sec) 
select_counter is 1023
Heartbeat CPU 0 instructions: 51000001 cycles: 147465263 heartbeat IPC: 0.255697 cumulative IPC: 0.285024 (Simulation time: 0 hr 21 min 38 sec) 
select_counter is 1023
Heartbeat CPU 0 instructions: 52000000 cycles: 151556084 heartbeat IPC: 0.244449 cumulative IPC: 0.283902 (Simulation time: 0 hr 22 min 4 sec) 
select_counter is 1023
Heartbeat CPU 0 instructions: 53000000 cycles: 154505518 heartbeat IPC: 0.339048 cumulative IPC: 0.28498 (Simulation time: 0 hr 22 min 29 sec) 
select_counter is 1020
Heartbeat CPU 0 instructions: 54000002 cycles: 157500981 heartbeat IPC: 0.333839 cumulative IPC: 0.285931 (Simulation time: 0 hr 22 min 56 sec) 
select_counter is 1020
Heartbeat CPU 0 instructions: 55000002 cycles: 160556593 heartbeat IPC: 0.327267 cumulative IPC: 0.286736 (Simulation time: 0 hr 23 min 21 sec) 
select_counter is 1023
Heartbeat CPU 0 instructions: 56000000 cycles: 163614423 heartbeat IPC: 0.327029 cumulative IPC: 0.287506 (Simulation time: 0 hr 23 min 43 sec) 
select_counter is 1022
Heartbeat CPU 0 instructions: 57000000 cycles: 166504503 heartbeat IPC: 0.346011 cumulative IPC: 0.288544 (Simulation time: 0 hr 24 min 5 sec) 
select_counter is 1019
Heartbeat CPU 0 instructions: 58000001 cycles: 169315926 heartbeat IPC: 0.355692 cumulative IPC: 0.289683 (Simulation time: 0 hr 24 min 28 sec) 
select_counter is 1023
Heartbeat CPU 0 instructions: 59000000 cycles: 172224366 heartbeat IPC: 0.343827 cumulative IPC: 0.290617 (Simulation time: 0 hr 24 min 52 sec) 
select_counter is 1021
Heartbeat CPU 0 instructions: 60000000 cycles: 175009299 heartbeat IPC: 0.359075 cumulative IPC: 0.291729 (Simulation time: 0 hr 25 min 20 sec) 
select_counter is 1023
Heartbeat CPU 0 instructions: 61000000 cycles: 177693636 heartbeat IPC: 0.372531 cumulative IPC: 0.292975 (Simulation time: 0 hr 25 min 47 sec) 
select_counter is 1023
Heartbeat CPU 0 instructions: 62000003 cycles: 180345043 heartbeat IPC: 0.377159 cumulative IPC: 0.294238 (Simulation time: 0 hr 26 min 8 sec) 
select_counter is 1022
Heartbeat CPU 0 instructions: 63000000 cycles: 183203372 heartbeat IPC: 0.349854 cumulative IPC: 0.295124 (Simulation time: 0 hr 26 min 34 sec) 
select_counter is 1022
Heartbeat CPU 0 instructions: 64000000 cycles: 185948541 heartbeat IPC: 0.364276 cumulative IPC: 0.296165 (Simulation time: 0 hr 27 min 2 sec) 
select_counter is 1022
Heartbeat CPU 0 instructions: 65000000 cycles: 188621835 heartbeat IPC: 0.37407 cumulative IPC: 0.29729 (Simulation time: 0 hr 27 min 26 sec) 
select_counter is 1023
Heartbeat CPU 0 instructions: 66000000 cycles: 191294813 heartbeat IPC: 0.374115 cumulative IPC: 0.298385 (Simulation time: 0 hr 27 min 53 sec) 
select_counter is 1023
Heartbeat CPU 0 instructions: 67000000 cycles: 193973711 heartbeat IPC: 0.373288 cumulative IPC: 0.299439 (Simulation time: 0 hr 28 min 15 sec) 
select_counter is 1023
Heartbeat CPU 0 instructions: 68000000 cycles: 196576747 heartbeat IPC: 0.384167 cumulative IPC: 0.300582 (Simulation time: 0 hr 28 min 37 sec) 
select_counter is 1021
Heartbeat CPU 0 instructions: 69000000 cycles: 199363175 heartbeat IPC: 0.358882 cumulative IPC: 0.301412 (Simulation time: 0 hr 29 min 7 sec) 
select_counter is 1023
Heartbeat CPU 0 instructions: 70000000 cycles: 202230471 heartbeat IPC: 0.348761 cumulative IPC: 0.302095 (Simulation time: 0 hr 29 min 31 sec) 
select_counter is 1021
Heartbeat CPU 0 instructions: 71000001 cycles: 205160447 heartbeat IPC: 0.3413 cumulative IPC: 0.302665 (Simulation time: 0 hr 30 min 2 sec) 
select_counter is 1018
Heartbeat CPU 0 instructions: 72000000 cycles: 208117036 heartbeat IPC: 0.338227 cumulative IPC: 0.303179 (Simulation time: 0 hr 30 min 34 sec) 
select_counter is 1022
Heartbeat CPU 0 instructions: 73000001 cycles: 210969216 heartbeat IPC: 0.350609 cumulative IPC: 0.303832 (Simulation time: 0 hr 30 min 58 sec) 
select_counter is 1023
Heartbeat CPU 0 instructions: 74000002 cycles: 213510244 heartbeat IPC: 0.393542 cumulative IPC: 0.304918 (Simulation time: 0 hr 31 min 23 sec) 
select_counter is 1023
Heartbeat CPU 0 instructions: 75000002 cycles: 216324353 heartbeat IPC: 0.355352 cumulative IPC: 0.305585 (Simulation time: 0 hr 31 min 46 sec) 
select_counter is 1018
Heartbeat CPU 0 instructions: 76000000 cycles: 219138410 heartbeat IPC: 0.355358 cumulative IPC: 0.306235 (Simulation time: 0 hr 32 min 11 sec) 
select_counter is 1023
Heartbeat CPU 0 instructions: 77000000 cycles: 222605657 heartbeat IPC: 0.288413 cumulative IPC: 0.305953 (Simulation time: 0 hr 32 min 34 sec) 
select_counter is 1021
Heartbeat CPU 0 instructions: 78000003 cycles: 225912823 heartbeat IPC: 0.302375 cumulative IPC: 0.3059 (Simulation time: 0 hr 32 min 57 sec) 
select_counter is 1021
Heartbeat CPU 0 instructions: 79000001 cycles: 228866794 heartbeat IPC: 0.338527 cumulative IPC: 0.306327 (Simulation time: 0 hr 33 min 20 sec) 
select_counter is 1023
Heartbeat CPU 0 instructions: 80000000 cycles: 232074651 heartbeat IPC: 0.311734 cumulative IPC: 0.306403 (Simulation time: 0 hr 33 min 44 sec) 
select_counter is 987
Heartbeat CPU 0 instructions: 81000001 cycles: 235030146 heartbeat IPC: 0.338353 cumulative IPC: 0.306811 (Simulation time: 0 hr 34 min 9 sec) 
select_counter is 1020
Heartbeat CPU 0 instructions: 82000002 cycles: 238047708 heartbeat IPC: 0.331394 cumulative IPC: 0.307128 (Simulation time: 0 hr 34 min 30 sec) 
select_counter is 1019
Heartbeat CPU 0 instructions: 83000002 cycles: 240972692 heartbeat IPC: 0.341882 cumulative IPC: 0.307556 (Simulation time: 0 hr 34 min 51 sec) 
select_counter is 1015
Heartbeat CPU 0 instructions: 84000000 cycles: 243964364 heartbeat IPC: 0.334261 cumulative IPC: 0.307888 (Simulation time: 0 hr 35 min 12 sec) 
select_counter is 1017
Heartbeat CPU 0 instructions: 85000000 cycles: 246843890 heartbeat IPC: 0.347279 cumulative IPC: 0.308355 (Simulation time: 0 hr 35 min 33 sec) 
select_counter is 1023
Heartbeat CPU 0 instructions: 86000001 cycles: 249654650 heartbeat IPC: 0.355776 cumulative IPC: 0.308897 (Simulation time: 0 hr 35 min 56 sec) 
select_counter is 1023
Heartbeat CPU 0 instructions: 87000000 cycles: 252635393 heartbeat IPC: 0.335487 cumulative IPC: 0.309215 (Simulation time: 0 hr 36 min 20 sec) 
select_counter is 1023
Heartbeat CPU 0 instructions: 88000000 cycles: 255563616 heartbeat IPC: 0.341504 cumulative IPC: 0.30959 (Simulation time: 0 hr 36 min 42 sec) 
select_counter is 1017
Heartbeat CPU 0 instructions: 89000000 cycles: 258425163 heartbeat IPC: 0.349461 cumulative IPC: 0.310038 (Simulation time: 0 hr 37 min 2 sec) 
select_counter is 1023
Heartbeat CPU 0 instructions: 90000001 cycles: 261313908 heartbeat IPC: 0.346171 cumulative IPC: 0.310443 (Simulation time: 0 hr 37 min 21 sec) 
select_counter is 1023
Heartbeat CPU 0 instructions: 91000000 cycles: 264102818 heartbeat IPC: 0.358563 cumulative IPC: 0.310958 (Simulation time: 0 hr 37 min 42 sec) 
select_counter is 1022
Heartbeat CPU 0 instructions: 92000000 cycles: 267454300 heartbeat IPC: 0.298375 cumulative IPC: 0.310798 (Simulation time: 0 hr 38 min 1 sec) 
select_counter is 1001
Heartbeat CPU 0 instructions: 93000000 cycles: 270408826 heartbeat IPC: 0.338464 cumulative IPC: 0.311105 (Simulation time: 0 hr 38 min 18 sec) 
select_counter is 1016
Heartbeat CPU 0 instructions: 94000003 cycles: 273245138 heartbeat IPC: 0.352572 cumulative IPC: 0.311541 (Simulation time: 0 hr 38 min 36 sec) 
select_counter is 1023
Heartbeat CPU 0 instructions: 95000000 cycles: 276237257 heartbeat IPC: 0.33421 cumulative IPC: 0.31179 (Simulation time: 0 hr 38 min 54 sec) 
select_counter is 1022
Heartbeat CPU 0 instructions: 96000000 cycles: 279051931 heartbeat IPC: 0.355281 cumulative IPC: 0.312234 (Simulation time: 0 hr 39 min 12 sec) 
select_counter is 1023
Heartbeat CPU 0 instructions: 97000000 cycles: 281841027 heartbeat IPC: 0.358539 cumulative IPC: 0.312698 (Simulation time: 0 hr 39 min 30 sec) 
select_counter is 1023
Heartbeat CPU 0 instructions: 98000000 cycles: 284687385 heartbeat IPC: 0.351326 cumulative IPC: 0.313089 (Simulation time: 0 hr 39 min 50 sec) 
select_counter is 1023
Heartbeat CPU 0 instructions: 99000002 cycles: 287944572 heartbeat IPC: 0.307014 cumulative IPC: 0.31302 (Simulation time: 0 hr 40 min 9 sec) 
select_counter is 1023
Heartbeat CPU 0 instructions: 100000000 cycles: 290962412 heartbeat IPC: 0.331362 cumulative IPC: 0.313213 (Simulation time: 0 hr 40 min 28 sec) 
select_counter is 1022
Heartbeat CPU 0 instructions: 101000000 cycles: 294174846 heartbeat IPC: 0.31129 cumulative IPC: 0.313191 (Simulation time: 0 hr 40 min 49 sec) 
select_counter is 1023
Heartbeat CPU 0 instructions: 102000001 cycles: 297889154 heartbeat IPC: 0.269229 cumulative IPC: 0.312636 (Simulation time: 0 hr 41 min 13 sec) 
select_counter is 1023
Heartbeat CPU 0 instructions: 103000002 cycles: 301615936 heartbeat IPC: 0.268328 cumulative IPC: 0.312082 (Simulation time: 0 hr 41 min 35 sec) 
select_counter is 1023
Heartbeat CPU 0 instructions: 104000000 cycles: 304978017 heartbeat IPC: 0.297434 cumulative IPC: 0.311919 (Simulation time: 0 hr 41 min 54 sec) 
select_counter is 1023
Heartbeat CPU 0 instructions: 105000001 cycles: 308074555 heartbeat IPC: 0.322942 cumulative IPC: 0.312031 (Simulation time: 0 hr 42 min 15 sec) 
select_counter is 1012
Heartbeat CPU 0 instructions: 106000001 cycles: 311020138 heartbeat IPC: 0.339491 cumulative IPC: 0.312294 (Simulation time: 0 hr 42 min 33 sec) 
select_counter is 1023
Heartbeat CPU 0 instructions: 107000002 cycles: 314124479 heartbeat IPC: 0.32213 cumulative IPC: 0.312392 (Simulation time: 0 hr 42 min 51 sec) 
select_counter is 1023
Heartbeat CPU 0 instructions: 108000000 cycles: 317383825 heartbeat IPC: 0.306809 cumulative IPC: 0.312334 (Simulation time: 0 hr 43 min 8 sec) 
select_counter is 1023
Heartbeat CPU 0 instructions: 109000003 cycles: 320769426 heartbeat IPC: 0.295369 cumulative IPC: 0.312153 (Simulation time: 0 hr 43 min 27 sec) 
select_counter is 1022
Heartbeat CPU 0 instructions: 110000003 cycles: 324035490 heartbeat IPC: 0.306179 cumulative IPC: 0.312092 (Simulation time: 0 hr 43 min 44 sec) 
select_counter is 1022
Finished CPU 0 instructions: 100000000 cycles: 320417884 cummulative IPC: 0.312092 (Simulation time: 0 hr 43 min 44 sec) 

ChampSim completed all CPUs

Region of Interest Statistics

CPU 0 cummulative IPC: 0.312092 instructions: 100000000 cycles: 320417884
LLC TOTAL     ACCESS:    2825469  HIT:    2511752  MISS:     313717
LLC LOAD      ACCESS:    2094612  HIT:    1827765  MISS:     266847
LLC RFO       ACCESS:      16394  HIT:      16017  MISS:        377
LLC PREFETCH  ACCESS:          0  HIT:          0  MISS:          0
LLC WRITEBACK ACCESS:     714463  HIT:     667970  MISS:      46493
Insertion Distribution: 
	LOAD 5156 0 0 0 0 0 2972 420 
	RFO 0 0 0 0 0 0 12 0 
	PREF 0 0 0 0 0 0 0 0 
	WRITEBACK 0 0 0 0 0 0 0 446 
Total Prefetch Downgrades: 0
