
*** ChampSim Multicore Out-of-Order Simulator ***

Warmup Instructions: 10000000
Simulation Instructions: 100000000
Configuration: 1
Number of CPUs: 1
LLC sets: 2048
LLC ways: 16
Off-chip DRAM Channels: 1 Width: 64-bit Data Rate: 1600 MT/s

CPU 0 runs /datasets/cs240c-wi22-a00-public/data/Assignment2-gz/soplex_205B.trace.gz
Heartbeat CPU 0 instructions: 1000000 cycles: 394357 heartbeat IPC: 2.53577 cumulative IPC: 2.53577 (Simulation time: 0 hr 0 min 19 sec) 
select_counter is 871
Heartbeat CPU 0 instructions: 2000002 cycles: 890225 heartbeat IPC: 2.01667 cumulative IPC: 2.24663 (Simulation time: 0 hr 0 min 37 sec) 
select_counter is 1023
Heartbeat CPU 0 instructions: 3000000 cycles: 1360093 heartbeat IPC: 2.12825 cumulative IPC: 2.20573 (Simulation time: 0 hr 1 min 1 sec) 
select_counter is 1023
Heartbeat CPU 0 instructions: 4000000 cycles: 1722603 heartbeat IPC: 2.75854 cumulative IPC: 2.32207 (Simulation time: 0 hr 1 min 21 sec) 
select_counter is 1023
Heartbeat CPU 0 instructions: 5000001 cycles: 2171620 heartbeat IPC: 2.22709 cumulative IPC: 2.30243 (Simulation time: 0 hr 1 min 43 sec) 
select_counter is 1023
Heartbeat CPU 0 instructions: 6000003 cycles: 2599049 heartbeat IPC: 2.33957 cumulative IPC: 2.30854 (Simulation time: 0 hr 2 min 6 sec) 
select_counter is 1022
Heartbeat CPU 0 instructions: 7000000 cycles: 2984532 heartbeat IPC: 2.59414 cumulative IPC: 2.34543 (Simulation time: 0 hr 2 min 23 sec) 
select_counter is 1023
Heartbeat CPU 0 instructions: 8000000 cycles: 3372253 heartbeat IPC: 2.57917 cumulative IPC: 2.3723 (Simulation time: 0 hr 2 min 41 sec) 
select_counter is 1023
Heartbeat CPU 0 instructions: 9000003 cycles: 3864385 heartbeat IPC: 2.03198 cumulative IPC: 2.32896 (Simulation time: 0 hr 3 min 4 sec) 
select_counter is 1022
Heartbeat CPU 0 instructions: 10000000 cycles: 4348010 heartbeat IPC: 2.06771 cumulative IPC: 2.2999 (Simulation time: 0 hr 3 min 27 sec) 
select_counter is 1023

Warmup complete CPU 0 instructions: 10000004 cycles: 4348011 (Simulation time: 0 hr 3 min 27 sec) 

Heartbeat CPU 0 instructions: 11000001 cycles: 7590214 heartbeat IPC: 0.308432 cumulative IPC: 0.308431 (Simulation time: 0 hr 3 min 54 sec) 
select_counter is 1022
Heartbeat CPU 0 instructions: 12000000 cycles: 10464453 heartbeat IPC: 0.347918 cumulative IPC: 0.326987 (Simulation time: 0 hr 4 min 23 sec) 
select_counter is 1023
Heartbeat CPU 0 instructions: 13000000 cycles: 14851422 heartbeat IPC: 0.227948 cumulative IPC: 0.285621 (Simulation time: 0 hr 4 min 54 sec) 
select_counter is 1023
Heartbeat CPU 0 instructions: 14000003 cycles: 16363081 heartbeat IPC: 0.661527 cumulative IPC: 0.332915 (Simulation time: 0 hr 5 min 13 sec) 
select_counter is 1022
Heartbeat CPU 0 instructions: 15000000 cycles: 18508087 heartbeat IPC: 0.466198 cumulative IPC: 0.353105 (Simulation time: 0 hr 5 min 35 sec) 
select_counter is 1023
Heartbeat CPU 0 instructions: 16000000 cycles: 22813329 heartbeat IPC: 0.232275 cumulative IPC: 0.324933 (Simulation time: 0 hr 6 min 9 sec) 
select_counter is 1023
Heartbeat CPU 0 instructions: 17000001 cycles: 27335639 heartbeat IPC: 0.221126 cumulative IPC: 0.304511 (Simulation time: 0 hr 6 min 46 sec) 
select_counter is 1023
Heartbeat CPU 0 instructions: 18000000 cycles: 34643244 heartbeat IPC: 0.136844 cumulative IPC: 0.264068 (Simulation time: 0 hr 7 min 22 sec) 
select_counter is 1023
Heartbeat CPU 0 instructions: 19000000 cycles: 40020589 heartbeat IPC: 0.185965 cumulative IPC: 0.252295 (Simulation time: 0 hr 8 min 3 sec) 
select_counter is 1023
Heartbeat CPU 0 instructions: 20000000 cycles: 42529484 heartbeat IPC: 0.398582 cumulative IPC: 0.261907 (Simulation time: 0 hr 8 min 37 sec) 
select_counter is 1023
Heartbeat CPU 0 instructions: 21000001 cycles: 47876938 heartbeat IPC: 0.187005 cumulative IPC: 0.252705 (Simulation time: 0 hr 9 min 12 sec) 
select_counter is 1023
Heartbeat CPU 0 instructions: 22000001 cycles: 53024924 heartbeat IPC: 0.194251 cumulative IPC: 0.246523 (Simulation time: 0 hr 9 min 45 sec) 
select_counter is 1023
Heartbeat CPU 0 instructions: 23000002 cycles: 57505388 heartbeat IPC: 0.223191 cumulative IPC: 0.244557 (Simulation time: 0 hr 10 min 18 sec) 
select_counter is 1023
Heartbeat CPU 0 instructions: 24000000 cycles: 62529451 heartbeat IPC: 0.199042 cumulative IPC: 0.240626 (Simulation time: 0 hr 10 min 52 sec) 
select_counter is 1023
Heartbeat CPU 0 instructions: 25000002 cycles: 66951484 heartbeat IPC: 0.226141 cumulative IPC: 0.239603 (Simulation time: 0 hr 11 min 21 sec) 
select_counter is 1023
Heartbeat CPU 0 instructions: 26000002 cycles: 70839168 heartbeat IPC: 0.257223 cumulative IPC: 0.240633 (Simulation time: 0 hr 11 min 52 sec) 
select_counter is 1023
Heartbeat CPU 0 instructions: 27000000 cycles: 74017466 heartbeat IPC: 0.314633 cumulative IPC: 0.244009 (Simulation time: 0 hr 12 min 18 sec) 
select_counter is 1023
Heartbeat CPU 0 instructions: 28000000 cycles: 77957170 heartbeat IPC: 0.253826 cumulative IPC: 0.244535 (Simulation time: 0 hr 12 min 51 sec) 
select_counter is 1022
Heartbeat CPU 0 instructions: 29000002 cycles: 80242363 heartbeat IPC: 0.437601 cumulative IPC: 0.250348 (Simulation time: 0 hr 13 min 19 sec) 
select_counter is 1023
Heartbeat CPU 0 instructions: 30000003 cycles: 81732051 heartbeat IPC: 0.671282 cumulative IPC: 0.258451 (Simulation time: 0 hr 13 min 44 sec) 
select_counter is 1022
Heartbeat CPU 0 instructions: 31000003 cycles: 84389689 heartbeat IPC: 0.376274 cumulative IPC: 0.262363 (Simulation time: 0 hr 14 min 13 sec) 
select_counter is 1023
Heartbeat CPU 0 instructions: 32000000 cycles: 88400751 heartbeat IPC: 0.24931 cumulative IPC: 0.26174 (Simulation time: 0 hr 14 min 45 sec) 
select_counter is 1023
Heartbeat CPU 0 instructions: 33000000 cycles: 91965844 heartbeat IPC: 0.280498 cumulative IPC: 0.262504 (Simulation time: 0 hr 15 min 16 sec) 
select_counter is 1022
Heartbeat CPU 0 instructions: 34000002 cycles: 94943656 heartbeat IPC: 0.335818 cumulative IPC: 0.264913 (Simulation time: 0 hr 15 min 44 sec) 
select_counter is 1022
Heartbeat CPU 0 instructions: 35000001 cycles: 98470468 heartbeat IPC: 0.283542 cumulative IPC: 0.265611 (Simulation time: 0 hr 16 min 11 sec) 
select_counter is 1023
Heartbeat CPU 0 instructions: 36000000 cycles: 101658628 heartbeat IPC: 0.31366 cumulative IPC: 0.267186 (Simulation time: 0 hr 16 min 41 sec) 
select_counter is 1023
Heartbeat CPU 0 instructions: 37000000 cycles: 106179606 heartbeat IPC: 0.221191 cumulative IPC: 0.265144 (Simulation time: 0 hr 17 min 18 sec) 
select_counter is 1022
Heartbeat CPU 0 instructions: 38000002 cycles: 107751423 heartbeat IPC: 0.636208 cumulative IPC: 0.270784 (Simulation time: 0 hr 17 min 37 sec) 
select_counter is 1023
Heartbeat CPU 0 instructions: 39000003 cycles: 110244470 heartbeat IPC: 0.401116 cumulative IPC: 0.273852 (Simulation time: 0 hr 18 min 2 sec) 
select_counter is 1023
Heartbeat CPU 0 instructions: 40000000 cycles: 114604197 heartbeat IPC: 0.229371 cumulative IPC: 0.272094 (Simulation time: 0 hr 18 min 39 sec) 
select_counter is 1023
Heartbeat CPU 0 instructions: 41000000 cycles: 119064496 heartbeat IPC: 0.2242 cumulative IPC: 0.270231 (Simulation time: 0 hr 19 min 15 sec) 
select_counter is 1022
Heartbeat CPU 0 instructions: 42000001 cycles: 121381867 heartbeat IPC: 0.431524 cumulative IPC: 0.273425 (Simulation time: 0 hr 19 min 44 sec) 
select_counter is 1020
Heartbeat CPU 0 instructions: 43000001 cycles: 126074992 heartbeat IPC: 0.213078 cumulative IPC: 0.271098 (Simulation time: 0 hr 20 min 22 sec) 
select_counter is 1023
Heartbeat CPU 0 instructions: 44000000 cycles: 128875692 heartbeat IPC: 0.357053 cumulative IPC: 0.273032 (Simulation time: 0 hr 20 min 45 sec) 
select_counter is 1022
Heartbeat CPU 0 instructions: 45000001 cycles: 130276227 heartbeat IPC: 0.714014 cumulative IPC: 0.277936 (Simulation time: 0 hr 21 min 5 sec) 
select_counter is 1023
Heartbeat CPU 0 instructions: 46000002 cycles: 133981413 heartbeat IPC: 0.269892 cumulative IPC: 0.277706 (Simulation time: 0 hr 21 min 34 sec) 
select_counter is 1022
Heartbeat CPU 0 instructions: 47000000 cycles: 138469140 heartbeat IPC: 0.22283 cumulative IPC: 0.27587 (Simulation time: 0 hr 22 min 5 sec) 
select_counter is 1023
Heartbeat CPU 0 instructions: 48000000 cycles: 141865619 heartbeat IPC: 0.294423 cumulative IPC: 0.276328 (Simulation time: 0 hr 22 min 39 sec) 
select_counter is 1023
Heartbeat CPU 0 instructions: 49000001 cycles: 144502812 heartbeat IPC: 0.379191 cumulative IPC: 0.278264 (Simulation time: 0 hr 23 min 5 sec) 
select_counter is 1021
Heartbeat CPU 0 instructions: 50000002 cycles: 148881139 heartbeat IPC: 0.228398 cumulative IPC: 0.276753 (Simulation time: 0 hr 23 min 39 sec) 
select_counter is 1023
Heartbeat CPU 0 instructions: 51000003 cycles: 151879549 heartbeat IPC: 0.33351 cumulative IPC: 0.277907 (Simulation time: 0 hr 24 min 2 sec) 
select_counter is 1023
Heartbeat CPU 0 instructions: 52000000 cycles: 153293194 heartbeat IPC: 0.707389 cumulative IPC: 0.281983 (Simulation time: 0 hr 24 min 20 sec) 
select_counter is 1023
Heartbeat CPU 0 instructions: 53000003 cycles: 156872632 heartbeat IPC: 0.279374 cumulative IPC: 0.281922 (Simulation time: 0 hr 24 min 48 sec) 
select_counter is 1023
Heartbeat CPU 0 instructions: 54000000 cycles: 161382380 heartbeat IPC: 0.221741 cumulative IPC: 0.280193 (Simulation time: 0 hr 25 min 20 sec) 
select_counter is 1023
Heartbeat CPU 0 instructions: 55000001 cycles: 165222787 heartbeat IPC: 0.260389 cumulative IPC: 0.279721 (Simulation time: 0 hr 25 min 51 sec) 
select_counter is 1022
Heartbeat CPU 0 instructions: 56000000 cycles: 167625697 heartbeat IPC: 0.416162 cumulative IPC: 0.281729 (Simulation time: 0 hr 26 min 17 sec) 
select_counter is 1023
Heartbeat CPU 0 instructions: 57000000 cycles: 172145922 heartbeat IPC: 0.221228 cumulative IPC: 0.280099 (Simulation time: 0 hr 26 min 50 sec) 
select_counter is 1023
Heartbeat CPU 0 instructions: 58000000 cycles: 174930945 heartbeat IPC: 0.359063 cumulative IPC: 0.281388 (Simulation time: 0 hr 27 min 15 sec) 
select_counter is 1023
Heartbeat CPU 0 instructions: 59000001 cycles: 176322623 heartbeat IPC: 0.718558 cumulative IPC: 0.284926 (Simulation time: 0 hr 27 min 34 sec) 
select_counter is 1023
Heartbeat CPU 0 instructions: 60000000 cycles: 180019997 heartbeat IPC: 0.270462 cumulative IPC: 0.284621 (Simulation time: 0 hr 28 min 0 sec) 
select_counter is 1021
Heartbeat CPU 0 instructions: 61000003 cycles: 184468491 heartbeat IPC: 0.224796 cumulative IPC: 0.283144 (Simulation time: 0 hr 28 min 34 sec) 
select_counter is 1023
Heartbeat CPU 0 instructions: 62000002 cycles: 188395205 heartbeat IPC: 0.254666 cumulative IPC: 0.282536 (Simulation time: 0 hr 29 min 5 sec) 
select_counter is 1023
Heartbeat CPU 0 instructions: 63000001 cycles: 190532591 heartbeat IPC: 0.467861 cumulative IPC: 0.284664 (Simulation time: 0 hr 29 min 33 sec) 
select_counter is 1019
Heartbeat CPU 0 instructions: 64000000 cycles: 195517367 heartbeat IPC: 0.200611 cumulative IPC: 0.282472 (Simulation time: 0 hr 30 min 9 sec) 
select_counter is 1023
Heartbeat CPU 0 instructions: 65000001 cycles: 197837605 heartbeat IPC: 0.430991 cumulative IPC: 0.284253 (Simulation time: 0 hr 30 min 29 sec) 
select_counter is 1021
Heartbeat CPU 0 instructions: 66000000 cycles: 199208433 heartbeat IPC: 0.729485 cumulative IPC: 0.287385 (Simulation time: 0 hr 30 min 48 sec) 
select_counter is 1023
Heartbeat CPU 0 instructions: 67000002 cycles: 203047688 heartbeat IPC: 0.260468 cumulative IPC: 0.286865 (Simulation time: 0 hr 31 min 17 sec) 
select_counter is 1023
Heartbeat CPU 0 instructions: 68000000 cycles: 207552227 heartbeat IPC: 0.221998 cumulative IPC: 0.285427 (Simulation time: 0 hr 31 min 50 sec) 
select_counter is 1023
Heartbeat CPU 0 instructions: 69000001 cycles: 210824737 heartbeat IPC: 0.305576 cumulative IPC: 0.285746 (Simulation time: 0 hr 32 min 22 sec) 
select_counter is 1023
Heartbeat CPU 0 instructions: 70000000 cycles: 213256524 heartbeat IPC: 0.41122 cumulative IPC: 0.287207 (Simulation time: 0 hr 32 min 51 sec) 
select_counter is 1023
Heartbeat CPU 0 instructions: 71000001 cycles: 217843706 heartbeat IPC: 0.217999 cumulative IPC: 0.28572 (Simulation time: 0 hr 33 min 25 sec) 
select_counter is 1023
Heartbeat CPU 0 instructions: 72000000 cycles: 220622727 heartbeat IPC: 0.359839 cumulative IPC: 0.286672 (Simulation time: 0 hr 33 min 47 sec) 
select_counter is 1023
Heartbeat CPU 0 instructions: 73000000 cycles: 222019868 heartbeat IPC: 0.715747 cumulative IPC: 0.289426 (Simulation time: 0 hr 34 min 5 sec) 
select_counter is 1023
Heartbeat CPU 0 instructions: 74000001 cycles: 225704917 heartbeat IPC: 0.271367 cumulative IPC: 0.289126 (Simulation time: 0 hr 34 min 33 sec) 
select_counter is 1023
Heartbeat CPU 0 instructions: 75000000 cycles: 230186456 heartbeat IPC: 0.223137 cumulative IPC: 0.287816 (Simulation time: 0 hr 35 min 4 sec) 
select_counter is 1023
Heartbeat CPU 0 instructions: 76000000 cycles: 234108709 heartbeat IPC: 0.254956 cumulative IPC: 0.287255 (Simulation time: 0 hr 35 min 38 sec) 
select_counter is 1023
Heartbeat CPU 0 instructions: 77000000 cycles: 236206651 heartbeat IPC: 0.476658 cumulative IPC: 0.288969 (Simulation time: 0 hr 36 min 0 sec) 
select_counter is 1012
Heartbeat CPU 0 instructions: 78000000 cycles: 241239546 heartbeat IPC: 0.198693 cumulative IPC: 0.287051 (Simulation time: 0 hr 36 min 31 sec) 
select_counter is 1023
Heartbeat CPU 0 instructions: 79000002 cycles: 243442027 heartbeat IPC: 0.454034 cumulative IPC: 0.288589 (Simulation time: 0 hr 36 min 48 sec) 
select_counter is 1022
Heartbeat CPU 0 instructions: 80000000 cycles: 244814176 heartbeat IPC: 0.728782 cumulative IPC: 0.291101 (Simulation time: 0 hr 37 min 7 sec) 
select_counter is 1023
Heartbeat CPU 0 instructions: 81000002 cycles: 248688898 heartbeat IPC: 0.258084 cumulative IPC: 0.290578 (Simulation time: 0 hr 37 min 46 sec) 
select_counter is 1022
Heartbeat CPU 0 instructions: 82000000 cycles: 253206208 heartbeat IPC: 0.22137 cumulative IPC: 0.289321 (Simulation time: 0 hr 38 min 30 sec) 
select_counter is 1023
Heartbeat CPU 0 instructions: 83000000 cycles: 257099707 heartbeat IPC: 0.256838 cumulative IPC: 0.288821 (Simulation time: 0 hr 38 min 56 sec) 
select_counter is 1023
Heartbeat CPU 0 instructions: 84000000 cycles: 259305477 heartbeat IPC: 0.453356 cumulative IPC: 0.290244 (Simulation time: 0 hr 39 min 19 sec) 
select_counter is 1023
Heartbeat CPU 0 instructions: 85000000 cycles: 264546213 heartbeat IPC: 0.190813 cumulative IPC: 0.288242 (Simulation time: 0 hr 39 min 49 sec) 
select_counter is 1023
Heartbeat CPU 0 instructions: 86000002 cycles: 266281324 heartbeat IPC: 0.576333 cumulative IPC: 0.29015 (Simulation time: 0 hr 40 min 5 sec) 
select_counter is 1023
Heartbeat CPU 0 instructions: 87000002 cycles: 267651339 heartbeat IPC: 0.729919 cumulative IPC: 0.292438 (Simulation time: 0 hr 40 min 19 sec) 
select_counter is 1023
Heartbeat CPU 0 instructions: 88000000 cycles: 271617093 heartbeat IPC: 0.252158 cumulative IPC: 0.291841 (Simulation time: 0 hr 40 min 42 sec) 
select_counter is 1022
Heartbeat CPU 0 instructions: 89000003 cycles: 276397972 heartbeat IPC: 0.209167 cumulative IPC: 0.290388 (Simulation time: 0 hr 41 min 11 sec) 
select_counter is 1023
Heartbeat CPU 0 instructions: 90000001 cycles: 280152286 heartbeat IPC: 0.26636 cumulative IPC: 0.290061 (Simulation time: 0 hr 41 min 34 sec) 
select_counter is 1023
Heartbeat CPU 0 instructions: 91000003 cycles: 282630815 heartbeat IPC: 0.403466 cumulative IPC: 0.291071 (Simulation time: 0 hr 41 min 57 sec) 
select_counter is 1023
Heartbeat CPU 0 instructions: 92000000 cycles: 287533390 heartbeat IPC: 0.203974 cumulative IPC: 0.289563 (Simulation time: 0 hr 42 min 23 sec) 
select_counter is 1023
Heartbeat CPU 0 instructions: 93000000 cycles: 289069468 heartbeat IPC: 0.651009 cumulative IPC: 0.291513 (Simulation time: 0 hr 42 min 38 sec) 
select_counter is 1023
Heartbeat CPU 0 instructions: 94000000 cycles: 290684907 heartbeat IPC: 0.619027 cumulative IPC: 0.293361 (Simulation time: 0 hr 42 min 53 sec) 
select_counter is 1023
Heartbeat CPU 0 instructions: 95000001 cycles: 294703348 heartbeat IPC: 0.248853 cumulative IPC: 0.292745 (Simulation time: 0 hr 43 min 16 sec) 
select_counter is 1023
Heartbeat CPU 0 instructions: 96000000 cycles: 298664623 heartbeat IPC: 0.252444 cumulative IPC: 0.292202 (Simulation time: 0 hr 43 min 41 sec) 
select_counter is 1023
Heartbeat CPU 0 instructions: 97000003 cycles: 302321213 heartbeat IPC: 0.27348 cumulative IPC: 0.291973 (Simulation time: 0 hr 44 min 0 sec) 
select_counter is 1023
Heartbeat CPU 0 instructions: 98000002 cycles: 305344992 heartbeat IPC: 0.330712 cumulative IPC: 0.292362 (Simulation time: 0 hr 44 min 20 sec) 
select_counter is 1022
Heartbeat CPU 0 instructions: 99000000 cycles: 309610420 heartbeat IPC: 0.234443 cumulative IPC: 0.291552 (Simulation time: 0 hr 44 min 40 sec) 
select_counter is 1023
Heartbeat CPU 0 instructions: 100000000 cycles: 311104134 heartbeat IPC: 0.669472 cumulative IPC: 0.293393 (Simulation time: 0 hr 44 min 52 sec) 
select_counter is 1023
Heartbeat CPU 0 instructions: 101000003 cycles: 313497338 heartbeat IPC: 0.417851 cumulative IPC: 0.294356 (Simulation time: 0 hr 45 min 7 sec) 
select_counter is 1023
Heartbeat CPU 0 instructions: 102000001 cycles: 317611848 heartbeat IPC: 0.243042 cumulative IPC: 0.293682 (Simulation time: 0 hr 45 min 26 sec) 
select_counter is 1022
Heartbeat CPU 0 instructions: 103000000 cycles: 320613268 heartbeat IPC: 0.333175 cumulative IPC: 0.294057 (Simulation time: 0 hr 45 min 45 sec) 
select_counter is 1023
Heartbeat CPU 0 instructions: 104000000 cycles: 330693727 heartbeat IPC: 0.0992018 cumulative IPC: 0.288038 (Simulation time: 0 hr 46 min 8 sec) 
select_counter is 1022
Heartbeat CPU 0 instructions: 105000000 cycles: 333054984 heartbeat IPC: 0.423503 cumulative IPC: 0.289011 (Simulation time: 0 hr 46 min 27 sec) 
select_counter is 1023
Heartbeat CPU 0 instructions: 106000002 cycles: 337757772 heartbeat IPC: 0.21264 cumulative IPC: 0.287934 (Simulation time: 0 hr 46 min 47 sec) 
select_counter is 1023
Heartbeat CPU 0 instructions: 107000003 cycles: 343021638 heartbeat IPC: 0.189975 cumulative IPC: 0.286411 (Simulation time: 0 hr 47 min 5 sec) 
select_counter is 1023
Heartbeat CPU 0 instructions: 108000000 cycles: 347689023 heartbeat IPC: 0.214252 cumulative IPC: 0.28543 (Simulation time: 0 hr 47 min 21 sec) 
select_counter is 1023
Heartbeat CPU 0 instructions: 109000000 cycles: 352275237 heartbeat IPC: 0.218045 cumulative IPC: 0.284542 (Simulation time: 0 hr 47 min 37 sec) 
select_counter is 1023
Heartbeat CPU 0 instructions: 110000003 cycles: 356708592 heartbeat IPC: 0.225563 cumulative IPC: 0.2838 (Simulation time: 0 hr 47 min 48 sec) 
select_counter is 1023
Finished CPU 0 instructions: 100000003 cycles: 352360582 cummulative IPC: 0.2838 (Simulation time: 0 hr 47 min 48 sec) 

ChampSim completed all CPUs

Region of Interest Statistics

CPU 0 cummulative IPC: 0.2838 instructions: 100000003 cycles: 352360582
LLC TOTAL     ACCESS:    7007053  HIT:    3735151  MISS:    3271902
LLC LOAD      ACCESS:    4052522  HIT:    1717170  MISS:    2335352
LLC RFO       ACCESS:     856731  HIT:     334174  MISS:     522557
LLC PREFETCH  ACCESS:          0  HIT:          0  MISS:          0
LLC WRITEBACK ACCESS:    2097800  HIT:    1683807  MISS:     413993
Insertion Distribution: 
	LOAD 15179 0 0 0 0 0 9340 61619 
	RFO 4253 0 0 0 0 0 3044 10810 
	PREF 0 0 0 0 0 0 0 0 
	WRITEBACK 0 0 0 0 0 0 0 20545 
Total Prefetch Downgrades: 0
