
*** ChampSim Multicore Out-of-Order Simulator ***

Warmup Instructions: 10000000
Simulation Instructions: 100000000
Configuration: 1
Number of CPUs: 1
LLC sets: 2048
LLC ways: 16
Off-chip DRAM Channels: 1 Width: 64-bit Data Rate: 1600 MT/s

CPU 0 runs /datasets/cs240c-wi22-a00-public/data/Assignment2-gz/astar_163B.trace.gz
Heartbeat CPU 0 instructions: 1000002 cycles: 530774 heartbeat IPC: 1.88404 cumulative IPC: 1.88404 (Simulation time: 0 hr 0 min 23 sec) 
select_counter is 575
Heartbeat CPU 0 instructions: 2000003 cycles: 1060018 heartbeat IPC: 1.88949 cumulative IPC: 1.88676 (Simulation time: 0 hr 0 min 45 sec) 
select_counter is 633
Heartbeat CPU 0 instructions: 3000002 cycles: 1589730 heartbeat IPC: 1.88782 cumulative IPC: 1.88711 (Simulation time: 0 hr 1 min 6 sec) 
select_counter is 693
Heartbeat CPU 0 instructions: 4000000 cycles: 2119462 heartbeat IPC: 1.88774 cumulative IPC: 1.88727 (Simulation time: 0 hr 1 min 29 sec) 
select_counter is 752
Heartbeat CPU 0 instructions: 5000000 cycles: 2651055 heartbeat IPC: 1.88114 cumulative IPC: 1.88604 (Simulation time: 0 hr 1 min 50 sec) 
select_counter is 815
Heartbeat CPU 0 instructions: 6000002 cycles: 3179145 heartbeat IPC: 1.89362 cumulative IPC: 1.8873 (Simulation time: 0 hr 2 min 13 sec) 
select_counter is 867
Heartbeat CPU 0 instructions: 7000003 cycles: 3708352 heartbeat IPC: 1.88962 cumulative IPC: 1.88763 (Simulation time: 0 hr 2 min 39 sec) 
select_counter is 896
Heartbeat CPU 0 instructions: 8000000 cycles: 4237378 heartbeat IPC: 1.89026 cumulative IPC: 1.88796 (Simulation time: 0 hr 3 min 5 sec) 
select_counter is 934
Heartbeat CPU 0 instructions: 9000000 cycles: 4768084 heartbeat IPC: 1.88428 cumulative IPC: 1.88755 (Simulation time: 0 hr 3 min 27 sec) 
select_counter is 981
Heartbeat CPU 0 instructions: 10000000 cycles: 5297835 heartbeat IPC: 1.88768 cumulative IPC: 1.88756 (Simulation time: 0 hr 3 min 49 sec) 
select_counter is 1022

Warmup complete CPU 0 instructions: 10000004 cycles: 5297836 (Simulation time: 0 hr 3 min 49 sec) 

Heartbeat CPU 0 instructions: 11000003 cycles: 7550780 heartbeat IPC: 0.443865 cumulative IPC: 0.443863 (Simulation time: 0 hr 4 min 15 sec) 
select_counter is 1022
Heartbeat CPU 0 instructions: 12000000 cycles: 9827325 heartbeat IPC: 0.439261 cumulative IPC: 0.44155 (Simulation time: 0 hr 4 min 41 sec) 
select_counter is 1023
Heartbeat CPU 0 instructions: 13000000 cycles: 12117848 heartbeat IPC: 0.436582 cumulative IPC: 0.439881 (Simulation time: 0 hr 5 min 6 sec) 
select_counter is 1023
Heartbeat CPU 0 instructions: 14000000 cycles: 14420788 heartbeat IPC: 0.434228 cumulative IPC: 0.438454 (Simulation time: 0 hr 5 min 31 sec) 
select_counter is 1023
Heartbeat CPU 0 instructions: 15000000 cycles: 16781232 heartbeat IPC: 0.423649 cumulative IPC: 0.435411 (Simulation time: 0 hr 5 min 55 sec) 
select_counter is 1023
Heartbeat CPU 0 instructions: 16000000 cycles: 19200764 heartbeat IPC: 0.413303 cumulative IPC: 0.431563 (Simulation time: 0 hr 6 min 18 sec) 
select_counter is 1023
Heartbeat CPU 0 instructions: 17000003 cycles: 21569815 heartbeat IPC: 0.422111 cumulative IPC: 0.430187 (Simulation time: 0 hr 6 min 43 sec) 
select_counter is 1023
Heartbeat CPU 0 instructions: 18000002 cycles: 23923728 heartbeat IPC: 0.424824 cumulative IPC: 0.42951 (Simulation time: 0 hr 7 min 8 sec) 
select_counter is 1022
Heartbeat CPU 0 instructions: 19000000 cycles: 26269899 heartbeat IPC: 0.426226 cumulative IPC: 0.429142 (Simulation time: 0 hr 7 min 33 sec) 
select_counter is 1023
Heartbeat CPU 0 instructions: 20000000 cycles: 28622647 heartbeat IPC: 0.425035 cumulative IPC: 0.428728 (Simulation time: 0 hr 7 min 58 sec) 
select_counter is 1023
Heartbeat CPU 0 instructions: 21000003 cycles: 31024812 heartbeat IPC: 0.416292 cumulative IPC: 0.427567 (Simulation time: 0 hr 8 min 24 sec) 
select_counter is 1023
Heartbeat CPU 0 instructions: 22000002 cycles: 33546066 heartbeat IPC: 0.396628 cumulative IPC: 0.424805 (Simulation time: 0 hr 8 min 50 sec) 
select_counter is 1022
Heartbeat CPU 0 instructions: 23000001 cycles: 36031375 heartbeat IPC: 0.402364 cumulative IPC: 0.422991 (Simulation time: 0 hr 9 min 18 sec) 
select_counter is 1023
Heartbeat CPU 0 instructions: 24000000 cycles: 38520841 heartbeat IPC: 0.401692 cumulative IPC: 0.421395 (Simulation time: 0 hr 9 min 43 sec) 
select_counter is 1022
Heartbeat CPU 0 instructions: 25000003 cycles: 40738741 heartbeat IPC: 0.450878 cumulative IPC: 0.42324 (Simulation time: 0 hr 10 min 7 sec) 
select_counter is 1023
Heartbeat CPU 0 instructions: 26000003 cycles: 42494474 heartbeat IPC: 0.569563 cumulative IPC: 0.430146 (Simulation time: 0 hr 10 min 32 sec) 
select_counter is 1022
Heartbeat CPU 0 instructions: 27000000 cycles: 44327590 heartbeat IPC: 0.545518 cumulative IPC: 0.435565 (Simulation time: 0 hr 11 min 1 sec) 
select_counter is 1023
Heartbeat CPU 0 instructions: 28000000 cycles: 46279858 heartbeat IPC: 0.512225 cumulative IPC: 0.439217 (Simulation time: 0 hr 11 min 30 sec) 
select_counter is 1022
Heartbeat CPU 0 instructions: 29000000 cycles: 48222188 heartbeat IPC: 0.514846 cumulative IPC: 0.442639 (Simulation time: 0 hr 11 min 57 sec) 
select_counter is 1023
Heartbeat CPU 0 instructions: 30000000 cycles: 50148056 heartbeat IPC: 0.519246 cumulative IPC: 0.445929 (Simulation time: 0 hr 12 min 25 sec) 
select_counter is 1023
Heartbeat CPU 0 instructions: 31000001 cycles: 52016707 heartbeat IPC: 0.535146 cumulative IPC: 0.449497 (Simulation time: 0 hr 12 min 51 sec) 
select_counter is 1023
Heartbeat CPU 0 instructions: 32000000 cycles: 53928595 heartbeat IPC: 0.523043 cumulative IPC: 0.452388 (Simulation time: 0 hr 13 min 19 sec) 
select_counter is 1022
Heartbeat CPU 0 instructions: 33000000 cycles: 55820355 heartbeat IPC: 0.528608 cumulative IPC: 0.455242 (Simulation time: 0 hr 13 min 46 sec) 
select_counter is 1023
Heartbeat CPU 0 instructions: 34000001 cycles: 57680937 heartbeat IPC: 0.537467 cumulative IPC: 0.458163 (Simulation time: 0 hr 14 min 17 sec) 
select_counter is 1023
Heartbeat CPU 0 instructions: 35000001 cycles: 59544316 heartbeat IPC: 0.536659 cumulative IPC: 0.460859 (Simulation time: 0 hr 14 min 45 sec) 
select_counter is 1023
Heartbeat CPU 0 instructions: 36000000 cycles: 61412380 heartbeat IPC: 0.535313 cumulative IPC: 0.463338 (Simulation time: 0 hr 15 min 12 sec) 
select_counter is 1023
Heartbeat CPU 0 instructions: 37000000 cycles: 63329279 heartbeat IPC: 0.521676 cumulative IPC: 0.465265 (Simulation time: 0 hr 15 min 42 sec) 
select_counter is 1023
Heartbeat CPU 0 instructions: 38000000 cycles: 65196513 heartbeat IPC: 0.535551 cumulative IPC: 0.467456 (Simulation time: 0 hr 16 min 14 sec) 
select_counter is 1023
Heartbeat CPU 0 instructions: 39000001 cycles: 67024056 heartbeat IPC: 0.547183 cumulative IPC: 0.469817 (Simulation time: 0 hr 16 min 41 sec) 
select_counter is 1023
Heartbeat CPU 0 instructions: 40000000 cycles: 68878209 heartbeat IPC: 0.539329 cumulative IPC: 0.471844 (Simulation time: 0 hr 17 min 8 sec) 
select_counter is 1023
Heartbeat CPU 0 instructions: 41000001 cycles: 70776921 heartbeat IPC: 0.526673 cumulative IPC: 0.473434 (Simulation time: 0 hr 17 min 35 sec) 
select_counter is 1023
Heartbeat CPU 0 instructions: 42000001 cycles: 72725617 heartbeat IPC: 0.513164 cumulative IPC: 0.474582 (Simulation time: 0 hr 17 min 59 sec) 
select_counter is 1023
Heartbeat CPU 0 instructions: 43000001 cycles: 74708829 heartbeat IPC: 0.504233 cumulative IPC: 0.475429 (Simulation time: 0 hr 18 min 23 sec) 
select_counter is 1023
Heartbeat CPU 0 instructions: 44000000 cycles: 76712447 heartbeat IPC: 0.499097 cumulative IPC: 0.476093 (Simulation time: 0 hr 18 min 48 sec) 
select_counter is 1023
Heartbeat CPU 0 instructions: 45000000 cycles: 78715066 heartbeat IPC: 0.499346 cumulative IPC: 0.476727 (Simulation time: 0 hr 19 min 11 sec) 
select_counter is 1023
Heartbeat CPU 0 instructions: 46000002 cycles: 80607322 heartbeat IPC: 0.528471 cumulative IPC: 0.478027 (Simulation time: 0 hr 19 min 41 sec) 
select_counter is 1023
Heartbeat CPU 0 instructions: 47000000 cycles: 82500800 heartbeat IPC: 0.528128 cumulative IPC: 0.479256 (Simulation time: 0 hr 20 min 8 sec) 
select_counter is 1023
Heartbeat CPU 0 instructions: 48000000 cycles: 84414965 heartbeat IPC: 0.522421 cumulative IPC: 0.4803 (Simulation time: 0 hr 20 min 35 sec) 
select_counter is 1023
Heartbeat CPU 0 instructions: 49000003 cycles: 86364284 heartbeat IPC: 0.513001 cumulative IPC: 0.481087 (Simulation time: 0 hr 21 min 3 sec) 
select_counter is 1023
Heartbeat CPU 0 instructions: 50000001 cycles: 88284958 heartbeat IPC: 0.520649 cumulative IPC: 0.482002 (Simulation time: 0 hr 21 min 31 sec) 
select_counter is 1023
Heartbeat CPU 0 instructions: 51000003 cycles: 90225005 heartbeat IPC: 0.515452 cumulative IPC: 0.482767 (Simulation time: 0 hr 21 min 59 sec) 
select_counter is 1023
Heartbeat CPU 0 instructions: 52000000 cycles: 92236394 heartbeat IPC: 0.497167 cumulative IPC: 0.4831 (Simulation time: 0 hr 22 min 25 sec) 
select_counter is 1023
Heartbeat CPU 0 instructions: 53000001 cycles: 94198592 heartbeat IPC: 0.509633 cumulative IPC: 0.483685 (Simulation time: 0 hr 22 min 50 sec) 
select_counter is 1023
Heartbeat CPU 0 instructions: 54000003 cycles: 96093961 heartbeat IPC: 0.527603 cumulative IPC: 0.484602 (Simulation time: 0 hr 23 min 18 sec) 
select_counter is 1023
Heartbeat CPU 0 instructions: 55000000 cycles: 97964063 heartbeat IPC: 0.534729 cumulative IPC: 0.485614 (Simulation time: 0 hr 23 min 49 sec) 
select_counter is 1023
Heartbeat CPU 0 instructions: 56000000 cycles: 99853519 heartbeat IPC: 0.529253 cumulative IPC: 0.486486 (Simulation time: 0 hr 24 min 16 sec) 
select_counter is 1023
Heartbeat CPU 0 instructions: 57000000 cycles: 101714482 heartbeat IPC: 0.537356 cumulative IPC: 0.487468 (Simulation time: 0 hr 24 min 44 sec) 
select_counter is 1023
Heartbeat CPU 0 instructions: 58000001 cycles: 103638082 heartbeat IPC: 0.519859 cumulative IPC: 0.488101 (Simulation time: 0 hr 25 min 14 sec) 
select_counter is 1023
Heartbeat CPU 0 instructions: 59000003 cycles: 105535621 heartbeat IPC: 0.526999 cumulative IPC: 0.488838 (Simulation time: 0 hr 25 min 42 sec) 
select_counter is 1023
Heartbeat CPU 0 instructions: 60000000 cycles: 107420274 heartbeat IPC: 0.5306 cumulative IPC: 0.489608 (Simulation time: 0 hr 26 min 9 sec) 
select_counter is 1023
Heartbeat CPU 0 instructions: 61000002 cycles: 109309687 heartbeat IPC: 0.529266 cumulative IPC: 0.490329 (Simulation time: 0 hr 26 min 35 sec) 
select_counter is 1022
Heartbeat CPU 0 instructions: 62000001 cycles: 111204184 heartbeat IPC: 0.527844 cumulative IPC: 0.491 (Simulation time: 0 hr 27 min 1 sec) 
select_counter is 1023
Heartbeat CPU 0 instructions: 63000001 cycles: 113251951 heartbeat IPC: 0.488337 cumulative IPC: 0.490949 (Simulation time: 0 hr 27 min 27 sec) 
select_counter is 1023
Heartbeat CPU 0 instructions: 64000000 cycles: 115213378 heartbeat IPC: 0.509832 cumulative IPC: 0.491286 (Simulation time: 0 hr 27 min 52 sec) 
select_counter is 1023
Heartbeat CPU 0 instructions: 65000000 cycles: 117157659 heartbeat IPC: 0.514329 cumulative IPC: 0.491687 (Simulation time: 0 hr 28 min 20 sec) 
select_counter is 1023
Heartbeat CPU 0 instructions: 66000000 cycles: 119096413 heartbeat IPC: 0.515795 cumulative IPC: 0.492097 (Simulation time: 0 hr 28 min 47 sec) 
select_counter is 1023
Heartbeat CPU 0 instructions: 67000003 cycles: 121032653 heartbeat IPC: 0.516466 cumulative IPC: 0.492505 (Simulation time: 0 hr 29 min 22 sec) 
select_counter is 1023
Heartbeat CPU 0 instructions: 68000000 cycles: 122966550 heartbeat IPC: 0.517089 cumulative IPC: 0.492909 (Simulation time: 0 hr 29 min 49 sec) 
select_counter is 1023
Heartbeat CPU 0 instructions: 69000000 cycles: 124906958 heartbeat IPC: 0.515356 cumulative IPC: 0.493273 (Simulation time: 0 hr 30 min 18 sec) 
select_counter is 1023
Heartbeat CPU 0 instructions: 70000003 cycles: 126860203 heartbeat IPC: 0.51197 cumulative IPC: 0.493574 (Simulation time: 0 hr 30 min 47 sec) 
select_counter is 1023
Heartbeat CPU 0 instructions: 71000001 cycles: 128818756 heartbeat IPC: 0.51058 cumulative IPC: 0.493843 (Simulation time: 0 hr 31 min 14 sec) 
select_counter is 1023
Heartbeat CPU 0 instructions: 72000000 cycles: 130766476 heartbeat IPC: 0.51342 cumulative IPC: 0.494147 (Simulation time: 0 hr 31 min 38 sec) 
select_counter is 1023
Heartbeat CPU 0 instructions: 73000000 cycles: 132717295 heartbeat IPC: 0.512605 cumulative IPC: 0.49443 (Simulation time: 0 hr 32 min 4 sec) 
select_counter is 1023
Heartbeat CPU 0 instructions: 74000000 cycles: 134653204 heartbeat IPC: 0.516553 cumulative IPC: 0.494761 (Simulation time: 0 hr 32 min 30 sec) 
select_counter is 1023
Heartbeat CPU 0 instructions: 75000001 cycles: 136563774 heartbeat IPC: 0.523405 cumulative IPC: 0.495178 (Simulation time: 0 hr 32 min 56 sec) 
select_counter is 1023
Heartbeat CPU 0 instructions: 76000000 cycles: 138498456 heartbeat IPC: 0.51688 cumulative IPC: 0.495493 (Simulation time: 0 hr 33 min 22 sec) 
select_counter is 1023
Heartbeat CPU 0 instructions: 77000001 cycles: 140541710 heartbeat IPC: 0.489416 cumulative IPC: 0.495401 (Simulation time: 0 hr 33 min 44 sec) 
select_counter is 1023
Heartbeat CPU 0 instructions: 78000000 cycles: 142506073 heartbeat IPC: 0.50907 cumulative IPC: 0.495597 (Simulation time: 0 hr 34 min 7 sec) 
select_counter is 1023
Heartbeat CPU 0 instructions: 79000003 cycles: 144541686 heartbeat IPC: 0.491254 cumulative IPC: 0.495534 (Simulation time: 0 hr 34 min 29 sec) 
select_counter is 1023
Heartbeat CPU 0 instructions: 80000000 cycles: 146633641 heartbeat IPC: 0.47802 cumulative IPC: 0.495274 (Simulation time: 0 hr 34 min 50 sec) 
select_counter is 1023
Heartbeat CPU 0 instructions: 81000003 cycles: 148717725 heartbeat IPC: 0.479829 cumulative IPC: 0.49505 (Simulation time: 0 hr 35 min 11 sec) 
select_counter is 1023
Heartbeat CPU 0 instructions: 82000000 cycles: 150767930 heartbeat IPC: 0.487755 cumulative IPC: 0.494947 (Simulation time: 0 hr 35 min 33 sec) 
select_counter is 1023
Heartbeat CPU 0 instructions: 83000000 cycles: 152760708 heartbeat IPC: 0.501812 cumulative IPC: 0.49504 (Simulation time: 0 hr 35 min 55 sec) 
select_counter is 1023
Heartbeat CPU 0 instructions: 84000000 cycles: 154749090 heartbeat IPC: 0.502921 cumulative IPC: 0.495145 (Simulation time: 0 hr 36 min 17 sec) 
select_counter is 1023
Heartbeat CPU 0 instructions: 85000001 cycles: 156726284 heartbeat IPC: 0.505768 cumulative IPC: 0.495283 (Simulation time: 0 hr 36 min 39 sec) 
select_counter is 1023
Heartbeat CPU 0 instructions: 86000002 cycles: 158697617 heartbeat IPC: 0.507271 cumulative IPC: 0.495437 (Simulation time: 0 hr 37 min 2 sec) 
select_counter is 1022
Heartbeat CPU 0 instructions: 87000000 cycles: 160695680 heartbeat IPC: 0.500484 cumulative IPC: 0.495502 (Simulation time: 0 hr 37 min 23 sec) 
select_counter is 1023
Heartbeat CPU 0 instructions: 88000000 cycles: 162747188 heartbeat IPC: 0.487446 cumulative IPC: 0.495397 (Simulation time: 0 hr 37 min 44 sec) 
select_counter is 1023
Heartbeat CPU 0 instructions: 89000003 cycles: 164733100 heartbeat IPC: 0.503549 cumulative IPC: 0.495499 (Simulation time: 0 hr 38 min 10 sec) 
select_counter is 1022
Heartbeat CPU 0 instructions: 90000000 cycles: 166710792 heartbeat IPC: 0.505638 cumulative IPC: 0.495623 (Simulation time: 0 hr 38 min 39 sec) 
select_counter is 1023
Heartbeat CPU 0 instructions: 91000000 cycles: 168696490 heartbeat IPC: 0.503601 cumulative IPC: 0.49572 (Simulation time: 0 hr 39 min 1 sec) 
select_counter is 1023
Heartbeat CPU 0 instructions: 92000000 cycles: 170697607 heartbeat IPC: 0.499721 cumulative IPC: 0.495768 (Simulation time: 0 hr 39 min 23 sec) 
select_counter is 1023
Heartbeat CPU 0 instructions: 93000003 cycles: 172656854 heartbeat IPC: 0.510402 cumulative IPC: 0.49594 (Simulation time: 0 hr 39 min 46 sec) 
select_counter is 1023
Heartbeat CPU 0 instructions: 94000000 cycles: 174610563 heartbeat IPC: 0.511845 cumulative IPC: 0.496123 (Simulation time: 0 hr 40 min 8 sec) 
select_counter is 1022
Heartbeat CPU 0 instructions: 95000000 cycles: 176590446 heartbeat IPC: 0.50508 cumulative IPC: 0.496227 (Simulation time: 0 hr 40 min 28 sec) 
select_counter is 1023
Heartbeat CPU 0 instructions: 96000000 cycles: 178610025 heartbeat IPC: 0.495153 cumulative IPC: 0.496214 (Simulation time: 0 hr 40 min 48 sec) 
select_counter is 1023
Heartbeat CPU 0 instructions: 97000000 cycles: 180642236 heartbeat IPC: 0.492075 cumulative IPC: 0.496166 (Simulation time: 0 hr 41 min 8 sec) 
select_counter is 1022
Heartbeat CPU 0 instructions: 98000000 cycles: 182645231 heartbeat IPC: 0.499252 cumulative IPC: 0.496201 (Simulation time: 0 hr 41 min 28 sec) 
select_counter is 1023
Heartbeat CPU 0 instructions: 99000000 cycles: 184751353 heartbeat IPC: 0.474806 cumulative IPC: 0.49595 (Simulation time: 0 hr 41 min 47 sec) 
select_counter is 1023
Heartbeat CPU 0 instructions: 100000000 cycles: 186777815 heartbeat IPC: 0.493471 cumulative IPC: 0.495922 (Simulation time: 0 hr 42 min 5 sec) 
select_counter is 1023
Heartbeat CPU 0 instructions: 101000000 cycles: 188841650 heartbeat IPC: 0.484535 cumulative IPC: 0.495794 (Simulation time: 0 hr 42 min 23 sec) 
select_counter is 1021
Heartbeat CPU 0 instructions: 102000003 cycles: 190870930 heartbeat IPC: 0.492787 cumulative IPC: 0.495762 (Simulation time: 0 hr 42 min 41 sec) 
select_counter is 1023
Heartbeat CPU 0 instructions: 103000000 cycles: 192834591 heartbeat IPC: 0.509251 cumulative IPC: 0.495903 (Simulation time: 0 hr 43 min 1 sec) 
select_counter is 1023
Heartbeat CPU 0 instructions: 104000000 cycles: 194794456 heartbeat IPC: 0.510239 cumulative IPC: 0.496051 (Simulation time: 0 hr 43 min 20 sec) 
select_counter is 1022
Heartbeat CPU 0 instructions: 105000002 cycles: 196752803 heartbeat IPC: 0.510636 cumulative IPC: 0.4962 (Simulation time: 0 hr 43 min 39 sec) 
select_counter is 1023
Heartbeat CPU 0 instructions: 106000003 cycles: 198712825 heartbeat IPC: 0.510199 cumulative IPC: 0.496342 (Simulation time: 0 hr 43 min 59 sec) 
select_counter is 1023
Heartbeat CPU 0 instructions: 107000000 cycles: 200683466 heartbeat IPC: 0.507448 cumulative IPC: 0.496454 (Simulation time: 0 hr 44 min 17 sec) 
select_counter is 1023
Heartbeat CPU 0 instructions: 108000000 cycles: 202773189 heartbeat IPC: 0.478532 cumulative IPC: 0.496264 (Simulation time: 0 hr 44 min 34 sec) 
select_counter is 1023
Heartbeat CPU 0 instructions: 109000003 cycles: 204835585 heartbeat IPC: 0.484874 cumulative IPC: 0.496147 (Simulation time: 0 hr 44 min 51 sec) 
select_counter is 1023
Heartbeat CPU 0 instructions: 110000002 cycles: 206853991 heartbeat IPC: 0.49544 cumulative IPC: 0.49614 (Simulation time: 0 hr 45 min 8 sec) 
select_counter is 1022
Finished CPU 0 instructions: 100000000 cycles: 201556159 cummulative IPC: 0.49614 (Simulation time: 0 hr 45 min 8 sec) 

ChampSim completed all CPUs

Region of Interest Statistics

CPU 0 cummulative IPC: 0.49614 instructions: 100000000 cycles: 201556159
LLC TOTAL     ACCESS:     373292  HIT:     265197  MISS:     108095
LLC LOAD      ACCESS:     144399  HIT:      72743  MISS:      71656
LLC RFO       ACCESS:      71290  HIT:      40051  MISS:      31239
LLC PREFETCH  ACCESS:          0  HIT:          0  MISS:          0
LLC WRITEBACK ACCESS:     157603  HIT:     152403  MISS:       5200
Insertion Distribution: 
	LOAD 376 0 0 0 0 0 929 2279 
	RFO 0 0 0 0 0 0 55 1597 
	PREF 0 0 0 0 0 0 0 0 
	WRITEBACK 0 0 0 0 0 0 0 2734 
Total Prefetch Downgrades: 0
