
*** ChampSim Multicore Out-of-Order Simulator ***

Warmup Instructions: 10000000
Simulation Instructions: 100000000
Configuration: 1
Number of CPUs: 1
LLC sets: 2048
LLC ways: 16
Off-chip DRAM Channels: 1 Width: 64-bit Data Rate: 1600 MT/s

CPU 0 runs /datasets/cs240c-wi22-a00-public/data/Assignment2-gz/zeusmp_600B.trace.gz
Heartbeat CPU 0 instructions: 1000000 cycles: 407507 heartbeat IPC: 2.45395 cumulative IPC: 2.45395 (Simulation time: 0 hr 0 min 22 sec) 
select_counter is 591
Heartbeat CPU 0 instructions: 2000001 cycles: 814374 heartbeat IPC: 2.45781 cumulative IPC: 2.45588 (Simulation time: 0 hr 0 min 42 sec) 
select_counter is 674
Heartbeat CPU 0 instructions: 3000003 cycles: 1221893 heartbeat IPC: 2.45388 cumulative IPC: 2.45521 (Simulation time: 0 hr 1 min 5 sec) 
select_counter is 750
Heartbeat CPU 0 instructions: 4000000 cycles: 1629601 heartbeat IPC: 2.45273 cumulative IPC: 2.45459 (Simulation time: 0 hr 1 min 28 sec) 
select_counter is 815
Heartbeat CPU 0 instructions: 5000001 cycles: 2037319 heartbeat IPC: 2.45268 cumulative IPC: 2.45421 (Simulation time: 0 hr 1 min 52 sec) 
select_counter is 874
Heartbeat CPU 0 instructions: 6000000 cycles: 2444583 heartbeat IPC: 2.45541 cumulative IPC: 2.45441 (Simulation time: 0 hr 2 min 13 sec) 
select_counter is 937
Heartbeat CPU 0 instructions: 7000000 cycles: 2852187 heartbeat IPC: 2.45336 cumulative IPC: 2.45426 (Simulation time: 0 hr 2 min 36 sec) 
select_counter is 1013
Heartbeat CPU 0 instructions: 8000000 cycles: 3259757 heartbeat IPC: 2.45357 cumulative IPC: 2.45417 (Simulation time: 0 hr 3 min 0 sec) 
select_counter is 1023
Heartbeat CPU 0 instructions: 9000003 cycles: 3666904 heartbeat IPC: 2.45612 cumulative IPC: 2.45439 (Simulation time: 0 hr 3 min 23 sec) 
select_counter is 1023
Heartbeat CPU 0 instructions: 10000001 cycles: 4074512 heartbeat IPC: 2.45333 cumulative IPC: 2.45428 (Simulation time: 0 hr 3 min 45 sec) 
select_counter is 1023

Warmup complete CPU 0 instructions: 10000001 cycles: 4074512 (Simulation time: 0 hr 3 min 45 sec) 

Heartbeat CPU 0 instructions: 11000000 cycles: 4948093 heartbeat IPC: 1.14471 cumulative IPC: 1.14471 (Simulation time: 0 hr 4 min 10 sec) 
select_counter is 1023
Heartbeat CPU 0 instructions: 12000000 cycles: 5816931 heartbeat IPC: 1.15096 cumulative IPC: 1.14783 (Simulation time: 0 hr 4 min 34 sec) 
select_counter is 1023
Heartbeat CPU 0 instructions: 13000001 cycles: 6690807 heartbeat IPC: 1.14433 cumulative IPC: 1.14666 (Simulation time: 0 hr 4 min 58 sec) 
select_counter is 1023
Heartbeat CPU 0 instructions: 14000001 cycles: 7567916 heartbeat IPC: 1.14011 cumulative IPC: 1.14502 (Simulation time: 0 hr 5 min 24 sec) 
select_counter is 1023
Heartbeat CPU 0 instructions: 15000003 cycles: 8444021 heartbeat IPC: 1.14142 cumulative IPC: 1.14429 (Simulation time: 0 hr 5 min 49 sec) 
select_counter is 1023
Heartbeat CPU 0 instructions: 16000000 cycles: 9382229 heartbeat IPC: 1.06586 cumulative IPC: 1.13043 (Simulation time: 0 hr 6 min 14 sec) 
select_counter is 1023
Heartbeat CPU 0 instructions: 17000001 cycles: 10379790 heartbeat IPC: 1.00245 cumulative IPC: 1.11018 (Simulation time: 0 hr 6 min 39 sec) 
select_counter is 1023
Heartbeat CPU 0 instructions: 18000003 cycles: 11368110 heartbeat IPC: 1.01182 cumulative IPC: 1.09685 (Simulation time: 0 hr 7 min 4 sec) 
select_counter is 1022
Heartbeat CPU 0 instructions: 19000000 cycles: 12347748 heartbeat IPC: 1.02078 cumulative IPC: 1.08785 (Simulation time: 0 hr 7 min 28 sec) 
select_counter is 1023
Heartbeat CPU 0 instructions: 20000000 cycles: 13329069 heartbeat IPC: 1.01903 cumulative IPC: 1.08055 (Simulation time: 0 hr 7 min 52 sec) 
select_counter is 1022
Heartbeat CPU 0 instructions: 21000002 cycles: 14325338 heartbeat IPC: 1.00375 cumulative IPC: 1.07308 (Simulation time: 0 hr 8 min 17 sec) 
select_counter is 1023
Heartbeat CPU 0 instructions: 22000000 cycles: 15298444 heartbeat IPC: 1.02764 cumulative IPC: 1.06914 (Simulation time: 0 hr 8 min 43 sec) 
select_counter is 1023
Heartbeat CPU 0 instructions: 23000000 cycles: 16280069 heartbeat IPC: 1.01872 cumulative IPC: 1.06509 (Simulation time: 0 hr 9 min 7 sec) 
select_counter is 1022
Heartbeat CPU 0 instructions: 24000000 cycles: 17261590 heartbeat IPC: 1.01883 cumulative IPC: 1.06165 (Simulation time: 0 hr 9 min 32 sec) 
select_counter is 1023
Heartbeat CPU 0 instructions: 25000000 cycles: 18232888 heartbeat IPC: 1.02955 cumulative IPC: 1.05944 (Simulation time: 0 hr 9 min 59 sec) 
select_counter is 1023
Heartbeat CPU 0 instructions: 26000000 cycles: 19211322 heartbeat IPC: 1.02204 cumulative IPC: 1.05703 (Simulation time: 0 hr 10 min 26 sec) 
select_counter is 1023
Heartbeat CPU 0 instructions: 27000003 cycles: 20180940 heartbeat IPC: 1.03134 cumulative IPC: 1.05548 (Simulation time: 0 hr 10 min 51 sec) 
select_counter is 1023
Heartbeat CPU 0 instructions: 28000000 cycles: 21177532 heartbeat IPC: 1.00342 cumulative IPC: 1.05245 (Simulation time: 0 hr 11 min 21 sec) 
select_counter is 1021
Heartbeat CPU 0 instructions: 29000000 cycles: 22155939 heartbeat IPC: 1.02207 cumulative IPC: 1.0508 (Simulation time: 0 hr 11 min 46 sec) 
select_counter is 1023
Heartbeat CPU 0 instructions: 30000003 cycles: 23143480 heartbeat IPC: 1.01262 cumulative IPC: 1.04882 (Simulation time: 0 hr 12 min 11 sec) 
select_counter is 1023
Heartbeat CPU 0 instructions: 31000002 cycles: 24132054 heartbeat IPC: 1.01156 cumulative IPC: 1.04699 (Simulation time: 0 hr 12 min 34 sec) 
select_counter is 1023
Heartbeat CPU 0 instructions: 32000000 cycles: 25103514 heartbeat IPC: 1.02938 cumulative IPC: 1.04617 (Simulation time: 0 hr 12 min 57 sec) 
select_counter is 1023
Heartbeat CPU 0 instructions: 33000001 cycles: 26092675 heartbeat IPC: 1.01096 cumulative IPC: 1.04459 (Simulation time: 0 hr 13 min 31 sec) 
select_counter is 1023
Heartbeat CPU 0 instructions: 34000000 cycles: 27078904 heartbeat IPC: 1.01396 cumulative IPC: 1.04328 (Simulation time: 0 hr 13 min 56 sec) 
select_counter is 1022
Heartbeat CPU 0 instructions: 35000003 cycles: 28051818 heartbeat IPC: 1.02784 cumulative IPC: 1.04265 (Simulation time: 0 hr 14 min 20 sec) 
select_counter is 1023
Heartbeat CPU 0 instructions: 36000000 cycles: 29022110 heartbeat IPC: 1.03061 cumulative IPC: 1.04218 (Simulation time: 0 hr 14 min 45 sec) 
select_counter is 1023
Heartbeat CPU 0 instructions: 37000001 cycles: 30013060 heartbeat IPC: 1.00913 cumulative IPC: 1.04092 (Simulation time: 0 hr 15 min 14 sec) 
select_counter is 1023
Heartbeat CPU 0 instructions: 38000000 cycles: 30999804 heartbeat IPC: 1.01343 cumulative IPC: 1.03991 (Simulation time: 0 hr 15 min 39 sec) 
select_counter is 1023
Heartbeat CPU 0 instructions: 39000002 cycles: 31986166 heartbeat IPC: 1.01383 cumulative IPC: 1.03899 (Simulation time: 0 hr 16 min 6 sec) 
select_counter is 1022
Heartbeat CPU 0 instructions: 40000000 cycles: 32962284 heartbeat IPC: 1.02446 cumulative IPC: 1.0385 (Simulation time: 0 hr 16 min 35 sec) 
select_counter is 1023
Heartbeat CPU 0 instructions: 41000002 cycles: 33946107 heartbeat IPC: 1.01645 cumulative IPC: 1.03778 (Simulation time: 0 hr 16 min 59 sec) 
select_counter is 1023
Heartbeat CPU 0 instructions: 42000000 cycles: 34935598 heartbeat IPC: 1.01062 cumulative IPC: 1.0369 (Simulation time: 0 hr 17 min 27 sec) 
select_counter is 1023
Heartbeat CPU 0 instructions: 43000002 cycles: 35920946 heartbeat IPC: 1.01487 cumulative IPC: 1.03622 (Simulation time: 0 hr 17 min 53 sec) 
select_counter is 1023
Heartbeat CPU 0 instructions: 44000000 cycles: 36891081 heartbeat IPC: 1.03078 cumulative IPC: 1.03606 (Simulation time: 0 hr 18 min 17 sec) 
select_counter is 1022
Heartbeat CPU 0 instructions: 45000000 cycles: 37874093 heartbeat IPC: 1.01728 cumulative IPC: 1.03552 (Simulation time: 0 hr 18 min 43 sec) 
select_counter is 1023
Heartbeat CPU 0 instructions: 46000000 cycles: 38851457 heartbeat IPC: 1.02316 cumulative IPC: 1.03517 (Simulation time: 0 hr 19 min 10 sec) 
select_counter is 1023
Heartbeat CPU 0 instructions: 47000003 cycles: 39849608 heartbeat IPC: 1.00186 cumulative IPC: 1.03424 (Simulation time: 0 hr 19 min 37 sec) 
select_counter is 1022
Heartbeat CPU 0 instructions: 48000000 cycles: 40837189 heartbeat IPC: 1.01257 cumulative IPC: 1.03366 (Simulation time: 0 hr 20 min 2 sec) 
select_counter is 1023
Heartbeat CPU 0 instructions: 49000000 cycles: 41814181 heartbeat IPC: 1.02355 cumulative IPC: 1.0334 (Simulation time: 0 hr 20 min 27 sec) 
select_counter is 1023
Heartbeat CPU 0 instructions: 50000001 cycles: 42783383 heartbeat IPC: 1.03178 cumulative IPC: 1.03335 (Simulation time: 0 hr 20 min 50 sec) 
select_counter is 1023
Heartbeat CPU 0 instructions: 51000001 cycles: 43778941 heartbeat IPC: 1.00446 cumulative IPC: 1.03263 (Simulation time: 0 hr 21 min 16 sec) 
select_counter is 1022
Heartbeat CPU 0 instructions: 52000000 cycles: 44740158 heartbeat IPC: 1.04035 cumulative IPC: 1.03281 (Simulation time: 0 hr 21 min 40 sec) 
select_counter is 1022
Heartbeat CPU 0 instructions: 53000000 cycles: 45727076 heartbeat IPC: 1.01326 cumulative IPC: 1.03235 (Simulation time: 0 hr 22 min 7 sec) 
select_counter is 1022
Heartbeat CPU 0 instructions: 54000000 cycles: 46719488 heartbeat IPC: 1.00765 cumulative IPC: 1.03177 (Simulation time: 0 hr 22 min 34 sec) 
select_counter is 1023
Heartbeat CPU 0 instructions: 55000001 cycles: 47691010 heartbeat IPC: 1.02931 cumulative IPC: 1.03172 (Simulation time: 0 hr 23 min 2 sec) 
select_counter is 1023
Heartbeat CPU 0 instructions: 56000000 cycles: 48675604 heartbeat IPC: 1.01565 cumulative IPC: 1.03136 (Simulation time: 0 hr 23 min 29 sec) 
select_counter is 1022
Heartbeat CPU 0 instructions: 57000003 cycles: 49665314 heartbeat IPC: 1.0104 cumulative IPC: 1.03091 (Simulation time: 0 hr 23 min 57 sec) 
select_counter is 1023
Heartbeat CPU 0 instructions: 58000001 cycles: 50623873 heartbeat IPC: 1.04323 cumulative IPC: 1.03116 (Simulation time: 0 hr 24 min 23 sec) 
select_counter is 1023
Heartbeat CPU 0 instructions: 59000000 cycles: 51605344 heartbeat IPC: 1.01888 cumulative IPC: 1.03091 (Simulation time: 0 hr 24 min 45 sec) 
select_counter is 1023
Heartbeat CPU 0 instructions: 60000000 cycles: 52594318 heartbeat IPC: 1.01115 cumulative IPC: 1.03051 (Simulation time: 0 hr 25 min 9 sec) 
select_counter is 1023
Heartbeat CPU 0 instructions: 61000003 cycles: 53580016 heartbeat IPC: 1.01451 cumulative IPC: 1.03019 (Simulation time: 0 hr 25 min 33 sec) 
select_counter is 1023
Heartbeat CPU 0 instructions: 62000001 cycles: 54573698 heartbeat IPC: 1.00636 cumulative IPC: 1.02972 (Simulation time: 0 hr 25 min 55 sec) 
select_counter is 1023
Heartbeat CPU 0 instructions: 63000000 cycles: 55552976 heartbeat IPC: 1.02116 cumulative IPC: 1.02956 (Simulation time: 0 hr 26 min 22 sec) 
select_counter is 1023
Heartbeat CPU 0 instructions: 64000000 cycles: 56524777 heartbeat IPC: 1.02902 cumulative IPC: 1.02955 (Simulation time: 0 hr 26 min 47 sec) 
select_counter is 1023
Heartbeat CPU 0 instructions: 65000001 cycles: 57523241 heartbeat IPC: 1.00154 cumulative IPC: 1.02902 (Simulation time: 0 hr 27 min 12 sec) 
select_counter is 1023
Heartbeat CPU 0 instructions: 66000000 cycles: 58511007 heartbeat IPC: 1.01238 cumulative IPC: 1.02872 (Simulation time: 0 hr 27 min 36 sec) 
select_counter is 1023
Heartbeat CPU 0 instructions: 67000001 cycles: 59506075 heartbeat IPC: 1.00496 cumulative IPC: 1.0283 (Simulation time: 0 hr 27 min 58 sec) 
select_counter is 1023
Heartbeat CPU 0 instructions: 68000000 cycles: 60487432 heartbeat IPC: 1.019 cumulative IPC: 1.02813 (Simulation time: 0 hr 28 min 24 sec) 
select_counter is 1022
Heartbeat CPU 0 instructions: 69000002 cycles: 61482131 heartbeat IPC: 1.00533 cumulative IPC: 1.02774 (Simulation time: 0 hr 28 min 53 sec) 
select_counter is 1022
Heartbeat CPU 0 instructions: 70000000 cycles: 62473683 heartbeat IPC: 1.00852 cumulative IPC: 1.02741 (Simulation time: 0 hr 29 min 21 sec) 
select_counter is 1023
Heartbeat CPU 0 instructions: 71000001 cycles: 63466840 heartbeat IPC: 1.00689 cumulative IPC: 1.02707 (Simulation time: 0 hr 29 min 47 sec) 
select_counter is 1023
Heartbeat CPU 0 instructions: 72000000 cycles: 64449684 heartbeat IPC: 1.01745 cumulative IPC: 1.02691 (Simulation time: 0 hr 30 min 10 sec) 
select_counter is 1023
Heartbeat CPU 0 instructions: 73000003 cycles: 65426740 heartbeat IPC: 1.02349 cumulative IPC: 1.02686 (Simulation time: 0 hr 30 min 32 sec) 
select_counter is 1022
Heartbeat CPU 0 instructions: 74000002 cycles: 66416471 heartbeat IPC: 1.01037 cumulative IPC: 1.0266 (Simulation time: 0 hr 30 min 56 sec) 
select_counter is 1023
Heartbeat CPU 0 instructions: 75000003 cycles: 67403056 heartbeat IPC: 1.0136 cumulative IPC: 1.02639 (Simulation time: 0 hr 31 min 20 sec) 
select_counter is 1023
Heartbeat CPU 0 instructions: 76000000 cycles: 68394281 heartbeat IPC: 1.00885 cumulative IPC: 1.02612 (Simulation time: 0 hr 31 min 53 sec) 
select_counter is 1022
Heartbeat CPU 0 instructions: 77000000 cycles: 69372314 heartbeat IPC: 1.02246 cumulative IPC: 1.02607 (Simulation time: 0 hr 32 min 20 sec) 
select_counter is 1023
Heartbeat CPU 0 instructions: 78000003 cycles: 70348976 heartbeat IPC: 1.0239 cumulative IPC: 1.02604 (Simulation time: 0 hr 32 min 42 sec) 
select_counter is 1022
Heartbeat CPU 0 instructions: 79000000 cycles: 71334066 heartbeat IPC: 1.01513 cumulative IPC: 1.02588 (Simulation time: 0 hr 33 min 8 sec) 
select_counter is 1023
Heartbeat CPU 0 instructions: 80000000 cycles: 72323129 heartbeat IPC: 1.01106 cumulative IPC: 1.02566 (Simulation time: 0 hr 33 min 33 sec) 
select_counter is 1023
Heartbeat CPU 0 instructions: 81000002 cycles: 73308555 heartbeat IPC: 1.01479 cumulative IPC: 1.02551 (Simulation time: 0 hr 33 min 56 sec) 
select_counter is 1023
Heartbeat CPU 0 instructions: 82000002 cycles: 74284923 heartbeat IPC: 1.0242 cumulative IPC: 1.02549 (Simulation time: 0 hr 34 min 20 sec) 
select_counter is 1022
Heartbeat CPU 0 instructions: 83000001 cycles: 75264972 heartbeat IPC: 1.02036 cumulative IPC: 1.02542 (Simulation time: 0 hr 34 min 43 sec) 
select_counter is 1020
Heartbeat CPU 0 instructions: 84000000 cycles: 76251889 heartbeat IPC: 1.01326 cumulative IPC: 1.02525 (Simulation time: 0 hr 35 min 5 sec) 
select_counter is 1023
Heartbeat CPU 0 instructions: 85000000 cycles: 77229976 heartbeat IPC: 1.0224 cumulative IPC: 1.02521 (Simulation time: 0 hr 35 min 30 sec) 
select_counter is 1021
Heartbeat CPU 0 instructions: 86000002 cycles: 78204066 heartbeat IPC: 1.0266 cumulative IPC: 1.02523 (Simulation time: 0 hr 35 min 51 sec) 
select_counter is 1022
Heartbeat CPU 0 instructions: 87000000 cycles: 79179830 heartbeat IPC: 1.02484 cumulative IPC: 1.02523 (Simulation time: 0 hr 36 min 20 sec) 
select_counter is 1023
Heartbeat CPU 0 instructions: 88000000 cycles: 80151895 heartbeat IPC: 1.02874 cumulative IPC: 1.02527 (Simulation time: 0 hr 36 min 47 sec) 
select_counter is 1023
Heartbeat CPU 0 instructions: 89000002 cycles: 81118948 heartbeat IPC: 1.03407 cumulative IPC: 1.02538 (Simulation time: 0 hr 37 min 10 sec) 
select_counter is 1022
Heartbeat CPU 0 instructions: 90000002 cycles: 82078462 heartbeat IPC: 1.04219 cumulative IPC: 1.02559 (Simulation time: 0 hr 37 min 31 sec) 
select_counter is 1023
Heartbeat CPU 0 instructions: 91000001 cycles: 83048831 heartbeat IPC: 1.03053 cumulative IPC: 1.02565 (Simulation time: 0 hr 37 min 50 sec) 
select_counter is 1023
Heartbeat CPU 0 instructions: 92000000 cycles: 84036100 heartbeat IPC: 1.01289 cumulative IPC: 1.02549 (Simulation time: 0 hr 38 min 8 sec) 
select_counter is 1023
Heartbeat CPU 0 instructions: 93000000 cycles: 85002420 heartbeat IPC: 1.03485 cumulative IPC: 1.0256 (Simulation time: 0 hr 38 min 27 sec) 
select_counter is 1023
Heartbeat CPU 0 instructions: 94000002 cycles: 85978507 heartbeat IPC: 1.0245 cumulative IPC: 1.02559 (Simulation time: 0 hr 38 min 48 sec) 
select_counter is 1023
Heartbeat CPU 0 instructions: 95000001 cycles: 86956575 heartbeat IPC: 1.02242 cumulative IPC: 1.02555 (Simulation time: 0 hr 39 min 8 sec) 
select_counter is 1023
Heartbeat CPU 0 instructions: 96000000 cycles: 87932258 heartbeat IPC: 1.02492 cumulative IPC: 1.02555 (Simulation time: 0 hr 39 min 30 sec) 
select_counter is 1023
Heartbeat CPU 0 instructions: 97000003 cycles: 88893322 heartbeat IPC: 1.04052 cumulative IPC: 1.02572 (Simulation time: 0 hr 39 min 53 sec) 
select_counter is 1023
Heartbeat CPU 0 instructions: 98000002 cycles: 89861100 heartbeat IPC: 1.03329 cumulative IPC: 1.0258 (Simulation time: 0 hr 40 min 12 sec) 
select_counter is 1023
Heartbeat CPU 0 instructions: 99000000 cycles: 90849626 heartbeat IPC: 1.01161 cumulative IPC: 1.02564 (Simulation time: 0 hr 40 min 29 sec) 
select_counter is 1022
Heartbeat CPU 0 instructions: 100000000 cycles: 91822026 heartbeat IPC: 1.02838 cumulative IPC: 1.02567 (Simulation time: 0 hr 40 min 49 sec) 
select_counter is 1023
Heartbeat CPU 0 instructions: 101000002 cycles: 92790047 heartbeat IPC: 1.03304 cumulative IPC: 1.02575 (Simulation time: 0 hr 41 min 10 sec) 
select_counter is 1023
Heartbeat CPU 0 instructions: 102000002 cycles: 93780627 heartbeat IPC: 1.00951 cumulative IPC: 1.02557 (Simulation time: 0 hr 41 min 34 sec) 
select_counter is 1022
Heartbeat CPU 0 instructions: 103000001 cycles: 94764469 heartbeat IPC: 1.01642 cumulative IPC: 1.02547 (Simulation time: 0 hr 41 min 54 sec) 
select_counter is 1023
Heartbeat CPU 0 instructions: 104000000 cycles: 95747340 heartbeat IPC: 1.01743 cumulative IPC: 1.02539 (Simulation time: 0 hr 42 min 12 sec) 
select_counter is 1022
Heartbeat CPU 0 instructions: 105000001 cycles: 96734739 heartbeat IPC: 1.01276 cumulative IPC: 1.02525 (Simulation time: 0 hr 42 min 31 sec) 
select_counter is 1021
Heartbeat CPU 0 instructions: 106000000 cycles: 97715699 heartbeat IPC: 1.01941 cumulative IPC: 1.02519 (Simulation time: 0 hr 42 min 49 sec) 
select_counter is 1022
Heartbeat CPU 0 instructions: 107000000 cycles: 98695567 heartbeat IPC: 1.02055 cumulative IPC: 1.02514 (Simulation time: 0 hr 43 min 7 sec) 
select_counter is 1020
Heartbeat CPU 0 instructions: 108000000 cycles: 99672496 heartbeat IPC: 1.02362 cumulative IPC: 1.02513 (Simulation time: 0 hr 43 min 25 sec) 
select_counter is 1023
Heartbeat CPU 0 instructions: 109000000 cycles: 100657647 heartbeat IPC: 1.01507 cumulative IPC: 1.02502 (Simulation time: 0 hr 43 min 43 sec) 
select_counter is 1023
Heartbeat CPU 0 instructions: 110000002 cycles: 101643835 heartbeat IPC: 1.01401 cumulative IPC: 1.02491 (Simulation time: 0 hr 44 min 2 sec) 
select_counter is 1023
Finished CPU 0 instructions: 100000001 cycles: 97569323 cummulative IPC: 1.02491 (Simulation time: 0 hr 44 min 2 sec) 

ChampSim completed all CPUs

Region of Interest Statistics

CPU 0 cummulative IPC: 1.02491 instructions: 100000001 cycles: 97569323
LLC TOTAL     ACCESS:     381989  HIT:      50873  MISS:     331116
LLC LOAD      ACCESS:     315489  HIT:       2957  MISS:     312532
LLC RFO       ACCESS:       3447  HIT:          1  MISS:       3446
LLC PREFETCH  ACCESS:          0  HIT:          0  MISS:          0
LLC WRITEBACK ACCESS:      63053  HIT:      47915  MISS:      15138
Insertion Distribution: 
	LOAD 232 0 0 0 0 0 1134 9158 
	RFO 0 0 0 0 0 0 152 121 
	PREF 0 0 0 0 0 0 0 0 
	WRITEBACK 0 0 0 0 0 0 0 1660 
Total Prefetch Downgrades: 0
