
*** ChampSim Multicore Out-of-Order Simulator ***

Warmup Instructions: 10000000
Simulation Instructions: 100000000
Configuration: 1
Number of CPUs: 1
LLC sets: 2048
LLC ways: 16
Off-chip DRAM Channels: 1 Width: 64-bit Data Rate: 1600 MT/s

CPU 0 runs /datasets/cs240c-wi22-a00-public/data/Assignment2-gz/GemsFDTD_712B.trace.gz
Heartbeat CPU 0 instructions: 1000003 cycles: 633083 heartbeat IPC: 1.57958 cumulative IPC: 1.57958 (Simulation time: 0 hr 0 min 34 sec) 
select_counter is 1022
Heartbeat CPU 0 instructions: 2000000 cycles: 1266016 heartbeat IPC: 1.57994 cumulative IPC: 1.57976 (Simulation time: 0 hr 1 min 8 sec) 
select_counter is 1023
Heartbeat CPU 0 instructions: 3000000 cycles: 1898501 heartbeat IPC: 1.58107 cumulative IPC: 1.58019 (Simulation time: 0 hr 1 min 44 sec) 
select_counter is 1023
Heartbeat CPU 0 instructions: 4000000 cycles: 2530678 heartbeat IPC: 1.58184 cumulative IPC: 1.5806 (Simulation time: 0 hr 2 min 15 sec) 
select_counter is 1023
Heartbeat CPU 0 instructions: 5000003 cycles: 3162999 heartbeat IPC: 1.58148 cumulative IPC: 1.58078 (Simulation time: 0 hr 2 min 53 sec) 
select_counter is 1023
Heartbeat CPU 0 instructions: 6000002 cycles: 3795348 heartbeat IPC: 1.5814 cumulative IPC: 1.58088 (Simulation time: 0 hr 3 min 23 sec) 
select_counter is 1023
Heartbeat CPU 0 instructions: 7000001 cycles: 4428088 heartbeat IPC: 1.58043 cumulative IPC: 1.58082 (Simulation time: 0 hr 3 min 54 sec) 
select_counter is 1023
Heartbeat CPU 0 instructions: 8000000 cycles: 5060860 heartbeat IPC: 1.58035 cumulative IPC: 1.58076 (Simulation time: 0 hr 4 min 28 sec) 
select_counter is 1023
Heartbeat CPU 0 instructions: 9000001 cycles: 5693512 heartbeat IPC: 1.58065 cumulative IPC: 1.58075 (Simulation time: 0 hr 4 min 59 sec) 
select_counter is 1023
Heartbeat CPU 0 instructions: 10000002 cycles: 6325760 heartbeat IPC: 1.58166 cumulative IPC: 1.58084 (Simulation time: 0 hr 5 min 27 sec) 
select_counter is 1022

Warmup complete CPU 0 instructions: 10000002 cycles: 6325760 (Simulation time: 0 hr 5 min 27 sec) 

Heartbeat CPU 0 instructions: 11000001 cycles: 9443936 heartbeat IPC: 0.3207 cumulative IPC: 0.3207 (Simulation time: 0 hr 6 min 13 sec) 
select_counter is 1022
Heartbeat CPU 0 instructions: 12000000 cycles: 12535752 heartbeat IPC: 0.323434 cumulative IPC: 0.322061 (Simulation time: 0 hr 6 min 58 sec) 
select_counter is 1023
Heartbeat CPU 0 instructions: 13000002 cycles: 15627314 heartbeat IPC: 0.323462 cumulative IPC: 0.322527 (Simulation time: 0 hr 7 min 43 sec) 
select_counter is 1023
Heartbeat CPU 0 instructions: 14000002 cycles: 18685375 heartbeat IPC: 0.327005 cumulative IPC: 0.323635 (Simulation time: 0 hr 8 min 20 sec) 
select_counter is 1023
Heartbeat CPU 0 instructions: 15000001 cycles: 21704041 heartbeat IPC: 0.331272 cumulative IPC: 0.325134 (Simulation time: 0 hr 8 min 57 sec) 
select_counter is 1023
Heartbeat CPU 0 instructions: 16000000 cycles: 24772634 heartbeat IPC: 0.325882 cumulative IPC: 0.325258 (Simulation time: 0 hr 9 min 37 sec) 
select_counter is 1021
Heartbeat CPU 0 instructions: 17000000 cycles: 27834577 heartbeat IPC: 0.32659 cumulative IPC: 0.325448 (Simulation time: 0 hr 10 min 15 sec) 
select_counter is 1023
Heartbeat CPU 0 instructions: 18000001 cycles: 30959161 heartbeat IPC: 0.320043 cumulative IPC: 0.324762 (Simulation time: 0 hr 10 min 56 sec) 
select_counter is 1021
Heartbeat CPU 0 instructions: 19000000 cycles: 33979792 heartbeat IPC: 0.331056 cumulative IPC: 0.32545 (Simulation time: 0 hr 11 min 39 sec) 
select_counter is 1022
Heartbeat CPU 0 instructions: 20000000 cycles: 37028176 heartbeat IPC: 0.328043 cumulative IPC: 0.325707 (Simulation time: 0 hr 12 min 22 sec) 
select_counter is 1023
Heartbeat CPU 0 instructions: 21000003 cycles: 40099241 heartbeat IPC: 0.325621 cumulative IPC: 0.325699 (Simulation time: 0 hr 12 min 59 sec) 
select_counter is 1023
Heartbeat CPU 0 instructions: 22000001 cycles: 43194280 heartbeat IPC: 0.323097 cumulative IPC: 0.325481 (Simulation time: 0 hr 13 min 37 sec) 
select_counter is 1023
Heartbeat CPU 0 instructions: 23000002 cycles: 46212219 heartbeat IPC: 0.331352 cumulative IPC: 0.325925 (Simulation time: 0 hr 14 min 17 sec) 
select_counter is 1022
Heartbeat CPU 0 instructions: 24000000 cycles: 49340017 heartbeat IPC: 0.319713 cumulative IPC: 0.325473 (Simulation time: 0 hr 15 min 1 sec) 
select_counter is 1023
Heartbeat CPU 0 instructions: 25000000 cycles: 52412252 heartbeat IPC: 0.325496 cumulative IPC: 0.325475 (Simulation time: 0 hr 15 min 42 sec) 
select_counter is 1023
Heartbeat CPU 0 instructions: 26000002 cycles: 55490450 heartbeat IPC: 0.324866 cumulative IPC: 0.325437 (Simulation time: 0 hr 16 min 25 sec) 
select_counter is 1023
Heartbeat CPU 0 instructions: 27000002 cycles: 58622895 heartbeat IPC: 0.319239 cumulative IPC: 0.325066 (Simulation time: 0 hr 17 min 5 sec) 
select_counter is 1020
Heartbeat CPU 0 instructions: 28000000 cycles: 61694902 heartbeat IPC: 0.325519 cumulative IPC: 0.325091 (Simulation time: 0 hr 17 min 43 sec) 
select_counter is 1023
Heartbeat CPU 0 instructions: 29000001 cycles: 64735591 heartbeat IPC: 0.328873 cumulative IPC: 0.325288 (Simulation time: 0 hr 18 min 23 sec) 
select_counter is 1023
Heartbeat CPU 0 instructions: 30000002 cycles: 67809046 heartbeat IPC: 0.325367 cumulative IPC: 0.325292 (Simulation time: 0 hr 19 min 4 sec) 
select_counter is 1021
Heartbeat CPU 0 instructions: 31000001 cycles: 70902826 heartbeat IPC: 0.323229 cumulative IPC: 0.325193 (Simulation time: 0 hr 19 min 40 sec) 
select_counter is 1023
Heartbeat CPU 0 instructions: 32000000 cycles: 74003195 heartbeat IPC: 0.322542 cumulative IPC: 0.325071 (Simulation time: 0 hr 20 min 24 sec) 
select_counter is 1023
Heartbeat CPU 0 instructions: 33000000 cycles: 77045468 heartbeat IPC: 0.328702 cumulative IPC: 0.325228 (Simulation time: 0 hr 21 min 0 sec) 
select_counter is 1023
Heartbeat CPU 0 instructions: 34000003 cycles: 80083529 heartbeat IPC: 0.329158 cumulative IPC: 0.325389 (Simulation time: 0 hr 21 min 38 sec) 
select_counter is 1023
Heartbeat CPU 0 instructions: 35000000 cycles: 83152365 heartbeat IPC: 0.325855 cumulative IPC: 0.325408 (Simulation time: 0 hr 22 min 18 sec) 
select_counter is 1023
Heartbeat CPU 0 instructions: 36000000 cycles: 86233156 heartbeat IPC: 0.324592 cumulative IPC: 0.325377 (Simulation time: 0 hr 23 min 7 sec) 
select_counter is 1020
Heartbeat CPU 0 instructions: 37000001 cycles: 89239541 heartbeat IPC: 0.332626 cumulative IPC: 0.325639 (Simulation time: 0 hr 23 min 51 sec) 
select_counter is 1022
Heartbeat CPU 0 instructions: 38000002 cycles: 92278705 heartbeat IPC: 0.329038 cumulative IPC: 0.32576 (Simulation time: 0 hr 24 min 32 sec) 
select_counter is 1023
Heartbeat CPU 0 instructions: 39000000 cycles: 95408536 heartbeat IPC: 0.319505 cumulative IPC: 0.32554 (Simulation time: 0 hr 25 min 9 sec) 
select_counter is 1023
Heartbeat CPU 0 instructions: 40000000 cycles: 98415901 heartbeat IPC: 0.332517 cumulative IPC: 0.325768 (Simulation time: 0 hr 25 min 50 sec) 
select_counter is 1022
Heartbeat CPU 0 instructions: 41000003 cycles: 101457614 heartbeat IPC: 0.328763 cumulative IPC: 0.325864 (Simulation time: 0 hr 26 min 34 sec) 
select_counter is 1023
Heartbeat CPU 0 instructions: 42000000 cycles: 104533693 heartbeat IPC: 0.325088 cumulative IPC: 0.325839 (Simulation time: 0 hr 27 min 14 sec) 
select_counter is 1022
Heartbeat CPU 0 instructions: 43000001 cycles: 107576320 heartbeat IPC: 0.328664 cumulative IPC: 0.325924 (Simulation time: 0 hr 28 min 0 sec) 
select_counter is 1020
Heartbeat CPU 0 instructions: 44000000 cycles: 110616268 heartbeat IPC: 0.328953 cumulative IPC: 0.326012 (Simulation time: 0 hr 28 min 43 sec) 
select_counter is 1023
Heartbeat CPU 0 instructions: 45000003 cycles: 113648944 heartbeat IPC: 0.329743 cumulative IPC: 0.326118 (Simulation time: 0 hr 29 min 24 sec) 
select_counter is 1023
Heartbeat CPU 0 instructions: 46000000 cycles: 116677051 heartbeat IPC: 0.330238 cumulative IPC: 0.326231 (Simulation time: 0 hr 30 min 8 sec) 
select_counter is 1022
Heartbeat CPU 0 instructions: 47000003 cycles: 119728322 heartbeat IPC: 0.327733 cumulative IPC: 0.326271 (Simulation time: 0 hr 30 min 50 sec) 
select_counter is 1023
Heartbeat CPU 0 instructions: 48000000 cycles: 122803444 heartbeat IPC: 0.325189 cumulative IPC: 0.326243 (Simulation time: 0 hr 31 min 33 sec) 
select_counter is 1023
Heartbeat CPU 0 instructions: 49000002 cycles: 125860738 heartbeat IPC: 0.327087 cumulative IPC: 0.326264 (Simulation time: 0 hr 32 min 12 sec) 
select_counter is 1023
Heartbeat CPU 0 instructions: 50000001 cycles: 128914723 heartbeat IPC: 0.327441 cumulative IPC: 0.326294 (Simulation time: 0 hr 32 min 55 sec) 
select_counter is 1023
Heartbeat CPU 0 instructions: 51000000 cycles: 131951305 heartbeat IPC: 0.329317 cumulative IPC: 0.326367 (Simulation time: 0 hr 33 min 40 sec) 
select_counter is 1022
Heartbeat CPU 0 instructions: 52000000 cycles: 134972142 heartbeat IPC: 0.331034 cumulative IPC: 0.326476 (Simulation time: 0 hr 34 min 20 sec) 
select_counter is 1023
Heartbeat CPU 0 instructions: 53000000 cycles: 138071433 heartbeat IPC: 0.322654 cumulative IPC: 0.326386 (Simulation time: 0 hr 35 min 0 sec) 
select_counter is 1022
Heartbeat CPU 0 instructions: 54000000 cycles: 141109456 heartbeat IPC: 0.329161 cumulative IPC: 0.326449 (Simulation time: 0 hr 35 min 39 sec) 
select_counter is 1021
Heartbeat CPU 0 instructions: 55000003 cycles: 144144669 heartbeat IPC: 0.329467 cumulative IPC: 0.326515 (Simulation time: 0 hr 36 min 13 sec) 
select_counter is 1023
Heartbeat CPU 0 instructions: 56000000 cycles: 147242785 heartbeat IPC: 0.322776 cumulative IPC: 0.326433 (Simulation time: 0 hr 36 min 47 sec) 
select_counter is 1023
Heartbeat CPU 0 instructions: 57000000 cycles: 150366085 heartbeat IPC: 0.320174 cumulative IPC: 0.326297 (Simulation time: 0 hr 37 min 26 sec) 
select_counter is 1023
Heartbeat CPU 0 instructions: 58000001 cycles: 153445646 heartbeat IPC: 0.324722 cumulative IPC: 0.326265 (Simulation time: 0 hr 37 min 55 sec) 
select_counter is 1022
Heartbeat CPU 0 instructions: 59000002 cycles: 156505854 heartbeat IPC: 0.326775 cumulative IPC: 0.326275 (Simulation time: 0 hr 38 min 28 sec) 
select_counter is 1023
Heartbeat CPU 0 instructions: 60000000 cycles: 159588207 heartbeat IPC: 0.324427 cumulative IPC: 0.326238 (Simulation time: 0 hr 39 min 2 sec) 
select_counter is 1023
Heartbeat CPU 0 instructions: 61000003 cycles: 162583335 heartbeat IPC: 0.333877 cumulative IPC: 0.326384 (Simulation time: 0 hr 39 min 32 sec) 
select_counter is 1023
Heartbeat CPU 0 instructions: 62000002 cycles: 165658263 heartbeat IPC: 0.325211 cumulative IPC: 0.326362 (Simulation time: 0 hr 40 min 1 sec) 
select_counter is 1023
Heartbeat CPU 0 instructions: 63000001 cycles: 168732392 heartbeat IPC: 0.325295 cumulative IPC: 0.326341 (Simulation time: 0 hr 40 min 30 sec) 
select_counter is 1023
Heartbeat CPU 0 instructions: 64000000 cycles: 171839408 heartbeat IPC: 0.321852 cumulative IPC: 0.326257 (Simulation time: 0 hr 41 min 1 sec) 
select_counter is 1022
Heartbeat CPU 0 instructions: 65000002 cycles: 174924539 heartbeat IPC: 0.324136 cumulative IPC: 0.326218 (Simulation time: 0 hr 41 min 31 sec) 
select_counter is 1023
Heartbeat CPU 0 instructions: 66000002 cycles: 177935747 heartbeat IPC: 0.332093 cumulative IPC: 0.326321 (Simulation time: 0 hr 42 min 2 sec) 
select_counter is 1023
Heartbeat CPU 0 instructions: 67000000 cycles: 180974076 heartbeat IPC: 0.329128 cumulative IPC: 0.32637 (Simulation time: 0 hr 42 min 31 sec) 
select_counter is 1020
Heartbeat CPU 0 instructions: 68000000 cycles: 184024054 heartbeat IPC: 0.327871 cumulative IPC: 0.326396 (Simulation time: 0 hr 43 min 0 sec) 
select_counter is 1022
Heartbeat CPU 0 instructions: 69000001 cycles: 187062546 heartbeat IPC: 0.329111 cumulative IPC: 0.326442 (Simulation time: 0 hr 43 min 27 sec) 
select_counter is 1023
Heartbeat CPU 0 instructions: 70000002 cycles: 190192547 heartbeat IPC: 0.319489 cumulative IPC: 0.326323 (Simulation time: 0 hr 43 min 58 sec) 
select_counter is 1023
Heartbeat CPU 0 instructions: 71000002 cycles: 193219572 heartbeat IPC: 0.330357 cumulative IPC: 0.326389 (Simulation time: 0 hr 44 min 26 sec) 
select_counter is 1023
Heartbeat CPU 0 instructions: 72000000 cycles: 195769382 heartbeat IPC: 0.392185 cumulative IPC: 0.327274 (Simulation time: 0 hr 44 min 53 sec) 
select_counter is 1023
Heartbeat CPU 0 instructions: 73000000 cycles: 198329562 heartbeat IPC: 0.390598 cumulative IPC: 0.328119 (Simulation time: 0 hr 45 min 17 sec) 
select_counter is 1023
Heartbeat CPU 0 instructions: 74000000 cycles: 200925756 heartbeat IPC: 0.385179 cumulative IPC: 0.32888 (Simulation time: 0 hr 45 min 39 sec) 
select_counter is 1022
Heartbeat CPU 0 instructions: 75000003 cycles: 203496963 heartbeat IPC: 0.388924 cumulative IPC: 0.329663 (Simulation time: 0 hr 46 min 2 sec) 
select_counter is 1022
Heartbeat CPU 0 instructions: 76000000 cycles: 206077534 heartbeat IPC: 0.38751 cumulative IPC: 0.33041 (Simulation time: 0 hr 46 min 25 sec) 
select_counter is 1023
Heartbeat CPU 0 instructions: 77000000 cycles: 208655746 heartbeat IPC: 0.387866 cumulative IPC: 0.331142 (Simulation time: 0 hr 46 min 45 sec) 
select_counter is 1023
Heartbeat CPU 0 instructions: 78000001 cycles: 211226389 heartbeat IPC: 0.389008 cumulative IPC: 0.331868 (Simulation time: 0 hr 47 min 7 sec) 
select_counter is 1022
Heartbeat CPU 0 instructions: 79000003 cycles: 213793814 heartbeat IPC: 0.389496 cumulative IPC: 0.332581 (Simulation time: 0 hr 47 min 29 sec) 
select_counter is 1023
Heartbeat CPU 0 instructions: 80000000 cycles: 216385376 heartbeat IPC: 0.385867 cumulative IPC: 0.333239 (Simulation time: 0 hr 47 min 47 sec) 
select_counter is 1023
Heartbeat CPU 0 instructions: 81000001 cycles: 218975639 heartbeat IPC: 0.386062 cumulative IPC: 0.333882 (Simulation time: 0 hr 48 min 1 sec) 
select_counter is 1023
Heartbeat CPU 0 instructions: 82000000 cycles: 221576106 heartbeat IPC: 0.384546 cumulative IPC: 0.334494 (Simulation time: 0 hr 48 min 15 sec) 
select_counter is 1023
Heartbeat CPU 0 instructions: 83000000 cycles: 224197790 heartbeat IPC: 0.381434 cumulative IPC: 0.335059 (Simulation time: 0 hr 48 min 28 sec) 
select_counter is 1023
Heartbeat CPU 0 instructions: 84000000 cycles: 226832946 heartbeat IPC: 0.379484 cumulative IPC: 0.33559 (Simulation time: 0 hr 48 min 39 sec) 
select_counter is 1022
Heartbeat CPU 0 instructions: 85000000 cycles: 229451041 heartbeat IPC: 0.381957 cumulative IPC: 0.336134 (Simulation time: 0 hr 48 min 50 sec) 
select_counter is 1023
Heartbeat CPU 0 instructions: 86000000 cycles: 232043296 heartbeat IPC: 0.385765 cumulative IPC: 0.336704 (Simulation time: 0 hr 49 min 1 sec) 
select_counter is 1020
Heartbeat CPU 0 instructions: 87000001 cycles: 234701472 heartbeat IPC: 0.376198 cumulative IPC: 0.337164 (Simulation time: 0 hr 49 min 11 sec) 
select_counter is 1022
Heartbeat CPU 0 instructions: 88000000 cycles: 237293450 heartbeat IPC: 0.385805 cumulative IPC: 0.33771 (Simulation time: 0 hr 49 min 22 sec) 
select_counter is 1023
Heartbeat CPU 0 instructions: 89000003 cycles: 239909631 heartbeat IPC: 0.382238 cumulative IPC: 0.338208 (Simulation time: 0 hr 49 min 32 sec) 
select_counter is 1022
Heartbeat CPU 0 instructions: 90000000 cycles: 242528377 heartbeat IPC: 0.381861 cumulative IPC: 0.338692 (Simulation time: 0 hr 49 min 42 sec) 
select_counter is 1023
Heartbeat CPU 0 instructions: 91000001 cycles: 245154194 heartbeat IPC: 0.380834 cumulative IPC: 0.339156 (Simulation time: 0 hr 49 min 52 sec) 
select_counter is 1023
Heartbeat CPU 0 instructions: 92000000 cycles: 247768207 heartbeat IPC: 0.382553 cumulative IPC: 0.339625 (Simulation time: 0 hr 50 min 1 sec) 
select_counter is 1021
Heartbeat CPU 0 instructions: 93000003 cycles: 250344938 heartbeat IPC: 0.38809 cumulative IPC: 0.340137 (Simulation time: 0 hr 50 min 9 sec) 
select_counter is 1021
Heartbeat CPU 0 instructions: 94000002 cycles: 252975319 heartbeat IPC: 0.380173 cumulative IPC: 0.340564 (Simulation time: 0 hr 50 min 15 sec) 
select_counter is 1023
Heartbeat CPU 0 instructions: 95000001 cycles: 255634820 heartbeat IPC: 0.37601 cumulative IPC: 0.340942 (Simulation time: 0 hr 50 min 21 sec) 
select_counter is 1021
Heartbeat CPU 0 instructions: 96000000 cycles: 258261286 heartbeat IPC: 0.380739 cumulative IPC: 0.341357 (Simulation time: 0 hr 50 min 25 sec) 
select_counter is 1023
Heartbeat CPU 0 instructions: 97000002 cycles: 260879154 heartbeat IPC: 0.381991 cumulative IPC: 0.341775 (Simulation time: 0 hr 50 min 30 sec) 
select_counter is 1020
Heartbeat CPU 0 instructions: 98000000 cycles: 263467954 heartbeat IPC: 0.386279 cumulative IPC: 0.342223 (Simulation time: 0 hr 50 min 34 sec) 
select_counter is 1023
Heartbeat CPU 0 instructions: 99000001 cycles: 266110633 heartbeat IPC: 0.378404 cumulative IPC: 0.342591 (Simulation time: 0 hr 50 min 39 sec) 
select_counter is 1023
Heartbeat CPU 0 instructions: 100000000 cycles: 268756169 heartbeat IPC: 0.377995 cumulative IPC: 0.342948 (Simulation time: 0 hr 50 min 43 sec) 
select_counter is 1023
Heartbeat CPU 0 instructions: 101000001 cycles: 271402443 heartbeat IPC: 0.37789 cumulative IPC: 0.343297 (Simulation time: 0 hr 50 min 47 sec) 
select_counter is 1022
Heartbeat CPU 0 instructions: 102000002 cycles: 274026691 heartbeat IPC: 0.381062 cumulative IPC: 0.343667 (Simulation time: 0 hr 50 min 51 sec) 
select_counter is 1022
Heartbeat CPU 0 instructions: 103000000 cycles: 276601943 heartbeat IPC: 0.388311 cumulative IPC: 0.344092 (Simulation time: 0 hr 50 min 56 sec) 
select_counter is 1023
Heartbeat CPU 0 instructions: 104000000 cycles: 279189024 heartbeat IPC: 0.386536 cumulative IPC: 0.344495 (Simulation time: 0 hr 51 min 0 sec) 
select_counter is 1020
Heartbeat CPU 0 instructions: 105000000 cycles: 281816043 heartbeat IPC: 0.38066 cumulative IPC: 0.34484 (Simulation time: 0 hr 51 min 4 sec) 
select_counter is 1023
Heartbeat CPU 0 instructions: 106000002 cycles: 284420264 heartbeat IPC: 0.383993 cumulative IPC: 0.345206 (Simulation time: 0 hr 51 min 9 sec) 
select_counter is 1022
Heartbeat CPU 0 instructions: 107000000 cycles: 287043684 heartbeat IPC: 0.381181 cumulative IPC: 0.345543 (Simulation time: 0 hr 51 min 13 sec) 
select_counter is 1021
Heartbeat CPU 0 instructions: 108000000 cycles: 289646429 heartbeat IPC: 0.38421 cumulative IPC: 0.345898 (Simulation time: 0 hr 51 min 17 sec) 
select_counter is 1023
Heartbeat CPU 0 instructions: 109000003 cycles: 292261241 heartbeat IPC: 0.382438 cumulative IPC: 0.346232 (Simulation time: 0 hr 51 min 22 sec) 
select_counter is 1023
Heartbeat CPU 0 instructions: 110000001 cycles: 294912981 heartbeat IPC: 0.37711 cumulative IPC: 0.346516 (Simulation time: 0 hr 51 min 26 sec) 
select_counter is 1023
Finished CPU 0 instructions: 100000003 cycles: 288587222 cummulative IPC: 0.346516 (Simulation time: 0 hr 51 min 26 sec) 

ChampSim completed all CPUs

Region of Interest Statistics

CPU 0 cummulative IPC: 0.346516 instructions: 100000003 cycles: 288587222
LLC TOTAL     ACCESS:    4687831  HIT:     796576  MISS:    3891255
LLC LOAD      ACCESS:    3310958  HIT:     667215  MISS:    2643743
LLC RFO       ACCESS:         20  HIT:          0  MISS:         20
LLC PREFETCH  ACCESS:          0  HIT:          0  MISS:          0
LLC WRITEBACK ACCESS:    1376853  HIT:     129361  MISS:    1247492
Insertion Distribution: 
	LOAD 24351 0 0 0 0 0 3042 64151 
	RFO 0 0 0 0 0 0 0 0 
	PREF 0 0 0 0 0 0 0 0 
	WRITEBACK 0 0 0 0 0 0 0 43865 
Total Prefetch Downgrades: 0
