
*** ChampSim Multicore Out-of-Order Simulator ***

Warmup Instructions: 10000000
Simulation Instructions: 100000000
Configuration: 1
Number of CPUs: 1
LLC sets: 2048
LLC ways: 16
Off-chip DRAM Channels: 1 Width: 64-bit Data Rate: 1600 MT/s

CPU 0 runs /datasets/cs240c-wi22-a00-public/data/Assignment2-gz/GemsFDTD_109B.trace.gz
Heartbeat CPU 0 instructions: 1000002 cycles: 577063 heartbeat IPC: 1.73292 cumulative IPC: 1.73292 (Simulation time: 0 hr 0 min 32 sec) 
select_counter is 1023
Heartbeat CPU 0 instructions: 2000003 cycles: 1154104 heartbeat IPC: 1.73298 cumulative IPC: 1.73295 (Simulation time: 0 hr 1 min 3 sec) 
select_counter is 1023
Heartbeat CPU 0 instructions: 3000000 cycles: 1730668 heartbeat IPC: 1.73441 cumulative IPC: 1.73343 (Simulation time: 0 hr 1 min 33 sec) 
select_counter is 1023
Heartbeat CPU 0 instructions: 4000000 cycles: 2307182 heartbeat IPC: 1.73456 cumulative IPC: 1.73372 (Simulation time: 0 hr 2 min 4 sec) 
select_counter is 1022
Heartbeat CPU 0 instructions: 5000000 cycles: 2884140 heartbeat IPC: 1.73323 cumulative IPC: 1.73362 (Simulation time: 0 hr 2 min 37 sec) 
select_counter is 1022
Heartbeat CPU 0 instructions: 6000002 cycles: 3461032 heartbeat IPC: 1.73343 cumulative IPC: 1.73359 (Simulation time: 0 hr 3 min 7 sec) 
select_counter is 1023
Heartbeat CPU 0 instructions: 7000001 cycles: 4038015 heartbeat IPC: 1.73315 cumulative IPC: 1.73353 (Simulation time: 0 hr 3 min 38 sec) 
select_counter is 1023
Heartbeat CPU 0 instructions: 8000000 cycles: 4614149 heartbeat IPC: 1.73571 cumulative IPC: 1.7338 (Simulation time: 0 hr 4 min 11 sec) 
select_counter is 1022
Heartbeat CPU 0 instructions: 9000002 cycles: 5190498 heartbeat IPC: 1.73506 cumulative IPC: 1.73394 (Simulation time: 0 hr 4 min 45 sec) 
select_counter is 1022
Heartbeat CPU 0 instructions: 10000001 cycles: 5766905 heartbeat IPC: 1.73488 cumulative IPC: 1.73403 (Simulation time: 0 hr 5 min 20 sec) 
select_counter is 1021

Warmup complete CPU 0 instructions: 10000001 cycles: 5766905 (Simulation time: 0 hr 5 min 20 sec) 

Heartbeat CPU 0 instructions: 11000001 cycles: 8283919 heartbeat IPC: 0.397296 cumulative IPC: 0.397296 (Simulation time: 0 hr 5 min 59 sec) 
select_counter is 1023
Heartbeat CPU 0 instructions: 12000000 cycles: 10784615 heartbeat IPC: 0.399888 cumulative IPC: 0.398588 (Simulation time: 0 hr 6 min 38 sec) 
select_counter is 1023
Heartbeat CPU 0 instructions: 13000001 cycles: 13377066 heartbeat IPC: 0.385736 cumulative IPC: 0.39421 (Simulation time: 0 hr 7 min 16 sec) 
select_counter is 1023
Heartbeat CPU 0 instructions: 14000001 cycles: 15889163 heartbeat IPC: 0.398074 cumulative IPC: 0.395169 (Simulation time: 0 hr 7 min 56 sec) 
select_counter is 1023
Heartbeat CPU 0 instructions: 15000000 cycles: 18406853 heartbeat IPC: 0.397189 cumulative IPC: 0.395571 (Simulation time: 0 hr 8 min 37 sec) 
select_counter is 1023
Heartbeat CPU 0 instructions: 16000000 cycles: 20929736 heartbeat IPC: 0.396372 cumulative IPC: 0.395704 (Simulation time: 0 hr 9 min 19 sec) 
select_counter is 1018
Heartbeat CPU 0 instructions: 17000000 cycles: 23481257 heartbeat IPC: 0.391923 cumulative IPC: 0.39516 (Simulation time: 0 hr 10 min 3 sec) 
select_counter is 1023
Heartbeat CPU 0 instructions: 18000001 cycles: 25979216 heartbeat IPC: 0.400327 cumulative IPC: 0.395798 (Simulation time: 0 hr 10 min 44 sec) 
select_counter is 1021
Heartbeat CPU 0 instructions: 19000001 cycles: 28513158 heartbeat IPC: 0.394642 cumulative IPC: 0.39567 (Simulation time: 0 hr 11 min 19 sec) 
select_counter is 1022
Heartbeat CPU 0 instructions: 20000000 cycles: 30461218 heartbeat IPC: 0.513331 cumulative IPC: 0.404951 (Simulation time: 0 hr 11 min 49 sec) 
select_counter is 1023
Heartbeat CPU 0 instructions: 21000001 cycles: 31828313 heartbeat IPC: 0.731479 cumulative IPC: 0.42208 (Simulation time: 0 hr 12 min 22 sec) 
select_counter is 1023
Heartbeat CPU 0 instructions: 22000001 cycles: 35285617 heartbeat IPC: 0.289243 cumulative IPC: 0.406522 (Simulation time: 0 hr 12 min 59 sec) 
select_counter is 1023
Heartbeat CPU 0 instructions: 23000001 cycles: 36587996 heartbeat IPC: 0.767826 cumulative IPC: 0.421789 (Simulation time: 0 hr 13 min 30 sec) 
select_counter is 1023
Heartbeat CPU 0 instructions: 24000000 cycles: 40045635 heartbeat IPC: 0.289214 cumulative IPC: 0.408417 (Simulation time: 0 hr 14 min 3 sec) 
select_counter is 1022
Heartbeat CPU 0 instructions: 25000003 cycles: 41327146 heartbeat IPC: 0.780331 cumulative IPC: 0.421819 (Simulation time: 0 hr 14 min 32 sec) 
select_counter is 1023
Heartbeat CPU 0 instructions: 26000000 cycles: 44793353 heartbeat IPC: 0.288499 cumulative IPC: 0.409978 (Simulation time: 0 hr 15 min 7 sec) 
select_counter is 1023
Heartbeat CPU 0 instructions: 27000000 cycles: 46047770 heartbeat IPC: 0.797183 cumulative IPC: 0.422037 (Simulation time: 0 hr 15 min 37 sec) 
select_counter is 1023
Heartbeat CPU 0 instructions: 28000000 cycles: 49529607 heartbeat IPC: 0.287205 cumulative IPC: 0.411309 (Simulation time: 0 hr 16 min 15 sec) 
select_counter is 1023
Heartbeat CPU 0 instructions: 29000000 cycles: 50787729 heartbeat IPC: 0.794835 cumulative IPC: 0.422027 (Simulation time: 0 hr 16 min 45 sec) 
select_counter is 1023
Heartbeat CPU 0 instructions: 30000003 cycles: 52495816 heartbeat IPC: 0.585452 cumulative IPC: 0.428001 (Simulation time: 0 hr 17 min 14 sec) 
select_counter is 1023
Heartbeat CPU 0 instructions: 31000002 cycles: 53711059 heartbeat IPC: 0.82288 cumulative IPC: 0.43801 (Simulation time: 0 hr 17 min 44 sec) 
select_counter is 1023
Heartbeat CPU 0 instructions: 32000000 cycles: 55270087 heartbeat IPC: 0.641424 cumulative IPC: 0.444416 (Simulation time: 0 hr 18 min 13 sec) 
select_counter is 1023
Heartbeat CPU 0 instructions: 33000003 cycles: 56489388 heartbeat IPC: 0.820144 cumulative IPC: 0.453448 (Simulation time: 0 hr 18 min 42 sec) 
select_counter is 1023
Heartbeat CPU 0 instructions: 34000002 cycles: 57992764 heartbeat IPC: 0.665169 cumulative IPC: 0.459542 (Simulation time: 0 hr 19 min 11 sec) 
select_counter is 1022
Heartbeat CPU 0 instructions: 35000003 cycles: 59270049 heartbeat IPC: 0.782911 cumulative IPC: 0.467262 (Simulation time: 0 hr 19 min 43 sec) 
select_counter is 1023
Heartbeat CPU 0 instructions: 36000000 cycles: 60815851 heartbeat IPC: 0.646911 cumulative IPC: 0.472307 (Simulation time: 0 hr 20 min 17 sec) 
select_counter is 1022
Heartbeat CPU 0 instructions: 37000000 cycles: 62163926 heartbeat IPC: 0.741799 cumulative IPC: 0.478749 (Simulation time: 0 hr 20 min 51 sec) 
select_counter is 1022
Heartbeat CPU 0 instructions: 38000001 cycles: 63511928 heartbeat IPC: 0.741839 cumulative IPC: 0.48489 (Simulation time: 0 hr 21 min 27 sec) 
select_counter is 1022
Heartbeat CPU 0 instructions: 39000000 cycles: 64859823 heartbeat IPC: 0.741897 cumulative IPC: 0.490753 (Simulation time: 0 hr 21 min 58 sec) 
select_counter is 1022
Heartbeat CPU 0 instructions: 40000000 cycles: 66207838 heartbeat IPC: 0.741831 cumulative IPC: 0.496352 (Simulation time: 0 hr 22 min 31 sec) 
select_counter is 1022
Heartbeat CPU 0 instructions: 41000000 cycles: 67638956 heartbeat IPC: 0.698754 cumulative IPC: 0.501034 (Simulation time: 0 hr 23 min 1 sec) 
select_counter is 1023
Heartbeat CPU 0 instructions: 42000000 cycles: 68987520 heartbeat IPC: 0.74153 cumulative IPC: 0.506164 (Simulation time: 0 hr 23 min 36 sec) 
select_counter is 1023
Heartbeat CPU 0 instructions: 43000002 cycles: 70336218 heartbeat IPC: 0.741457 cumulative IPC: 0.511079 (Simulation time: 0 hr 24 min 13 sec) 
select_counter is 1023
Heartbeat CPU 0 instructions: 44000000 cycles: 71684740 heartbeat IPC: 0.741551 cumulative IPC: 0.515794 (Simulation time: 0 hr 24 min 52 sec) 
select_counter is 1023
Heartbeat CPU 0 instructions: 45000001 cycles: 73033103 heartbeat IPC: 0.741641 cumulative IPC: 0.520321 (Simulation time: 0 hr 25 min 25 sec) 
select_counter is 1023
Heartbeat CPU 0 instructions: 46000002 cycles: 74583148 heartbeat IPC: 0.645143 cumulative IPC: 0.523132 (Simulation time: 0 hr 26 min 0 sec) 
select_counter is 1023
Heartbeat CPU 0 instructions: 47000001 cycles: 76012821 heartbeat IPC: 0.69946 cumulative IPC: 0.526721 (Simulation time: 0 hr 26 min 26 sec) 
select_counter is 1022
Heartbeat CPU 0 instructions: 48000000 cycles: 77575473 heartbeat IPC: 0.639937 cumulative IPC: 0.529185 (Simulation time: 0 hr 26 min 50 sec) 
select_counter is 1022
Heartbeat CPU 0 instructions: 49000003 cycles: 87399476 heartbeat IPC: 0.101792 cumulative IPC: 0.477751 (Simulation time: 0 hr 27 min 39 sec) 
select_counter is 1023
Heartbeat CPU 0 instructions: 50000002 cycles: 90752581 heartbeat IPC: 0.298231 cumulative IPC: 0.470668 (Simulation time: 0 hr 28 min 16 sec) 
select_counter is 1023
Heartbeat CPU 0 instructions: 51000003 cycles: 94278054 heartbeat IPC: 0.28365 cumulative IPC: 0.463219 (Simulation time: 0 hr 29 min 1 sec) 
select_counter is 1023
Heartbeat CPU 0 instructions: 52000000 cycles: 97756177 heartbeat IPC: 0.287511 cumulative IPC: 0.456575 (Simulation time: 0 hr 29 min 44 sec) 
select_counter is 1023
Heartbeat CPU 0 instructions: 53000001 cycles: 100931100 heartbeat IPC: 0.314969 cumulative IPC: 0.451851 (Simulation time: 0 hr 30 min 31 sec) 
select_counter is 1023
Heartbeat CPU 0 instructions: 54000000 cycles: 104064904 heartbeat IPC: 0.319101 cumulative IPC: 0.447618 (Simulation time: 0 hr 31 min 11 sec) 
select_counter is 1023
Heartbeat CPU 0 instructions: 55000002 cycles: 107236315 heartbeat IPC: 0.315318 cumulative IPC: 0.443483 (Simulation time: 0 hr 31 min 50 sec) 
select_counter is 1023
Heartbeat CPU 0 instructions: 56000000 cycles: 110349326 heartbeat IPC: 0.321232 cumulative IPC: 0.439844 (Simulation time: 0 hr 32 min 27 sec) 
select_counter is 1023
Heartbeat CPU 0 instructions: 57000002 cycles: 113570635 heartbeat IPC: 0.310433 cumulative IPC: 0.435977 (Simulation time: 0 hr 33 min 4 sec) 
select_counter is 1023
Heartbeat CPU 0 instructions: 58000002 cycles: 116656958 heartbeat IPC: 0.32401 cumulative IPC: 0.432861 (Simulation time: 0 hr 33 min 40 sec) 
select_counter is 1022
Heartbeat CPU 0 instructions: 59000002 cycles: 119798082 heartbeat IPC: 0.318357 cumulative IPC: 0.429707 (Simulation time: 0 hr 34 min 27 sec) 
select_counter is 1023
Heartbeat CPU 0 instructions: 60000000 cycles: 122912950 heartbeat IPC: 0.32104 cumulative IPC: 0.426818 (Simulation time: 0 hr 35 min 13 sec) 
select_counter is 1023
Heartbeat CPU 0 instructions: 61000001 cycles: 125912214 heartbeat IPC: 0.333415 cumulative IPC: 0.424486 (Simulation time: 0 hr 35 min 45 sec) 
select_counter is 1021
Heartbeat CPU 0 instructions: 62000003 cycles: 128930030 heartbeat IPC: 0.331366 cumulative IPC: 0.422204 (Simulation time: 0 hr 36 min 14 sec) 
select_counter is 1023
Heartbeat CPU 0 instructions: 63000001 cycles: 131979227 heartbeat IPC: 0.327955 cumulative IPC: 0.419927 (Simulation time: 0 hr 36 min 45 sec) 
select_counter is 1023
Heartbeat CPU 0 instructions: 64000000 cycles: 135071418 heartbeat IPC: 0.323395 cumulative IPC: 0.417619 (Simulation time: 0 hr 37 min 19 sec) 
select_counter is 1023
Heartbeat CPU 0 instructions: 65000003 cycles: 138179216 heartbeat IPC: 0.321772 cumulative IPC: 0.415369 (Simulation time: 0 hr 37 min 53 sec) 
select_counter is 1022
Heartbeat CPU 0 instructions: 66000002 cycles: 141268539 heartbeat IPC: 0.323695 cumulative IPC: 0.413279 (Simulation time: 0 hr 38 min 24 sec) 
select_counter is 1023
Heartbeat CPU 0 instructions: 67000000 cycles: 144340473 heartbeat IPC: 0.325527 cumulative IPC: 0.411334 (Simulation time: 0 hr 38 min 53 sec) 
select_counter is 1023
Heartbeat CPU 0 instructions: 68000000 cycles: 147410388 heartbeat IPC: 0.325742 cumulative IPC: 0.409479 (Simulation time: 0 hr 39 min 22 sec) 
select_counter is 1022
Heartbeat CPU 0 instructions: 69000000 cycles: 150496633 heartbeat IPC: 0.324018 cumulative IPC: 0.407656 (Simulation time: 0 hr 39 min 53 sec) 
select_counter is 1023
Heartbeat CPU 0 instructions: 70000003 cycles: 153511293 heartbeat IPC: 0.331713 cumulative IPC: 0.406107 (Simulation time: 0 hr 40 min 27 sec) 
select_counter is 1023
Heartbeat CPU 0 instructions: 71000000 cycles: 156570858 heartbeat IPC: 0.326843 cumulative IPC: 0.404499 (Simulation time: 0 hr 40 min 56 sec) 
select_counter is 1023
Heartbeat CPU 0 instructions: 72000000 cycles: 159580421 heartbeat IPC: 0.332274 cumulative IPC: 0.403086 (Simulation time: 0 hr 41 min 37 sec) 
select_counter is 1023
Heartbeat CPU 0 instructions: 73000002 cycles: 162667045 heartbeat IPC: 0.323979 cumulative IPC: 0.401529 (Simulation time: 0 hr 42 min 7 sec) 
select_counter is 1023
Heartbeat CPU 0 instructions: 74000000 cycles: 165733968 heartbeat IPC: 0.326059 cumulative IPC: 0.400082 (Simulation time: 0 hr 42 min 37 sec) 
select_counter is 1023
Heartbeat CPU 0 instructions: 75000001 cycles: 168825145 heartbeat IPC: 0.323502 cumulative IPC: 0.398631 (Simulation time: 0 hr 43 min 3 sec) 
select_counter is 1023
Heartbeat CPU 0 instructions: 76000000 cycles: 171870407 heartbeat IPC: 0.328379 cumulative IPC: 0.397343 (Simulation time: 0 hr 43 min 29 sec) 
select_counter is 1023
Heartbeat CPU 0 instructions: 77000003 cycles: 175007772 heartbeat IPC: 0.31874 cumulative IPC: 0.395885 (Simulation time: 0 hr 43 min 56 sec) 
select_counter is 1023
Heartbeat CPU 0 instructions: 78000000 cycles: 178047711 heartbeat IPC: 0.328953 cumulative IPC: 0.394704 (Simulation time: 0 hr 44 min 23 sec) 
select_counter is 1017
Heartbeat CPU 0 instructions: 79000001 cycles: 181039438 heartbeat IPC: 0.334255 cumulative IPC: 0.393673 (Simulation time: 0 hr 44 min 49 sec) 
select_counter is 1022
Heartbeat CPU 0 instructions: 80000000 cycles: 184060423 heartbeat IPC: 0.331018 cumulative IPC: 0.392611 (Simulation time: 0 hr 45 min 16 sec) 
select_counter is 1022
Heartbeat CPU 0 instructions: 81000000 cycles: 187106275 heartbeat IPC: 0.328315 cumulative IPC: 0.391531 (Simulation time: 0 hr 45 min 39 sec) 
select_counter is 1023
Heartbeat CPU 0 instructions: 82000001 cycles: 190146924 heartbeat IPC: 0.328877 cumulative IPC: 0.390498 (Simulation time: 0 hr 46 min 1 sec) 
select_counter is 1023
Heartbeat CPU 0 instructions: 83000003 cycles: 193189495 heartbeat IPC: 0.32867 cumulative IPC: 0.389494 (Simulation time: 0 hr 46 min 22 sec) 
select_counter is 1022
Heartbeat CPU 0 instructions: 84000000 cycles: 196193334 heartbeat IPC: 0.332906 cumulative IPC: 0.388602 (Simulation time: 0 hr 46 min 41 sec) 
select_counter is 1021
Heartbeat CPU 0 instructions: 85000001 cycles: 199299003 heartbeat IPC: 0.321992 cumulative IPC: 0.387533 (Simulation time: 0 hr 47 min 1 sec) 
select_counter is 1023
Heartbeat CPU 0 instructions: 86000002 cycles: 202355000 heartbeat IPC: 0.327226 cumulative IPC: 0.386595 (Simulation time: 0 hr 47 min 19 sec) 
select_counter is 1023
Heartbeat CPU 0 instructions: 87000000 cycles: 205417401 heartbeat IPC: 0.326541 cumulative IPC: 0.385674 (Simulation time: 0 hr 47 min 38 sec) 
select_counter is 1021
Heartbeat CPU 0 instructions: 88000000 cycles: 208528643 heartbeat IPC: 0.321415 cumulative IPC: 0.384688 (Simulation time: 0 hr 47 min 53 sec) 
select_counter is 1023
Heartbeat CPU 0 instructions: 89000000 cycles: 211642837 heartbeat IPC: 0.32111 cumulative IPC: 0.383726 (Simulation time: 0 hr 48 min 8 sec) 
select_counter is 1023
Heartbeat CPU 0 instructions: 90000002 cycles: 214779673 heartbeat IPC: 0.318793 cumulative IPC: 0.382752 (Simulation time: 0 hr 48 min 22 sec) 
select_counter is 1022
Heartbeat CPU 0 instructions: 91000000 cycles: 217892387 heartbeat IPC: 0.321262 cumulative IPC: 0.381849 (Simulation time: 0 hr 48 min 34 sec) 
select_counter is 1023
Heartbeat CPU 0 instructions: 92000000 cycles: 220982283 heartbeat IPC: 0.323635 cumulative IPC: 0.381014 (Simulation time: 0 hr 48 min 45 sec) 
select_counter is 1022
Heartbeat CPU 0 instructions: 93000002 cycles: 224086903 heartbeat IPC: 0.322101 cumulative IPC: 0.380176 (Simulation time: 0 hr 48 min 56 sec) 
select_counter is 1023
Heartbeat CPU 0 instructions: 94000000 cycles: 227131986 heartbeat IPC: 0.328398 cumulative IPC: 0.379464 (Simulation time: 0 hr 49 min 8 sec) 
select_counter is 1023
Heartbeat CPU 0 instructions: 95000000 cycles: 230159859 heartbeat IPC: 0.330265 cumulative IPC: 0.3788 (Simulation time: 0 hr 49 min 18 sec) 
select_counter is 1023
Heartbeat CPU 0 instructions: 96000000 cycles: 233242131 heartbeat IPC: 0.324436 cumulative IPC: 0.378063 (Simulation time: 0 hr 49 min 29 sec) 
select_counter is 1023
Heartbeat CPU 0 instructions: 97000002 cycles: 236346395 heartbeat IPC: 0.322138 cumulative IPC: 0.37731 (Simulation time: 0 hr 49 min 39 sec) 
select_counter is 1023
Heartbeat CPU 0 instructions: 98000000 cycles: 239484841 heartbeat IPC: 0.318628 cumulative IPC: 0.376522 (Simulation time: 0 hr 49 min 50 sec) 
select_counter is 1023
Heartbeat CPU 0 instructions: 99000000 cycles: 242486896 heartbeat IPC: 0.333105 cumulative IPC: 0.375972 (Simulation time: 0 hr 49 min 58 sec) 
select_counter is 1023
Heartbeat CPU 0 instructions: 100000000 cycles: 245592853 heartbeat IPC: 0.321962 cumulative IPC: 0.375272 (Simulation time: 0 hr 50 min 7 sec) 
select_counter is 1023
Heartbeat CPU 0 instructions: 101000001 cycles: 248685155 heartbeat IPC: 0.323384 cumulative IPC: 0.374612 (Simulation time: 0 hr 50 min 14 sec) 
select_counter is 1023
Heartbeat CPU 0 instructions: 102000003 cycles: 251786755 heartbeat IPC: 0.322415 cumulative IPC: 0.373954 (Simulation time: 0 hr 50 min 20 sec) 
select_counter is 1023
Heartbeat CPU 0 instructions: 103000001 cycles: 254823691 heartbeat IPC: 0.329279 cumulative IPC: 0.373409 (Simulation time: 0 hr 50 min 25 sec) 
select_counter is 1023
Heartbeat CPU 0 instructions: 104000000 cycles: 257935696 heartbeat IPC: 0.321336 cumulative IPC: 0.372766 (Simulation time: 0 hr 50 min 29 sec) 
select_counter is 1022
Heartbeat CPU 0 instructions: 105000000 cycles: 261033521 heartbeat IPC: 0.322807 cumulative IPC: 0.37216 (Simulation time: 0 hr 50 min 34 sec) 
select_counter is 1023
Heartbeat CPU 0 instructions: 106000001 cycles: 264107485 heartbeat IPC: 0.325313 cumulative IPC: 0.371602 (Simulation time: 0 hr 50 min 38 sec) 
select_counter is 1022
Heartbeat CPU 0 instructions: 107000003 cycles: 267207016 heartbeat IPC: 0.32263 cumulative IPC: 0.371022 (Simulation time: 0 hr 50 min 42 sec) 
select_counter is 1023
Heartbeat CPU 0 instructions: 108000000 cycles: 270320791 heartbeat IPC: 0.321153 cumulative IPC: 0.370435 (Simulation time: 0 hr 50 min 47 sec) 
select_counter is 1023
Heartbeat CPU 0 instructions: 109000003 cycles: 273367284 heartbeat IPC: 0.328247 cumulative IPC: 0.369955 (Simulation time: 0 hr 50 min 51 sec) 
select_counter is 1023
Heartbeat CPU 0 instructions: 110000002 cycles: 276466970 heartbeat IPC: 0.322613 cumulative IPC: 0.369413 (Simulation time: 0 hr 50 min 55 sec) 
select_counter is 1022
Finished CPU 0 instructions: 100000001 cycles: 270700065 cummulative IPC: 0.369413 (Simulation time: 0 hr 50 min 55 sec) 

ChampSim completed all CPUs

Region of Interest Statistics

CPU 0 cummulative IPC: 0.369413 instructions: 100000001 cycles: 270700065
LLC TOTAL     ACCESS:    4564551  HIT:    1195461  MISS:    3369090
LLC LOAD      ACCESS:    3073733  HIT:     636332  MISS:    2437401
LLC RFO       ACCESS:     126461  HIT:     114261  MISS:      12200
LLC PREFETCH  ACCESS:          0  HIT:          0  MISS:          0
LLC WRITEBACK ACCESS:    1364357  HIT:     444868  MISS:     919489
Insertion Distribution: 
	LOAD 16709 0 0 0 0 0 5883 61479 
	RFO 88 0 0 0 0 0 97 312 
	PREF 0 0 0 0 0 0 0 0 
	WRITEBACK 0 0 0 0 0 0 0 38992 
Total Prefetch Downgrades: 0
