
*** ChampSim Multicore Out-of-Order Simulator ***

Warmup Instructions: 10000000
Simulation Instructions: 100000000
Configuration: 1
Number of CPUs: 1
LLC sets: 2048
LLC ways: 16
Off-chip DRAM Channels: 1 Width: 64-bit Data Rate: 1600 MT/s

CPU 0 runs /datasets/cs240c-wi22-a00-public/data/Assignment2-gz/omnetpp_17B.trace.gz
Heartbeat CPU 0 instructions: 1000000 cycles: 559789 heartbeat IPC: 1.78639 cumulative IPC: 1.78639 (Simulation time: 0 hr 0 min 21 sec) 
select_counter is 1023
Heartbeat CPU 0 instructions: 2000002 cycles: 1133973 heartbeat IPC: 1.74161 cumulative IPC: 1.76371 (Simulation time: 0 hr 0 min 39 sec) 
select_counter is 1023
Heartbeat CPU 0 instructions: 3000001 cycles: 1769236 heartbeat IPC: 1.57415 cumulative IPC: 1.69565 (Simulation time: 0 hr 0 min 56 sec) 
select_counter is 1023
Heartbeat CPU 0 instructions: 4000000 cycles: 2334166 heartbeat IPC: 1.77013 cumulative IPC: 1.71367 (Simulation time: 0 hr 1 min 14 sec) 
select_counter is 1022
Heartbeat CPU 0 instructions: 5000002 cycles: 2893182 heartbeat IPC: 1.78886 cumulative IPC: 1.7282 (Simulation time: 0 hr 1 min 34 sec) 
select_counter is 1023
Heartbeat CPU 0 instructions: 6000000 cycles: 3471769 heartbeat IPC: 1.72835 cumulative IPC: 1.72823 (Simulation time: 0 hr 1 min 52 sec) 
select_counter is 1023
Heartbeat CPU 0 instructions: 7000000 cycles: 4036074 heartbeat IPC: 1.77209 cumulative IPC: 1.73436 (Simulation time: 0 hr 2 min 13 sec) 
select_counter is 1020
Heartbeat CPU 0 instructions: 8000000 cycles: 4697816 heartbeat IPC: 1.51116 cumulative IPC: 1.70292 (Simulation time: 0 hr 2 min 30 sec) 
select_counter is 1023
Heartbeat CPU 0 instructions: 9000000 cycles: 5359647 heartbeat IPC: 1.51096 cumulative IPC: 1.67922 (Simulation time: 0 hr 2 min 46 sec) 
select_counter is 1022
Heartbeat CPU 0 instructions: 10000001 cycles: 6021238 heartbeat IPC: 1.51151 cumulative IPC: 1.66079 (Simulation time: 0 hr 3 min 3 sec) 
select_counter is 1023

Warmup complete CPU 0 instructions: 10000001 cycles: 6021238 (Simulation time: 0 hr 3 min 3 sec) 

Heartbeat CPU 0 instructions: 11000001 cycles: 7067500 heartbeat IPC: 0.955784 cumulative IPC: 0.955784 (Simulation time: 0 hr 3 min 20 sec) 
select_counter is 1023
Heartbeat CPU 0 instructions: 12000000 cycles: 8113184 heartbeat IPC: 0.956311 cumulative IPC: 0.956047 (Simulation time: 0 hr 3 min 38 sec) 
select_counter is 1023
Heartbeat CPU 0 instructions: 13000000 cycles: 9184386 heartbeat IPC: 0.933531 cumulative IPC: 0.948422 (Simulation time: 0 hr 3 min 56 sec) 
select_counter is 1023
Heartbeat CPU 0 instructions: 14000001 cycles: 10229999 heartbeat IPC: 0.956378 cumulative IPC: 0.950398 (Simulation time: 0 hr 4 min 12 sec) 
select_counter is 1023
Heartbeat CPU 0 instructions: 15000000 cycles: 11274775 heartbeat IPC: 0.957142 cumulative IPC: 0.95174 (Simulation time: 0 hr 4 min 31 sec) 
select_counter is 1023
Heartbeat CPU 0 instructions: 16000000 cycles: 12320048 heartbeat IPC: 0.956688 cumulative IPC: 0.952561 (Simulation time: 0 hr 4 min 48 sec) 
select_counter is 1023
Heartbeat CPU 0 instructions: 17000000 cycles: 13367221 heartbeat IPC: 0.954952 cumulative IPC: 0.952902 (Simulation time: 0 hr 5 min 6 sec) 
select_counter is 1023
Heartbeat CPU 0 instructions: 18000001 cycles: 14409585 heartbeat IPC: 0.959359 cumulative IPC: 0.953704 (Simulation time: 0 hr 5 min 24 sec) 
select_counter is 1020
Heartbeat CPU 0 instructions: 19000002 cycles: 15445431 heartbeat IPC: 0.965395 cumulative IPC: 0.954989 (Simulation time: 0 hr 5 min 42 sec) 
select_counter is 1023
Heartbeat CPU 0 instructions: 20000000 cycles: 18861327 heartbeat IPC: 0.292748 cumulative IPC: 0.778811 (Simulation time: 0 hr 6 min 4 sec) 
select_counter is 1022
Heartbeat CPU 0 instructions: 21000000 cycles: 21405314 heartbeat IPC: 0.393084 cumulative IPC: 0.715025 (Simulation time: 0 hr 6 min 26 sec) 
select_counter is 1018
Heartbeat CPU 0 instructions: 22000002 cycles: 23268712 heartbeat IPC: 0.536655 cumulative IPC: 0.695754 (Simulation time: 0 hr 6 min 49 sec) 
select_counter is 1023
Heartbeat CPU 0 instructions: 23000000 cycles: 26633297 heartbeat IPC: 0.297213 cumulative IPC: 0.630699 (Simulation time: 0 hr 7 min 13 sec) 
select_counter is 1023
Heartbeat CPU 0 instructions: 24000000 cycles: 29984883 heartbeat IPC: 0.298366 cumulative IPC: 0.584218 (Simulation time: 0 hr 7 min 35 sec) 
select_counter is 1022
Heartbeat CPU 0 instructions: 25000001 cycles: 32673185 heartbeat IPC: 0.371982 cumulative IPC: 0.562811 (Simulation time: 0 hr 7 min 57 sec) 
select_counter is 1013
Heartbeat CPU 0 instructions: 26000001 cycles: 34370437 heartbeat IPC: 0.589188 cumulative IPC: 0.56439 (Simulation time: 0 hr 8 min 15 sec) 
select_counter is 1023
Heartbeat CPU 0 instructions: 27000000 cycles: 37735622 heartbeat IPC: 0.29716 cumulative IPC: 0.536034 (Simulation time: 0 hr 8 min 38 sec) 
select_counter is 1021
Heartbeat CPU 0 instructions: 28000000 cycles: 41097032 heartbeat IPC: 0.297494 cumulative IPC: 0.513174 (Simulation time: 0 hr 9 min 0 sec) 
select_counter is 1023
Heartbeat CPU 0 instructions: 29000000 cycles: 43961763 heartbeat IPC: 0.349073 cumulative IPC: 0.500784 (Simulation time: 0 hr 9 min 23 sec) 
select_counter is 1023
Heartbeat CPU 0 instructions: 30000000 cycles: 45482674 heartbeat IPC: 0.657501 cumulative IPC: 0.506824 (Simulation time: 0 hr 9 min 44 sec) 
select_counter is 1022
Heartbeat CPU 0 instructions: 31000000 cycles: 48844681 heartbeat IPC: 0.297441 cumulative IPC: 0.490386 (Simulation time: 0 hr 10 min 8 sec) 
select_counter is 1022
Heartbeat CPU 0 instructions: 32000000 cycles: 52214115 heartbeat IPC: 0.296786 cumulative IPC: 0.476264 (Simulation time: 0 hr 10 min 31 sec) 
select_counter is 1021
Heartbeat CPU 0 instructions: 33000001 cycles: 55276502 heartbeat IPC: 0.326543 cumulative IPC: 0.466955 (Simulation time: 0 hr 10 min 52 sec) 
select_counter is 1023
Heartbeat CPU 0 instructions: 34000000 cycles: 56596631 heartbeat IPC: 0.757501 cumulative IPC: 0.474539 (Simulation time: 0 hr 11 min 11 sec) 
select_counter is 1022
Heartbeat CPU 0 instructions: 35000003 cycles: 59944490 heartbeat IPC: 0.298699 cumulative IPC: 0.463622 (Simulation time: 0 hr 11 min 34 sec) 
select_counter is 1023
Heartbeat CPU 0 instructions: 36000000 cycles: 63350137 heartbeat IPC: 0.293629 cumulative IPC: 0.453523 (Simulation time: 0 hr 11 min 57 sec) 
select_counter is 1023
Heartbeat CPU 0 instructions: 37000001 cycles: 66303226 heartbeat IPC: 0.338629 cumulative IPC: 0.447895 (Simulation time: 0 hr 12 min 22 sec) 
select_counter is 1023
Heartbeat CPU 0 instructions: 38000000 cycles: 67743706 heartbeat IPC: 0.694212 cumulative IPC: 0.453644 (Simulation time: 0 hr 12 min 41 sec) 
select_counter is 1022
Heartbeat CPU 0 instructions: 39000000 cycles: 71096194 heartbeat IPC: 0.298286 cumulative IPC: 0.44564 (Simulation time: 0 hr 13 min 4 sec) 
select_counter is 1021
Heartbeat CPU 0 instructions: 40000000 cycles: 74462076 heartbeat IPC: 0.297099 cumulative IPC: 0.438335 (Simulation time: 0 hr 13 min 30 sec) 
select_counter is 1022
Heartbeat CPU 0 instructions: 41000002 cycles: 77308843 heartbeat IPC: 0.351276 cumulative IPC: 0.434858 (Simulation time: 0 hr 13 min 52 sec) 
select_counter is 1023
Heartbeat CPU 0 instructions: 42000000 cycles: 78852152 heartbeat IPC: 0.647957 cumulative IPC: 0.439374 (Simulation time: 0 hr 14 min 12 sec) 
select_counter is 1021
Heartbeat CPU 0 instructions: 43000003 cycles: 84364134 heartbeat IPC: 0.181423 cumulative IPC: 0.421225 (Simulation time: 0 hr 14 min 39 sec) 
select_counter is 1023
Heartbeat CPU 0 instructions: 44000000 cycles: 85412174 heartbeat IPC: 0.954159 cumulative IPC: 0.42826 (Simulation time: 0 hr 15 min 0 sec) 
select_counter is 1023
Heartbeat CPU 0 instructions: 45000003 cycles: 86456577 heartbeat IPC: 0.957488 cumulative IPC: 0.435132 (Simulation time: 0 hr 15 min 17 sec) 
select_counter is 1023
Heartbeat CPU 0 instructions: 46000001 cycles: 87500543 heartbeat IPC: 0.957884 cumulative IPC: 0.44183 (Simulation time: 0 hr 15 min 34 sec) 
select_counter is 1023
Heartbeat CPU 0 instructions: 47000001 cycles: 88545774 heartbeat IPC: 0.956726 cumulative IPC: 0.448352 (Simulation time: 0 hr 15 min 52 sec) 
select_counter is 1023
Heartbeat CPU 0 instructions: 48000000 cycles: 89591009 heartbeat IPC: 0.956722 cumulative IPC: 0.45471 (Simulation time: 0 hr 16 min 10 sec) 
select_counter is 1023
Heartbeat CPU 0 instructions: 49000000 cycles: 90633742 heartbeat IPC: 0.959018 cumulative IPC: 0.460925 (Simulation time: 0 hr 16 min 28 sec) 
select_counter is 1023
Heartbeat CPU 0 instructions: 50000000 cycles: 91677243 heartbeat IPC: 0.958312 cumulative IPC: 0.466984 (Simulation time: 0 hr 16 min 46 sec) 
select_counter is 1023
Heartbeat CPU 0 instructions: 51000002 cycles: 92721589 heartbeat IPC: 0.957539 cumulative IPC: 0.472893 (Simulation time: 0 hr 17 min 5 sec) 
select_counter is 1023
Heartbeat CPU 0 instructions: 52000000 cycles: 93767014 heartbeat IPC: 0.956547 cumulative IPC: 0.478656 (Simulation time: 0 hr 17 min 24 sec) 
select_counter is 1022
Heartbeat CPU 0 instructions: 53000001 cycles: 94811616 heartbeat IPC: 0.957303 cumulative IPC: 0.484287 (Simulation time: 0 hr 17 min 42 sec) 
select_counter is 1023
Heartbeat CPU 0 instructions: 54000002 cycles: 95881503 heartbeat IPC: 0.934679 cumulative IPC: 0.489649 (Simulation time: 0 hr 18 min 1 sec) 
select_counter is 1023
Heartbeat CPU 0 instructions: 55000003 cycles: 96922197 heartbeat IPC: 0.960898 cumulative IPC: 0.495044 (Simulation time: 0 hr 18 min 19 sec) 
select_counter is 1021
Heartbeat CPU 0 instructions: 56000000 cycles: 99221403 heartbeat IPC: 0.434931 cumulative IPC: 0.493561 (Simulation time: 0 hr 18 min 39 sec) 
select_counter is 1023
Heartbeat CPU 0 instructions: 57000003 cycles: 101304861 heartbeat IPC: 0.479973 cumulative IPC: 0.493264 (Simulation time: 0 hr 19 min 0 sec) 
select_counter is 1023
Heartbeat CPU 0 instructions: 58000000 cycles: 104678732 heartbeat IPC: 0.296395 cumulative IPC: 0.486532 (Simulation time: 0 hr 19 min 23 sec) 
select_counter is 1021
Heartbeat CPU 0 instructions: 59000003 cycles: 108052967 heartbeat IPC: 0.296364 cumulative IPC: 0.480243 (Simulation time: 0 hr 19 min 48 sec) 
select_counter is 1023
Heartbeat CPU 0 instructions: 60000000 cycles: 110515859 heartbeat IPC: 0.406026 cumulative IPC: 0.478494 (Simulation time: 0 hr 20 min 9 sec) 
select_counter is 1020
Heartbeat CPU 0 instructions: 61000001 cycles: 112439633 heartbeat IPC: 0.519812 cumulative IPC: 0.47924 (Simulation time: 0 hr 20 min 32 sec) 
select_counter is 1023
Heartbeat CPU 0 instructions: 62000001 cycles: 115790837 heartbeat IPC: 0.2984 cumulative IPC: 0.47372 (Simulation time: 0 hr 20 min 53 sec) 
select_counter is 1022
Heartbeat CPU 0 instructions: 63000000 cycles: 119155811 heartbeat IPC: 0.297179 cumulative IPC: 0.468469 (Simulation time: 0 hr 21 min 16 sec) 
select_counter is 1023
Heartbeat CPU 0 instructions: 64000000 cycles: 121798101 heartbeat IPC: 0.37846 cumulative IPC: 0.466414 (Simulation time: 0 hr 21 min 36 sec) 
select_counter is 1018
Heartbeat CPU 0 instructions: 65000000 cycles: 123554612 heartbeat IPC: 0.56931 cumulative IPC: 0.467952 (Simulation time: 0 hr 21 min 54 sec) 
select_counter is 1022
Heartbeat CPU 0 instructions: 66000000 cycles: 126914499 heartbeat IPC: 0.297629 cumulative IPC: 0.463219 (Simulation time: 0 hr 22 min 15 sec) 
select_counter is 1022
Heartbeat CPU 0 instructions: 67000001 cycles: 130278027 heartbeat IPC: 0.297307 cumulative IPC: 0.458727 (Simulation time: 0 hr 22 min 37 sec) 
select_counter is 1023
Heartbeat CPU 0 instructions: 68000000 cycles: 133107131 heartbeat IPC: 0.353468 cumulative IPC: 0.456384 (Simulation time: 0 hr 22 min 58 sec) 
select_counter is 1023
Heartbeat CPU 0 instructions: 69000001 cycles: 134673295 heartbeat IPC: 0.638503 cumulative IPC: 0.458601 (Simulation time: 0 hr 23 min 18 sec) 
select_counter is 1023
Heartbeat CPU 0 instructions: 70000001 cycles: 138034659 heartbeat IPC: 0.297498 cumulative IPC: 0.454499 (Simulation time: 0 hr 23 min 41 sec) 
select_counter is 1023
Heartbeat CPU 0 instructions: 71000001 cycles: 141402973 heartbeat IPC: 0.296884 cumulative IPC: 0.450578 (Simulation time: 0 hr 24 min 4 sec) 
select_counter is 1023
Heartbeat CPU 0 instructions: 72000000 cycles: 144251622 heartbeat IPC: 0.351043 cumulative IPC: 0.448527 (Simulation time: 0 hr 24 min 27 sec) 
select_counter is 1022
Heartbeat CPU 0 instructions: 73000000 cycles: 145827419 heartbeat IPC: 0.6346 cumulative IPC: 0.450624 (Simulation time: 0 hr 24 min 46 sec) 
select_counter is 1023
Heartbeat CPU 0 instructions: 74000003 cycles: 149194226 heartbeat IPC: 0.297018 cumulative IPC: 0.447012 (Simulation time: 0 hr 25 min 10 sec) 
select_counter is 1023
Heartbeat CPU 0 instructions: 75000001 cycles: 152554949 heartbeat IPC: 0.297554 cumulative IPC: 0.443584 (Simulation time: 0 hr 25 min 33 sec) 
select_counter is 1023
Heartbeat CPU 0 instructions: 76000000 cycles: 155276643 heartbeat IPC: 0.367418 cumulative IPC: 0.442195 (Simulation time: 0 hr 25 min 55 sec) 
select_counter is 1023
Heartbeat CPU 0 instructions: 77000001 cycles: 156947907 heartbeat IPC: 0.59835 cumulative IPC: 0.443924 (Simulation time: 0 hr 26 min 15 sec) 
select_counter is 1023
Heartbeat CPU 0 instructions: 78000000 cycles: 160314680 heartbeat IPC: 0.29702 cumulative IPC: 0.440719 (Simulation time: 0 hr 26 min 37 sec) 
select_counter is 1023
Heartbeat CPU 0 instructions: 79000000 cycles: 163840074 heartbeat IPC: 0.283656 cumulative IPC: 0.43721 (Simulation time: 0 hr 27 min 1 sec) 
select_counter is 1023
Heartbeat CPU 0 instructions: 80000000 cycles: 165722927 heartbeat IPC: 0.531109 cumulative IPC: 0.438317 (Simulation time: 0 hr 27 min 21 sec) 
select_counter is 1023
Heartbeat CPU 0 instructions: 81000001 cycles: 168236361 heartbeat IPC: 0.397862 cumulative IPC: 0.43769 (Simulation time: 0 hr 27 min 41 sec) 
select_counter is 1023
Heartbeat CPU 0 instructions: 82000000 cycles: 171588605 heartbeat IPC: 0.298307 cumulative IPC: 0.434868 (Simulation time: 0 hr 28 min 2 sec) 
select_counter is 1022
Heartbeat CPU 0 instructions: 83000000 cycles: 174953064 heartbeat IPC: 0.297225 cumulative IPC: 0.432127 (Simulation time: 0 hr 28 min 26 sec) 
select_counter is 1023
Heartbeat CPU 0 instructions: 84000000 cycles: 176802436 heartbeat IPC: 0.540724 cumulative IPC: 0.433303 (Simulation time: 0 hr 28 min 45 sec) 
select_counter is 1023
Heartbeat CPU 0 instructions: 85000003 cycles: 179347599 heartbeat IPC: 0.392903 cumulative IPC: 0.43271 (Simulation time: 0 hr 29 min 9 sec) 
select_counter is 1022
Heartbeat CPU 0 instructions: 86000001 cycles: 182713548 heartbeat IPC: 0.297092 cumulative IPC: 0.430126 (Simulation time: 0 hr 29 min 32 sec) 
select_counter is 1023
Heartbeat CPU 0 instructions: 87000000 cycles: 186080090 heartbeat IPC: 0.29704 cumulative IPC: 0.427638 (Simulation time: 0 hr 29 min 55 sec) 
select_counter is 1023
Heartbeat CPU 0 instructions: 88000000 cycles: 187771772 heartbeat IPC: 0.591128 cumulative IPC: 0.42916 (Simulation time: 0 hr 30 min 15 sec) 
select_counter is 1023
Heartbeat CPU 0 instructions: 89000000 cycles: 192641099 heartbeat IPC: 0.205367 cumulative IPC: 0.42332 (Simulation time: 0 hr 30 min 41 sec) 
select_counter is 1022
Heartbeat CPU 0 instructions: 90000002 cycles: 193685970 heartbeat IPC: 0.957058 cumulative IPC: 0.426292 (Simulation time: 0 hr 30 min 59 sec) 
select_counter is 1022
Heartbeat CPU 0 instructions: 91000001 cycles: 194731337 heartbeat IPC: 0.956601 cumulative IPC: 0.42923 (Simulation time: 0 hr 31 min 18 sec) 
select_counter is 1023
Heartbeat CPU 0 instructions: 92000000 cycles: 195776112 heartbeat IPC: 0.957143 cumulative IPC: 0.432136 (Simulation time: 0 hr 31 min 35 sec) 
select_counter is 1023
Heartbeat CPU 0 instructions: 93000002 cycles: 196821038 heartbeat IPC: 0.957007 cumulative IPC: 0.435011 (Simulation time: 0 hr 31 min 53 sec) 
select_counter is 1023
Heartbeat CPU 0 instructions: 94000001 cycles: 197865360 heartbeat IPC: 0.957558 cumulative IPC: 0.437855 (Simulation time: 0 hr 32 min 12 sec) 
select_counter is 1022
Heartbeat CPU 0 instructions: 95000000 cycles: 198910107 heartbeat IPC: 0.957169 cumulative IPC: 0.440668 (Simulation time: 0 hr 32 min 29 sec) 
select_counter is 1023
Heartbeat CPU 0 instructions: 96000000 cycles: 199956204 heartbeat IPC: 0.955934 cumulative IPC: 0.443448 (Simulation time: 0 hr 32 min 46 sec) 
select_counter is 1022
Heartbeat CPU 0 instructions: 97000002 cycles: 201028423 heartbeat IPC: 0.932647 cumulative IPC: 0.446137 (Simulation time: 0 hr 33 min 3 sec) 
select_counter is 1023
Heartbeat CPU 0 instructions: 98000000 cycles: 202075021 heartbeat IPC: 0.955475 cumulative IPC: 0.448856 (Simulation time: 0 hr 33 min 20 sec) 
select_counter is 1023
Heartbeat CPU 0 instructions: 99000003 cycles: 203114574 heartbeat IPC: 0.961955 cumulative IPC: 0.451563 (Simulation time: 0 hr 33 min 44 sec) 
select_counter is 1023
Heartbeat CPU 0 instructions: 100000000 cycles: 204152342 heartbeat IPC: 0.963604 cumulative IPC: 0.454245 (Simulation time: 0 hr 34 min 1 sec) 
select_counter is 1023
Heartbeat CPU 0 instructions: 101000001 cycles: 205194519 heartbeat IPC: 0.959531 cumulative IPC: 0.456889 (Simulation time: 0 hr 34 min 20 sec) 
select_counter is 1022
Heartbeat CPU 0 instructions: 102000001 cycles: 208512895 heartbeat IPC: 0.301352 cumulative IPC: 0.45434 (Simulation time: 0 hr 34 min 44 sec) 
select_counter is 1023
Heartbeat CPU 0 instructions: 103000001 cycles: 209930758 heartbeat IPC: 0.705287 cumulative IPC: 0.456085 (Simulation time: 0 hr 35 min 1 sec) 
select_counter is 1023
Heartbeat CPU 0 instructions: 104000000 cycles: 212955389 heartbeat IPC: 0.330619 cumulative IPC: 0.454251 (Simulation time: 0 hr 35 min 23 sec) 
select_counter is 1023
Heartbeat CPU 0 instructions: 105000000 cycles: 216307374 heartbeat IPC: 0.298331 cumulative IPC: 0.451765 (Simulation time: 0 hr 35 min 43 sec) 
select_counter is 1022
Heartbeat CPU 0 instructions: 106000000 cycles: 219620938 heartbeat IPC: 0.30179 cumulative IPC: 0.449439 (Simulation time: 0 hr 36 min 3 sec) 
select_counter is 1023
Heartbeat CPU 0 instructions: 107000001 cycles: 221198167 heartbeat IPC: 0.634024 cumulative IPC: 0.450792 (Simulation time: 0 hr 36 min 21 sec) 
select_counter is 1023
Heartbeat CPU 0 instructions: 108000000 cycles: 224055875 heartbeat IPC: 0.34993 cumulative IPC: 0.44947 (Simulation time: 0 hr 36 min 40 sec) 
select_counter is 1023
Heartbeat CPU 0 instructions: 109000000 cycles: 227419628 heartbeat IPC: 0.297287 cumulative IPC: 0.447158 (Simulation time: 0 hr 37 min 4 sec) 
select_counter is 1021
Heartbeat CPU 0 instructions: 110000000 cycles: 230763458 heartbeat IPC: 0.299058 cumulative IPC: 0.444954 (Simulation time: 0 hr 37 min 23 sec) 
select_counter is 1022
Finished CPU 0 instructions: 100000003 cycles: 224742225 cummulative IPC: 0.444954 (Simulation time: 0 hr 37 min 23 sec) 

ChampSim completed all CPUs

Region of Interest Statistics

CPU 0 cummulative IPC: 0.444954 instructions: 100000003 cycles: 224742225
LLC TOTAL     ACCESS:    1769069  HIT:    1284232  MISS:     484837
LLC LOAD      ACCESS:    1739414  HIT:    1274871  MISS:     464543
LLC RFO       ACCESS:      12908  HIT:       2407  MISS:      10501
LLC PREFETCH  ACCESS:          0  HIT:          0  MISS:          0
LLC WRITEBACK ACCESS:      16747  HIT:       6954  MISS:       9793
Insertion Distribution: 
	LOAD 62 0 0 0 0 0 1245 13794 
	RFO 0 0 0 0 0 0 45 300 
	PREF 0 0 0 0 0 0 0 0 
	WRITEBACK 0 0 0 0 0 0 0 155 
Total Prefetch Downgrades: 0
