
*** ChampSim Multicore Out-of-Order Simulator ***

Warmup Instructions: 10000000
Simulation Instructions: 100000000
Configuration: 2
Number of CPUs: 1
LLC sets: 2048
LLC ways: 16
Off-chip DRAM Channels: 1 Width: 64-bit Data Rate: 1600 MT/s

CPU 0 runs /datasets/cs240c-wi22-a00-public/data/Assignment2-gz/zeusmp_300B.trace.gz
CPU 0 L1D next line prefetcher
CPU 0 L2C IP-based stride prefetcher
Heartbeat CPU 0 instructions: 1000003 cycles: 509544 heartbeat IPC: 1.96254 cumulative IPC: 1.96254 (Simulation time: 0 hr 0 min 35 sec) 
Heartbeat CPU 0 instructions: 2000003 cycles: 1061728 heartbeat IPC: 1.81099 cumulative IPC: 1.88372 (Simulation time: 0 hr 1 min 9 sec) 
Heartbeat CPU 0 instructions: 3000002 cycles: 1605631 heartbeat IPC: 1.83856 cumulative IPC: 1.86843 (Simulation time: 0 hr 1 min 39 sec) 
Heartbeat CPU 0 instructions: 4000000 cycles: 2092419 heartbeat IPC: 2.05428 cumulative IPC: 1.91166 (Simulation time: 0 hr 2 min 9 sec) 
Heartbeat CPU 0 instructions: 5000001 cycles: 2575106 heartbeat IPC: 2.07174 cumulative IPC: 1.94167 (Simulation time: 0 hr 2 min 41 sec) 
Heartbeat CPU 0 instructions: 6000000 cycles: 3061805 heartbeat IPC: 2.05466 cumulative IPC: 1.95963 (Simulation time: 0 hr 3 min 14 sec) 
Heartbeat CPU 0 instructions: 7000001 cycles: 3589966 heartbeat IPC: 1.89336 cumulative IPC: 1.94988 (Simulation time: 0 hr 3 min 48 sec) 
Heartbeat CPU 0 instructions: 8000000 cycles: 4143982 heartbeat IPC: 1.805 cumulative IPC: 1.93051 (Simulation time: 0 hr 4 min 20 sec) 
Heartbeat CPU 0 instructions: 9000000 cycles: 4671887 heartbeat IPC: 1.89428 cumulative IPC: 1.92642 (Simulation time: 0 hr 4 min 51 sec) 
Heartbeat CPU 0 instructions: 10000002 cycles: 5158215 heartbeat IPC: 2.05623 cumulative IPC: 1.93866 (Simulation time: 0 hr 5 min 24 sec) 

Warmup complete CPU 0 instructions: 10000002 cycles: 5158215 (Simulation time: 0 hr 5 min 24 sec) 

Heartbeat CPU 0 instructions: 11000003 cycles: 5864046 heartbeat IPC: 1.41677 cumulative IPC: 1.41677 (Simulation time: 0 hr 6 min 0 sec) 
Heartbeat CPU 0 instructions: 12000000 cycles: 6565150 heartbeat IPC: 1.42632 cumulative IPC: 1.42153 (Simulation time: 0 hr 6 min 34 sec) 
Heartbeat CPU 0 instructions: 13000000 cycles: 7368819 heartbeat IPC: 1.24429 cumulative IPC: 1.35709 (Simulation time: 0 hr 7 min 9 sec) 
Heartbeat CPU 0 instructions: 14000000 cycles: 8180746 heartbeat IPC: 1.23164 cumulative IPC: 1.32339 (Simulation time: 0 hr 7 min 43 sec) 
Heartbeat CPU 0 instructions: 15000002 cycles: 8919283 heartbeat IPC: 1.35403 cumulative IPC: 1.32941 (Simulation time: 0 hr 8 min 16 sec) 
Heartbeat CPU 0 instructions: 16000000 cycles: 9619844 heartbeat IPC: 1.42742 cumulative IPC: 1.3448 (Simulation time: 0 hr 8 min 48 sec) 
Heartbeat CPU 0 instructions: 17000003 cycles: 10324966 heartbeat IPC: 1.4182 cumulative IPC: 1.35482 (Simulation time: 0 hr 9 min 21 sec) 
Heartbeat CPU 0 instructions: 18000000 cycles: 11041275 heartbeat IPC: 1.39604 cumulative IPC: 1.35984 (Simulation time: 0 hr 9 min 54 sec) 
Heartbeat CPU 0 instructions: 19000003 cycles: 11856667 heartbeat IPC: 1.22641 cumulative IPC: 1.34359 (Simulation time: 0 hr 10 min 31 sec) 
Heartbeat CPU 0 instructions: 20000000 cycles: 12667859 heartbeat IPC: 1.23275 cumulative IPC: 1.33162 (Simulation time: 0 hr 11 min 4 sec) 
Heartbeat CPU 0 instructions: 21000001 cycles: 13377851 heartbeat IPC: 1.40847 cumulative IPC: 1.33826 (Simulation time: 0 hr 11 min 34 sec) 
Heartbeat CPU 0 instructions: 22000000 cycles: 14081204 heartbeat IPC: 1.42176 cumulative IPC: 1.34484 (Simulation time: 0 hr 12 min 5 sec) 
Heartbeat CPU 0 instructions: 23000001 cycles: 14784032 heartbeat IPC: 1.42282 cumulative IPC: 1.35053 (Simulation time: 0 hr 12 min 39 sec) 
Heartbeat CPU 0 instructions: 24000000 cycles: 15533060 heartbeat IPC: 1.33506 cumulative IPC: 1.34942 (Simulation time: 0 hr 13 min 15 sec) 
Heartbeat CPU 0 instructions: 25000000 cycles: 16344231 heartbeat IPC: 1.23279 cumulative IPC: 1.34096 (Simulation time: 0 hr 13 min 46 sec) 
Heartbeat CPU 0 instructions: 26000000 cycles: 17146037 heartbeat IPC: 1.24718 cumulative IPC: 1.33469 (Simulation time: 0 hr 14 min 22 sec) 
Heartbeat CPU 0 instructions: 27000002 cycles: 17847930 heartbeat IPC: 1.42472 cumulative IPC: 1.33967 (Simulation time: 0 hr 14 min 56 sec) 
Heartbeat CPU 0 instructions: 28000000 cycles: 18553873 heartbeat IPC: 1.41654 cumulative IPC: 1.34372 (Simulation time: 0 hr 15 min 30 sec) 
Heartbeat CPU 0 instructions: 29000003 cycles: 19257672 heartbeat IPC: 1.42086 cumulative IPC: 1.34757 (Simulation time: 0 hr 16 min 4 sec) 
Heartbeat CPU 0 instructions: 30000002 cycles: 20031251 heartbeat IPC: 1.29269 cumulative IPC: 1.34472 (Simulation time: 0 hr 16 min 45 sec) 
Heartbeat CPU 0 instructions: 31000001 cycles: 20846787 heartbeat IPC: 1.22619 cumulative IPC: 1.33855 (Simulation time: 0 hr 17 min 21 sec) 
Heartbeat CPU 0 instructions: 32000000 cycles: 21620819 heartbeat IPC: 1.29193 cumulative IPC: 1.33636 (Simulation time: 0 hr 17 min 54 sec) 
Heartbeat CPU 0 instructions: 33000000 cycles: 22322988 heartbeat IPC: 1.42416 cumulative IPC: 1.33995 (Simulation time: 0 hr 18 min 25 sec) 
Heartbeat CPU 0 instructions: 34000000 cycles: 23033680 heartbeat IPC: 1.40708 cumulative IPC: 1.34262 (Simulation time: 0 hr 18 min 59 sec) 
Heartbeat CPU 0 instructions: 35000000 cycles: 23736042 heartbeat IPC: 1.42377 cumulative IPC: 1.34569 (Simulation time: 0 hr 19 min 31 sec) 
Heartbeat CPU 0 instructions: 36000000 cycles: 24533614 heartbeat IPC: 1.25381 cumulative IPC: 1.34191 (Simulation time: 0 hr 20 min 9 sec) 
Heartbeat CPU 0 instructions: 37000003 cycles: 25348565 heartbeat IPC: 1.22707 cumulative IPC: 1.33727 (Simulation time: 0 hr 20 min 43 sec) 
Heartbeat CPU 0 instructions: 38000001 cycles: 26100809 heartbeat IPC: 1.32935 cumulative IPC: 1.33699 (Simulation time: 0 hr 21 min 16 sec) 
Heartbeat CPU 0 instructions: 39000002 cycles: 26804182 heartbeat IPC: 1.42172 cumulative IPC: 1.33974 (Simulation time: 0 hr 21 min 49 sec) 
Heartbeat CPU 0 instructions: 40000000 cycles: 27512298 heartbeat IPC: 1.4122 cumulative IPC: 1.34204 (Simulation time: 0 hr 22 min 26 sec) 
Heartbeat CPU 0 instructions: 41000001 cycles: 28213410 heartbeat IPC: 1.42631 cumulative IPC: 1.3446 (Simulation time: 0 hr 23 min 0 sec) 
Heartbeat CPU 0 instructions: 42000001 cycles: 29039719 heartbeat IPC: 1.2102 cumulative IPC: 1.33995 (Simulation time: 0 hr 23 min 38 sec) 
Heartbeat CPU 0 instructions: 43000000 cycles: 29849544 heartbeat IPC: 1.23483 cumulative IPC: 1.3365 (Simulation time: 0 hr 24 min 13 sec) 
Heartbeat CPU 0 instructions: 44000000 cycles: 30572405 heartbeat IPC: 1.38339 cumulative IPC: 1.33784 (Simulation time: 0 hr 24 min 45 sec) 
Heartbeat CPU 0 instructions: 45000002 cycles: 31277082 heartbeat IPC: 1.41909 cumulative IPC: 1.34003 (Simulation time: 0 hr 25 min 19 sec) 
Heartbeat CPU 0 instructions: 46000002 cycles: 31980337 heartbeat IPC: 1.42196 cumulative IPC: 1.34218 (Simulation time: 0 hr 25 min 51 sec) 
Heartbeat CPU 0 instructions: 47000001 cycles: 32719026 heartbeat IPC: 1.35375 cumulative IPC: 1.34249 (Simulation time: 0 hr 26 min 25 sec) 
Heartbeat CPU 0 instructions: 48000000 cycles: 33529537 heartbeat IPC: 1.23379 cumulative IPC: 1.33938 (Simulation time: 0 hr 27 min 0 sec) 
Heartbeat CPU 0 instructions: 49000003 cycles: 34335967 heartbeat IPC: 1.24004 cumulative IPC: 1.33663 (Simulation time: 0 hr 27 min 35 sec) 
Heartbeat CPU 0 instructions: 50000001 cycles: 35037744 heartbeat IPC: 1.42495 cumulative IPC: 1.33871 (Simulation time: 0 hr 28 min 11 sec) 
Heartbeat CPU 0 instructions: 51000002 cycles: 35740687 heartbeat IPC: 1.42259 cumulative IPC: 1.34064 (Simulation time: 0 hr 28 min 48 sec) 
Heartbeat CPU 0 instructions: 52000000 cycles: 36446271 heartbeat IPC: 1.41726 cumulative IPC: 1.34237 (Simulation time: 0 hr 29 min 25 sec) 
Heartbeat CPU 0 instructions: 53000000 cycles: 37212992 heartbeat IPC: 1.30426 cumulative IPC: 1.34145 (Simulation time: 0 hr 30 min 0 sec) 
Heartbeat CPU 0 instructions: 54000002 cycles: 38023175 heartbeat IPC: 1.23429 cumulative IPC: 1.33881 (Simulation time: 0 hr 30 min 36 sec) 
Heartbeat CPU 0 instructions: 55000001 cycles: 38803966 heartbeat IPC: 1.28075 cumulative IPC: 1.33746 (Simulation time: 0 hr 31 min 13 sec) 
Heartbeat CPU 0 instructions: 56000000 cycles: 39507094 heartbeat IPC: 1.42221 cumulative IPC: 1.3392 (Simulation time: 0 hr 31 min 47 sec) 
Heartbeat CPU 0 instructions: 57000000 cycles: 40212176 heartbeat IPC: 1.41827 cumulative IPC: 1.34079 (Simulation time: 0 hr 32 min 23 sec) 
Heartbeat CPU 0 instructions: 58000000 cycles: 40918469 heartbeat IPC: 1.41584 cumulative IPC: 1.34227 (Simulation time: 0 hr 32 min 59 sec) 
Heartbeat CPU 0 instructions: 59000003 cycles: 41702795 heartbeat IPC: 1.27498 cumulative IPC: 1.34083 (Simulation time: 0 hr 33 min 40 sec) 
Heartbeat CPU 0 instructions: 60000000 cycles: 42514242 heartbeat IPC: 1.23236 cumulative IPC: 1.33847 (Simulation time: 0 hr 34 min 18 sec) 
Heartbeat CPU 0 instructions: 61000000 cycles: 43271930 heartbeat IPC: 1.3198 cumulative IPC: 1.3381 (Simulation time: 0 hr 34 min 53 sec) 
Heartbeat CPU 0 instructions: 62000002 cycles: 43973925 heartbeat IPC: 1.42451 cumulative IPC: 1.33966 (Simulation time: 0 hr 35 min 28 sec) 
Heartbeat CPU 0 instructions: 63000003 cycles: 44679052 heartbeat IPC: 1.41819 cumulative IPC: 1.34106 (Simulation time: 0 hr 36 min 1 sec) 
Heartbeat CPU 0 instructions: 64000000 cycles: 45383942 heartbeat IPC: 1.41866 cumulative IPC: 1.34242 (Simulation time: 0 hr 36 min 31 sec) 
Heartbeat CPU 0 instructions: 65000003 cycles: 46201351 heartbeat IPC: 1.22338 cumulative IPC: 1.34005 (Simulation time: 0 hr 37 min 7 sec) 
Heartbeat CPU 0 instructions: 66000003 cycles: 47013196 heartbeat IPC: 1.23176 cumulative IPC: 1.33795 (Simulation time: 0 hr 37 min 43 sec) 
Heartbeat CPU 0 instructions: 67000002 cycles: 47745898 heartbeat IPC: 1.36481 cumulative IPC: 1.33842 (Simulation time: 0 hr 38 min 18 sec) 
Heartbeat CPU 0 instructions: 68000000 cycles: 48453324 heartbeat IPC: 1.41357 cumulative IPC: 1.33964 (Simulation time: 0 hr 38 min 49 sec) 
Heartbeat CPU 0 instructions: 69000000 cycles: 49159291 heartbeat IPC: 1.4165 cumulative IPC: 1.34088 (Simulation time: 0 hr 39 min 25 sec) 
Heartbeat CPU 0 instructions: 70000001 cycles: 49892895 heartbeat IPC: 1.36313 cumulative IPC: 1.34124 (Simulation time: 0 hr 40 min 0 sec) 
Heartbeat CPU 0 instructions: 71000001 cycles: 50699910 heartbeat IPC: 1.23913 cumulative IPC: 1.33943 (Simulation time: 0 hr 40 min 34 sec) 
Heartbeat CPU 0 instructions: 72000000 cycles: 51510265 heartbeat IPC: 1.23403 cumulative IPC: 1.33759 (Simulation time: 0 hr 41 min 13 sec) 
Heartbeat CPU 0 instructions: 73000003 cycles: 52220128 heartbeat IPC: 1.40873 cumulative IPC: 1.33866 (Simulation time: 0 hr 41 min 46 sec) 
Heartbeat CPU 0 instructions: 74000001 cycles: 52926884 heartbeat IPC: 1.41491 cumulative IPC: 1.33979 (Simulation time: 0 hr 42 min 21 sec) 
Heartbeat CPU 0 instructions: 75000003 cycles: 53633443 heartbeat IPC: 1.41531 cumulative IPC: 1.34089 (Simulation time: 0 hr 42 min 56 sec) 
Heartbeat CPU 0 instructions: 76000000 cycles: 54394502 heartbeat IPC: 1.31395 cumulative IPC: 1.34047 (Simulation time: 0 hr 43 min 31 sec) 
Heartbeat CPU 0 instructions: 77000001 cycles: 55204896 heartbeat IPC: 1.23397 cumulative IPC: 1.33875 (Simulation time: 0 hr 44 min 9 sec) 
Heartbeat CPU 0 instructions: 78000003 cycles: 55993774 heartbeat IPC: 1.26763 cumulative IPC: 1.33765 (Simulation time: 0 hr 44 min 44 sec) 
Heartbeat CPU 0 instructions: 79000001 cycles: 56696699 heartbeat IPC: 1.42262 cumulative IPC: 1.33881 (Simulation time: 0 hr 45 min 19 sec) 
Heartbeat CPU 0 instructions: 80000000 cycles: 57403931 heartbeat IPC: 1.41396 cumulative IPC: 1.33982 (Simulation time: 0 hr 45 min 53 sec) 
Heartbeat CPU 0 instructions: 81000000 cycles: 58110904 heartbeat IPC: 1.41448 cumulative IPC: 1.34082 (Simulation time: 0 hr 46 min 30 sec) 
Heartbeat CPU 0 instructions: 82000002 cycles: 58892967 heartbeat IPC: 1.27867 cumulative IPC: 1.33992 (Simulation time: 0 hr 47 min 3 sec) 
Heartbeat CPU 0 instructions: 83000001 cycles: 59703022 heartbeat IPC: 1.23448 cumulative IPC: 1.33835 (Simulation time: 0 hr 47 min 41 sec) 
Heartbeat CPU 0 instructions: 84000000 cycles: 60466906 heartbeat IPC: 1.3091 cumulative IPC: 1.33795 (Simulation time: 0 hr 48 min 17 sec) 
Heartbeat CPU 0 instructions: 85000001 cycles: 61173387 heartbeat IPC: 1.41547 cumulative IPC: 1.33892 (Simulation time: 0 hr 48 min 50 sec) 
Heartbeat CPU 0 instructions: 86000002 cycles: 61881280 heartbeat IPC: 1.41264 cumulative IPC: 1.33984 (Simulation time: 0 hr 49 min 21 sec) 
Heartbeat CPU 0 instructions: 87000000 cycles: 62586885 heartbeat IPC: 1.41722 cumulative IPC: 1.34079 (Simulation time: 0 hr 49 min 57 sec) 
Heartbeat CPU 0 instructions: 88000000 cycles: 63391535 heartbeat IPC: 1.24278 cumulative IPC: 1.33944 (Simulation time: 0 hr 50 min 33 sec) 
Heartbeat CPU 0 instructions: 89000000 cycles: 64203447 heartbeat IPC: 1.23166 cumulative IPC: 1.33796 (Simulation time: 0 hr 51 min 9 sec) 
Heartbeat CPU 0 instructions: 90000002 cycles: 64944876 heartbeat IPC: 1.34875 cumulative IPC: 1.33809 (Simulation time: 0 hr 51 min 42 sec) 
Heartbeat CPU 0 instructions: 91000002 cycles: 65650271 heartbeat IPC: 1.41765 cumulative IPC: 1.33902 (Simulation time: 0 hr 52 min 16 sec) 
Heartbeat CPU 0 instructions: 92000000 cycles: 66358517 heartbeat IPC: 1.41194 cumulative IPC: 1.33986 (Simulation time: 0 hr 52 min 50 sec) 
Heartbeat CPU 0 instructions: 93000001 cycles: 67061651 heartbeat IPC: 1.42221 cumulative IPC: 1.3408 (Simulation time: 0 hr 53 min 21 sec) 
Heartbeat CPU 0 instructions: 94000000 cycles: 67890707 heartbeat IPC: 1.20619 cumulative IPC: 1.33902 (Simulation time: 0 hr 53 min 53 sec) 
Heartbeat CPU 0 instructions: 95000003 cycles: 68701868 heartbeat IPC: 1.2328 cumulative IPC: 1.33766 (Simulation time: 0 hr 54 min 28 sec) 
Heartbeat CPU 0 instructions: 96000000 cycles: 69419686 heartbeat IPC: 1.39311 cumulative IPC: 1.33828 (Simulation time: 0 hr 55 min 4 sec) 
Heartbeat CPU 0 instructions: 97000001 cycles: 70127910 heartbeat IPC: 1.41198 cumulative IPC: 1.33909 (Simulation time: 0 hr 55 min 34 sec) 
Heartbeat CPU 0 instructions: 98000000 cycles: 70837596 heartbeat IPC: 1.40907 cumulative IPC: 1.33984 (Simulation time: 0 hr 56 min 6 sec) 
Heartbeat CPU 0 instructions: 99000001 cycles: 71585535 heartbeat IPC: 1.33701 cumulative IPC: 1.33981 (Simulation time: 0 hr 56 min 35 sec) 
Heartbeat CPU 0 instructions: 100000000 cycles: 72397619 heartbeat IPC: 1.2314 cumulative IPC: 1.3385 (Simulation time: 0 hr 57 min 8 sec) 
Heartbeat CPU 0 instructions: 101000001 cycles: 73201154 heartbeat IPC: 1.2445 cumulative IPC: 1.33739 (Simulation time: 0 hr 57 min 39 sec) 
Heartbeat CPU 0 instructions: 102000003 cycles: 73904165 heartbeat IPC: 1.42246 cumulative IPC: 1.33826 (Simulation time: 0 hr 58 min 7 sec) 
Heartbeat CPU 0 instructions: 103000003 cycles: 74611756 heartbeat IPC: 1.41325 cumulative IPC: 1.33902 (Simulation time: 0 hr 58 min 38 sec) 
Heartbeat CPU 0 instructions: 104000000 cycles: 75314992 heartbeat IPC: 1.42199 cumulative IPC: 1.33986 (Simulation time: 0 hr 59 min 8 sec) 
Heartbeat CPU 0 instructions: 105000001 cycles: 76089773 heartbeat IPC: 1.29069 cumulative IPC: 1.33932 (Simulation time: 0 hr 59 min 43 sec) 
Heartbeat CPU 0 instructions: 106000002 cycles: 76896565 heartbeat IPC: 1.23948 cumulative IPC: 1.3382 (Simulation time: 1 hr 0 min 12 sec) 
Heartbeat CPU 0 instructions: 107000003 cycles: 77673634 heartbeat IPC: 1.28689 cumulative IPC: 1.33765 (Simulation time: 1 hr 0 min 43 sec) 
Heartbeat CPU 0 instructions: 108000000 cycles: 78377906 heartbeat IPC: 1.4199 cumulative IPC: 1.33844 (Simulation time: 1 hr 1 min 15 sec) 
Heartbeat CPU 0 instructions: 109000001 cycles: 79083586 heartbeat IPC: 1.41707 cumulative IPC: 1.33919 (Simulation time: 1 hr 1 min 48 sec) 
Heartbeat CPU 0 instructions: 110000000 cycles: 79789223 heartbeat IPC: 1.41716 cumulative IPC: 1.33993 (Simulation time: 1 hr 2 min 12 sec) 
Finished CPU 0 instructions: 100000002 cycles: 74631009 cummulative IPC: 1.33993 (Simulation time: 1 hr 2 min 12 sec) 

ChampSim completed all CPUs

Region of Interest Statistics

CPU 0 cummulative IPC: 1.33993 instructions: 100000002 cycles: 74631009
LLC TOTAL     ACCESS:     631652  HIT:     270935  MISS:     360717
LLC LOAD      ACCESS:      35112  HIT:       7352  MISS:      27760
LLC RFO       ACCESS:     152072  HIT:      75343  MISS:      76729
LLC PREFETCH  ACCESS:     288669  HIT:      72147  MISS:     216522
LLC WRITEBACK ACCESS:     155799  HIT:     116093  MISS:      39706
