
*** ChampSim Multicore Out-of-Order Simulator ***

Warmup Instructions: 10000000
Simulation Instructions: 100000000
Configuration: 2
Number of CPUs: 1
LLC sets: 2048
LLC ways: 16
Off-chip DRAM Channels: 1 Width: 64-bit Data Rate: 1600 MT/s

CPU 0 runs /datasets/cs240c-wi22-a00-public/data/Assignment2-gz/GemsFDTD_712B.trace.gz
CPU 0 L1D next line prefetcher
CPU 0 L2C IP-based stride prefetcher
Heartbeat CPU 0 instructions: 1000003 cycles: 634341 heartbeat IPC: 1.57644 cumulative IPC: 1.57644 (Simulation time: 0 hr 0 min 43 sec) 
Heartbeat CPU 0 instructions: 2000000 cycles: 1268306 heartbeat IPC: 1.57737 cumulative IPC: 1.57691 (Simulation time: 0 hr 1 min 28 sec) 
Heartbeat CPU 0 instructions: 3000000 cycles: 1902372 heartbeat IPC: 1.57712 cumulative IPC: 1.57698 (Simulation time: 0 hr 2 min 5 sec) 
Heartbeat CPU 0 instructions: 4000000 cycles: 2536148 heartbeat IPC: 1.57784 cumulative IPC: 1.5772 (Simulation time: 0 hr 2 min 46 sec) 
Heartbeat CPU 0 instructions: 5000003 cycles: 3170320 heartbeat IPC: 1.57686 cumulative IPC: 1.57713 (Simulation time: 0 hr 3 min 29 sec) 
Heartbeat CPU 0 instructions: 6000002 cycles: 3804248 heartbeat IPC: 1.57746 cumulative IPC: 1.57718 (Simulation time: 0 hr 4 min 10 sec) 
Heartbeat CPU 0 instructions: 7000001 cycles: 4438426 heartbeat IPC: 1.57684 cumulative IPC: 1.57714 (Simulation time: 0 hr 4 min 47 sec) 
Heartbeat CPU 0 instructions: 8000000 cycles: 5072294 heartbeat IPC: 1.57761 cumulative IPC: 1.5772 (Simulation time: 0 hr 5 min 26 sec) 
Heartbeat CPU 0 instructions: 9000001 cycles: 5706425 heartbeat IPC: 1.57696 cumulative IPC: 1.57717 (Simulation time: 0 hr 6 min 11 sec) 
Heartbeat CPU 0 instructions: 10000002 cycles: 6340202 heartbeat IPC: 1.57784 cumulative IPC: 1.57724 (Simulation time: 0 hr 6 min 58 sec) 

Warmup complete CPU 0 instructions: 10000002 cycles: 6340202 (Simulation time: 0 hr 6 min 58 sec) 

Heartbeat CPU 0 instructions: 11000001 cycles: 7959203 heartbeat IPC: 0.617664 cumulative IPC: 0.617664 (Simulation time: 0 hr 7 min 51 sec) 
Heartbeat CPU 0 instructions: 12000000 cycles: 9576587 heartbeat IPC: 0.618282 cumulative IPC: 0.617973 (Simulation time: 0 hr 8 min 36 sec) 
Heartbeat CPU 0 instructions: 13000000 cycles: 11187261 heartbeat IPC: 0.620858 cumulative IPC: 0.618932 (Simulation time: 0 hr 9 min 24 sec) 
Heartbeat CPU 0 instructions: 14000001 cycles: 12778538 heartbeat IPC: 0.628427 cumulative IPC: 0.621278 (Simulation time: 0 hr 10 min 13 sec) 
Heartbeat CPU 0 instructions: 15000001 cycles: 14361748 heartbeat IPC: 0.631628 cumulative IPC: 0.623321 (Simulation time: 0 hr 11 min 3 sec) 
Heartbeat CPU 0 instructions: 16000000 cycles: 15980091 heartbeat IPC: 0.617915 cumulative IPC: 0.622414 (Simulation time: 0 hr 11 min 56 sec) 
Heartbeat CPU 0 instructions: 17000001 cycles: 17585162 heartbeat IPC: 0.623026 cumulative IPC: 0.622501 (Simulation time: 0 hr 12 min 54 sec) 
Heartbeat CPU 0 instructions: 18000003 cycles: 19216058 heartbeat IPC: 0.613161 cumulative IPC: 0.621318 (Simulation time: 0 hr 13 min 48 sec) 
Heartbeat CPU 0 instructions: 19000003 cycles: 20813844 heartbeat IPC: 0.625866 cumulative IPC: 0.62182 (Simulation time: 0 hr 15 min 0 sec) 
Heartbeat CPU 0 instructions: 20000000 cycles: 22402875 heartbeat IPC: 0.629312 cumulative IPC: 0.622561 (Simulation time: 0 hr 16 min 19 sec) 
Heartbeat CPU 0 instructions: 21000002 cycles: 24011544 heartbeat IPC: 0.621633 cumulative IPC: 0.622477 (Simulation time: 0 hr 17 min 30 sec) 
Heartbeat CPU 0 instructions: 22000001 cycles: 25629663 heartbeat IPC: 0.618001 cumulative IPC: 0.622101 (Simulation time: 0 hr 18 min 22 sec) 
Heartbeat CPU 0 instructions: 23000002 cycles: 27228157 heartbeat IPC: 0.625589 cumulative IPC: 0.622368 (Simulation time: 0 hr 19 min 9 sec) 
Heartbeat CPU 0 instructions: 24000000 cycles: 28867132 heartbeat IPC: 0.610136 cumulative IPC: 0.621478 (Simulation time: 0 hr 20 min 0 sec) 
Heartbeat CPU 0 instructions: 25000000 cycles: 30480196 heartbeat IPC: 0.619938 cumulative IPC: 0.621375 (Simulation time: 0 hr 20 min 52 sec) 
Heartbeat CPU 0 instructions: 26000002 cycles: 32085942 heartbeat IPC: 0.622765 cumulative IPC: 0.621462 (Simulation time: 0 hr 21 min 46 sec) 
Heartbeat CPU 0 instructions: 27000002 cycles: 33709744 heartbeat IPC: 0.615839 cumulative IPC: 0.621128 (Simulation time: 0 hr 22 min 41 sec) 
Heartbeat CPU 0 instructions: 28000000 cycles: 35315023 heartbeat IPC: 0.622943 cumulative IPC: 0.621229 (Simulation time: 0 hr 23 min 32 sec) 
Heartbeat CPU 0 instructions: 29000002 cycles: 36915221 heartbeat IPC: 0.624924 cumulative IPC: 0.621422 (Simulation time: 0 hr 24 min 20 sec) 
Heartbeat CPU 0 instructions: 30000000 cycles: 38515783 heartbeat IPC: 0.624779 cumulative IPC: 0.621589 (Simulation time: 0 hr 25 min 7 sec) 
Heartbeat CPU 0 instructions: 31000001 cycles: 40129400 heartbeat IPC: 0.619726 cumulative IPC: 0.6215 (Simulation time: 0 hr 25 min 57 sec) 
Heartbeat CPU 0 instructions: 32000000 cycles: 41740878 heartbeat IPC: 0.620548 cumulative IPC: 0.621457 (Simulation time: 0 hr 26 min 39 sec) 
Heartbeat CPU 0 instructions: 33000003 cycles: 43357951 heartbeat IPC: 0.618403 cumulative IPC: 0.621324 (Simulation time: 0 hr 27 min 26 sec) 
Heartbeat CPU 0 instructions: 34000003 cycles: 44938333 heartbeat IPC: 0.632758 cumulative IPC: 0.621792 (Simulation time: 0 hr 28 min 16 sec) 
Heartbeat CPU 0 instructions: 35000000 cycles: 46544501 heartbeat IPC: 0.622598 cumulative IPC: 0.621824 (Simulation time: 0 hr 29 min 6 sec) 
Heartbeat CPU 0 instructions: 36000000 cycles: 48162628 heartbeat IPC: 0.617998 cumulative IPC: 0.621676 (Simulation time: 0 hr 29 min 57 sec) 
Heartbeat CPU 0 instructions: 37000001 cycles: 49745141 heartbeat IPC: 0.631907 cumulative IPC: 0.622049 (Simulation time: 0 hr 30 min 46 sec) 
Heartbeat CPU 0 instructions: 38000003 cycles: 51342151 heartbeat IPC: 0.626171 cumulative IPC: 0.622195 (Simulation time: 0 hr 31 min 34 sec) 
Heartbeat CPU 0 instructions: 39000000 cycles: 52971141 heartbeat IPC: 0.613875 cumulative IPC: 0.621905 (Simulation time: 0 hr 32 min 23 sec) 
Heartbeat CPU 0 instructions: 40000000 cycles: 54549342 heartbeat IPC: 0.633633 cumulative IPC: 0.622289 (Simulation time: 0 hr 33 min 6 sec) 
Heartbeat CPU 0 instructions: 41000003 cycles: 56141242 heartbeat IPC: 0.628182 cumulative IPC: 0.622477 (Simulation time: 0 hr 33 min 55 sec) 
Heartbeat CPU 0 instructions: 42000000 cycles: 57758919 heartbeat IPC: 0.618169 cumulative IPC: 0.622341 (Simulation time: 0 hr 34 min 41 sec) 
Heartbeat CPU 0 instructions: 43000000 cycles: 59372350 heartbeat IPC: 0.619797 cumulative IPC: 0.622264 (Simulation time: 0 hr 35 min 28 sec) 
Heartbeat CPU 0 instructions: 44000000 cycles: 60969740 heartbeat IPC: 0.626021 cumulative IPC: 0.622374 (Simulation time: 0 hr 36 min 14 sec) 
Heartbeat CPU 0 instructions: 45000003 cycles: 62565549 heartbeat IPC: 0.626643 cumulative IPC: 0.622495 (Simulation time: 0 hr 37 min 0 sec) 
Heartbeat CPU 0 instructions: 46000002 cycles: 64148629 heartbeat IPC: 0.631679 cumulative IPC: 0.622747 (Simulation time: 0 hr 37 min 50 sec) 
Heartbeat CPU 0 instructions: 47000001 cycles: 65763336 heartbeat IPC: 0.619307 cumulative IPC: 0.622653 (Simulation time: 0 hr 38 min 38 sec) 
Heartbeat CPU 0 instructions: 48000000 cycles: 67371928 heartbeat IPC: 0.621661 cumulative IPC: 0.622627 (Simulation time: 0 hr 39 min 25 sec) 
Heartbeat CPU 0 instructions: 49000000 cycles: 68955718 heartbeat IPC: 0.631397 cumulative IPC: 0.622849 (Simulation time: 0 hr 40 min 15 sec) 
Heartbeat CPU 0 instructions: 50000001 cycles: 70575618 heartbeat IPC: 0.617323 cumulative IPC: 0.622709 (Simulation time: 0 hr 41 min 6 sec) 
Heartbeat CPU 0 instructions: 51000002 cycles: 72194570 heartbeat IPC: 0.617684 cumulative IPC: 0.622586 (Simulation time: 0 hr 41 min 54 sec) 
Heartbeat CPU 0 instructions: 52000000 cycles: 73802686 heartbeat IPC: 0.621844 cumulative IPC: 0.622568 (Simulation time: 0 hr 42 min 44 sec) 
Heartbeat CPU 0 instructions: 53000000 cycles: 75441550 heartbeat IPC: 0.610179 cumulative IPC: 0.622274 (Simulation time: 0 hr 43 min 34 sec) 
Heartbeat CPU 0 instructions: 54000000 cycles: 77029135 heartbeat IPC: 0.629888 cumulative IPC: 0.622445 (Simulation time: 0 hr 44 min 22 sec) 
Heartbeat CPU 0 instructions: 55000003 cycles: 78607598 heartbeat IPC: 0.63353 cumulative IPC: 0.622687 (Simulation time: 0 hr 45 min 14 sec) 
Heartbeat CPU 0 instructions: 56000000 cycles: 80219912 heartbeat IPC: 0.620225 cumulative IPC: 0.622634 (Simulation time: 0 hr 46 min 5 sec) 
Heartbeat CPU 0 instructions: 57000000 cycles: 81869124 heartbeat IPC: 0.60635 cumulative IPC: 0.622278 (Simulation time: 0 hr 47 min 0 sec) 
Heartbeat CPU 0 instructions: 58000001 cycles: 83484363 heartbeat IPC: 0.619104 cumulative IPC: 0.622212 (Simulation time: 0 hr 47 min 52 sec) 
Heartbeat CPU 0 instructions: 59000001 cycles: 85099513 heartbeat IPC: 0.619138 cumulative IPC: 0.622149 (Simulation time: 0 hr 48 min 44 sec) 
Heartbeat CPU 0 instructions: 60000000 cycles: 86723234 heartbeat IPC: 0.615869 cumulative IPC: 0.622022 (Simulation time: 0 hr 49 min 34 sec) 
Heartbeat CPU 0 instructions: 61000001 cycles: 88309818 heartbeat IPC: 0.630286 cumulative IPC: 0.622182 (Simulation time: 0 hr 50 min 25 sec) 
Heartbeat CPU 0 instructions: 62000000 cycles: 89899127 heartbeat IPC: 0.629204 cumulative IPC: 0.622315 (Simulation time: 0 hr 51 min 16 sec) 
Heartbeat CPU 0 instructions: 63000002 cycles: 91506283 heartbeat IPC: 0.622218 cumulative IPC: 0.622313 (Simulation time: 0 hr 52 min 11 sec) 
Heartbeat CPU 0 instructions: 64000000 cycles: 93126952 heartbeat IPC: 0.617028 cumulative IPC: 0.622215 (Simulation time: 0 hr 52 min 58 sec) 
Heartbeat CPU 0 instructions: 65000003 cycles: 94755569 heartbeat IPC: 0.61402 cumulative IPC: 0.622064 (Simulation time: 0 hr 53 min 46 sec) 
Heartbeat CPU 0 instructions: 66000000 cycles: 96350278 heartbeat IPC: 0.627072 cumulative IPC: 0.622153 (Simulation time: 0 hr 54 min 27 sec) 
Heartbeat CPU 0 instructions: 67000000 cycles: 97949235 heartbeat IPC: 0.625408 cumulative IPC: 0.622209 (Simulation time: 0 hr 55 min 11 sec) 
Heartbeat CPU 0 instructions: 68000000 cycles: 99537368 heartbeat IPC: 0.62967 cumulative IPC: 0.622337 (Simulation time: 0 hr 55 min 53 sec) 
Heartbeat CPU 0 instructions: 69000001 cycles: 101121896 heartbeat IPC: 0.631103 cumulative IPC: 0.622483 (Simulation time: 0 hr 56 min 42 sec) 
Heartbeat CPU 0 instructions: 70000002 cycles: 102750831 heartbeat IPC: 0.613899 cumulative IPC: 0.622338 (Simulation time: 0 hr 57 min 33 sec) 
Heartbeat CPU 0 instructions: 71000002 cycles: 104408575 heartbeat IPC: 0.603229 cumulative IPC: 0.622015 (Simulation time: 0 hr 58 min 20 sec) 
Heartbeat CPU 0 instructions: 72000000 cycles: 106162325 heartbeat IPC: 0.570206 cumulative IPC: 0.621105 (Simulation time: 0 hr 59 min 11 sec) 
Heartbeat CPU 0 instructions: 73000000 cycles: 107880908 heartbeat IPC: 0.581875 cumulative IPC: 0.620441 (Simulation time: 0 hr 59 min 56 sec) 
Heartbeat CPU 0 instructions: 74000001 cycles: 109627699 heartbeat IPC: 0.572479 cumulative IPC: 0.61963 (Simulation time: 1 hr 0 min 39 sec) 
Heartbeat CPU 0 instructions: 75000003 cycles: 111360056 heartbeat IPC: 0.577249 cumulative IPC: 0.618931 (Simulation time: 1 hr 1 min 21 sec) 
Heartbeat CPU 0 instructions: 76000000 cycles: 113089294 heartbeat IPC: 0.578288 cumulative IPC: 0.618272 (Simulation time: 1 hr 2 min 14 sec) 
Heartbeat CPU 0 instructions: 77000000 cycles: 114844408 heartbeat IPC: 0.569764 cumulative IPC: 0.617488 (Simulation time: 1 hr 2 min 55 sec) 
Heartbeat CPU 0 instructions: 78000001 cycles: 116580693 heartbeat IPC: 0.575943 cumulative IPC: 0.616833 (Simulation time: 1 hr 3 min 33 sec) 
Heartbeat CPU 0 instructions: 79000003 cycles: 118334119 heartbeat IPC: 0.570313 cumulative IPC: 0.616105 (Simulation time: 1 hr 4 min 12 sec) 
Heartbeat CPU 0 instructions: 80000000 cycles: 120086715 heartbeat IPC: 0.57058 cumulative IPC: 0.615403 (Simulation time: 1 hr 4 min 58 sec) 
Heartbeat CPU 0 instructions: 81000001 cycles: 121826295 heartbeat IPC: 0.574852 cumulative IPC: 0.614793 (Simulation time: 1 hr 5 min 40 sec) 
Heartbeat CPU 0 instructions: 82000000 cycles: 123576789 heartbeat IPC: 0.571267 cumulative IPC: 0.614143 (Simulation time: 1 hr 6 min 24 sec) 
Heartbeat CPU 0 instructions: 83000001 cycles: 125311075 heartbeat IPC: 0.576607 cumulative IPC: 0.613596 (Simulation time: 1 hr 7 min 1 sec) 
Heartbeat CPU 0 instructions: 84000000 cycles: 127055415 heartbeat IPC: 0.573282 cumulative IPC: 0.613013 (Simulation time: 1 hr 7 min 34 sec) 
Heartbeat CPU 0 instructions: 85000000 cycles: 128797997 heartbeat IPC: 0.573861 cumulative IPC: 0.612456 (Simulation time: 1 hr 8 min 3 sec) 
Heartbeat CPU 0 instructions: 86000000 cycles: 130530603 heartbeat IPC: 0.577165 cumulative IPC: 0.611964 (Simulation time: 1 hr 8 min 32 sec) 
Heartbeat CPU 0 instructions: 87000001 cycles: 132278169 heartbeat IPC: 0.572225 cumulative IPC: 0.611412 (Simulation time: 1 hr 9 min 2 sec) 
Heartbeat CPU 0 instructions: 88000000 cycles: 134013512 heartbeat IPC: 0.576254 cumulative IPC: 0.610934 (Simulation time: 1 hr 9 min 31 sec) 
Heartbeat CPU 0 instructions: 89000003 cycles: 135760881 heartbeat IPC: 0.572291 cumulative IPC: 0.610412 (Simulation time: 1 hr 9 min 59 sec) 
Heartbeat CPU 0 instructions: 90000000 cycles: 137506083 heartbeat IPC: 0.572998 cumulative IPC: 0.609915 (Simulation time: 1 hr 10 min 29 sec) 
Heartbeat CPU 0 instructions: 91000001 cycles: 139242796 heartbeat IPC: 0.575801 cumulative IPC: 0.609469 (Simulation time: 1 hr 10 min 57 sec) 
Heartbeat CPU 0 instructions: 92000000 cycles: 140988125 heartbeat IPC: 0.572957 cumulative IPC: 0.608996 (Simulation time: 1 hr 11 min 23 sec) 
Heartbeat CPU 0 instructions: 93000003 cycles: 142721284 heartbeat IPC: 0.576983 cumulative IPC: 0.608589 (Simulation time: 1 hr 11 min 48 sec) 
Heartbeat CPU 0 instructions: 94000002 cycles: 144453706 heartbeat IPC: 0.577226 cumulative IPC: 0.608195 (Simulation time: 1 hr 12 min 10 sec) 
Heartbeat CPU 0 instructions: 95000001 cycles: 146210100 heartbeat IPC: 0.569348 cumulative IPC: 0.607708 (Simulation time: 1 hr 12 min 33 sec) 
Heartbeat CPU 0 instructions: 96000000 cycles: 147951848 heartbeat IPC: 0.574135 cumulative IPC: 0.607295 (Simulation time: 1 hr 12 min 55 sec) 
Heartbeat CPU 0 instructions: 97000003 cycles: 149697275 heartbeat IPC: 0.572927 cumulative IPC: 0.606876 (Simulation time: 1 hr 13 min 16 sec) 
Heartbeat CPU 0 instructions: 98000000 cycles: 151431806 heartbeat IPC: 0.576523 cumulative IPC: 0.606513 (Simulation time: 1 hr 13 min 36 sec) 
Heartbeat CPU 0 instructions: 99000001 cycles: 153166731 heartbeat IPC: 0.576394 cumulative IPC: 0.606157 (Simulation time: 1 hr 13 min 54 sec) 
Heartbeat CPU 0 instructions: 100000000 cycles: 154906885 heartbeat IPC: 0.574661 cumulative IPC: 0.605789 (Simulation time: 1 hr 14 min 11 sec) 
Heartbeat CPU 0 instructions: 101000001 cycles: 156640286 heartbeat IPC: 0.576901 cumulative IPC: 0.605455 (Simulation time: 1 hr 14 min 27 sec) 
Heartbeat CPU 0 instructions: 102000002 cycles: 158370319 heartbeat IPC: 0.578024 cumulative IPC: 0.605143 (Simulation time: 1 hr 14 min 41 sec) 
Heartbeat CPU 0 instructions: 103000000 cycles: 160112739 heartbeat IPC: 0.573913 cumulative IPC: 0.604789 (Simulation time: 1 hr 14 min 53 sec) 
Heartbeat CPU 0 instructions: 104000000 cycles: 161851396 heartbeat IPC: 0.575157 cumulative IPC: 0.604458 (Simulation time: 1 hr 15 min 4 sec) 
Heartbeat CPU 0 instructions: 105000000 cycles: 163585269 heartbeat IPC: 0.576743 cumulative IPC: 0.604153 (Simulation time: 1 hr 15 min 13 sec) 
Heartbeat CPU 0 instructions: 106000002 cycles: 165320960 heartbeat IPC: 0.576141 cumulative IPC: 0.603847 (Simulation time: 1 hr 15 min 23 sec) 
Heartbeat CPU 0 instructions: 107000000 cycles: 167066326 heartbeat IPC: 0.572945 cumulative IPC: 0.603511 (Simulation time: 1 hr 15 min 32 sec) 
Heartbeat CPU 0 instructions: 108000000 cycles: 168800849 heartbeat IPC: 0.576527 cumulative IPC: 0.603223 (Simulation time: 1 hr 15 min 41 sec) 
Heartbeat CPU 0 instructions: 109000003 cycles: 170549016 heartbeat IPC: 0.572029 cumulative IPC: 0.602891 (Simulation time: 1 hr 15 min 51 sec) 
Heartbeat CPU 0 instructions: 110000000 cycles: 172289235 heartbeat IPC: 0.574639 cumulative IPC: 0.602595 (Simulation time: 1 hr 16 min 0 sec) 
Finished CPU 0 instructions: 100000000 cycles: 165949044 cummulative IPC: 0.602595 (Simulation time: 1 hr 16 min 0 sec) 

ChampSim completed all CPUs

Region of Interest Statistics

CPU 0 cummulative IPC: 0.602595 instructions: 100000000 cycles: 165949044
LLC TOTAL     ACCESS:    5145123  HIT:     147516  MISS:    4997607
LLC LOAD      ACCESS:     521886  HIT:     108455  MISS:     413431
LLC RFO       ACCESS:         17  HIT:          0  MISS:         17
LLC PREFETCH  ACCESS:    3245915  HIT:       8263  MISS:    3237652
LLC WRITEBACK ACCESS:    1377305  HIT:      30798  MISS:    1346507
