
*** ChampSim Multicore Out-of-Order Simulator ***

Warmup Instructions: 10000000
Simulation Instructions: 100000000
Configuration: 2
Number of CPUs: 1
LLC sets: 2048
LLC ways: 16
Off-chip DRAM Channels: 1 Width: 64-bit Data Rate: 1600 MT/s

CPU 0 runs /datasets/cs240c-wi22-a00-public/data/Assignment2-gz/libquantum_1210B.trace.gz
CPU 0 L1D next line prefetcher
CPU 0 L2C IP-based stride prefetcher
Heartbeat CPU 0 instructions: 1000003 cycles: 314916 heartbeat IPC: 3.17546 cumulative IPC: 3.17546 (Simulation time: 0 hr 0 min 24 sec) 
Heartbeat CPU 0 instructions: 2000000 cycles: 630170 heartbeat IPC: 3.17204 cumulative IPC: 3.17375 (Simulation time: 0 hr 0 min 47 sec) 
Heartbeat CPU 0 instructions: 3000001 cycles: 945979 heartbeat IPC: 3.16647 cumulative IPC: 3.17132 (Simulation time: 0 hr 1 min 10 sec) 
Heartbeat CPU 0 instructions: 4000000 cycles: 1260333 heartbeat IPC: 3.18112 cumulative IPC: 3.17376 (Simulation time: 0 hr 1 min 33 sec) 
Heartbeat CPU 0 instructions: 5000001 cycles: 1576818 heartbeat IPC: 3.15971 cumulative IPC: 3.17094 (Simulation time: 0 hr 1 min 56 sec) 
Heartbeat CPU 0 instructions: 6000002 cycles: 1891318 heartbeat IPC: 3.17965 cumulative IPC: 3.17239 (Simulation time: 0 hr 2 min 20 sec) 
Heartbeat CPU 0 instructions: 7000001 cycles: 2206981 heartbeat IPC: 3.16793 cumulative IPC: 3.17175 (Simulation time: 0 hr 2 min 44 sec) 
Heartbeat CPU 0 instructions: 8000000 cycles: 2522385 heartbeat IPC: 3.17053 cumulative IPC: 3.1716 (Simulation time: 0 hr 3 min 11 sec) 
Heartbeat CPU 0 instructions: 9000002 cycles: 2837144 heartbeat IPC: 3.17704 cumulative IPC: 3.1722 (Simulation time: 0 hr 3 min 34 sec) 
Heartbeat CPU 0 instructions: 10000003 cycles: 3153454 heartbeat IPC: 3.16146 cumulative IPC: 3.17113 (Simulation time: 0 hr 3 min 59 sec) 

Warmup complete CPU 0 instructions: 10000003 cycles: 3153454 (Simulation time: 0 hr 3 min 59 sec) 

Heartbeat CPU 0 instructions: 11000001 cycles: 5251101 heartbeat IPC: 0.476724 cumulative IPC: 0.476724 (Simulation time: 0 hr 4 min 38 sec) 
Heartbeat CPU 0 instructions: 12000000 cycles: 7289343 heartbeat IPC: 0.490618 cumulative IPC: 0.483571 (Simulation time: 0 hr 5 min 17 sec) 
Heartbeat CPU 0 instructions: 13000003 cycles: 9748262 heartbeat IPC: 0.406684 cumulative IPC: 0.454903 (Simulation time: 0 hr 5 min 57 sec) 
Heartbeat CPU 0 instructions: 14000001 cycles: 12226109 heartbeat IPC: 0.403575 cumulative IPC: 0.440885 (Simulation time: 0 hr 6 min 39 sec) 
Heartbeat CPU 0 instructions: 15000001 cycles: 14702017 heartbeat IPC: 0.403892 cumulative IPC: 0.432954 (Simulation time: 0 hr 7 min 18 sec) 
Heartbeat CPU 0 instructions: 16000000 cycles: 17214310 heartbeat IPC: 0.398042 cumulative IPC: 0.426716 (Simulation time: 0 hr 7 min 57 sec) 
Heartbeat CPU 0 instructions: 17000000 cycles: 19694616 heartbeat IPC: 0.403176 cumulative IPC: 0.423187 (Simulation time: 0 hr 8 min 38 sec) 
Heartbeat CPU 0 instructions: 18000002 cycles: 22188673 heartbeat IPC: 0.400954 cumulative IPC: 0.420274 (Simulation time: 0 hr 9 min 17 sec) 
Heartbeat CPU 0 instructions: 19000000 cycles: 24689816 heartbeat IPC: 0.399816 cumulative IPC: 0.417898 (Simulation time: 0 hr 9 min 54 sec) 
Heartbeat CPU 0 instructions: 20000000 cycles: 27154524 heartbeat IPC: 0.405728 cumulative IPC: 0.416648 (Simulation time: 0 hr 10 min 34 sec) 
Heartbeat CPU 0 instructions: 21000001 cycles: 29624841 heartbeat IPC: 0.404807 cumulative IPC: 0.415543 (Simulation time: 0 hr 11 min 13 sec) 
Heartbeat CPU 0 instructions: 22000003 cycles: 32088538 heartbeat IPC: 0.405895 cumulative IPC: 0.414721 (Simulation time: 0 hr 11 min 56 sec) 
Heartbeat CPU 0 instructions: 23000000 cycles: 34564234 heartbeat IPC: 0.403926 cumulative IPC: 0.413871 (Simulation time: 0 hr 12 min 42 sec) 
Heartbeat CPU 0 instructions: 24000000 cycles: 37051932 heartbeat IPC: 0.401978 cumulative IPC: 0.412998 (Simulation time: 0 hr 13 min 26 sec) 
Heartbeat CPU 0 instructions: 25000000 cycles: 39546252 heartbeat IPC: 0.400911 cumulative IPC: 0.412169 (Simulation time: 0 hr 14 min 13 sec) 
Heartbeat CPU 0 instructions: 26000000 cycles: 42033497 heartbeat IPC: 0.402051 cumulative IPC: 0.411522 (Simulation time: 0 hr 15 min 2 sec) 
Heartbeat CPU 0 instructions: 27000003 cycles: 44531581 heartbeat IPC: 0.400308 cumulative IPC: 0.410845 (Simulation time: 0 hr 15 min 42 sec) 
Heartbeat CPU 0 instructions: 28000000 cycles: 46896381 heartbeat IPC: 0.422867 cumulative IPC: 0.411495 (Simulation time: 0 hr 16 min 20 sec) 
Heartbeat CPU 0 instructions: 29000002 cycles: 48362380 heartbeat IPC: 0.68213 cumulative IPC: 0.420271 (Simulation time: 0 hr 17 min 0 sec) 
Heartbeat CPU 0 instructions: 30000001 cycles: 49805901 heartbeat IPC: 0.69275 cumulative IPC: 0.428702 (Simulation time: 0 hr 17 min 41 sec) 
Heartbeat CPU 0 instructions: 31000000 cycles: 51253096 heartbeat IPC: 0.690991 cumulative IPC: 0.436594 (Simulation time: 0 hr 18 min 19 sec) 
Heartbeat CPU 0 instructions: 32000000 cycles: 52715053 heartbeat IPC: 0.684015 cumulative IPC: 0.443892 (Simulation time: 0 hr 19 min 0 sec) 
Heartbeat CPU 0 instructions: 33000000 cycles: 54189397 heartbeat IPC: 0.678268 cumulative IPC: 0.450663 (Simulation time: 0 hr 19 min 41 sec) 
Heartbeat CPU 0 instructions: 34000002 cycles: 55660463 heartbeat IPC: 0.67978 cumulative IPC: 0.457082 (Simulation time: 0 hr 20 min 21 sec) 
Heartbeat CPU 0 instructions: 35000001 cycles: 57131327 heartbeat IPC: 0.679872 cumulative IPC: 0.463153 (Simulation time: 0 hr 20 min 59 sec) 
Heartbeat CPU 0 instructions: 36000000 cycles: 58602263 heartbeat IPC: 0.679839 cumulative IPC: 0.468901 (Simulation time: 0 hr 21 min 38 sec) 
Heartbeat CPU 0 instructions: 37000001 cycles: 60073147 heartbeat IPC: 0.679864 cumulative IPC: 0.474352 (Simulation time: 0 hr 22 min 20 sec) 
Heartbeat CPU 0 instructions: 38000002 cycles: 61544103 heartbeat IPC: 0.679831 cumulative IPC: 0.479529 (Simulation time: 0 hr 23 min 0 sec) 
Heartbeat CPU 0 instructions: 39000001 cycles: 63014967 heartbeat IPC: 0.679872 cumulative IPC: 0.484451 (Simulation time: 0 hr 23 min 42 sec) 
Heartbeat CPU 0 instructions: 40000000 cycles: 64485901 heartbeat IPC: 0.679839 cumulative IPC: 0.489137 (Simulation time: 0 hr 24 min 20 sec) 
Heartbeat CPU 0 instructions: 41000000 cycles: 65956879 heartbeat IPC: 0.67982 cumulative IPC: 0.493604 (Simulation time: 0 hr 25 min 0 sec) 
Heartbeat CPU 0 instructions: 42000000 cycles: 67427740 heartbeat IPC: 0.679874 cumulative IPC: 0.497866 (Simulation time: 0 hr 25 min 39 sec) 
Heartbeat CPU 0 instructions: 43000002 cycles: 68898605 heartbeat IPC: 0.679873 cumulative IPC: 0.501938 (Simulation time: 0 hr 26 min 17 sec) 
Heartbeat CPU 0 instructions: 44000000 cycles: 70369539 heartbeat IPC: 0.679839 cumulative IPC: 0.505831 (Simulation time: 0 hr 26 min 53 sec) 
Heartbeat CPU 0 instructions: 45000000 cycles: 71840521 heartbeat IPC: 0.679818 cumulative IPC: 0.509557 (Simulation time: 0 hr 27 min 32 sec) 
Heartbeat CPU 0 instructions: 46000003 cycles: 73311383 heartbeat IPC: 0.679875 cumulative IPC: 0.513128 (Simulation time: 0 hr 28 min 13 sec) 
Heartbeat CPU 0 instructions: 47000002 cycles: 74903053 heartbeat IPC: 0.62827 cumulative IPC: 0.515682 (Simulation time: 0 hr 28 min 50 sec) 
Heartbeat CPU 0 instructions: 48000000 cycles: 77113146 heartbeat IPC: 0.452469 cumulative IPC: 0.513793 (Simulation time: 0 hr 29 min 34 sec) 
Heartbeat CPU 0 instructions: 49000000 cycles: 79279721 heartbeat IPC: 0.461558 cumulative IPC: 0.512307 (Simulation time: 0 hr 30 min 11 sec) 
Heartbeat CPU 0 instructions: 50000003 cycles: 81442971 heartbeat IPC: 0.462269 cumulative IPC: 0.510924 (Simulation time: 0 hr 30 min 47 sec) 
Heartbeat CPU 0 instructions: 51000000 cycles: 83642867 heartbeat IPC: 0.454566 cumulative IPC: 0.509384 (Simulation time: 0 hr 31 min 24 sec) 
Heartbeat CPU 0 instructions: 52000000 cycles: 85872108 heartbeat IPC: 0.448583 cumulative IPC: 0.507745 (Simulation time: 0 hr 32 min 2 sec) 
Heartbeat CPU 0 instructions: 53000003 cycles: 88093285 heartbeat IPC: 0.450213 cumulative IPC: 0.506241 (Simulation time: 0 hr 32 min 40 sec) 
Heartbeat CPU 0 instructions: 54000003 cycles: 90308371 heartbeat IPC: 0.45145 cumulative IPC: 0.504848 (Simulation time: 0 hr 33 min 18 sec) 
Heartbeat CPU 0 instructions: 55000002 cycles: 92520793 heartbeat IPC: 0.451993 cumulative IPC: 0.50354 (Simulation time: 0 hr 33 min 54 sec) 
Heartbeat CPU 0 instructions: 56000000 cycles: 94764572 heartbeat IPC: 0.445676 cumulative IPC: 0.502122 (Simulation time: 0 hr 34 min 31 sec) 
Heartbeat CPU 0 instructions: 57000001 cycles: 96995831 heartbeat IPC: 0.448178 cumulative IPC: 0.50084 (Simulation time: 0 hr 35 min 11 sec) 
Heartbeat CPU 0 instructions: 58000000 cycles: 99218568 heartbeat IPC: 0.449895 cumulative IPC: 0.499661 (Simulation time: 0 hr 35 min 51 sec) 
Heartbeat CPU 0 instructions: 59000000 cycles: 101445935 heartbeat IPC: 0.448961 cumulative IPC: 0.498512 (Simulation time: 0 hr 36 min 29 sec) 
Heartbeat CPU 0 instructions: 60000000 cycles: 103656867 heartbeat IPC: 0.452298 cumulative IPC: 0.497496 (Simulation time: 0 hr 37 min 8 sec) 
Heartbeat CPU 0 instructions: 61000001 cycles: 105874995 heartbeat IPC: 0.450831 cumulative IPC: 0.496488 (Simulation time: 0 hr 37 min 48 sec) 
Heartbeat CPU 0 instructions: 62000000 cycles: 108104056 heartbeat IPC: 0.448619 cumulative IPC: 0.495471 (Simulation time: 0 hr 38 min 23 sec) 
Heartbeat CPU 0 instructions: 63000001 cycles: 110210341 heartbeat IPC: 0.47477 cumulative IPC: 0.495064 (Simulation time: 0 hr 38 min 57 sec) 
Heartbeat CPU 0 instructions: 64000000 cycles: 112193793 heartbeat IPC: 0.504171 cumulative IPC: 0.49523 (Simulation time: 0 hr 39 min 33 sec) 
Heartbeat CPU 0 instructions: 65000000 cycles: 114175047 heartbeat IPC: 0.504731 cumulative IPC: 0.495399 (Simulation time: 0 hr 40 min 5 sec) 
Heartbeat CPU 0 instructions: 66000001 cycles: 116189893 heartbeat IPC: 0.496316 cumulative IPC: 0.495415 (Simulation time: 0 hr 40 min 41 sec) 
Heartbeat CPU 0 instructions: 67000000 cycles: 118134689 heartbeat IPC: 0.514192 cumulative IPC: 0.495733 (Simulation time: 0 hr 41 min 17 sec) 
Heartbeat CPU 0 instructions: 68000000 cycles: 120185440 heartbeat IPC: 0.487626 cumulative IPC: 0.495591 (Simulation time: 0 hr 41 min 54 sec) 
Heartbeat CPU 0 instructions: 69000002 cycles: 122225997 heartbeat IPC: 0.490063 cumulative IPC: 0.495496 (Simulation time: 0 hr 42 min 28 sec) 
Heartbeat CPU 0 instructions: 70000001 cycles: 124294179 heartbeat IPC: 0.483516 cumulative IPC: 0.495292 (Simulation time: 0 hr 43 min 3 sec) 
Heartbeat CPU 0 instructions: 71000000 cycles: 126359222 heartbeat IPC: 0.484251 cumulative IPC: 0.495107 (Simulation time: 0 hr 43 min 38 sec) 
Heartbeat CPU 0 instructions: 72000000 cycles: 128396167 heartbeat IPC: 0.490931 cumulative IPC: 0.495039 (Simulation time: 0 hr 44 min 17 sec) 
Heartbeat CPU 0 instructions: 73000002 cycles: 130472623 heartbeat IPC: 0.481591 cumulative IPC: 0.494819 (Simulation time: 0 hr 44 min 50 sec) 
Heartbeat CPU 0 instructions: 74000002 cycles: 132512505 heartbeat IPC: 0.490224 cumulative IPC: 0.494747 (Simulation time: 0 hr 45 min 27 sec) 
Heartbeat CPU 0 instructions: 75000001 cycles: 134584464 heartbeat IPC: 0.482635 cumulative IPC: 0.494556 (Simulation time: 0 hr 46 min 4 sec) 
Heartbeat CPU 0 instructions: 76000000 cycles: 136637550 heartbeat IPC: 0.487071 cumulative IPC: 0.494441 (Simulation time: 0 hr 46 min 41 sec) 
Heartbeat CPU 0 instructions: 77000000 cycles: 138676778 heartbeat IPC: 0.490382 cumulative IPC: 0.49438 (Simulation time: 0 hr 47 min 17 sec) 
Heartbeat CPU 0 instructions: 78000002 cycles: 140764542 heartbeat IPC: 0.478982 cumulative IPC: 0.494146 (Simulation time: 0 hr 47 min 51 sec) 
Heartbeat CPU 0 instructions: 79000001 cycles: 142800840 heartbeat IPC: 0.491087 cumulative IPC: 0.494102 (Simulation time: 0 hr 48 min 29 sec) 
Heartbeat CPU 0 instructions: 80000000 cycles: 144878120 heartbeat IPC: 0.481398 cumulative IPC: 0.493915 (Simulation time: 0 hr 49 min 9 sec) 
Heartbeat CPU 0 instructions: 81000000 cycles: 146935387 heartbeat IPC: 0.486082 cumulative IPC: 0.493803 (Simulation time: 0 hr 49 min 43 sec) 
Heartbeat CPU 0 instructions: 82000000 cycles: 148996595 heartbeat IPC: 0.485152 cumulative IPC: 0.493681 (Simulation time: 0 hr 50 min 21 sec) 
Heartbeat CPU 0 instructions: 83000001 cycles: 151223392 heartbeat IPC: 0.449076 cumulative IPC: 0.49301 (Simulation time: 0 hr 50 min 58 sec) 
Heartbeat CPU 0 instructions: 84000000 cycles: 153495488 heartbeat IPC: 0.440122 cumulative IPC: 0.492211 (Simulation time: 0 hr 51 min 35 sec) 
Heartbeat CPU 0 instructions: 85000001 cycles: 155771320 heartbeat IPC: 0.4394 cumulative IPC: 0.491423 (Simulation time: 0 hr 52 min 12 sec) 
Heartbeat CPU 0 instructions: 86000001 cycles: 158051468 heartbeat IPC: 0.438568 cumulative IPC: 0.490645 (Simulation time: 0 hr 52 min 49 sec) 
Heartbeat CPU 0 instructions: 87000003 cycles: 160417842 heartbeat IPC: 0.422588 cumulative IPC: 0.489621 (Simulation time: 0 hr 53 min 29 sec) 
Heartbeat CPU 0 instructions: 88000000 cycles: 162815454 heartbeat IPC: 0.41708 cumulative IPC: 0.488532 (Simulation time: 0 hr 54 min 6 sec) 
Heartbeat CPU 0 instructions: 89000001 cycles: 165226465 heartbeat IPC: 0.414764 cumulative IPC: 0.487435 (Simulation time: 0 hr 54 min 41 sec) 
Heartbeat CPU 0 instructions: 90000000 cycles: 167619799 heartbeat IPC: 0.417827 cumulative IPC: 0.486422 (Simulation time: 0 hr 55 min 14 sec) 
Heartbeat CPU 0 instructions: 91000002 cycles: 170008002 heartbeat IPC: 0.418726 cumulative IPC: 0.485453 (Simulation time: 0 hr 55 min 49 sec) 
Heartbeat CPU 0 instructions: 92000000 cycles: 172389399 heartbeat IPC: 0.419921 cumulative IPC: 0.484531 (Simulation time: 0 hr 56 min 25 sec) 
Heartbeat CPU 0 instructions: 93000003 cycles: 174780769 heartbeat IPC: 0.418172 cumulative IPC: 0.483606 (Simulation time: 0 hr 57 min 3 sec) 
Heartbeat CPU 0 instructions: 94000000 cycles: 177184850 heartbeat IPC: 0.415958 cumulative IPC: 0.482671 (Simulation time: 0 hr 57 min 38 sec) 
Heartbeat CPU 0 instructions: 95000002 cycles: 179595458 heartbeat IPC: 0.414834 cumulative IPC: 0.481745 (Simulation time: 0 hr 58 min 16 sec) 
Heartbeat CPU 0 instructions: 96000000 cycles: 182009750 heartbeat IPC: 0.414199 cumulative IPC: 0.480833 (Simulation time: 0 hr 58 min 52 sec) 
Heartbeat CPU 0 instructions: 97000001 cycles: 184421895 heartbeat IPC: 0.414569 cumulative IPC: 0.479951 (Simulation time: 0 hr 59 min 33 sec) 
Heartbeat CPU 0 instructions: 98000002 cycles: 186819987 heartbeat IPC: 0.416999 cumulative IPC: 0.479129 (Simulation time: 1 hr 0 min 12 sec) 
Heartbeat CPU 0 instructions: 99000002 cycles: 188380171 heartbeat IPC: 0.64095 cumulative IPC: 0.480492 (Simulation time: 1 hr 0 min 49 sec) 
Heartbeat CPU 0 instructions: 100000000 cycles: 189793733 heartbeat IPC: 0.707431 cumulative IPC: 0.482211 (Simulation time: 1 hr 1 min 24 sec) 
Heartbeat CPU 0 instructions: 101000000 cycles: 191198141 heartbeat IPC: 0.712044 cumulative IPC: 0.483928 (Simulation time: 1 hr 2 min 0 sec) 
Heartbeat CPU 0 instructions: 102000001 cycles: 192596007 heartbeat IPC: 0.715377 cumulative IPC: 0.485635 (Simulation time: 1 hr 2 min 29 sec) 
Heartbeat CPU 0 instructions: 103000002 cycles: 194012044 heartbeat IPC: 0.706197 cumulative IPC: 0.487272 (Simulation time: 1 hr 2 min 56 sec) 
Heartbeat CPU 0 instructions: 104000000 cycles: 195437652 heartbeat IPC: 0.701454 cumulative IPC: 0.48886 (Simulation time: 1 hr 3 min 24 sec) 
Heartbeat CPU 0 instructions: 105000000 cycles: 196863950 heartbeat IPC: 0.701116 cumulative IPC: 0.490423 (Simulation time: 1 hr 3 min 52 sec) 
Heartbeat CPU 0 instructions: 106000001 cycles: 198289404 heartbeat IPC: 0.701532 cumulative IPC: 0.491965 (Simulation time: 1 hr 4 min 25 sec) 
Heartbeat CPU 0 instructions: 107000000 cycles: 199716000 heartbeat IPC: 0.700969 cumulative IPC: 0.493482 (Simulation time: 1 hr 4 min 57 sec) 
Heartbeat CPU 0 instructions: 108000000 cycles: 201142665 heartbeat IPC: 0.700935 cumulative IPC: 0.494976 (Simulation time: 1 hr 5 min 27 sec) 
Heartbeat CPU 0 instructions: 109000001 cycles: 202569381 heartbeat IPC: 0.700911 cumulative IPC: 0.49645 (Simulation time: 1 hr 5 min 54 sec) 
Heartbeat CPU 0 instructions: 110000000 cycles: 203995973 heartbeat IPC: 0.700971 cumulative IPC: 0.497903 (Simulation time: 1 hr 6 min 19 sec) 
Finished CPU 0 instructions: 100000001 cycles: 200842523 cummulative IPC: 0.497903 (Simulation time: 1 hr 6 min 19 sec) 

ChampSim completed all CPUs

Region of Interest Statistics

CPU 0 cummulative IPC: 0.497903 instructions: 100000001 cycles: 200842523
LLC TOTAL     ACCESS:    4047262  HIT:     178162  MISS:    3869100
LLC LOAD      ACCESS:     833976  HIT:      45818  MISS:     788158
LLC RFO       ACCESS:         24  HIT:         16  MISS:          8
LLC PREFETCH  ACCESS:    2172826  HIT:      99003  MISS:    2073823
LLC WRITEBACK ACCESS:    1040436  HIT:      33325  MISS:    1007111
