
*** ChampSim Multicore Out-of-Order Simulator ***

Warmup Instructions: 10000000
Simulation Instructions: 100000000
Configuration: 2
Number of CPUs: 1
LLC sets: 2048
LLC ways: 16
Off-chip DRAM Channels: 1 Width: 64-bit Data Rate: 1600 MT/s

CPU 0 runs /datasets/cs240c-wi22-a00-public/data/Assignment2-gz/leslie3d_1186B.trace.gz
CPU 0 L1D next line prefetcher
CPU 0 L2C IP-based stride prefetcher
Heartbeat CPU 0 instructions: 1000002 cycles: 564518 heartbeat IPC: 1.77143 cumulative IPC: 1.77143 (Simulation time: 0 hr 0 min 46 sec) 
Heartbeat CPU 0 instructions: 2000000 cycles: 1215884 heartbeat IPC: 1.53523 cumulative IPC: 1.64489 (Simulation time: 0 hr 1 min 38 sec) 
Heartbeat CPU 0 instructions: 3000000 cycles: 1867642 heartbeat IPC: 1.53431 cumulative IPC: 1.6063 (Simulation time: 0 hr 2 min 27 sec) 
Heartbeat CPU 0 instructions: 4000000 cycles: 2473228 heartbeat IPC: 1.65129 cumulative IPC: 1.61732 (Simulation time: 0 hr 3 min 15 sec) 
Heartbeat CPU 0 instructions: 5000000 cycles: 3083572 heartbeat IPC: 1.63842 cumulative IPC: 1.6215 (Simulation time: 0 hr 4 min 2 sec) 
Heartbeat CPU 0 instructions: 6000000 cycles: 3735296 heartbeat IPC: 1.53439 cumulative IPC: 1.6063 (Simulation time: 0 hr 4 min 52 sec) 
Heartbeat CPU 0 instructions: 7000001 cycles: 4386527 heartbeat IPC: 1.53556 cumulative IPC: 1.5958 (Simulation time: 0 hr 5 min 38 sec) 
Heartbeat CPU 0 instructions: 8000000 cycles: 4951118 heartbeat IPC: 1.77119 cumulative IPC: 1.6158 (Simulation time: 0 hr 6 min 23 sec) 
Heartbeat CPU 0 instructions: 9000003 cycles: 5602410 heartbeat IPC: 1.53541 cumulative IPC: 1.60645 (Simulation time: 0 hr 7 min 7 sec) 
Heartbeat CPU 0 instructions: 10000001 cycles: 6253568 heartbeat IPC: 1.53572 cumulative IPC: 1.59909 (Simulation time: 0 hr 7 min 53 sec) 

Warmup complete CPU 0 instructions: 10000001 cycles: 6253568 (Simulation time: 0 hr 7 min 53 sec) 

Heartbeat CPU 0 instructions: 11000001 cycles: 7640291 heartbeat IPC: 0.721125 cumulative IPC: 0.721125 (Simulation time: 0 hr 8 min 40 sec) 
Heartbeat CPU 0 instructions: 12000000 cycles: 8892716 heartbeat IPC: 0.79845 cumulative IPC: 0.75782 (Simulation time: 0 hr 9 min 28 sec) 
Heartbeat CPU 0 instructions: 13000000 cycles: 10113496 heartbeat IPC: 0.819148 cumulative IPC: 0.777216 (Simulation time: 0 hr 10 min 13 sec) 
Heartbeat CPU 0 instructions: 14000000 cycles: 11363650 heartbeat IPC: 0.799901 cumulative IPC: 0.782766 (Simulation time: 0 hr 10 min 57 sec) 
Heartbeat CPU 0 instructions: 15000002 cycles: 12769156 heartbeat IPC: 0.711489 cumulative IPC: 0.767391 (Simulation time: 0 hr 11 min 37 sec) 
Heartbeat CPU 0 instructions: 16000000 cycles: 13984525 heartbeat IPC: 0.822794 cumulative IPC: 0.7761 (Simulation time: 0 hr 12 min 22 sec) 
Heartbeat CPU 0 instructions: 17000000 cycles: 15194422 heartbeat IPC: 0.826517 cumulative IPC: 0.782923 (Simulation time: 0 hr 13 min 7 sec) 
Heartbeat CPU 0 instructions: 18000001 cycles: 16609809 heartbeat IPC: 0.706521 cumulative IPC: 0.772481 (Simulation time: 0 hr 13 min 58 sec) 
Heartbeat CPU 0 instructions: 19000003 cycles: 17849618 heartbeat IPC: 0.806577 cumulative IPC: 0.776127 (Simulation time: 0 hr 14 min 47 sec) 
Heartbeat CPU 0 instructions: 20000000 cycles: 19082504 heartbeat IPC: 0.811103 cumulative IPC: 0.779488 (Simulation time: 0 hr 15 min 32 sec) 
Heartbeat CPU 0 instructions: 21000003 cycles: 20392292 heartbeat IPC: 0.763485 cumulative IPC: 0.778005 (Simulation time: 0 hr 16 min 22 sec) 
Heartbeat CPU 0 instructions: 22000003 cycles: 21703240 heartbeat IPC: 0.762807 cumulative IPC: 0.776716 (Simulation time: 0 hr 17 min 9 sec) 
Heartbeat CPU 0 instructions: 23000002 cycles: 22908990 heartbeat IPC: 0.829359 cumulative IPC: 0.780527 (Simulation time: 0 hr 17 min 50 sec) 
Heartbeat CPU 0 instructions: 24000000 cycles: 24111546 heartbeat IPC: 0.83156 cumulative IPC: 0.783963 (Simulation time: 0 hr 18 min 32 sec) 
Heartbeat CPU 0 instructions: 25000000 cycles: 25521834 heartbeat IPC: 0.709075 cumulative IPC: 0.778482 (Simulation time: 0 hr 19 min 14 sec) 
Heartbeat CPU 0 instructions: 26000000 cycles: 26739950 heartbeat IPC: 0.82094 cumulative IPC: 0.781007 (Simulation time: 0 hr 20 min 2 sec) 
Heartbeat CPU 0 instructions: 27000000 cycles: 27955044 heartbeat IPC: 0.822982 cumulative IPC: 0.783357 (Simulation time: 0 hr 20 min 45 sec) 
Heartbeat CPU 0 instructions: 28000000 cycles: 29348286 heartbeat IPC: 0.71775 cumulative IPC: 0.779399 (Simulation time: 0 hr 21 min 25 sec) 
Heartbeat CPU 0 instructions: 29000002 cycles: 30575936 heartbeat IPC: 0.814566 cumulative IPC: 0.781174 (Simulation time: 0 hr 22 min 7 sec) 
Heartbeat CPU 0 instructions: 30000002 cycles: 31785988 heartbeat IPC: 0.826411 cumulative IPC: 0.783318 (Simulation time: 0 hr 22 min 50 sec) 
Heartbeat CPU 0 instructions: 31000002 cycles: 33030708 heartbeat IPC: 0.803394 cumulative IPC: 0.784251 (Simulation time: 0 hr 23 min 28 sec) 
Heartbeat CPU 0 instructions: 32000000 cycles: 34399815 heartbeat IPC: 0.730402 cumulative IPC: 0.781632 (Simulation time: 0 hr 24 min 16 sec) 
Heartbeat CPU 0 instructions: 33000000 cycles: 35595639 heartbeat IPC: 0.836243 cumulative IPC: 0.783857 (Simulation time: 0 hr 25 min 2 sec) 
Heartbeat CPU 0 instructions: 34000000 cycles: 36799749 heartbeat IPC: 0.830489 cumulative IPC: 0.785696 (Simulation time: 0 hr 25 min 41 sec) 
Heartbeat CPU 0 instructions: 35000000 cycles: 38214298 heartbeat IPC: 0.706939 cumulative IPC: 0.78221 (Simulation time: 0 hr 26 min 20 sec) 
Heartbeat CPU 0 instructions: 36000000 cycles: 39441804 heartbeat IPC: 0.81466 cumulative IPC: 0.78341 (Simulation time: 0 hr 27 min 3 sec) 
Heartbeat CPU 0 instructions: 37000003 cycles: 40669837 heartbeat IPC: 0.814313 cumulative IPC: 0.784513 (Simulation time: 0 hr 27 min 50 sec) 
Heartbeat CPU 0 instructions: 38000003 cycles: 42011017 heartbeat IPC: 0.745612 cumulative IPC: 0.783054 (Simulation time: 0 hr 28 min 29 sec) 
Heartbeat CPU 0 instructions: 39000001 cycles: 43302837 heartbeat IPC: 0.7741 cumulative IPC: 0.782741 (Simulation time: 0 hr 29 min 10 sec) 
Heartbeat CPU 0 instructions: 40000000 cycles: 44526679 heartbeat IPC: 0.817098 cumulative IPC: 0.78384 (Simulation time: 0 hr 29 min 51 sec) 
Heartbeat CPU 0 instructions: 41000000 cycles: 45730091 heartbeat IPC: 0.830971 cumulative IPC: 0.785277 (Simulation time: 0 hr 30 min 39 sec) 
Heartbeat CPU 0 instructions: 42000000 cycles: 47148696 heartbeat IPC: 0.704918 cumulative IPC: 0.782489 (Simulation time: 0 hr 31 min 19 sec) 
Heartbeat CPU 0 instructions: 43000002 cycles: 48348347 heartbeat IPC: 0.833577 cumulative IPC: 0.783945 (Simulation time: 0 hr 32 min 0 sec) 
Heartbeat CPU 0 instructions: 44000000 cycles: 49563150 heartbeat IPC: 0.823177 cumulative IPC: 0.785046 (Simulation time: 0 hr 32 min 44 sec) 
Heartbeat CPU 0 instructions: 45000001 cycles: 51010897 heartbeat IPC: 0.690729 cumulative IPC: 0.781995 (Simulation time: 0 hr 33 min 23 sec) 
Heartbeat CPU 0 instructions: 46000001 cycles: 52872313 heartbeat IPC: 0.537225 cumulative IPC: 0.772222 (Simulation time: 0 hr 34 min 10 sec) 
Heartbeat CPU 0 instructions: 47000002 cycles: 54881775 heartbeat IPC: 0.497646 cumulative IPC: 0.760875 (Simulation time: 0 hr 34 min 54 sec) 
Heartbeat CPU 0 instructions: 48000000 cycles: 56893557 heartbeat IPC: 0.497071 cumulative IPC: 0.750395 (Simulation time: 0 hr 35 min 41 sec) 
Heartbeat CPU 0 instructions: 49000002 cycles: 58892071 heartbeat IPC: 0.500373 cumulative IPC: 0.740903 (Simulation time: 0 hr 36 min 37 sec) 
Heartbeat CPU 0 instructions: 50000002 cycles: 60862593 heartbeat IPC: 0.50748 cumulative IPC: 0.73248 (Simulation time: 0 hr 37 min 26 sec) 
Heartbeat CPU 0 instructions: 51000002 cycles: 62837296 heartbeat IPC: 0.506405 cumulative IPC: 0.72459 (Simulation time: 0 hr 38 min 13 sec) 
Heartbeat CPU 0 instructions: 52000000 cycles: 64792971 heartbeat IPC: 0.511331 cumulative IPC: 0.717465 (Simulation time: 0 hr 39 min 2 sec) 
Heartbeat CPU 0 instructions: 53000003 cycles: 66755597 heartbeat IPC: 0.509523 cumulative IPC: 0.71072 (Simulation time: 0 hr 39 min 54 sec) 
Heartbeat CPU 0 instructions: 54000003 cycles: 68738543 heartbeat IPC: 0.5043 cumulative IPC: 0.704169 (Simulation time: 0 hr 40 min 47 sec) 
Heartbeat CPU 0 instructions: 55000001 cycles: 70828880 heartbeat IPC: 0.478391 cumulative IPC: 0.696861 (Simulation time: 0 hr 41 min 42 sec) 
Heartbeat CPU 0 instructions: 56000000 cycles: 73175654 heartbeat IPC: 0.426116 cumulative IPC: 0.687366 (Simulation time: 0 hr 42 min 29 sec) 
Heartbeat CPU 0 instructions: 57000003 cycles: 75584649 heartbeat IPC: 0.415112 cumulative IPC: 0.677907 (Simulation time: 0 hr 43 min 23 sec) 
Heartbeat CPU 0 instructions: 58000001 cycles: 78069114 heartbeat IPC: 0.4025 cumulative IPC: 0.668379 (Simulation time: 0 hr 44 min 15 sec) 
Heartbeat CPU 0 instructions: 59000003 cycles: 80400391 heartbeat IPC: 0.42895 cumulative IPC: 0.660851 (Simulation time: 0 hr 45 min 10 sec) 
Heartbeat CPU 0 instructions: 60000000 cycles: 82705827 heartbeat IPC: 0.433756 cumulative IPC: 0.654003 (Simulation time: 0 hr 46 min 2 sec) 
Heartbeat CPU 0 instructions: 61000003 cycles: 85029892 heartbeat IPC: 0.430282 cumulative IPC: 0.647403 (Simulation time: 0 hr 46 min 57 sec) 
Heartbeat CPU 0 instructions: 62000002 cycles: 87320405 heartbeat IPC: 0.436583 cumulative IPC: 0.641446 (Simulation time: 0 hr 48 min 0 sec) 
Heartbeat CPU 0 instructions: 63000000 cycles: 89240519 heartbeat IPC: 0.520801 cumulative IPC: 0.638655 (Simulation time: 0 hr 48 min 56 sec) 
Heartbeat CPU 0 instructions: 64000000 cycles: 90557640 heartbeat IPC: 0.759232 cumulative IPC: 0.640538 (Simulation time: 0 hr 49 min 50 sec) 
Heartbeat CPU 0 instructions: 65000000 cycles: 91916242 heartbeat IPC: 0.736051 cumulative IPC: 0.642053 (Simulation time: 0 hr 50 min 36 sec) 
Heartbeat CPU 0 instructions: 66000002 cycles: 93267779 heartbeat IPC: 0.7399 cumulative IPC: 0.643573 (Simulation time: 0 hr 51 min 26 sec) 
Heartbeat CPU 0 instructions: 67000000 cycles: 94615184 heartbeat IPC: 0.742166 cumulative IPC: 0.645076 (Simulation time: 0 hr 52 min 14 sec) 
Heartbeat CPU 0 instructions: 68000000 cycles: 96006548 heartbeat IPC: 0.718719 cumulative IPC: 0.646218 (Simulation time: 0 hr 53 min 3 sec) 
Heartbeat CPU 0 instructions: 69000000 cycles: 97339947 heartbeat IPC: 0.749963 cumulative IPC: 0.647737 (Simulation time: 0 hr 53 min 50 sec) 
Heartbeat CPU 0 instructions: 70000000 cycles: 98700280 heartbeat IPC: 0.735114 cumulative IPC: 0.649023 (Simulation time: 0 hr 54 min 34 sec) 
Heartbeat CPU 0 instructions: 71000000 cycles: 100015946 heartbeat IPC: 0.760071 cumulative IPC: 0.650581 (Simulation time: 0 hr 55 min 18 sec) 
Heartbeat CPU 0 instructions: 72000000 cycles: 101352839 heartbeat IPC: 0.748003 cumulative IPC: 0.65195 (Simulation time: 0 hr 56 min 0 sec) 
Heartbeat CPU 0 instructions: 73000000 cycles: 102692808 heartbeat IPC: 0.746286 cumulative IPC: 0.653261 (Simulation time: 0 hr 56 min 46 sec) 
Heartbeat CPU 0 instructions: 74000000 cycles: 104006838 heartbeat IPC: 0.761018 cumulative IPC: 0.65471 (Simulation time: 0 hr 57 min 30 sec) 
Heartbeat CPU 0 instructions: 75000003 cycles: 105371272 heartbeat IPC: 0.732907 cumulative IPC: 0.655786 (Simulation time: 0 hr 58 min 19 sec) 
Heartbeat CPU 0 instructions: 76000000 cycles: 106690896 heartbeat IPC: 0.757789 cumulative IPC: 0.657126 (Simulation time: 0 hr 59 min 6 sec) 
Heartbeat CPU 0 instructions: 77000000 cycles: 108054359 heartbeat IPC: 0.733427 cumulative IPC: 0.658148 (Simulation time: 0 hr 59 min 52 sec) 
Heartbeat CPU 0 instructions: 78000001 cycles: 109397050 heartbeat IPC: 0.744774 cumulative IPC: 0.659276 (Simulation time: 1 hr 0 min 30 sec) 
Heartbeat CPU 0 instructions: 79000002 cycles: 110745647 heartbeat IPC: 0.741512 cumulative IPC: 0.660337 (Simulation time: 1 hr 1 min 15 sec) 
Heartbeat CPU 0 instructions: 80000000 cycles: 112118712 heartbeat IPC: 0.728296 cumulative IPC: 0.661219 (Simulation time: 1 hr 1 min 55 sec) 
Heartbeat CPU 0 instructions: 81000000 cycles: 113452430 heartbeat IPC: 0.749784 cumulative IPC: 0.66232 (Simulation time: 1 hr 2 min 34 sec) 
Heartbeat CPU 0 instructions: 82000003 cycles: 114830915 heartbeat IPC: 0.725436 cumulative IPC: 0.663122 (Simulation time: 1 hr 3 min 18 sec) 
Heartbeat CPU 0 instructions: 83000001 cycles: 116178656 heartbeat IPC: 0.741981 cumulative IPC: 0.664089 (Simulation time: 1 hr 3 min 52 sec) 
Heartbeat CPU 0 instructions: 84000000 cycles: 117530070 heartbeat IPC: 0.739965 cumulative IPC: 0.66501 (Simulation time: 1 hr 4 min 28 sec) 
Heartbeat CPU 0 instructions: 85000001 cycles: 118858919 heartbeat IPC: 0.752532 cumulative IPC: 0.666043 (Simulation time: 1 hr 5 min 2 sec) 
Heartbeat CPU 0 instructions: 86000003 cycles: 120193368 heartbeat IPC: 0.749374 cumulative IPC: 0.667019 (Simulation time: 1 hr 5 min 38 sec) 
Heartbeat CPU 0 instructions: 87000001 cycles: 121539719 heartbeat IPC: 0.742747 cumulative IPC: 0.667903 (Simulation time: 1 hr 6 min 9 sec) 
Heartbeat CPU 0 instructions: 88000000 cycles: 122885521 heartbeat IPC: 0.743051 cumulative IPC: 0.66877 (Simulation time: 1 hr 6 min 40 sec) 
Heartbeat CPU 0 instructions: 89000001 cycles: 124239586 heartbeat IPC: 0.738518 cumulative IPC: 0.669571 (Simulation time: 1 hr 7 min 15 sec) 
Heartbeat CPU 0 instructions: 90000002 cycles: 125580935 heartbeat IPC: 0.745519 cumulative IPC: 0.670425 (Simulation time: 1 hr 7 min 46 sec) 
Heartbeat CPU 0 instructions: 91000000 cycles: 126929845 heartbeat IPC: 0.741338 cumulative IPC: 0.671217 (Simulation time: 1 hr 8 min 10 sec) 
Heartbeat CPU 0 instructions: 92000000 cycles: 128261238 heartbeat IPC: 0.751093 cumulative IPC: 0.672089 (Simulation time: 1 hr 8 min 38 sec) 
Heartbeat CPU 0 instructions: 93000002 cycles: 129626623 heartbeat IPC: 0.732396 cumulative IPC: 0.672756 (Simulation time: 1 hr 9 min 3 sec) 
Heartbeat CPU 0 instructions: 94000000 cycles: 130951313 heartbeat IPC: 0.754892 cumulative IPC: 0.673629 (Simulation time: 1 hr 9 min 28 sec) 
Heartbeat CPU 0 instructions: 95000003 cycles: 132278559 heartbeat IPC: 0.753442 cumulative IPC: 0.674469 (Simulation time: 1 hr 9 min 52 sec) 
Heartbeat CPU 0 instructions: 96000000 cycles: 133632000 heartbeat IPC: 0.738855 cumulative IPC: 0.675154 (Simulation time: 1 hr 10 min 15 sec) 
Heartbeat CPU 0 instructions: 97000001 cycles: 134956894 heartbeat IPC: 0.754778 cumulative IPC: 0.675973 (Simulation time: 1 hr 10 min 38 sec) 
Heartbeat CPU 0 instructions: 98000002 cycles: 136316031 heartbeat IPC: 0.735762 cumulative IPC: 0.676598 (Simulation time: 1 hr 11 min 2 sec) 
Heartbeat CPU 0 instructions: 99000000 cycles: 137651408 heartbeat IPC: 0.748851 cumulative IPC: 0.677332 (Simulation time: 1 hr 11 min 23 sec) 
Heartbeat CPU 0 instructions: 100000000 cycles: 139027021 heartbeat IPC: 0.726949 cumulative IPC: 0.677846 (Simulation time: 1 hr 11 min 44 sec) 
Heartbeat CPU 0 instructions: 101000000 cycles: 140376655 heartbeat IPC: 0.740942 cumulative IPC: 0.678481 (Simulation time: 1 hr 12 min 5 sec) 
Heartbeat CPU 0 instructions: 102000001 cycles: 141718213 heartbeat IPC: 0.745403 cumulative IPC: 0.679144 (Simulation time: 1 hr 12 min 26 sec) 
Heartbeat CPU 0 instructions: 103000002 cycles: 143082151 heartbeat IPC: 0.733172 cumulative IPC: 0.679683 (Simulation time: 1 hr 12 min 43 sec) 
Heartbeat CPU 0 instructions: 104000000 cycles: 144405983 heartbeat IPC: 0.755381 cumulative IPC: 0.680408 (Simulation time: 1 hr 13 min 1 sec) 
Heartbeat CPU 0 instructions: 105000001 cycles: 145783546 heartbeat IPC: 0.72592 cumulative IPC: 0.680857 (Simulation time: 1 hr 13 min 19 sec) 
Heartbeat CPU 0 instructions: 106000002 cycles: 147122571 heartbeat IPC: 0.746813 cumulative IPC: 0.681484 (Simulation time: 1 hr 13 min 36 sec) 
Heartbeat CPU 0 instructions: 107000000 cycles: 148474000 heartbeat IPC: 0.739956 cumulative IPC: 0.68204 (Simulation time: 1 hr 13 min 53 sec) 
Heartbeat CPU 0 instructions: 108000000 cycles: 149809624 heartbeat IPC: 0.748714 cumulative IPC: 0.68266 (Simulation time: 1 hr 14 min 8 sec) 
Heartbeat CPU 0 instructions: 109000003 cycles: 151142294 heartbeat IPC: 0.750376 cumulative IPC: 0.683283 (Simulation time: 1 hr 14 min 22 sec) 
Heartbeat CPU 0 instructions: 110000001 cycles: 152509310 heartbeat IPC: 0.731519 cumulative IPC: 0.683734 (Simulation time: 1 hr 14 min 35 sec) 
Finished CPU 0 instructions: 100000000 cycles: 146255742 cummulative IPC: 0.683734 (Simulation time: 1 hr 14 min 35 sec) 

ChampSim completed all CPUs

Region of Interest Statistics

CPU 0 cummulative IPC: 0.683734 instructions: 100000000 cycles: 146255742
LLC TOTAL     ACCESS:    3758235  HIT:     837215  MISS:    2921020
LLC LOAD      ACCESS:     402502  HIT:      79259  MISS:     323243
LLC RFO       ACCESS:     463717  HIT:     173889  MISS:     289828
LLC PREFETCH  ACCESS:    2142865  HIT:     205907  MISS:    1936958
LLC WRITEBACK ACCESS:     749151  HIT:     378160  MISS:     370991
