
*** ChampSim Multicore Out-of-Order Simulator ***

Warmup Instructions: 10000000
Simulation Instructions: 100000000
Configuration: 2
Number of CPUs: 1
LLC sets: 2048
LLC ways: 16
Off-chip DRAM Channels: 1 Width: 64-bit Data Rate: 1600 MT/s

CPU 0 runs /datasets/cs240c-wi22-a00-public/data/Assignment2-gz/wrf_1228B.trace.gz
CPU 0 L1D next line prefetcher
CPU 0 L2C IP-based stride prefetcher
Heartbeat CPU 0 instructions: 1000003 cycles: 591062 heartbeat IPC: 1.69187 cumulative IPC: 1.69187 (Simulation time: 0 hr 0 min 42 sec) 
Heartbeat CPU 0 instructions: 2000002 cycles: 1111152 heartbeat IPC: 1.92274 cumulative IPC: 1.79994 (Simulation time: 0 hr 1 min 27 sec) 
Heartbeat CPU 0 instructions: 3000000 cycles: 1729111 heartbeat IPC: 1.61823 cumulative IPC: 1.735 (Simulation time: 0 hr 2 min 12 sec) 
Heartbeat CPU 0 instructions: 4000000 cycles: 2349763 heartbeat IPC: 1.61121 cumulative IPC: 1.7023 (Simulation time: 0 hr 3 min 2 sec) 
Heartbeat CPU 0 instructions: 5000000 cycles: 3052127 heartbeat IPC: 1.42376 cumulative IPC: 1.6382 (Simulation time: 0 hr 3 min 46 sec) 
Heartbeat CPU 0 instructions: 6000000 cycles: 3612217 heartbeat IPC: 1.78543 cumulative IPC: 1.66103 (Simulation time: 0 hr 4 min 29 sec) 
Heartbeat CPU 0 instructions: 7000001 cycles: 4164978 heartbeat IPC: 1.8091 cumulative IPC: 1.68068 (Simulation time: 0 hr 5 min 8 sec) 
Heartbeat CPU 0 instructions: 8000000 cycles: 4716342 heartbeat IPC: 1.81368 cumulative IPC: 1.69623 (Simulation time: 0 hr 5 min 46 sec) 
Heartbeat CPU 0 instructions: 9000002 cycles: 5266532 heartbeat IPC: 1.81756 cumulative IPC: 1.7089 (Simulation time: 0 hr 6 min 23 sec) 
Heartbeat CPU 0 instructions: 10000001 cycles: 5819428 heartbeat IPC: 1.80866 cumulative IPC: 1.71838 (Simulation time: 0 hr 7 min 0 sec) 

Warmup complete CPU 0 instructions: 10000001 cycles: 5819428 (Simulation time: 0 hr 7 min 0 sec) 

Heartbeat CPU 0 instructions: 11000000 cycles: 6678837 heartbeat IPC: 1.16359 cumulative IPC: 1.16359 (Simulation time: 0 hr 7 min 40 sec) 
Heartbeat CPU 0 instructions: 12000000 cycles: 7552568 heartbeat IPC: 1.14452 cumulative IPC: 1.15397 (Simulation time: 0 hr 8 min 18 sec) 
Heartbeat CPU 0 instructions: 13000003 cycles: 8432789 heartbeat IPC: 1.13608 cumulative IPC: 1.14795 (Simulation time: 0 hr 8 min 53 sec) 
Heartbeat CPU 0 instructions: 14000002 cycles: 9314824 heartbeat IPC: 1.13374 cumulative IPC: 1.14436 (Simulation time: 0 hr 9 min 28 sec) 
Heartbeat CPU 0 instructions: 15000001 cycles: 10149545 heartbeat IPC: 1.198 cumulative IPC: 1.1547 (Simulation time: 0 hr 10 min 6 sec) 
Heartbeat CPU 0 instructions: 16000000 cycles: 10971714 heartbeat IPC: 1.21629 cumulative IPC: 1.16453 (Simulation time: 0 hr 10 min 44 sec) 
Heartbeat CPU 0 instructions: 17000002 cycles: 11797207 heartbeat IPC: 1.2114 cumulative IPC: 1.171 (Simulation time: 0 hr 11 min 22 sec) 
Heartbeat CPU 0 instructions: 18000003 cycles: 12596964 heartbeat IPC: 1.25038 cumulative IPC: 1.18037 (Simulation time: 0 hr 11 min 56 sec) 
Heartbeat CPU 0 instructions: 19000000 cycles: 13391429 heartbeat IPC: 1.2587 cumulative IPC: 1.18859 (Simulation time: 0 hr 12 min 28 sec) 
Heartbeat CPU 0 instructions: 20000000 cycles: 14177327 heartbeat IPC: 1.27243 cumulative IPC: 1.19647 (Simulation time: 0 hr 13 min 1 sec) 
Heartbeat CPU 0 instructions: 21000000 cycles: 14950895 heartbeat IPC: 1.29271 cumulative IPC: 1.20463 (Simulation time: 0 hr 13 min 33 sec) 
Heartbeat CPU 0 instructions: 22000000 cycles: 15757902 heartbeat IPC: 1.23915 cumulative IPC: 1.20743 (Simulation time: 0 hr 14 min 10 sec) 
Heartbeat CPU 0 instructions: 23000003 cycles: 16702018 heartbeat IPC: 1.0592 cumulative IPC: 1.19457 (Simulation time: 0 hr 14 min 53 sec) 
Heartbeat CPU 0 instructions: 24000000 cycles: 17623761 heartbeat IPC: 1.0849 cumulative IPC: 1.18601 (Simulation time: 0 hr 15 min 29 sec) 
Heartbeat CPU 0 instructions: 25000000 cycles: 18547024 heartbeat IPC: 1.08311 cumulative IPC: 1.17854 (Simulation time: 0 hr 16 min 7 sec) 
Heartbeat CPU 0 instructions: 26000003 cycles: 19461066 heartbeat IPC: 1.09404 cumulative IPC: 1.17288 (Simulation time: 0 hr 16 min 47 sec) 
Heartbeat CPU 0 instructions: 27000003 cycles: 20371392 heartbeat IPC: 1.09851 cumulative IPC: 1.16823 (Simulation time: 0 hr 17 min 27 sec) 
Heartbeat CPU 0 instructions: 28000000 cycles: 21276386 heartbeat IPC: 1.10498 cumulative IPC: 1.16452 (Simulation time: 0 hr 18 min 10 sec) 
Heartbeat CPU 0 instructions: 29000003 cycles: 22978083 heartbeat IPC: 0.58765 cumulative IPC: 1.10731 (Simulation time: 0 hr 18 min 59 sec) 
Heartbeat CPU 0 instructions: 30000000 cycles: 24623485 heartbeat IPC: 0.607752 cumulative IPC: 1.0636 (Simulation time: 0 hr 19 min 46 sec) 
Heartbeat CPU 0 instructions: 31000003 cycles: 26379402 heartbeat IPC: 0.569505 cumulative IPC: 1.0214 (Simulation time: 0 hr 20 min 27 sec) 
Heartbeat CPU 0 instructions: 32000000 cycles: 28070882 heartbeat IPC: 0.591196 cumulative IPC: 0.988699 (Simulation time: 0 hr 21 min 9 sec) 
Heartbeat CPU 0 instructions: 33000002 cycles: 29478812 heartbeat IPC: 0.710264 cumulative IPC: 0.97213 (Simulation time: 0 hr 21 min 52 sec) 
Heartbeat CPU 0 instructions: 34000002 cycles: 30892188 heartbeat IPC: 0.707526 cumulative IPC: 0.957214 (Simulation time: 0 hr 22 min 36 sec) 
Heartbeat CPU 0 instructions: 35000001 cycles: 32558731 heartbeat IPC: 0.600044 cumulative IPC: 0.934953 (Simulation time: 0 hr 23 min 21 sec) 
Heartbeat CPU 0 instructions: 36000000 cycles: 33529847 heartbeat IPC: 1.02974 cumulative IPC: 0.938275 (Simulation time: 0 hr 24 min 4 sec) 
Heartbeat CPU 0 instructions: 37000001 cycles: 34488977 heartbeat IPC: 1.04261 cumulative IPC: 0.941766 (Simulation time: 0 hr 24 min 43 sec) 
Heartbeat CPU 0 instructions: 38000003 cycles: 35427987 heartbeat IPC: 1.06495 cumulative IPC: 0.945673 (Simulation time: 0 hr 25 min 17 sec) 
Heartbeat CPU 0 instructions: 39000002 cycles: 36406071 heartbeat IPC: 1.02241 cumulative IPC: 0.948126 (Simulation time: 0 hr 25 min 52 sec) 
Heartbeat CPU 0 instructions: 40000000 cycles: 37351021 heartbeat IPC: 1.05825 cumulative IPC: 0.951427 (Simulation time: 0 hr 26 min 28 sec) 
Heartbeat CPU 0 instructions: 41000000 cycles: 38300660 heartbeat IPC: 1.05303 cumulative IPC: 0.954397 (Simulation time: 0 hr 27 min 7 sec) 
Heartbeat CPU 0 instructions: 42000002 cycles: 39241297 heartbeat IPC: 1.06311 cumulative IPC: 0.957457 (Simulation time: 0 hr 27 min 48 sec) 
Heartbeat CPU 0 instructions: 43000002 cycles: 40202002 heartbeat IPC: 1.0409 cumulative IPC: 0.959789 (Simulation time: 0 hr 28 min 28 sec) 
Heartbeat CPU 0 instructions: 44000000 cycles: 41100596 heartbeat IPC: 1.11285 cumulative IPC: 0.963687 (Simulation time: 0 hr 29 min 2 sec) 
Heartbeat CPU 0 instructions: 45000000 cycles: 41975884 heartbeat IPC: 1.14248 cumulative IPC: 0.968015 (Simulation time: 0 hr 29 min 38 sec) 
Heartbeat CPU 0 instructions: 46000001 cycles: 42851220 heartbeat IPC: 1.14242 cumulative IPC: 0.972138 (Simulation time: 0 hr 30 min 14 sec) 
Heartbeat CPU 0 instructions: 47000001 cycles: 43733613 heartbeat IPC: 1.13328 cumulative IPC: 0.975888 (Simulation time: 0 hr 30 min 43 sec) 
Heartbeat CPU 0 instructions: 48000000 cycles: 44606165 heartbeat IPC: 1.14606 cumulative IPC: 0.979716 (Simulation time: 0 hr 31 min 21 sec) 
Heartbeat CPU 0 instructions: 49000001 cycles: 45485443 heartbeat IPC: 1.1373 cumulative IPC: 0.983209 (Simulation time: 0 hr 31 min 56 sec) 
Heartbeat CPU 0 instructions: 50000002 cycles: 46367295 heartbeat IPC: 1.13398 cumulative IPC: 0.986488 (Simulation time: 0 hr 32 min 34 sec) 
Heartbeat CPU 0 instructions: 51000001 cycles: 47237123 heartbeat IPC: 1.14965 cumulative IPC: 0.989915 (Simulation time: 0 hr 33 min 10 sec) 
Heartbeat CPU 0 instructions: 52000000 cycles: 48173233 heartbeat IPC: 1.06825 cumulative IPC: 0.991646 (Simulation time: 0 hr 33 min 47 sec) 
Heartbeat CPU 0 instructions: 53000002 cycles: 49156703 heartbeat IPC: 1.01681 cumulative IPC: 0.992217 (Simulation time: 0 hr 34 min 27 sec) 
Heartbeat CPU 0 instructions: 54000001 cycles: 50140176 heartbeat IPC: 1.0168 cumulative IPC: 0.992763 (Simulation time: 0 hr 35 min 12 sec) 
Heartbeat CPU 0 instructions: 55000003 cycles: 51114785 heartbeat IPC: 1.02605 cumulative IPC: 0.993479 (Simulation time: 0 hr 35 min 50 sec) 
Heartbeat CPU 0 instructions: 56000000 cycles: 52100278 heartbeat IPC: 1.01472 cumulative IPC: 0.993932 (Simulation time: 0 hr 36 min 27 sec) 
Heartbeat CPU 0 instructions: 57000001 cycles: 53070634 heartbeat IPC: 1.03055 cumulative IPC: 0.994684 (Simulation time: 0 hr 37 min 8 sec) 
Heartbeat CPU 0 instructions: 58000000 cycles: 54047340 heartbeat IPC: 1.02385 cumulative IPC: 0.995274 (Simulation time: 0 hr 37 min 43 sec) 
Heartbeat CPU 0 instructions: 59000001 cycles: 55580880 heartbeat IPC: 0.652087 cumulative IPC: 0.984698 (Simulation time: 0 hr 38 min 26 sec) 
Heartbeat CPU 0 instructions: 60000000 cycles: 57126462 heartbeat IPC: 0.647005 cumulative IPC: 0.974525 (Simulation time: 0 hr 39 min 17 sec) 
Heartbeat CPU 0 instructions: 61000000 cycles: 59149377 heartbeat IPC: 0.494336 cumulative IPC: 0.956311 (Simulation time: 0 hr 39 min 59 sec) 
Heartbeat CPU 0 instructions: 62000000 cycles: 60748787 heartbeat IPC: 0.625231 cumulative IPC: 0.94667 (Simulation time: 0 hr 40 min 43 sec) 
Heartbeat CPU 0 instructions: 63000001 cycles: 62202821 heartbeat IPC: 0.687743 cumulative IPC: 0.939993 (Simulation time: 0 hr 41 min 30 sec) 
Heartbeat CPU 0 instructions: 64000000 cycles: 63677121 heartbeat IPC: 0.678287 cumulative IPC: 0.933324 (Simulation time: 0 hr 42 min 16 sec) 
Heartbeat CPU 0 instructions: 65000003 cycles: 65171944 heartbeat IPC: 0.668978 cumulative IPC: 0.926667 (Simulation time: 0 hr 43 min 1 sec) 
Heartbeat CPU 0 instructions: 66000000 cycles: 66667386 heartbeat IPC: 0.668697 cumulative IPC: 0.920327 (Simulation time: 0 hr 43 min 47 sec) 
Heartbeat CPU 0 instructions: 67000000 cycles: 68161906 heartbeat IPC: 0.669111 cumulative IPC: 0.914304 (Simulation time: 0 hr 44 min 32 sec) 
Heartbeat CPU 0 instructions: 68000000 cycles: 69656365 heartbeat IPC: 0.669138 cumulative IPC: 0.908565 (Simulation time: 0 hr 45 min 20 sec) 
Heartbeat CPU 0 instructions: 69000000 cycles: 71163610 heartbeat IPC: 0.663462 cumulative IPC: 0.902911 (Simulation time: 0 hr 46 min 8 sec) 
Heartbeat CPU 0 instructions: 70000001 cycles: 72660193 heartbeat IPC: 0.668189 cumulative IPC: 0.897656 (Simulation time: 0 hr 46 min 51 sec) 
Heartbeat CPU 0 instructions: 71000001 cycles: 74154216 heartbeat IPC: 0.669334 cumulative IPC: 0.892664 (Simulation time: 0 hr 47 min 37 sec) 
Heartbeat CPU 0 instructions: 72000000 cycles: 75637163 heartbeat IPC: 0.674332 cumulative IPC: 0.888026 (Simulation time: 0 hr 48 min 27 sec) 
Heartbeat CPU 0 instructions: 73000003 cycles: 77124871 heartbeat IPC: 0.672177 cumulative IPC: 0.883523 (Simulation time: 0 hr 49 min 11 sec) 
Heartbeat CPU 0 instructions: 74000000 cycles: 78622399 heartbeat IPC: 0.667765 cumulative IPC: 0.879085 (Simulation time: 0 hr 49 min 58 sec) 
Heartbeat CPU 0 instructions: 75000001 cycles: 80116373 heartbeat IPC: 0.669356 cumulative IPC: 0.874868 (Simulation time: 0 hr 50 min 49 sec) 
Heartbeat CPU 0 instructions: 76000000 cycles: 81612803 heartbeat IPC: 0.668256 cumulative IPC: 0.870789 (Simulation time: 0 hr 51 min 36 sec) 
Heartbeat CPU 0 instructions: 77000003 cycles: 83106599 heartbeat IPC: 0.669437 cumulative IPC: 0.866897 (Simulation time: 0 hr 52 min 25 sec) 
Heartbeat CPU 0 instructions: 78000001 cycles: 84601296 heartbeat IPC: 0.669031 cumulative IPC: 0.863143 (Simulation time: 0 hr 53 min 10 sec) 
Heartbeat CPU 0 instructions: 79000000 cycles: 86097727 heartbeat IPC: 0.668256 cumulative IPC: 0.85951 (Simulation time: 0 hr 53 min 52 sec) 
Heartbeat CPU 0 instructions: 80000000 cycles: 87588108 heartbeat IPC: 0.670969 cumulative IPC: 0.856073 (Simulation time: 0 hr 54 min 34 sec) 
Heartbeat CPU 0 instructions: 81000001 cycles: 89072042 heartbeat IPC: 0.673885 cumulative IPC: 0.852826 (Simulation time: 0 hr 55 min 11 sec) 
Heartbeat CPU 0 instructions: 82000000 cycles: 90555007 heartbeat IPC: 0.674324 cumulative IPC: 0.849702 (Simulation time: 0 hr 55 min 50 sec) 
Heartbeat CPU 0 instructions: 83000000 cycles: 92038358 heartbeat IPC: 0.674149 cumulative IPC: 0.846682 (Simulation time: 0 hr 56 min 29 sec) 
Heartbeat CPU 0 instructions: 84000000 cycles: 93533267 heartbeat IPC: 0.668937 cumulative IPC: 0.843652 (Simulation time: 0 hr 57 min 15 sec) 
Heartbeat CPU 0 instructions: 85000000 cycles: 95028150 heartbeat IPC: 0.668949 cumulative IPC: 0.840725 (Simulation time: 0 hr 57 min 58 sec) 
Heartbeat CPU 0 instructions: 86000000 cycles: 96521946 heartbeat IPC: 0.669435 cumulative IPC: 0.837904 (Simulation time: 0 hr 58 min 44 sec) 
Heartbeat CPU 0 instructions: 87000000 cycles: 98016798 heartbeat IPC: 0.668963 cumulative IPC: 0.835165 (Simulation time: 0 hr 59 min 29 sec) 
Heartbeat CPU 0 instructions: 88000000 cycles: 99512017 heartbeat IPC: 0.668798 cumulative IPC: 0.83251 (Simulation time: 1 hr 0 min 11 sec) 
Heartbeat CPU 0 instructions: 89000002 cycles: 101007647 heartbeat IPC: 0.668616 cumulative IPC: 0.829935 (Simulation time: 1 hr 0 min 50 sec) 
Heartbeat CPU 0 instructions: 90000000 cycles: 102491982 heartbeat IPC: 0.673701 cumulative IPC: 0.827536 (Simulation time: 1 hr 1 min 27 sec) 
Heartbeat CPU 0 instructions: 91000000 cycles: 103975726 heartbeat IPC: 0.673971 cumulative IPC: 0.825215 (Simulation time: 1 hr 2 min 9 sec) 
Heartbeat CPU 0 instructions: 92000000 cycles: 105459570 heartbeat IPC: 0.673925 cumulative IPC: 0.822962 (Simulation time: 1 hr 2 min 45 sec) 
Heartbeat CPU 0 instructions: 93000000 cycles: 106949306 heartbeat IPC: 0.67126 cumulative IPC: 0.820727 (Simulation time: 1 hr 3 min 25 sec) 
Heartbeat CPU 0 instructions: 94000003 cycles: 108443273 heartbeat IPC: 0.669361 cumulative IPC: 0.818523 (Simulation time: 1 hr 3 min 58 sec) 
Heartbeat CPU 0 instructions: 95000000 cycles: 109939069 heartbeat IPC: 0.668538 cumulative IPC: 0.816369 (Simulation time: 1 hr 4 min 30 sec) 
Heartbeat CPU 0 instructions: 96000000 cycles: 111433015 heartbeat IPC: 0.669368 cumulative IPC: 0.814289 (Simulation time: 1 hr 4 min 59 sec) 
Heartbeat CPU 0 instructions: 97000001 cycles: 112928560 heartbeat IPC: 0.668653 cumulative IPC: 0.812256 (Simulation time: 1 hr 5 min 28 sec) 
Heartbeat CPU 0 instructions: 98000003 cycles: 114423916 heartbeat IPC: 0.668738 cumulative IPC: 0.81028 (Simulation time: 1 hr 5 min 56 sec) 
Heartbeat CPU 0 instructions: 99000000 cycles: 115913015 heartbeat IPC: 0.671545 cumulative IPC: 0.808403 (Simulation time: 1 hr 6 min 27 sec) 
Heartbeat CPU 0 instructions: 100000000 cycles: 117396409 heartbeat IPC: 0.67413 cumulative IPC: 0.806618 (Simulation time: 1 hr 6 min 57 sec) 
Heartbeat CPU 0 instructions: 101000000 cycles: 118879909 heartbeat IPC: 0.674082 cumulative IPC: 0.804879 (Simulation time: 1 hr 7 min 30 sec) 
Heartbeat CPU 0 instructions: 102000003 cycles: 120363493 heartbeat IPC: 0.674045 cumulative IPC: 0.803184 (Simulation time: 1 hr 8 min 1 sec) 
Heartbeat CPU 0 instructions: 103000003 cycles: 121859759 heartbeat IPC: 0.66833 cumulative IPC: 0.801445 (Simulation time: 1 hr 8 min 24 sec) 
Heartbeat CPU 0 instructions: 104000000 cycles: 123354299 heartbeat IPC: 0.6691 cumulative IPC: 0.799763 (Simulation time: 1 hr 8 min 48 sec) 
Heartbeat CPU 0 instructions: 105000000 cycles: 124849114 heartbeat IPC: 0.668979 cumulative IPC: 0.79812 (Simulation time: 1 hr 9 min 13 sec) 
Heartbeat CPU 0 instructions: 106000000 cycles: 126344170 heartbeat IPC: 0.668871 cumulative IPC: 0.796517 (Simulation time: 1 hr 9 min 38 sec) 
Heartbeat CPU 0 instructions: 107000000 cycles: 127840025 heartbeat IPC: 0.668514 cumulative IPC: 0.794948 (Simulation time: 1 hr 10 min 4 sec) 
Heartbeat CPU 0 instructions: 108000000 cycles: 129335606 heartbeat IPC: 0.668636 cumulative IPC: 0.793418 (Simulation time: 1 hr 10 min 27 sec) 
Heartbeat CPU 0 instructions: 109000003 cycles: 130818464 heartbeat IPC: 0.674375 cumulative IPC: 0.792006 (Simulation time: 1 hr 10 min 49 sec) 
Heartbeat CPU 0 instructions: 110000001 cycles: 132301662 heartbeat IPC: 0.674217 cumulative IPC: 0.790625 (Simulation time: 1 hr 11 min 12 sec) 
Finished CPU 0 instructions: 100000000 cycles: 126482234 cummulative IPC: 0.790625 (Simulation time: 1 hr 11 min 12 sec) 

ChampSim completed all CPUs

Region of Interest Statistics

CPU 0 cummulative IPC: 0.790625 instructions: 100000000 cycles: 126482234
LLC TOTAL     ACCESS:    1495350  HIT:     509484  MISS:     985866
LLC LOAD      ACCESS:      90374  HIT:      31678  MISS:      58696
LLC RFO       ACCESS:     219210  HIT:      57762  MISS:     161448
LLC PREFETCH  ACCESS:     749621  HIT:     162310  MISS:     587311
LLC WRITEBACK ACCESS:     436145  HIT:     257734  MISS:     178411
