
*** ChampSim Multicore Out-of-Order Simulator ***

Warmup Instructions: 10000000
Simulation Instructions: 100000000
Configuration: 2
Number of CPUs: 1
LLC sets: 2048
LLC ways: 16
Off-chip DRAM Channels: 1 Width: 64-bit Data Rate: 1600 MT/s

CPU 0 runs /datasets/cs240c-wi22-a00-public/data/Assignment2-gz/lbm_1004B.trace.gz
CPU 0 L1D next line prefetcher
CPU 0 L2C IP-based stride prefetcher
Heartbeat CPU 0 instructions: 1000002 cycles: 391414 heartbeat IPC: 2.55484 cumulative IPC: 2.55484 (Simulation time: 0 hr 0 min 39 sec) 
Heartbeat CPU 0 instructions: 2000001 cycles: 782838 heartbeat IPC: 2.55477 cumulative IPC: 2.55481 (Simulation time: 0 hr 1 min 16 sec) 
Heartbeat CPU 0 instructions: 3000001 cycles: 1174187 heartbeat IPC: 2.55526 cumulative IPC: 2.55496 (Simulation time: 0 hr 1 min 51 sec) 
Heartbeat CPU 0 instructions: 4000000 cycles: 1570381 heartbeat IPC: 2.52401 cumulative IPC: 2.54715 (Simulation time: 0 hr 2 min 30 sec) 
Heartbeat CPU 0 instructions: 5000002 cycles: 1961799 heartbeat IPC: 2.55482 cumulative IPC: 2.54868 (Simulation time: 0 hr 3 min 11 sec) 
Heartbeat CPU 0 instructions: 6000002 cycles: 2353167 heartbeat IPC: 2.55514 cumulative IPC: 2.54976 (Simulation time: 0 hr 3 min 48 sec) 
Heartbeat CPU 0 instructions: 7000003 cycles: 2749273 heartbeat IPC: 2.52458 cumulative IPC: 2.54613 (Simulation time: 0 hr 4 min 22 sec) 
Heartbeat CPU 0 instructions: 8000000 cycles: 3140627 heartbeat IPC: 2.55522 cumulative IPC: 2.54726 (Simulation time: 0 hr 5 min 0 sec) 
Heartbeat CPU 0 instructions: 9000003 cycles: 3532063 heartbeat IPC: 2.5547 cumulative IPC: 2.54809 (Simulation time: 0 hr 5 min 37 sec) 
Heartbeat CPU 0 instructions: 10000000 cycles: 3923433 heartbeat IPC: 2.55512 cumulative IPC: 2.54879 (Simulation time: 0 hr 6 min 12 sec) 

Warmup complete CPU 0 instructions: 10000004 cycles: 3923434 (Simulation time: 0 hr 6 min 12 sec) 

Heartbeat CPU 0 instructions: 11000002 cycles: 5368686 heartbeat IPC: 0.691922 cumulative IPC: 0.691919 (Simulation time: 0 hr 6 min 55 sec) 
Heartbeat CPU 0 instructions: 12000000 cycles: 6663834 heartbeat IPC: 0.772111 cumulative IPC: 0.729819 (Simulation time: 0 hr 7 min 32 sec) 
Heartbeat CPU 0 instructions: 13000002 cycles: 8013655 heartbeat IPC: 0.74084 cumulative IPC: 0.733456 (Simulation time: 0 hr 8 min 11 sec) 
Heartbeat CPU 0 instructions: 14000003 cycles: 9451581 heartbeat IPC: 0.695447 cumulative IPC: 0.72357 (Simulation time: 0 hr 8 min 50 sec) 
Heartbeat CPU 0 instructions: 15000003 cycles: 10796134 heartbeat IPC: 0.743742 cumulative IPC: 0.727516 (Simulation time: 0 hr 9 min 25 sec) 
Heartbeat CPU 0 instructions: 16000000 cycles: 12111638 heartbeat IPC: 0.760163 cumulative IPC: 0.732761 (Simulation time: 0 hr 10 min 5 sec) 
Heartbeat CPU 0 instructions: 17000000 cycles: 13538597 heartbeat IPC: 0.700791 cumulative IPC: 0.728016 (Simulation time: 0 hr 10 min 49 sec) 
Heartbeat CPU 0 instructions: 18000002 cycles: 14898732 heartbeat IPC: 0.735223 cumulative IPC: 0.728909 (Simulation time: 0 hr 11 min 29 sec) 
Heartbeat CPU 0 instructions: 19000002 cycles: 16232094 heartbeat IPC: 0.749984 cumulative IPC: 0.731192 (Simulation time: 0 hr 12 min 14 sec) 
Heartbeat CPU 0 instructions: 20000000 cycles: 17576933 heartbeat IPC: 0.743582 cumulative IPC: 0.732413 (Simulation time: 0 hr 12 min 58 sec) 
Heartbeat CPU 0 instructions: 21000003 cycles: 18959206 heartbeat IPC: 0.723448 cumulative IPC: 0.731589 (Simulation time: 0 hr 13 min 41 sec) 
Heartbeat CPU 0 instructions: 22000002 cycles: 20326584 heartbeat IPC: 0.731326 cumulative IPC: 0.731567 (Simulation time: 0 hr 14 min 26 sec) 
Heartbeat CPU 0 instructions: 23000001 cycles: 21656933 heartbeat IPC: 0.751682 cumulative IPC: 0.733076 (Simulation time: 0 hr 15 min 8 sec) 
Heartbeat CPU 0 instructions: 24000000 cycles: 23068581 heartbeat IPC: 0.708391 cumulative IPC: 0.731256 (Simulation time: 0 hr 15 min 49 sec) 
Heartbeat CPU 0 instructions: 25000003 cycles: 24408863 heartbeat IPC: 0.746114 cumulative IPC: 0.732228 (Simulation time: 0 hr 16 min 31 sec) 
Heartbeat CPU 0 instructions: 26000003 cycles: 25740520 heartbeat IPC: 0.750944 cumulative IPC: 0.73337 (Simulation time: 0 hr 17 min 15 sec) 
Heartbeat CPU 0 instructions: 27000001 cycles: 27099541 heartbeat IPC: 0.735822 cumulative IPC: 0.733514 (Simulation time: 0 hr 18 min 0 sec) 
Heartbeat CPU 0 instructions: 28000000 cycles: 28507250 heartbeat IPC: 0.710373 cumulative IPC: 0.732189 (Simulation time: 0 hr 18 min 46 sec) 
Heartbeat CPU 0 instructions: 29000002 cycles: 29855073 heartbeat IPC: 0.741939 cumulative IPC: 0.732696 (Simulation time: 0 hr 19 min 28 sec) 
Heartbeat CPU 0 instructions: 30000003 cycles: 31222541 heartbeat IPC: 0.731279 cumulative IPC: 0.732625 (Simulation time: 0 hr 20 min 8 sec) 
Heartbeat CPU 0 instructions: 31000001 cycles: 32615167 heartbeat IPC: 0.718066 cumulative IPC: 0.731918 (Simulation time: 0 hr 21 min 1 sec) 
Heartbeat CPU 0 instructions: 32000000 cycles: 33959700 heartbeat IPC: 0.743752 cumulative IPC: 0.732448 (Simulation time: 0 hr 21 min 48 sec) 
Heartbeat CPU 0 instructions: 33000000 cycles: 35345028 heartbeat IPC: 0.721851 cumulative IPC: 0.731981 (Simulation time: 0 hr 22 min 32 sec) 
Heartbeat CPU 0 instructions: 34000002 cycles: 36742104 heartbeat IPC: 0.715782 cumulative IPC: 0.731291 (Simulation time: 0 hr 23 min 15 sec) 
Heartbeat CPU 0 instructions: 35000001 cycles: 38113845 heartbeat IPC: 0.729 cumulative IPC: 0.731199 (Simulation time: 0 hr 23 min 55 sec) 
Heartbeat CPU 0 instructions: 36000000 cycles: 39472851 heartbeat IPC: 0.735831 cumulative IPC: 0.731376 (Simulation time: 0 hr 24 min 32 sec) 
Heartbeat CPU 0 instructions: 37000002 cycles: 40803538 heartbeat IPC: 0.751493 cumulative IPC: 0.732102 (Simulation time: 0 hr 25 min 8 sec) 
Heartbeat CPU 0 instructions: 38000000 cycles: 42203480 heartbeat IPC: 0.714314 cumulative IPC: 0.731451 (Simulation time: 0 hr 25 min 44 sec) 
Heartbeat CPU 0 instructions: 39000003 cycles: 43597997 heartbeat IPC: 0.717096 cumulative IPC: 0.730947 (Simulation time: 0 hr 26 min 17 sec) 
Heartbeat CPU 0 instructions: 40000000 cycles: 44940857 heartbeat IPC: 0.744677 cumulative IPC: 0.731396 (Simulation time: 0 hr 26 min 49 sec) 
Heartbeat CPU 0 instructions: 41000002 cycles: 46291998 heartbeat IPC: 0.740117 cumulative IPC: 0.731674 (Simulation time: 0 hr 27 min 21 sec) 
Heartbeat CPU 0 instructions: 42000000 cycles: 47669513 heartbeat IPC: 0.725943 cumulative IPC: 0.731494 (Simulation time: 0 hr 27 min 59 sec) 
Heartbeat CPU 0 instructions: 43000002 cycles: 49055717 heartbeat IPC: 0.721396 cumulative IPC: 0.731184 (Simulation time: 0 hr 28 min 31 sec) 
Heartbeat CPU 0 instructions: 44000000 cycles: 50452364 heartbeat IPC: 0.715999 cumulative IPC: 0.730728 (Simulation time: 0 hr 29 min 5 sec) 
Heartbeat CPU 0 instructions: 45000000 cycles: 51797295 heartbeat IPC: 0.743533 cumulative IPC: 0.731088 (Simulation time: 0 hr 29 min 36 sec) 
Heartbeat CPU 0 instructions: 46000003 cycles: 53147256 heartbeat IPC: 0.740764 cumulative IPC: 0.731353 (Simulation time: 0 hr 30 min 13 sec) 
Heartbeat CPU 0 instructions: 47000002 cycles: 54494541 heartbeat IPC: 0.742233 cumulative IPC: 0.731643 (Simulation time: 0 hr 30 min 47 sec) 
Heartbeat CPU 0 instructions: 48000000 cycles: 55881733 heartbeat IPC: 0.720879 cumulative IPC: 0.731356 (Simulation time: 0 hr 31 min 24 sec) 
Heartbeat CPU 0 instructions: 49000000 cycles: 57229056 heartbeat IPC: 0.742213 cumulative IPC: 0.73163 (Simulation time: 0 hr 31 min 56 sec) 
Heartbeat CPU 0 instructions: 50000003 cycles: 58550261 heartbeat IPC: 0.756887 cumulative IPC: 0.732241 (Simulation time: 0 hr 32 min 28 sec) 
Heartbeat CPU 0 instructions: 51000001 cycles: 59932526 heartbeat IPC: 0.723449 cumulative IPC: 0.732024 (Simulation time: 0 hr 33 min 1 sec) 
Heartbeat CPU 0 instructions: 52000000 cycles: 61257899 heartbeat IPC: 0.754504 cumulative IPC: 0.732544 (Simulation time: 0 hr 33 min 33 sec) 
Heartbeat CPU 0 instructions: 53000002 cycles: 62612626 heartbeat IPC: 0.738158 cumulative IPC: 0.732673 (Simulation time: 0 hr 34 min 5 sec) 
Heartbeat CPU 0 instructions: 54000002 cycles: 63983151 heartbeat IPC: 0.729647 cumulative IPC: 0.732604 (Simulation time: 0 hr 34 min 38 sec) 
Heartbeat CPU 0 instructions: 55000001 cycles: 65382980 heartbeat IPC: 0.714372 cumulative IPC: 0.732189 (Simulation time: 0 hr 35 min 15 sec) 
Heartbeat CPU 0 instructions: 56000000 cycles: 66741265 heartbeat IPC: 0.736222 cumulative IPC: 0.732276 (Simulation time: 0 hr 35 min 56 sec) 
Heartbeat CPU 0 instructions: 57000003 cycles: 68070007 heartbeat IPC: 0.752594 cumulative IPC: 0.732697 (Simulation time: 0 hr 36 min 28 sec) 
Heartbeat CPU 0 instructions: 58000003 cycles: 69473524 heartbeat IPC: 0.712496 cumulative IPC: 0.732264 (Simulation time: 0 hr 37 min 4 sec) 
Heartbeat CPU 0 instructions: 59000002 cycles: 70855522 heartbeat IPC: 0.723589 cumulative IPC: 0.732085 (Simulation time: 0 hr 37 min 42 sec) 
Heartbeat CPU 0 instructions: 60000000 cycles: 72203891 heartbeat IPC: 0.741635 cumulative IPC: 0.732274 (Simulation time: 0 hr 38 min 24 sec) 
Heartbeat CPU 0 instructions: 61000003 cycles: 73593467 heartbeat IPC: 0.719646 cumulative IPC: 0.732022 (Simulation time: 0 hr 38 min 57 sec) 
Heartbeat CPU 0 instructions: 62000001 cycles: 74940089 heartbeat IPC: 0.742597 cumulative IPC: 0.732223 (Simulation time: 0 hr 39 min 30 sec) 
Heartbeat CPU 0 instructions: 63000001 cycles: 76285719 heartbeat IPC: 0.743146 cumulative IPC: 0.732426 (Simulation time: 0 hr 40 min 13 sec) 
Heartbeat CPU 0 instructions: 64000000 cycles: 77646304 heartbeat IPC: 0.734977 cumulative IPC: 0.732473 (Simulation time: 0 hr 40 min 52 sec) 
Heartbeat CPU 0 instructions: 65000000 cycles: 79042496 heartbeat IPC: 0.716234 cumulative IPC: 0.732171 (Simulation time: 0 hr 41 min 36 sec) 
Heartbeat CPU 0 instructions: 66000000 cycles: 80397528 heartbeat IPC: 0.73799 cumulative IPC: 0.732274 (Simulation time: 0 hr 42 min 12 sec) 
Heartbeat CPU 0 instructions: 67000000 cycles: 81777172 heartbeat IPC: 0.724825 cumulative IPC: 0.732142 (Simulation time: 0 hr 42 min 45 sec) 
Heartbeat CPU 0 instructions: 68000000 cycles: 83182456 heartbeat IPC: 0.7116 cumulative IPC: 0.731778 (Simulation time: 0 hr 43 min 19 sec) 
Heartbeat CPU 0 instructions: 69000000 cycles: 84543460 heartbeat IPC: 0.734752 cumulative IPC: 0.731828 (Simulation time: 0 hr 43 min 53 sec) 
Heartbeat CPU 0 instructions: 70000000 cycles: 85894233 heartbeat IPC: 0.740317 cumulative IPC: 0.731968 (Simulation time: 0 hr 44 min 27 sec) 
Heartbeat CPU 0 instructions: 71000002 cycles: 87274631 heartbeat IPC: 0.72443 cumulative IPC: 0.731843 (Simulation time: 0 hr 45 min 11 sec) 
Heartbeat CPU 0 instructions: 72000000 cycles: 89426567 heartbeat IPC: 0.464697 cumulative IPC: 0.72512 (Simulation time: 0 hr 45 min 56 sec) 
Heartbeat CPU 0 instructions: 73000002 cycles: 92463903 heartbeat IPC: 0.329237 cumulative IPC: 0.711539 (Simulation time: 0 hr 46 min 55 sec) 
Heartbeat CPU 0 instructions: 74000002 cycles: 98755600 heartbeat IPC: 0.15894 cumulative IPC: 0.674876 (Simulation time: 0 hr 48 min 26 sec) 
Heartbeat CPU 0 instructions: 75000003 cycles: 101150650 heartbeat IPC: 0.417528 cumulative IPC: 0.668537 (Simulation time: 0 hr 49 min 9 sec) 
Heartbeat CPU 0 instructions: 76000000 cycles: 103241833 heartbeat IPC: 0.478197 cumulative IPC: 0.664529 (Simulation time: 0 hr 49 min 51 sec) 
Heartbeat CPU 0 instructions: 77000000 cycles: 104726303 heartbeat IPC: 0.673641 cumulative IPC: 0.664664 (Simulation time: 0 hr 50 min 23 sec) 
Heartbeat CPU 0 instructions: 78000002 cycles: 106161739 heartbeat IPC: 0.696654 cumulative IPC: 0.665113 (Simulation time: 0 hr 50 min 56 sec) 
Heartbeat CPU 0 instructions: 79000000 cycles: 107569478 heartbeat IPC: 0.710358 cumulative IPC: 0.665727 (Simulation time: 0 hr 51 min 34 sec) 
Heartbeat CPU 0 instructions: 80000000 cycles: 108896435 heartbeat IPC: 0.753604 cumulative IPC: 0.666838 (Simulation time: 0 hr 52 min 5 sec) 
Heartbeat CPU 0 instructions: 81000001 cycles: 110180580 heartbeat IPC: 0.778729 cumulative IPC: 0.66819 (Simulation time: 0 hr 52 min 37 sec) 
Heartbeat CPU 0 instructions: 82000002 cycles: 111561342 heartbeat IPC: 0.724239 cumulative IPC: 0.668909 (Simulation time: 0 hr 53 min 9 sec) 
Heartbeat CPU 0 instructions: 83000003 cycles: 113009595 heartbeat IPC: 0.690488 cumulative IPC: 0.669196 (Simulation time: 0 hr 53 min 46 sec) 
Heartbeat CPU 0 instructions: 84000000 cycles: 114309632 heartbeat IPC: 0.769207 cumulative IPC: 0.670374 (Simulation time: 0 hr 54 min 22 sec) 
Heartbeat CPU 0 instructions: 85000000 cycles: 115640341 heartbeat IPC: 0.751479 cumulative IPC: 0.67134 (Simulation time: 0 hr 54 min 52 sec) 
Heartbeat CPU 0 instructions: 86000002 cycles: 117128074 heartbeat IPC: 0.672165 cumulative IPC: 0.671351 (Simulation time: 0 hr 55 min 32 sec) 
Heartbeat CPU 0 instructions: 87000002 cycles: 118467008 heartbeat IPC: 0.746863 cumulative IPC: 0.672233 (Simulation time: 0 hr 56 min 3 sec) 
Heartbeat CPU 0 instructions: 88000000 cycles: 119777785 heartbeat IPC: 0.762905 cumulative IPC: 0.673259 (Simulation time: 0 hr 56 min 34 sec) 
Heartbeat CPU 0 instructions: 89000003 cycles: 121112945 heartbeat IPC: 0.748976 cumulative IPC: 0.674122 (Simulation time: 0 hr 57 min 3 sec) 
Heartbeat CPU 0 instructions: 90000002 cycles: 122511053 heartbeat IPC: 0.715252 cumulative IPC: 0.674607 (Simulation time: 0 hr 57 min 45 sec) 
Heartbeat CPU 0 instructions: 91000001 cycles: 123854956 heartbeat IPC: 0.744101 cumulative IPC: 0.675385 (Simulation time: 0 hr 58 min 23 sec) 
Heartbeat CPU 0 instructions: 92000000 cycles: 125172886 heartbeat IPC: 0.758765 cumulative IPC: 0.676292 (Simulation time: 0 hr 58 min 53 sec) 
Heartbeat CPU 0 instructions: 93000003 cycles: 126612345 heartbeat IPC: 0.694708 cumulative IPC: 0.676508 (Simulation time: 0 hr 59 min 32 sec) 
Heartbeat CPU 0 instructions: 94000003 cycles: 127974478 heartbeat IPC: 0.734143 cumulative IPC: 0.677141 (Simulation time: 1 hr 0 min 3 sec) 
Heartbeat CPU 0 instructions: 95000000 cycles: 129287216 heartbeat IPC: 0.761764 cumulative IPC: 0.678027 (Simulation time: 1 hr 0 min 37 sec) 
Heartbeat CPU 0 instructions: 96000000 cycles: 130729325 heartbeat IPC: 0.693429 cumulative IPC: 0.678202 (Simulation time: 1 hr 1 min 8 sec) 
Heartbeat CPU 0 instructions: 97000002 cycles: 132143574 heartbeat IPC: 0.70709 cumulative IPC: 0.678521 (Simulation time: 1 hr 1 min 39 sec) 
Heartbeat CPU 0 instructions: 98000001 cycles: 133503936 heartbeat IPC: 0.735098 cumulative IPC: 0.679115 (Simulation time: 1 hr 2 min 6 sec) 
Heartbeat CPU 0 instructions: 99000000 cycles: 134849885 heartbeat IPC: 0.742969 cumulative IPC: 0.679771 (Simulation time: 1 hr 2 min 39 sec) 
Heartbeat CPU 0 instructions: 100000000 cycles: 136251570 heartbeat IPC: 0.713427 cumulative IPC: 0.680127 (Simulation time: 1 hr 3 min 14 sec) 
Heartbeat CPU 0 instructions: 101000000 cycles: 137619032 heartbeat IPC: 0.731282 cumulative IPC: 0.680651 (Simulation time: 1 hr 3 min 46 sec) 
Heartbeat CPU 0 instructions: 102000000 cycles: 138983360 heartbeat IPC: 0.732962 cumulative IPC: 0.681179 (Simulation time: 1 hr 4 min 22 sec) 
Heartbeat CPU 0 instructions: 103000001 cycles: 140384276 heartbeat IPC: 0.713819 cumulative IPC: 0.681514 (Simulation time: 1 hr 4 min 59 sec) 
Heartbeat CPU 0 instructions: 104000000 cycles: 141759594 heartbeat IPC: 0.727104 cumulative IPC: 0.681969 (Simulation time: 1 hr 5 min 24 sec) 
Heartbeat CPU 0 instructions: 105000001 cycles: 143110782 heartbeat IPC: 0.74009 cumulative IPC: 0.682533 (Simulation time: 1 hr 5 min 49 sec) 
Heartbeat CPU 0 instructions: 106000000 cycles: 144440602 heartbeat IPC: 0.751981 cumulative IPC: 0.683191 (Simulation time: 1 hr 6 min 12 sec) 
Heartbeat CPU 0 instructions: 107000000 cycles: 145906224 heartbeat IPC: 0.682304 cumulative IPC: 0.683181 (Simulation time: 1 hr 6 min 34 sec) 
Heartbeat CPU 0 instructions: 108000000 cycles: 147286441 heartbeat IPC: 0.724524 cumulative IPC: 0.683579 (Simulation time: 1 hr 6 min 55 sec) 
Heartbeat CPU 0 instructions: 109000003 cycles: 148628836 heartbeat IPC: 0.744939 cumulative IPC: 0.684149 (Simulation time: 1 hr 7 min 14 sec) 
Heartbeat CPU 0 instructions: 110000001 cycles: 150050357 heartbeat IPC: 0.70347 cumulative IPC: 0.684337 (Simulation time: 1 hr 7 min 34 sec) 
Finished CPU 0 instructions: 100000001 cycles: 146126924 cummulative IPC: 0.684337 (Simulation time: 1 hr 7 min 34 sec) 

ChampSim completed all CPUs

Region of Interest Statistics

CPU 0 cummulative IPC: 0.684337 instructions: 100000001 cycles: 146126924
LLC TOTAL     ACCESS:    5793154  HIT:    1588503  MISS:    4204651
LLC LOAD      ACCESS:     416254  HIT:         14  MISS:     416240
LLC RFO       ACCESS:    2473102  HIT:     510122  MISS:    1962980
LLC PREFETCH  ACCESS:     430677  HIT:          2  MISS:     430675
LLC WRITEBACK ACCESS:    2473121  HIT:    1078365  MISS:    1394756
