
*** ChampSim Multicore Out-of-Order Simulator ***

Warmup Instructions: 10000000
Simulation Instructions: 100000000
Configuration: 2
Number of CPUs: 1
LLC sets: 2048
LLC ways: 16
Off-chip DRAM Channels: 1 Width: 64-bit Data Rate: 1600 MT/s

CPU 0 runs /datasets/cs240c-wi22-a00-public/data/Assignment2-gz/zeusmp_100B.trace.gz
CPU 0 L1D next line prefetcher
CPU 0 L2C IP-based stride prefetcher
Heartbeat CPU 0 instructions: 1000002 cycles: 462677 heartbeat IPC: 2.16134 cumulative IPC: 2.16134 (Simulation time: 0 hr 0 min 34 sec) 
Heartbeat CPU 0 instructions: 2000001 cycles: 925467 heartbeat IPC: 2.16081 cumulative IPC: 2.16107 (Simulation time: 0 hr 1 min 9 sec) 
Heartbeat CPU 0 instructions: 3000003 cycles: 1388498 heartbeat IPC: 2.15969 cumulative IPC: 2.16061 (Simulation time: 0 hr 1 min 42 sec) 
Heartbeat CPU 0 instructions: 4000000 cycles: 1851228 heartbeat IPC: 2.16108 cumulative IPC: 2.16073 (Simulation time: 0 hr 2 min 15 sec) 
Heartbeat CPU 0 instructions: 5000003 cycles: 2314155 heartbeat IPC: 2.16017 cumulative IPC: 2.16062 (Simulation time: 0 hr 2 min 50 sec) 
Heartbeat CPU 0 instructions: 6000001 cycles: 2776976 heartbeat IPC: 2.16066 cumulative IPC: 2.16062 (Simulation time: 0 hr 3 min 23 sec) 
Heartbeat CPU 0 instructions: 7000001 cycles: 3239712 heartbeat IPC: 2.16106 cumulative IPC: 2.16069 (Simulation time: 0 hr 3 min 53 sec) 
Heartbeat CPU 0 instructions: 8000000 cycles: 3702616 heartbeat IPC: 2.16027 cumulative IPC: 2.16063 (Simulation time: 0 hr 4 min 25 sec) 
Heartbeat CPU 0 instructions: 9000003 cycles: 4165394 heartbeat IPC: 2.16087 cumulative IPC: 2.16066 (Simulation time: 0 hr 4 min 56 sec) 
Heartbeat CPU 0 instructions: 10000001 cycles: 4628711 heartbeat IPC: 2.15835 cumulative IPC: 2.16043 (Simulation time: 0 hr 5 min 28 sec) 

Warmup complete CPU 0 instructions: 10000001 cycles: 4628711 (Simulation time: 0 hr 5 min 28 sec) 

Heartbeat CPU 0 instructions: 11000000 cycles: 5327222 heartbeat IPC: 1.43162 cumulative IPC: 1.43162 (Simulation time: 0 hr 6 min 4 sec) 
Heartbeat CPU 0 instructions: 12000000 cycles: 6050502 heartbeat IPC: 1.38259 cumulative IPC: 1.40668 (Simulation time: 0 hr 6 min 42 sec) 
Heartbeat CPU 0 instructions: 13000001 cycles: 6788291 heartbeat IPC: 1.3554 cumulative IPC: 1.38916 (Simulation time: 0 hr 7 min 18 sec) 
Heartbeat CPU 0 instructions: 14000003 cycles: 7529719 heartbeat IPC: 1.34875 cumulative IPC: 1.37883 (Simulation time: 0 hr 7 min 53 sec) 
Heartbeat CPU 0 instructions: 15000002 cycles: 8252790 heartbeat IPC: 1.38299 cumulative IPC: 1.37966 (Simulation time: 0 hr 8 min 27 sec) 
Heartbeat CPU 0 instructions: 16000000 cycles: 8996580 heartbeat IPC: 1.34446 cumulative IPC: 1.37367 (Simulation time: 0 hr 9 min 1 sec) 
Heartbeat CPU 0 instructions: 17000003 cycles: 9784172 heartbeat IPC: 1.2697 cumulative IPC: 1.35778 (Simulation time: 0 hr 9 min 35 sec) 
Heartbeat CPU 0 instructions: 18000000 cycles: 10481874 heartbeat IPC: 1.43327 cumulative IPC: 1.36678 (Simulation time: 0 hr 10 min 14 sec) 
Heartbeat CPU 0 instructions: 19000002 cycles: 11184453 heartbeat IPC: 1.42333 cumulative IPC: 1.37284 (Simulation time: 0 hr 10 min 51 sec) 
Heartbeat CPU 0 instructions: 20000000 cycles: 11875070 heartbeat IPC: 1.44798 cumulative IPC: 1.38 (Simulation time: 0 hr 11 min 25 sec) 
Heartbeat CPU 0 instructions: 21000001 cycles: 12577637 heartbeat IPC: 1.42335 cumulative IPC: 1.38383 (Simulation time: 0 hr 12 min 3 sec) 
Heartbeat CPU 0 instructions: 22000001 cycles: 13269471 heartbeat IPC: 1.44543 cumulative IPC: 1.38877 (Simulation time: 0 hr 12 min 42 sec) 
Heartbeat CPU 0 instructions: 23000002 cycles: 13981717 heartbeat IPC: 1.40401 cumulative IPC: 1.38993 (Simulation time: 0 hr 13 min 18 sec) 
Heartbeat CPU 0 instructions: 24000000 cycles: 14677626 heartbeat IPC: 1.43697 cumulative IPC: 1.39319 (Simulation time: 0 hr 13 min 52 sec) 
Heartbeat CPU 0 instructions: 25000001 cycles: 15384995 heartbeat IPC: 1.41369 cumulative IPC: 1.39453 (Simulation time: 0 hr 14 min 29 sec) 
Heartbeat CPU 0 instructions: 26000001 cycles: 16079263 heartbeat IPC: 1.44037 cumulative IPC: 1.39731 (Simulation time: 0 hr 15 min 6 sec) 
Heartbeat CPU 0 instructions: 27000000 cycles: 16792090 heartbeat IPC: 1.40286 cumulative IPC: 1.39764 (Simulation time: 0 hr 15 min 38 sec) 
Heartbeat CPU 0 instructions: 28000000 cycles: 17489686 heartbeat IPC: 1.43349 cumulative IPC: 1.39958 (Simulation time: 0 hr 16 min 13 sec) 
Heartbeat CPU 0 instructions: 29000000 cycles: 18186187 heartbeat IPC: 1.43575 cumulative IPC: 1.40144 (Simulation time: 0 hr 16 min 42 sec) 
Heartbeat CPU 0 instructions: 30000003 cycles: 18896354 heartbeat IPC: 1.40812 cumulative IPC: 1.40177 (Simulation time: 0 hr 17 min 17 sec) 
Heartbeat CPU 0 instructions: 31000000 cycles: 19592731 heartbeat IPC: 1.436 cumulative IPC: 1.40337 (Simulation time: 0 hr 17 min 48 sec) 
Heartbeat CPU 0 instructions: 32000000 cycles: 20307534 heartbeat IPC: 1.39899 cumulative IPC: 1.40317 (Simulation time: 0 hr 18 min 20 sec) 
Heartbeat CPU 0 instructions: 33000002 cycles: 21004406 heartbeat IPC: 1.43499 cumulative IPC: 1.40452 (Simulation time: 0 hr 18 min 52 sec) 
Heartbeat CPU 0 instructions: 34000002 cycles: 21715964 heartbeat IPC: 1.40537 cumulative IPC: 1.40456 (Simulation time: 0 hr 19 min 26 sec) 
Heartbeat CPU 0 instructions: 35000003 cycles: 22418532 heartbeat IPC: 1.42335 cumulative IPC: 1.4053 (Simulation time: 0 hr 20 min 2 sec) 
Heartbeat CPU 0 instructions: 36000000 cycles: 23133057 heartbeat IPC: 1.39953 cumulative IPC: 1.40508 (Simulation time: 0 hr 20 min 37 sec) 
Heartbeat CPU 0 instructions: 37000001 cycles: 23836122 heartbeat IPC: 1.42235 cumulative IPC: 1.40571 (Simulation time: 0 hr 21 min 10 sec) 
Heartbeat CPU 0 instructions: 38000003 cycles: 24547227 heartbeat IPC: 1.40626 cumulative IPC: 1.40573 (Simulation time: 0 hr 21 min 48 sec) 
Heartbeat CPU 0 instructions: 39000001 cycles: 25250773 heartbeat IPC: 1.42137 cumulative IPC: 1.40626 (Simulation time: 0 hr 22 min 23 sec) 
Heartbeat CPU 0 instructions: 40000000 cycles: 25968641 heartbeat IPC: 1.39301 cumulative IPC: 1.40582 (Simulation time: 0 hr 23 min 0 sec) 
Heartbeat CPU 0 instructions: 41000002 cycles: 26669404 heartbeat IPC: 1.42702 cumulative IPC: 1.40649 (Simulation time: 0 hr 23 min 37 sec) 
Heartbeat CPU 0 instructions: 42000001 cycles: 27368862 heartbeat IPC: 1.42968 cumulative IPC: 1.4072 (Simulation time: 0 hr 24 min 14 sec) 
Heartbeat CPU 0 instructions: 43000003 cycles: 28085486 heartbeat IPC: 1.39543 cumulative IPC: 1.40684 (Simulation time: 0 hr 24 min 50 sec) 
Heartbeat CPU 0 instructions: 44000000 cycles: 28785479 heartbeat IPC: 1.42858 cumulative IPC: 1.40747 (Simulation time: 0 hr 25 min 23 sec) 
Heartbeat CPU 0 instructions: 45000001 cycles: 29500517 heartbeat IPC: 1.39853 cumulative IPC: 1.40722 (Simulation time: 0 hr 25 min 57 sec) 
Heartbeat CPU 0 instructions: 46000002 cycles: 30201434 heartbeat IPC: 1.4267 cumulative IPC: 1.40775 (Simulation time: 0 hr 26 min 31 sec) 
Heartbeat CPU 0 instructions: 47000003 cycles: 30909084 heartbeat IPC: 1.41313 cumulative IPC: 1.40789 (Simulation time: 0 hr 27 min 8 sec) 
Heartbeat CPU 0 instructions: 48000000 cycles: 31606751 heartbeat IPC: 1.43334 cumulative IPC: 1.40855 (Simulation time: 0 hr 27 min 46 sec) 
Heartbeat CPU 0 instructions: 49000001 cycles: 32320486 heartbeat IPC: 1.40108 cumulative IPC: 1.40836 (Simulation time: 0 hr 28 min 27 sec) 
Heartbeat CPU 0 instructions: 50000001 cycles: 33020729 heartbeat IPC: 1.42808 cumulative IPC: 1.40885 (Simulation time: 0 hr 29 min 6 sec) 
Heartbeat CPU 0 instructions: 51000002 cycles: 33732842 heartbeat IPC: 1.40427 cumulative IPC: 1.40873 (Simulation time: 0 hr 29 min 44 sec) 
Heartbeat CPU 0 instructions: 52000000 cycles: 34429485 heartbeat IPC: 1.43545 cumulative IPC: 1.40936 (Simulation time: 0 hr 30 min 21 sec) 
Heartbeat CPU 0 instructions: 53000001 cycles: 35142062 heartbeat IPC: 1.40336 cumulative IPC: 1.40922 (Simulation time: 0 hr 30 min 58 sec) 
Heartbeat CPU 0 instructions: 54000003 cycles: 35843902 heartbeat IPC: 1.42483 cumulative IPC: 1.40957 (Simulation time: 0 hr 31 min 34 sec) 
Heartbeat CPU 0 instructions: 55000003 cycles: 36548910 heartbeat IPC: 1.41842 cumulative IPC: 1.40977 (Simulation time: 0 hr 32 min 11 sec) 
Heartbeat CPU 0 instructions: 56000000 cycles: 37255693 heartbeat IPC: 1.41486 cumulative IPC: 1.40988 (Simulation time: 0 hr 32 min 50 sec) 
Heartbeat CPU 0 instructions: 57000003 cycles: 37951545 heartbeat IPC: 1.43709 cumulative IPC: 1.41044 (Simulation time: 0 hr 33 min 29 sec) 
Heartbeat CPU 0 instructions: 58000003 cycles: 38661632 heartbeat IPC: 1.40828 cumulative IPC: 1.4104 (Simulation time: 0 hr 34 min 6 sec) 
Heartbeat CPU 0 instructions: 59000000 cycles: 39363936 heartbeat IPC: 1.42388 cumulative IPC: 1.41067 (Simulation time: 0 hr 34 min 42 sec) 
Heartbeat CPU 0 instructions: 60000000 cycles: 40080510 heartbeat IPC: 1.39553 cumulative IPC: 1.41037 (Simulation time: 0 hr 35 min 22 sec) 
Heartbeat CPU 0 instructions: 61000000 cycles: 40779182 heartbeat IPC: 1.43129 cumulative IPC: 1.41077 (Simulation time: 0 hr 35 min 57 sec) 
Heartbeat CPU 0 instructions: 62000001 cycles: 41493110 heartbeat IPC: 1.4007 cumulative IPC: 1.41058 (Simulation time: 0 hr 36 min 30 sec) 
Heartbeat CPU 0 instructions: 63000001 cycles: 42196176 heartbeat IPC: 1.42234 cumulative IPC: 1.4108 (Simulation time: 0 hr 37 min 4 sec) 
Heartbeat CPU 0 instructions: 64000000 cycles: 42909164 heartbeat IPC: 1.40255 cumulative IPC: 1.41064 (Simulation time: 0 hr 37 min 40 sec) 
Heartbeat CPU 0 instructions: 65000003 cycles: 43607106 heartbeat IPC: 1.43279 cumulative IPC: 1.41104 (Simulation time: 0 hr 38 min 17 sec) 
Heartbeat CPU 0 instructions: 66000003 cycles: 44320187 heartbeat IPC: 1.40237 cumulative IPC: 1.41088 (Simulation time: 0 hr 38 min 54 sec) 
Heartbeat CPU 0 instructions: 67000000 cycles: 45019166 heartbeat IPC: 1.43065 cumulative IPC: 1.41122 (Simulation time: 0 hr 39 min 28 sec) 
Heartbeat CPU 0 instructions: 68000000 cycles: 45727655 heartbeat IPC: 1.41145 cumulative IPC: 1.41123 (Simulation time: 0 hr 40 min 4 sec) 
Heartbeat CPU 0 instructions: 69000000 cycles: 46428967 heartbeat IPC: 1.4259 cumulative IPC: 1.41147 (Simulation time: 0 hr 40 min 39 sec) 
Heartbeat CPU 0 instructions: 70000003 cycles: 47124615 heartbeat IPC: 1.43751 cumulative IPC: 1.4119 (Simulation time: 0 hr 41 min 17 sec) 
Heartbeat CPU 0 instructions: 71000003 cycles: 47836425 heartbeat IPC: 1.40487 cumulative IPC: 1.41179 (Simulation time: 0 hr 41 min 52 sec) 
Heartbeat CPU 0 instructions: 72000000 cycles: 48534370 heartbeat IPC: 1.43277 cumulative IPC: 1.41212 (Simulation time: 0 hr 42 min 25 sec) 
Heartbeat CPU 0 instructions: 73000002 cycles: 49249752 heartbeat IPC: 1.39786 cumulative IPC: 1.41189 (Simulation time: 0 hr 43 min 0 sec) 
Heartbeat CPU 0 instructions: 74000003 cycles: 49948522 heartbeat IPC: 1.43109 cumulative IPC: 1.41219 (Simulation time: 0 hr 43 min 38 sec) 
Heartbeat CPU 0 instructions: 75000003 cycles: 50658391 heartbeat IPC: 1.40871 cumulative IPC: 1.41213 (Simulation time: 0 hr 44 min 11 sec) 
Heartbeat CPU 0 instructions: 76000000 cycles: 51355250 heartbeat IPC: 1.43501 cumulative IPC: 1.41247 (Simulation time: 0 hr 44 min 46 sec) 
Heartbeat CPU 0 instructions: 77000000 cycles: 52078004 heartbeat IPC: 1.3836 cumulative IPC: 1.41203 (Simulation time: 0 hr 45 min 23 sec) 
Heartbeat CPU 0 instructions: 78000002 cycles: 52779271 heartbeat IPC: 1.42599 cumulative IPC: 1.41224 (Simulation time: 0 hr 45 min 57 sec) 
Heartbeat CPU 0 instructions: 79000000 cycles: 53490619 heartbeat IPC: 1.40578 cumulative IPC: 1.41214 (Simulation time: 0 hr 46 min 31 sec) 
Heartbeat CPU 0 instructions: 80000000 cycles: 54187492 heartbeat IPC: 1.43498 cumulative IPC: 1.41246 (Simulation time: 0 hr 47 min 7 sec) 
Heartbeat CPU 0 instructions: 81000003 cycles: 54905972 heartbeat IPC: 1.39183 cumulative IPC: 1.41217 (Simulation time: 0 hr 47 min 42 sec) 
Heartbeat CPU 0 instructions: 82000000 cycles: 55606735 heartbeat IPC: 1.42701 cumulative IPC: 1.41237 (Simulation time: 0 hr 48 min 19 sec) 
Heartbeat CPU 0 instructions: 83000002 cycles: 56301467 heartbeat IPC: 1.43941 cumulative IPC: 1.41274 (Simulation time: 0 hr 48 min 55 sec) 
Heartbeat CPU 0 instructions: 84000000 cycles: 57010401 heartbeat IPC: 1.41057 cumulative IPC: 1.41271 (Simulation time: 0 hr 49 min 28 sec) 
Heartbeat CPU 0 instructions: 85000001 cycles: 57706293 heartbeat IPC: 1.43701 cumulative IPC: 1.41303 (Simulation time: 0 hr 50 min 3 sec) 
Heartbeat CPU 0 instructions: 86000001 cycles: 58420095 heartbeat IPC: 1.40095 cumulative IPC: 1.41287 (Simulation time: 0 hr 50 min 36 sec) 
Heartbeat CPU 0 instructions: 87000001 cycles: 59123536 heartbeat IPC: 1.42158 cumulative IPC: 1.41298 (Simulation time: 0 hr 51 min 9 sec) 
Heartbeat CPU 0 instructions: 88000000 cycles: 59834514 heartbeat IPC: 1.40651 cumulative IPC: 1.41289 (Simulation time: 0 hr 51 min 42 sec) 
Heartbeat CPU 0 instructions: 89000003 cycles: 60532308 heartbeat IPC: 1.43309 cumulative IPC: 1.41315 (Simulation time: 0 hr 52 min 18 sec) 
Heartbeat CPU 0 instructions: 90000001 cycles: 61246212 heartbeat IPC: 1.40075 cumulative IPC: 1.41299 (Simulation time: 0 hr 52 min 55 sec) 
Heartbeat CPU 0 instructions: 91000002 cycles: 61948463 heartbeat IPC: 1.42399 cumulative IPC: 1.41313 (Simulation time: 0 hr 53 min 26 sec) 
Heartbeat CPU 0 instructions: 92000000 cycles: 62664654 heartbeat IPC: 1.39627 cumulative IPC: 1.41292 (Simulation time: 0 hr 54 min 1 sec) 
Heartbeat CPU 0 instructions: 93000001 cycles: 63365651 heartbeat IPC: 1.42654 cumulative IPC: 1.41308 (Simulation time: 0 hr 54 min 31 sec) 
Heartbeat CPU 0 instructions: 94000003 cycles: 64077641 heartbeat IPC: 1.40452 cumulative IPC: 1.41298 (Simulation time: 0 hr 55 min 2 sec) 
Heartbeat CPU 0 instructions: 95000003 cycles: 64785641 heartbeat IPC: 1.41243 cumulative IPC: 1.41297 (Simulation time: 0 hr 55 min 33 sec) 
Heartbeat CPU 0 instructions: 96000000 cycles: 65492768 heartbeat IPC: 1.41417 cumulative IPC: 1.41298 (Simulation time: 0 hr 56 min 7 sec) 
Heartbeat CPU 0 instructions: 97000000 cycles: 66200959 heartbeat IPC: 1.41205 cumulative IPC: 1.41297 (Simulation time: 0 hr 56 min 43 sec) 
Heartbeat CPU 0 instructions: 98000001 cycles: 66895202 heartbeat IPC: 1.44042 cumulative IPC: 1.41328 (Simulation time: 0 hr 57 min 21 sec) 
Heartbeat CPU 0 instructions: 99000001 cycles: 67623633 heartbeat IPC: 1.37281 cumulative IPC: 1.41281 (Simulation time: 0 hr 57 min 51 sec) 
Heartbeat CPU 0 instructions: 100000000 cycles: 68338325 heartbeat IPC: 1.3992 cumulative IPC: 1.41266 (Simulation time: 0 hr 58 min 21 sec) 
Heartbeat CPU 0 instructions: 101000002 cycles: 69066810 heartbeat IPC: 1.37271 cumulative IPC: 1.41221 (Simulation time: 0 hr 58 min 53 sec) 
Heartbeat CPU 0 instructions: 102000003 cycles: 69788118 heartbeat IPC: 1.38637 cumulative IPC: 1.41192 (Simulation time: 0 hr 59 min 25 sec) 
Heartbeat CPU 0 instructions: 103000001 cycles: 70537454 heartbeat IPC: 1.33451 cumulative IPC: 1.41104 (Simulation time: 0 hr 59 min 56 sec) 
Heartbeat CPU 0 instructions: 104000000 cycles: 71262000 heartbeat IPC: 1.38017 cumulative IPC: 1.41071 (Simulation time: 1 hr 0 min 29 sec) 
Heartbeat CPU 0 instructions: 105000003 cycles: 72000757 heartbeat IPC: 1.35363 cumulative IPC: 1.41008 (Simulation time: 1 hr 1 min 3 sec) 
Heartbeat CPU 0 instructions: 106000002 cycles: 72717802 heartbeat IPC: 1.39461 cumulative IPC: 1.40992 (Simulation time: 1 hr 1 min 38 sec) 
Heartbeat CPU 0 instructions: 107000000 cycles: 73438321 heartbeat IPC: 1.38789 cumulative IPC: 1.40969 (Simulation time: 1 hr 2 min 6 sec) 
Heartbeat CPU 0 instructions: 108000000 cycles: 74139052 heartbeat IPC: 1.42708 cumulative IPC: 1.40986 (Simulation time: 1 hr 2 min 35 sec) 
Heartbeat CPU 0 instructions: 109000002 cycles: 74834798 heartbeat IPC: 1.43731 cumulative IPC: 1.41013 (Simulation time: 1 hr 3 min 8 sec) 
Heartbeat CPU 0 instructions: 110000000 cycles: 75546040 heartbeat IPC: 1.40599 cumulative IPC: 1.41009 (Simulation time: 1 hr 3 min 42 sec) 
Finished CPU 0 instructions: 100000003 cycles: 70917330 cummulative IPC: 1.41009 (Simulation time: 1 hr 3 min 42 sec) 

ChampSim completed all CPUs

Region of Interest Statistics

CPU 0 cummulative IPC: 1.41009 instructions: 100000003 cycles: 70917330
LLC TOTAL     ACCESS:     834552  HIT:      85609  MISS:     748943
LLC LOAD      ACCESS:      26709  HIT:       8847  MISS:      17862
LLC RFO       ACCESS:     201810  HIT:       8326  MISS:     193484
LLC PREFETCH  ACCESS:     402601  HIT:       3017  MISS:     399584
LLC WRITEBACK ACCESS:     203432  HIT:      65419  MISS:     138013
