
*** ChampSim Multicore Out-of-Order Simulator ***

Warmup Instructions: 10000000
Simulation Instructions: 100000000
Configuration: 2
Number of CPUs: 1
LLC sets: 2048
LLC ways: 16
Off-chip DRAM Channels: 1 Width: 64-bit Data Rate: 1600 MT/s

CPU 0 runs /datasets/cs240c-wi22-a00-public/data/Assignment2-gz/astar_163B.trace.gz
CPU 0 L1D next line prefetcher
CPU 0 L2C IP-based stride prefetcher
Heartbeat CPU 0 instructions: 1000002 cycles: 531206 heartbeat IPC: 1.88251 cumulative IPC: 1.88251 (Simulation time: 0 hr 0 min 54 sec) 
Heartbeat CPU 0 instructions: 2000003 cycles: 1060813 heartbeat IPC: 1.88819 cumulative IPC: 1.88535 (Simulation time: 0 hr 1 min 56 sec) 
Heartbeat CPU 0 instructions: 3000003 cycles: 1590830 heartbeat IPC: 1.88673 cumulative IPC: 1.88581 (Simulation time: 0 hr 3 min 3 sec) 
Heartbeat CPU 0 instructions: 4000000 cycles: 2120928 heartbeat IPC: 1.88644 cumulative IPC: 1.88597 (Simulation time: 0 hr 4 min 13 sec) 
Heartbeat CPU 0 instructions: 5000000 cycles: 2652833 heartbeat IPC: 1.88003 cumulative IPC: 1.88478 (Simulation time: 0 hr 5 min 8 sec) 
Heartbeat CPU 0 instructions: 6000002 cycles: 3181334 heartbeat IPC: 1.89215 cumulative IPC: 1.886 (Simulation time: 0 hr 6 min 14 sec) 
Heartbeat CPU 0 instructions: 7000003 cycles: 3710866 heartbeat IPC: 1.88846 cumulative IPC: 1.88635 (Simulation time: 0 hr 7 min 15 sec) 
Heartbeat CPU 0 instructions: 8000000 cycles: 4240139 heartbeat IPC: 1.88938 cumulative IPC: 1.88673 (Simulation time: 0 hr 8 min 14 sec) 
Heartbeat CPU 0 instructions: 9000000 cycles: 4771138 heartbeat IPC: 1.88324 cumulative IPC: 1.88634 (Simulation time: 0 hr 9 min 12 sec) 
Heartbeat CPU 0 instructions: 10000001 cycles: 5301222 heartbeat IPC: 1.8865 cumulative IPC: 1.88636 (Simulation time: 0 hr 10 min 12 sec) 

Warmup complete CPU 0 instructions: 10000001 cycles: 5301222 (Simulation time: 0 hr 10 min 12 sec) 

Heartbeat CPU 0 instructions: 11000003 cycles: 7523151 heartbeat IPC: 0.45006 cumulative IPC: 0.45006 (Simulation time: 0 hr 11 min 14 sec) 
Heartbeat CPU 0 instructions: 12000000 cycles: 9774005 heartbeat IPC: 0.444274 cumulative IPC: 0.447149 (Simulation time: 0 hr 12 min 13 sec) 
Heartbeat CPU 0 instructions: 13000000 cycles: 12051419 heartbeat IPC: 0.439095 cumulative IPC: 0.444431 (Simulation time: 0 hr 12 min 58 sec) 
Heartbeat CPU 0 instructions: 14000000 cycles: 14314382 heartbeat IPC: 0.441899 cumulative IPC: 0.443795 (Simulation time: 0 hr 13 min 50 sec) 
Heartbeat CPU 0 instructions: 15000000 cycles: 16629537 heartbeat IPC: 0.431937 cumulative IPC: 0.441372 (Simulation time: 0 hr 14 min 38 sec) 
Heartbeat CPU 0 instructions: 16000000 cycles: 18985796 heartbeat IPC: 0.424402 cumulative IPC: 0.43845 (Simulation time: 0 hr 15 min 28 sec) 
Heartbeat CPU 0 instructions: 17000003 cycles: 21296952 heartbeat IPC: 0.432685 cumulative IPC: 0.437617 (Simulation time: 0 hr 16 min 12 sec) 
Heartbeat CPU 0 instructions: 18000002 cycles: 23591030 heartbeat IPC: 0.435905 cumulative IPC: 0.437402 (Simulation time: 0 hr 16 min 56 sec) 
Heartbeat CPU 0 instructions: 19000000 cycles: 25881833 heartbeat IPC: 0.436527 cumulative IPC: 0.437305 (Simulation time: 0 hr 17 min 41 sec) 
Heartbeat CPU 0 instructions: 20000000 cycles: 28177405 heartbeat IPC: 0.435621 cumulative IPC: 0.437136 (Simulation time: 0 hr 18 min 22 sec) 
Heartbeat CPU 0 instructions: 21000003 cycles: 30508956 heartbeat IPC: 0.4289 cumulative IPC: 0.436374 (Simulation time: 0 hr 19 min 5 sec) 
Heartbeat CPU 0 instructions: 22000002 cycles: 32957330 heartbeat IPC: 0.408434 cumulative IPC: 0.433901 (Simulation time: 0 hr 19 min 48 sec) 
Heartbeat CPU 0 instructions: 23000001 cycles: 35367675 heartbeat IPC: 0.414878 cumulative IPC: 0.432376 (Simulation time: 0 hr 20 min 33 sec) 
Heartbeat CPU 0 instructions: 24000000 cycles: 37786806 heartbeat IPC: 0.413371 cumulative IPC: 0.43096 (Simulation time: 0 hr 21 min 15 sec) 
Heartbeat CPU 0 instructions: 25000003 cycles: 39943707 heartbeat IPC: 0.46363 cumulative IPC: 0.432994 (Simulation time: 0 hr 21 min 57 sec) 
Heartbeat CPU 0 instructions: 26000003 cycles: 41692885 heartbeat IPC: 0.571697 cumulative IPC: 0.439661 (Simulation time: 0 hr 22 min 41 sec) 
Heartbeat CPU 0 instructions: 27000000 cycles: 43517971 heartbeat IPC: 0.547918 cumulative IPC: 0.444831 (Simulation time: 0 hr 23 min 27 sec) 
Heartbeat CPU 0 instructions: 28000000 cycles: 45458360 heartbeat IPC: 0.515361 cumulative IPC: 0.448239 (Simulation time: 0 hr 24 min 10 sec) 
Heartbeat CPU 0 instructions: 29000000 cycles: 47393828 heartbeat IPC: 0.516671 cumulative IPC: 0.451386 (Simulation time: 0 hr 24 min 50 sec) 
Heartbeat CPU 0 instructions: 30000000 cycles: 49314898 heartbeat IPC: 0.520543 cumulative IPC: 0.454404 (Simulation time: 0 hr 25 min 28 sec) 
Heartbeat CPU 0 instructions: 31000001 cycles: 51181439 heartbeat IPC: 0.535751 cumulative IPC: 0.457714 (Simulation time: 0 hr 26 min 13 sec) 
Heartbeat CPU 0 instructions: 32000000 cycles: 53086577 heartbeat IPC: 0.524896 cumulative IPC: 0.460392 (Simulation time: 0 hr 26 min 55 sec) 
Heartbeat CPU 0 instructions: 33000000 cycles: 54971035 heartbeat IPC: 0.530657 cumulative IPC: 0.463058 (Simulation time: 0 hr 27 min 35 sec) 
Heartbeat CPU 0 instructions: 34000001 cycles: 56827384 heartbeat IPC: 0.538692 cumulative IPC: 0.465783 (Simulation time: 0 hr 28 min 25 sec) 
Heartbeat CPU 0 instructions: 35000001 cycles: 58690504 heartbeat IPC: 0.536734 cumulative IPC: 0.468259 (Simulation time: 0 hr 29 min 11 sec) 
Heartbeat CPU 0 instructions: 36000000 cycles: 60549583 heartbeat IPC: 0.5379 cumulative IPC: 0.470602 (Simulation time: 0 hr 29 min 55 sec) 
Heartbeat CPU 0 instructions: 37000000 cycles: 62466126 heartbeat IPC: 0.521773 cumulative IPC: 0.472318 (Simulation time: 0 hr 30 min 38 sec) 
Heartbeat CPU 0 instructions: 38000000 cycles: 64338452 heartbeat IPC: 0.534095 cumulative IPC: 0.474277 (Simulation time: 0 hr 31 min 22 sec) 
Heartbeat CPU 0 instructions: 39000001 cycles: 66183222 heartbeat IPC: 0.542074 cumulative IPC: 0.476331 (Simulation time: 0 hr 32 min 15 sec) 
Heartbeat CPU 0 instructions: 40000000 cycles: 68039477 heartbeat IPC: 0.538719 cumulative IPC: 0.478177 (Simulation time: 0 hr 32 min 58 sec) 
Heartbeat CPU 0 instructions: 41000001 cycles: 69936032 heartbeat IPC: 0.527272 cumulative IPC: 0.479618 (Simulation time: 0 hr 33 min 40 sec) 
Heartbeat CPU 0 instructions: 42000001 cycles: 71875349 heartbeat IPC: 0.515645 cumulative IPC: 0.480667 (Simulation time: 0 hr 34 min 23 sec) 
Heartbeat CPU 0 instructions: 43000001 cycles: 73857073 heartbeat IPC: 0.504611 cumulative IPC: 0.481359 (Simulation time: 0 hr 35 min 3 sec) 
Heartbeat CPU 0 instructions: 44000000 cycles: 75857996 heartbeat IPC: 0.499769 cumulative IPC: 0.481881 (Simulation time: 0 hr 35 min 53 sec) 
Heartbeat CPU 0 instructions: 45000000 cycles: 77870232 heartbeat IPC: 0.49696 cumulative IPC: 0.4823 (Simulation time: 0 hr 36 min 40 sec) 
Heartbeat CPU 0 instructions: 46000002 cycles: 79764302 heartbeat IPC: 0.527965 cumulative IPC: 0.483461 (Simulation time: 0 hr 37 min 30 sec) 
Heartbeat CPU 0 instructions: 47000000 cycles: 81656467 heartbeat IPC: 0.528494 cumulative IPC: 0.484577 (Simulation time: 0 hr 38 min 13 sec) 
Heartbeat CPU 0 instructions: 48000000 cycles: 83574076 heartbeat IPC: 0.521483 cumulative IPC: 0.485481 (Simulation time: 0 hr 39 min 1 sec) 
Heartbeat CPU 0 instructions: 49000003 cycles: 85517815 heartbeat IPC: 0.514474 cumulative IPC: 0.486184 (Simulation time: 0 hr 39 min 42 sec) 
Heartbeat CPU 0 instructions: 50000001 cycles: 87424427 heartbeat IPC: 0.52449 cumulative IPC: 0.487073 (Simulation time: 0 hr 40 min 25 sec) 
Heartbeat CPU 0 instructions: 51000003 cycles: 89351353 heartbeat IPC: 0.518962 cumulative IPC: 0.487804 (Simulation time: 0 hr 41 min 9 sec) 
Heartbeat CPU 0 instructions: 52000000 cycles: 91362882 heartbeat IPC: 0.497133 cumulative IPC: 0.488022 (Simulation time: 0 hr 41 min 51 sec) 
Heartbeat CPU 0 instructions: 53000001 cycles: 93322151 heartbeat IPC: 0.510395 cumulative IPC: 0.48852 (Simulation time: 0 hr 42 min 36 sec) 
Heartbeat CPU 0 instructions: 54000003 cycles: 95213841 heartbeat IPC: 0.528629 cumulative IPC: 0.489364 (Simulation time: 0 hr 43 min 27 sec) 
Heartbeat CPU 0 instructions: 55000000 cycles: 97088811 heartbeat IPC: 0.53334 cumulative IPC: 0.490262 (Simulation time: 0 hr 44 min 11 sec) 
Heartbeat CPU 0 instructions: 56000000 cycles: 98970067 heartbeat IPC: 0.53156 cumulative IPC: 0.491092 (Simulation time: 0 hr 44 min 56 sec) 
Heartbeat CPU 0 instructions: 57000000 cycles: 100832849 heartbeat IPC: 0.536831 cumulative IPC: 0.491984 (Simulation time: 0 hr 45 min 47 sec) 
Heartbeat CPU 0 instructions: 58000001 cycles: 102766207 heartbeat IPC: 0.517235 cumulative IPC: 0.492485 (Simulation time: 0 hr 46 min 35 sec) 
Heartbeat CPU 0 instructions: 59000003 cycles: 104692189 heartbeat IPC: 0.519217 cumulative IPC: 0.493003 (Simulation time: 0 hr 47 min 29 sec) 
Heartbeat CPU 0 instructions: 60000000 cycles: 106640159 heartbeat IPC: 0.513353 cumulative IPC: 0.493394 (Simulation time: 0 hr 48 min 24 sec) 
Heartbeat CPU 0 instructions: 61000002 cycles: 108635585 heartbeat IPC: 0.501147 cumulative IPC: 0.493543 (Simulation time: 0 hr 49 min 15 sec) 
Heartbeat CPU 0 instructions: 62000001 cycles: 110587558 heartbeat IPC: 0.512302 cumulative IPC: 0.493891 (Simulation time: 0 hr 49 min 59 sec) 
Heartbeat CPU 0 instructions: 63000001 cycles: 112614520 heartbeat IPC: 0.493349 cumulative IPC: 0.493881 (Simulation time: 0 hr 50 min 39 sec) 
Heartbeat CPU 0 instructions: 64000000 cycles: 114563242 heartbeat IPC: 0.513156 cumulative IPC: 0.494225 (Simulation time: 0 hr 51 min 24 sec) 
Heartbeat CPU 0 instructions: 65000000 cycles: 116499784 heartbeat IPC: 0.516384 cumulative IPC: 0.494611 (Simulation time: 0 hr 52 min 11 sec) 
Heartbeat CPU 0 instructions: 66000000 cycles: 118434594 heartbeat IPC: 0.516847 cumulative IPC: 0.494991 (Simulation time: 0 hr 52 min 54 sec) 
Heartbeat CPU 0 instructions: 67000003 cycles: 120356810 heartbeat IPC: 0.520234 cumulative IPC: 0.495413 (Simulation time: 0 hr 53 min 31 sec) 
Heartbeat CPU 0 instructions: 68000000 cycles: 122277042 heartbeat IPC: 0.520769 cumulative IPC: 0.495829 (Simulation time: 0 hr 54 min 8 sec) 
Heartbeat CPU 0 instructions: 69000000 cycles: 124204859 heartbeat IPC: 0.518721 cumulative IPC: 0.4962 (Simulation time: 0 hr 54 min 46 sec) 
Heartbeat CPU 0 instructions: 70000003 cycles: 126149926 heartbeat IPC: 0.514123 cumulative IPC: 0.496489 (Simulation time: 0 hr 55 min 23 sec) 
Heartbeat CPU 0 instructions: 71000001 cycles: 128100953 heartbeat IPC: 0.51255 cumulative IPC: 0.496744 (Simulation time: 0 hr 56 min 0 sec) 
Heartbeat CPU 0 instructions: 72000000 cycles: 130060227 heartbeat IPC: 0.510393 cumulative IPC: 0.496958 (Simulation time: 0 hr 56 min 41 sec) 
Heartbeat CPU 0 instructions: 73000000 cycles: 132010995 heartbeat IPC: 0.512619 cumulative IPC: 0.497199 (Simulation time: 0 hr 57 min 15 sec) 
Heartbeat CPU 0 instructions: 74000000 cycles: 133955078 heartbeat IPC: 0.514381 cumulative IPC: 0.497459 (Simulation time: 0 hr 57 min 52 sec) 
Heartbeat CPU 0 instructions: 75000001 cycles: 135861052 heartbeat IPC: 0.524667 cumulative IPC: 0.497856 (Simulation time: 0 hr 58 min 33 sec) 
Heartbeat CPU 0 instructions: 76000000 cycles: 137787243 heartbeat IPC: 0.519159 cumulative IPC: 0.498166 (Simulation time: 0 hr 59 min 13 sec) 
Heartbeat CPU 0 instructions: 77000001 cycles: 139812895 heartbeat IPC: 0.493669 cumulative IPC: 0.498098 (Simulation time: 0 hr 59 min 50 sec) 
Heartbeat CPU 0 instructions: 78000000 cycles: 141776736 heartbeat IPC: 0.509206 cumulative IPC: 0.498258 (Simulation time: 1 hr 0 min 26 sec) 
Heartbeat CPU 0 instructions: 79000003 cycles: 143806261 heartbeat IPC: 0.492728 cumulative IPC: 0.498177 (Simulation time: 1 hr 0 min 59 sec) 
Heartbeat CPU 0 instructions: 80000000 cycles: 145909846 heartbeat IPC: 0.475378 cumulative IPC: 0.497836 (Simulation time: 1 hr 1 min 29 sec) 
Heartbeat CPU 0 instructions: 81000003 cycles: 148003765 heartbeat IPC: 0.477575 cumulative IPC: 0.497538 (Simulation time: 1 hr 2 min 0 sec) 
Heartbeat CPU 0 instructions: 82000000 cycles: 150051166 heartbeat IPC: 0.488423 cumulative IPC: 0.49741 (Simulation time: 1 hr 2 min 33 sec) 
Heartbeat CPU 0 instructions: 83000000 cycles: 152045254 heartbeat IPC: 0.501482 cumulative IPC: 0.497465 (Simulation time: 1 hr 3 min 6 sec) 
Heartbeat CPU 0 instructions: 84000000 cycles: 154024672 heartbeat IPC: 0.505199 cumulative IPC: 0.497568 (Simulation time: 1 hr 3 min 40 sec) 
Heartbeat CPU 0 instructions: 85000001 cycles: 155992869 heartbeat IPC: 0.50808 cumulative IPC: 0.497705 (Simulation time: 1 hr 4 min 16 sec) 
Heartbeat CPU 0 instructions: 86000002 cycles: 157955008 heartbeat IPC: 0.509648 cumulative IPC: 0.497859 (Simulation time: 1 hr 4 min 49 sec) 
Heartbeat CPU 0 instructions: 87000000 cycles: 159958017 heartbeat IPC: 0.499248 cumulative IPC: 0.497877 (Simulation time: 1 hr 5 min 16 sec) 
Heartbeat CPU 0 instructions: 88000000 cycles: 162006710 heartbeat IPC: 0.488116 cumulative IPC: 0.497749 (Simulation time: 1 hr 5 min 41 sec) 
Heartbeat CPU 0 instructions: 89000003 cycles: 163995224 heartbeat IPC: 0.50289 cumulative IPC: 0.497813 (Simulation time: 1 hr 6 min 12 sec) 
Heartbeat CPU 0 instructions: 90000000 cycles: 165970635 heartbeat IPC: 0.506222 cumulative IPC: 0.497917 (Simulation time: 1 hr 6 min 39 sec) 
Heartbeat CPU 0 instructions: 91000000 cycles: 167955258 heartbeat IPC: 0.503874 cumulative IPC: 0.497989 (Simulation time: 1 hr 7 min 5 sec) 
Heartbeat CPU 0 instructions: 92000000 cycles: 169939998 heartbeat IPC: 0.503844 cumulative IPC: 0.49806 (Simulation time: 1 hr 7 min 29 sec) 
Heartbeat CPU 0 instructions: 93000003 cycles: 171892243 heartbeat IPC: 0.512232 cumulative IPC: 0.498226 (Simulation time: 1 hr 7 min 56 sec) 
Heartbeat CPU 0 instructions: 94000000 cycles: 173837216 heartbeat IPC: 0.514144 cumulative IPC: 0.49841 (Simulation time: 1 hr 8 min 22 sec) 
Heartbeat CPU 0 instructions: 95000000 cycles: 175802302 heartbeat IPC: 0.508884 cumulative IPC: 0.498531 (Simulation time: 1 hr 8 min 45 sec) 
Heartbeat CPU 0 instructions: 96000000 cycles: 177809464 heartbeat IPC: 0.498216 cumulative IPC: 0.498527 (Simulation time: 1 hr 9 min 7 sec) 
Heartbeat CPU 0 instructions: 97000000 cycles: 179809916 heartbeat IPC: 0.499887 cumulative IPC: 0.498542 (Simulation time: 1 hr 9 min 29 sec) 
Heartbeat CPU 0 instructions: 98000000 cycles: 181788273 heartbeat IPC: 0.50547 cumulative IPC: 0.49862 (Simulation time: 1 hr 9 min 50 sec) 
Heartbeat CPU 0 instructions: 99000000 cycles: 183864376 heartbeat IPC: 0.481672 cumulative IPC: 0.498423 (Simulation time: 1 hr 10 min 11 sec) 
Heartbeat CPU 0 instructions: 100000000 cycles: 185860383 heartbeat IPC: 0.501 cumulative IPC: 0.498452 (Simulation time: 1 hr 10 min 32 sec) 
Heartbeat CPU 0 instructions: 101000000 cycles: 187901930 heartbeat IPC: 0.489825 cumulative IPC: 0.498355 (Simulation time: 1 hr 10 min 55 sec) 
Heartbeat CPU 0 instructions: 102000003 cycles: 189920351 heartbeat IPC: 0.495438 cumulative IPC: 0.498323 (Simulation time: 1 hr 11 min 13 sec) 
Heartbeat CPU 0 instructions: 103000000 cycles: 191881013 heartbeat IPC: 0.51003 cumulative IPC: 0.498446 (Simulation time: 1 hr 11 min 34 sec) 
Heartbeat CPU 0 instructions: 104000000 cycles: 193837537 heartbeat IPC: 0.511111 cumulative IPC: 0.498578 (Simulation time: 1 hr 11 min 55 sec) 
Heartbeat CPU 0 instructions: 105000002 cycles: 195777338 heartbeat IPC: 0.515518 cumulative IPC: 0.49875 (Simulation time: 1 hr 12 min 14 sec) 
Heartbeat CPU 0 instructions: 106000003 cycles: 197713647 heartbeat IPC: 0.516447 cumulative IPC: 0.498928 (Simulation time: 1 hr 12 min 32 sec) 
Heartbeat CPU 0 instructions: 107000000 cycles: 199657192 heartbeat IPC: 0.514522 cumulative IPC: 0.499084 (Simulation time: 1 hr 12 min 51 sec) 
Heartbeat CPU 0 instructions: 108000000 cycles: 201722075 heartbeat IPC: 0.484289 cumulative IPC: 0.498929 (Simulation time: 1 hr 13 min 7 sec) 
Heartbeat CPU 0 instructions: 109000003 cycles: 203750013 heartbeat IPC: 0.493113 cumulative IPC: 0.498869 (Simulation time: 1 hr 13 min 23 sec) 
Heartbeat CPU 0 instructions: 110000002 cycles: 205747988 heartbeat IPC: 0.500506 cumulative IPC: 0.498886 (Simulation time: 1 hr 13 min 39 sec) 
Finished CPU 0 instructions: 100000001 cycles: 200446766 cummulative IPC: 0.498886 (Simulation time: 1 hr 13 min 39 sec) 

ChampSim completed all CPUs

Region of Interest Statistics

CPU 0 cummulative IPC: 0.498886 instructions: 100000001 cycles: 200446766
LLC TOTAL     ACCESS:     479202  HIT:     268488  MISS:     210714
LLC LOAD      ACCESS:     108302  HIT:      56515  MISS:      51787
LLC RFO       ACCESS:      72100  HIT:      40556  MISS:      31544
LLC PREFETCH  ACCESS:     138939  HIT:      44724  MISS:      94215
LLC WRITEBACK ACCESS:     159861  HIT:     126693  MISS:      33168
