
*** ChampSim Multicore Out-of-Order Simulator ***

Warmup Instructions: 10000000
Simulation Instructions: 100000000
Configuration: 2
Number of CPUs: 1
LLC sets: 2048
LLC ways: 16
Off-chip DRAM Channels: 1 Width: 64-bit Data Rate: 1600 MT/s

CPU 0 runs /datasets/cs240c-wi22-a00-public/data/Assignment2-gz/calculix_3812B.trace.gz
CPU 0 L1D next line prefetcher
CPU 0 L2C IP-based stride prefetcher
Heartbeat CPU 0 instructions: 1000001 cycles: 478691 heartbeat IPC: 2.08903 cumulative IPC: 2.08903 (Simulation time: 0 hr 0 min 41 sec) 
Heartbeat CPU 0 instructions: 2000002 cycles: 956489 heartbeat IPC: 2.09294 cumulative IPC: 2.09098 (Simulation time: 0 hr 1 min 20 sec) 
Heartbeat CPU 0 instructions: 3000002 cycles: 1435004 heartbeat IPC: 2.0898 cumulative IPC: 2.09059 (Simulation time: 0 hr 1 min 59 sec) 
Heartbeat CPU 0 instructions: 4000000 cycles: 1907487 heartbeat IPC: 2.11647 cumulative IPC: 2.097 (Simulation time: 0 hr 2 min 35 sec) 
Heartbeat CPU 0 instructions: 5000000 cycles: 2356245 heartbeat IPC: 2.22837 cumulative IPC: 2.12202 (Simulation time: 0 hr 3 min 11 sec) 
Heartbeat CPU 0 instructions: 6000003 cycles: 2761627 heartbeat IPC: 2.46682 cumulative IPC: 2.17263 (Simulation time: 0 hr 3 min 39 sec) 
Heartbeat CPU 0 instructions: 7000002 cycles: 3154731 heartbeat IPC: 2.54385 cumulative IPC: 2.21889 (Simulation time: 0 hr 4 min 8 sec) 
Heartbeat CPU 0 instructions: 8000000 cycles: 3547877 heartbeat IPC: 2.54358 cumulative IPC: 2.25487 (Simulation time: 0 hr 4 min 36 sec) 
Heartbeat CPU 0 instructions: 9000000 cycles: 3940861 heartbeat IPC: 2.54463 cumulative IPC: 2.28376 (Simulation time: 0 hr 5 min 2 sec) 
Heartbeat CPU 0 instructions: 10000003 cycles: 4333953 heartbeat IPC: 2.54394 cumulative IPC: 2.30736 (Simulation time: 0 hr 5 min 29 sec) 

Warmup complete CPU 0 instructions: 10000003 cycles: 4333953 (Simulation time: 0 hr 5 min 29 sec) 

Heartbeat CPU 0 instructions: 11000001 cycles: 4784585 heartbeat IPC: 2.2191 cumulative IPC: 2.2191 (Simulation time: 0 hr 6 min 0 sec) 
Heartbeat CPU 0 instructions: 12000000 cycles: 5230312 heartbeat IPC: 2.24352 cumulative IPC: 2.23125 (Simulation time: 0 hr 6 min 32 sec) 
Heartbeat CPU 0 instructions: 13000002 cycles: 5675032 heartbeat IPC: 2.24861 cumulative IPC: 2.237 (Simulation time: 0 hr 7 min 3 sec) 
Heartbeat CPU 0 instructions: 14000000 cycles: 6473781 heartbeat IPC: 1.25196 cumulative IPC: 1.86931 (Simulation time: 0 hr 7 min 40 sec) 
Heartbeat CPU 0 instructions: 15000003 cycles: 7022134 heartbeat IPC: 1.82365 cumulative IPC: 1.85999 (Simulation time: 0 hr 8 min 8 sec) 
Heartbeat CPU 0 instructions: 16000000 cycles: 7562832 heartbeat IPC: 1.84946 cumulative IPC: 1.85823 (Simulation time: 0 hr 8 min 37 sec) 
Heartbeat CPU 0 instructions: 17000001 cycles: 8088825 heartbeat IPC: 1.90117 cumulative IPC: 1.86424 (Simulation time: 0 hr 9 min 7 sec) 
Heartbeat CPU 0 instructions: 18000001 cycles: 8597776 heartbeat IPC: 1.96483 cumulative IPC: 1.87625 (Simulation time: 0 hr 9 min 36 sec) 
Heartbeat CPU 0 instructions: 19000001 cycles: 9107493 heartbeat IPC: 1.96187 cumulative IPC: 1.88539 (Simulation time: 0 hr 10 min 5 sec) 
Heartbeat CPU 0 instructions: 20000000 cycles: 9688336 heartbeat IPC: 1.72163 cumulative IPC: 1.86763 (Simulation time: 0 hr 10 min 37 sec) 
Heartbeat CPU 0 instructions: 21000003 cycles: 10211123 heartbeat IPC: 1.91283 cumulative IPC: 1.87165 (Simulation time: 0 hr 11 min 6 sec) 
Heartbeat CPU 0 instructions: 22000000 cycles: 10739930 heartbeat IPC: 1.89104 cumulative IPC: 1.87325 (Simulation time: 0 hr 11 min 34 sec) 
Heartbeat CPU 0 instructions: 23000001 cycles: 11262662 heartbeat IPC: 1.91303 cumulative IPC: 1.87625 (Simulation time: 0 hr 12 min 4 sec) 
Heartbeat CPU 0 instructions: 24000000 cycles: 11795032 heartbeat IPC: 1.87839 cumulative IPC: 1.8764 (Simulation time: 0 hr 12 min 34 sec) 
Heartbeat CPU 0 instructions: 25000003 cycles: 12351403 heartbeat IPC: 1.79737 cumulative IPC: 1.87092 (Simulation time: 0 hr 13 min 4 sec) 
Heartbeat CPU 0 instructions: 26000003 cycles: 12899331 heartbeat IPC: 1.82506 cumulative IPC: 1.86799 (Simulation time: 0 hr 13 min 32 sec) 
Heartbeat CPU 0 instructions: 27000000 cycles: 13433431 heartbeat IPC: 1.8723 cumulative IPC: 1.86824 (Simulation time: 0 hr 14 min 5 sec) 
Heartbeat CPU 0 instructions: 28000000 cycles: 14073255 heartbeat IPC: 1.56293 cumulative IPC: 1.84818 (Simulation time: 0 hr 14 min 36 sec) 
Heartbeat CPU 0 instructions: 29000002 cycles: 14551412 heartbeat IPC: 2.09137 cumulative IPC: 1.85956 (Simulation time: 0 hr 15 min 8 sec) 
Heartbeat CPU 0 instructions: 30000001 cycles: 15101794 heartbeat IPC: 1.81692 cumulative IPC: 1.85738 (Simulation time: 0 hr 15 min 41 sec) 
Heartbeat CPU 0 instructions: 31000001 cycles: 15648921 heartbeat IPC: 1.82773 cumulative IPC: 1.85595 (Simulation time: 0 hr 16 min 13 sec) 
Heartbeat CPU 0 instructions: 32000000 cycles: 16378995 heartbeat IPC: 1.36972 cumulative IPC: 1.82648 (Simulation time: 0 hr 16 min 48 sec) 
Heartbeat CPU 0 instructions: 33000003 cycles: 17084040 heartbeat IPC: 1.41835 cumulative IPC: 1.80391 (Simulation time: 0 hr 17 min 25 sec) 
Heartbeat CPU 0 instructions: 34000000 cycles: 17784316 heartbeat IPC: 1.428 cumulative IPC: 1.78434 (Simulation time: 0 hr 18 min 3 sec) 
Heartbeat CPU 0 instructions: 35000000 cycles: 18457519 heartbeat IPC: 1.48544 cumulative IPC: 1.77009 (Simulation time: 0 hr 18 min 40 sec) 
Heartbeat CPU 0 instructions: 36000000 cycles: 19098850 heartbeat IPC: 1.55926 cumulative IPC: 1.76093 (Simulation time: 0 hr 19 min 13 sec) 
Heartbeat CPU 0 instructions: 37000002 cycles: 19724667 heartbeat IPC: 1.59791 cumulative IPC: 1.7543 (Simulation time: 0 hr 19 min 46 sec) 
Heartbeat CPU 0 instructions: 38000003 cycles: 20359674 heartbeat IPC: 1.57479 cumulative IPC: 1.74719 (Simulation time: 0 hr 20 min 21 sec) 
Heartbeat CPU 0 instructions: 39000003 cycles: 21122742 heartbeat IPC: 1.3105 cumulative IPC: 1.72734 (Simulation time: 0 hr 21 min 2 sec) 
Heartbeat CPU 0 instructions: 40000000 cycles: 21962693 heartbeat IPC: 1.19054 cumulative IPC: 1.70177 (Simulation time: 0 hr 21 min 40 sec) 
Heartbeat CPU 0 instructions: 41000000 cycles: 22894497 heartbeat IPC: 1.07319 cumulative IPC: 1.67021 (Simulation time: 0 hr 22 min 21 sec) 
Heartbeat CPU 0 instructions: 42000001 cycles: 23496394 heartbeat IPC: 1.66142 cumulative IPC: 1.66993 (Simulation time: 0 hr 22 min 56 sec) 
Heartbeat CPU 0 instructions: 43000000 cycles: 24117393 heartbeat IPC: 1.61031 cumulative IPC: 1.66806 (Simulation time: 0 hr 23 min 37 sec) 
Heartbeat CPU 0 instructions: 44000000 cycles: 24794150 heartbeat IPC: 1.47764 cumulative IPC: 1.66176 (Simulation time: 0 hr 24 min 19 sec) 
Heartbeat CPU 0 instructions: 45000002 cycles: 25468559 heartbeat IPC: 1.48278 cumulative IPC: 1.65605 (Simulation time: 0 hr 24 min 57 sec) 
Heartbeat CPU 0 instructions: 46000002 cycles: 26188460 heartbeat IPC: 1.38908 cumulative IPC: 1.64726 (Simulation time: 0 hr 25 min 32 sec) 
Heartbeat CPU 0 instructions: 47000002 cycles: 27063599 heartbeat IPC: 1.14268 cumulative IPC: 1.62783 (Simulation time: 0 hr 26 min 7 sec) 
Heartbeat CPU 0 instructions: 48000000 cycles: 27537620 heartbeat IPC: 2.10961 cumulative IPC: 1.63767 (Simulation time: 0 hr 26 min 36 sec) 
Heartbeat CPU 0 instructions: 49000000 cycles: 28011583 heartbeat IPC: 2.10987 cumulative IPC: 1.64712 (Simulation time: 0 hr 27 min 9 sec) 
Heartbeat CPU 0 instructions: 50000000 cycles: 28515974 heartbeat IPC: 1.98259 cumulative IPC: 1.65412 (Simulation time: 0 hr 27 min 41 sec) 
Heartbeat CPU 0 instructions: 51000000 cycles: 29122468 heartbeat IPC: 1.64882 cumulative IPC: 1.65399 (Simulation time: 0 hr 28 min 14 sec) 
Heartbeat CPU 0 instructions: 52000000 cycles: 29658806 heartbeat IPC: 1.8645 cumulative IPC: 1.65845 (Simulation time: 0 hr 28 min 47 sec) 
Heartbeat CPU 0 instructions: 53000000 cycles: 30110313 heartbeat IPC: 2.21481 cumulative IPC: 1.6682 (Simulation time: 0 hr 29 min 14 sec) 
Heartbeat CPU 0 instructions: 54000003 cycles: 30560334 heartbeat IPC: 2.22213 cumulative IPC: 1.6777 (Simulation time: 0 hr 29 min 45 sec) 
Heartbeat CPU 0 instructions: 55000001 cycles: 31010593 heartbeat IPC: 2.22094 cumulative IPC: 1.68687 (Simulation time: 0 hr 30 min 16 sec) 
Heartbeat CPU 0 instructions: 56000000 cycles: 31460830 heartbeat IPC: 2.22105 cumulative IPC: 1.69574 (Simulation time: 0 hr 30 min 47 sec) 
Heartbeat CPU 0 instructions: 57000003 cycles: 31913795 heartbeat IPC: 2.20768 cumulative IPC: 1.70414 (Simulation time: 0 hr 31 min 18 sec) 
Heartbeat CPU 0 instructions: 58000000 cycles: 32377182 heartbeat IPC: 2.15802 cumulative IPC: 1.71164 (Simulation time: 0 hr 31 min 49 sec) 
Heartbeat CPU 0 instructions: 59000001 cycles: 32924543 heartbeat IPC: 1.82695 cumulative IPC: 1.71385 (Simulation time: 0 hr 32 min 17 sec) 
Heartbeat CPU 0 instructions: 60000000 cycles: 33442971 heartbeat IPC: 1.92891 cumulative IPC: 1.71768 (Simulation time: 0 hr 32 min 46 sec) 
Heartbeat CPU 0 instructions: 61000003 cycles: 33971578 heartbeat IPC: 1.89177 cumulative IPC: 1.72079 (Simulation time: 0 hr 33 min 13 sec) 
Heartbeat CPU 0 instructions: 62000002 cycles: 34493660 heartbeat IPC: 1.91541 cumulative IPC: 1.72415 (Simulation time: 0 hr 33 min 44 sec) 
Heartbeat CPU 0 instructions: 63000003 cycles: 35021099 heartbeat IPC: 1.89596 cumulative IPC: 1.72711 (Simulation time: 0 hr 34 min 12 sec) 
Heartbeat CPU 0 instructions: 64000000 cycles: 35545115 heartbeat IPC: 1.90833 cumulative IPC: 1.73015 (Simulation time: 0 hr 34 min 38 sec) 
Heartbeat CPU 0 instructions: 65000000 cycles: 36240527 heartbeat IPC: 1.438 cumulative IPC: 1.72378 (Simulation time: 0 hr 35 min 11 sec) 
Heartbeat CPU 0 instructions: 66000002 cycles: 36825047 heartbeat IPC: 1.71081 cumulative IPC: 1.72355 (Simulation time: 0 hr 35 min 44 sec) 
Heartbeat CPU 0 instructions: 67000002 cycles: 37344998 heartbeat IPC: 1.92326 cumulative IPC: 1.72669 (Simulation time: 0 hr 36 min 17 sec) 
Heartbeat CPU 0 instructions: 68000000 cycles: 37854576 heartbeat IPC: 1.9624 cumulative IPC: 1.73028 (Simulation time: 0 hr 36 min 44 sec) 
Heartbeat CPU 0 instructions: 69000003 cycles: 38413088 heartbeat IPC: 1.79048 cumulative IPC: 1.73126 (Simulation time: 0 hr 37 min 15 sec) 
Heartbeat CPU 0 instructions: 70000003 cycles: 38937744 heartbeat IPC: 1.90601 cumulative IPC: 1.73391 (Simulation time: 0 hr 37 min 44 sec) 
Heartbeat CPU 0 instructions: 71000000 cycles: 39468821 heartbeat IPC: 1.88296 cumulative IPC: 1.73617 (Simulation time: 0 hr 38 min 16 sec) 
Heartbeat CPU 0 instructions: 72000000 cycles: 39996506 heartbeat IPC: 1.89507 cumulative IPC: 1.73852 (Simulation time: 0 hr 38 min 46 sec) 
Heartbeat CPU 0 instructions: 73000001 cycles: 40560255 heartbeat IPC: 1.77384 cumulative IPC: 1.73907 (Simulation time: 0 hr 39 min 19 sec) 
Heartbeat CPU 0 instructions: 74000002 cycles: 41179398 heartbeat IPC: 1.61514 cumulative IPC: 1.73699 (Simulation time: 0 hr 39 min 50 sec) 
Heartbeat CPU 0 instructions: 75000000 cycles: 41726173 heartbeat IPC: 1.8289 cumulative IPC: 1.73833 (Simulation time: 0 hr 40 min 21 sec) 
Heartbeat CPU 0 instructions: 76000000 cycles: 42731116 heartbeat IPC: 0.995081 cumulative IPC: 1.71888 (Simulation time: 0 hr 40 min 59 sec) 
Heartbeat CPU 0 instructions: 77000000 cycles: 43581121 heartbeat IPC: 1.17646 cumulative IPC: 1.70713 (Simulation time: 0 hr 41 min 40 sec) 
Heartbeat CPU 0 instructions: 78000003 cycles: 44331225 heartbeat IPC: 1.33315 cumulative IPC: 1.70012 (Simulation time: 0 hr 42 min 17 sec) 
Heartbeat CPU 0 instructions: 79000000 cycles: 45045842 heartbeat IPC: 1.39935 cumulative IPC: 1.69484 (Simulation time: 0 hr 42 min 55 sec) 
Heartbeat CPU 0 instructions: 80000000 cycles: 45732016 heartbeat IPC: 1.45736 cumulative IPC: 1.6909 (Simulation time: 0 hr 43 min 30 sec) 
Heartbeat CPU 0 instructions: 81000001 cycles: 46396359 heartbeat IPC: 1.50525 cumulative IPC: 1.68797 (Simulation time: 0 hr 44 min 9 sec) 
Heartbeat CPU 0 instructions: 82000002 cycles: 47039317 heartbeat IPC: 1.55531 cumulative IPC: 1.68597 (Simulation time: 0 hr 44 min 46 sec) 
Heartbeat CPU 0 instructions: 83000002 cycles: 47891411 heartbeat IPC: 1.17358 cumulative IPC: 1.67595 (Simulation time: 0 hr 45 min 28 sec) 
Heartbeat CPU 0 instructions: 84000000 cycles: 48539883 heartbeat IPC: 1.54208 cumulative IPC: 1.67398 (Simulation time: 0 hr 45 min 57 sec) 
Heartbeat CPU 0 instructions: 85000000 cycles: 49094926 heartbeat IPC: 1.80166 cumulative IPC: 1.67557 (Simulation time: 0 hr 46 min 29 sec) 
Heartbeat CPU 0 instructions: 86000001 cycles: 49624614 heartbeat IPC: 1.88791 cumulative IPC: 1.67805 (Simulation time: 0 hr 47 min 2 sec) 
Heartbeat CPU 0 instructions: 87000002 cycles: 50148339 heartbeat IPC: 1.9094 cumulative IPC: 1.68069 (Simulation time: 0 hr 47 min 34 sec) 
Heartbeat CPU 0 instructions: 88000000 cycles: 50665831 heartbeat IPC: 1.93239 cumulative IPC: 1.68351 (Simulation time: 0 hr 48 min 4 sec) 
Heartbeat CPU 0 instructions: 89000003 cycles: 51183335 heartbeat IPC: 1.93236 cumulative IPC: 1.68625 (Simulation time: 0 hr 48 min 42 sec) 
Heartbeat CPU 0 instructions: 90000003 cycles: 51713530 heartbeat IPC: 1.8861 cumulative IPC: 1.68849 (Simulation time: 0 hr 49 min 31 sec) 
Heartbeat CPU 0 instructions: 91000003 cycles: 52254276 heartbeat IPC: 1.8493 cumulative IPC: 1.69031 (Simulation time: 0 hr 50 min 21 sec) 
Heartbeat CPU 0 instructions: 92000000 cycles: 52735334 heartbeat IPC: 2.07875 cumulative IPC: 1.69417 (Simulation time: 0 hr 51 min 3 sec) 
Heartbeat CPU 0 instructions: 93000000 cycles: 53195133 heartbeat IPC: 2.17486 cumulative IPC: 1.69869 (Simulation time: 0 hr 51 min 46 sec) 
Heartbeat CPU 0 instructions: 94000003 cycles: 53652067 heartbeat IPC: 2.18851 cumulative IPC: 1.70323 (Simulation time: 0 hr 52 min 30 sec) 
Heartbeat CPU 0 instructions: 95000001 cycles: 54257789 heartbeat IPC: 1.65092 cumulative IPC: 1.70259 (Simulation time: 0 hr 53 min 21 sec) 
Heartbeat CPU 0 instructions: 96000000 cycles: 54793398 heartbeat IPC: 1.86703 cumulative IPC: 1.70434 (Simulation time: 0 hr 54 min 12 sec) 
Heartbeat CPU 0 instructions: 97000000 cycles: 55268877 heartbeat IPC: 2.10314 cumulative IPC: 1.70806 (Simulation time: 0 hr 54 min 54 sec) 
Heartbeat CPU 0 instructions: 98000003 cycles: 55745724 heartbeat IPC: 2.09712 cumulative IPC: 1.71167 (Simulation time: 0 hr 55 min 34 sec) 
Heartbeat CPU 0 instructions: 99000000 cycles: 56219255 heartbeat IPC: 2.11179 cumulative IPC: 1.71532 (Simulation time: 0 hr 56 min 17 sec) 
Heartbeat CPU 0 instructions: 100000000 cycles: 56694698 heartbeat IPC: 2.1033 cumulative IPC: 1.71884 (Simulation time: 0 hr 57 min 0 sec) 
Heartbeat CPU 0 instructions: 101000003 cycles: 57168103 heartbeat IPC: 2.11236 cumulative IPC: 1.72237 (Simulation time: 0 hr 57 min 48 sec) 
Heartbeat CPU 0 instructions: 102000002 cycles: 57705034 heartbeat IPC: 1.86243 cumulative IPC: 1.72378 (Simulation time: 0 hr 58 min 34 sec) 
Heartbeat CPU 0 instructions: 103000000 cycles: 58251518 heartbeat IPC: 1.82988 cumulative IPC: 1.72486 (Simulation time: 0 hr 59 min 20 sec) 
Heartbeat CPU 0 instructions: 104000000 cycles: 58799627 heartbeat IPC: 1.82445 cumulative IPC: 1.72586 (Simulation time: 1 hr 0 min 3 sec) 
Heartbeat CPU 0 instructions: 105000000 cycles: 59353078 heartbeat IPC: 1.80684 cumulative IPC: 1.72667 (Simulation time: 1 hr 0 min 46 sec) 
Heartbeat CPU 0 instructions: 106000003 cycles: 59903580 heartbeat IPC: 1.81653 cumulative IPC: 1.72756 (Simulation time: 1 hr 1 min 34 sec) 
Heartbeat CPU 0 instructions: 107000000 cycles: 60457920 heartbeat IPC: 1.80394 cumulative IPC: 1.72832 (Simulation time: 1 hr 2 min 14 sec) 
Heartbeat CPU 0 instructions: 108000000 cycles: 61061891 heartbeat IPC: 1.65571 cumulative IPC: 1.72754 (Simulation time: 1 hr 2 min 54 sec) 
Heartbeat CPU 0 instructions: 109000002 cycles: 61711642 heartbeat IPC: 1.53905 cumulative IPC: 1.72541 (Simulation time: 1 hr 3 min 35 sec) 
Heartbeat CPU 0 instructions: 110000003 cycles: 62201451 heartbeat IPC: 2.04161 cumulative IPC: 1.72809 (Simulation time: 1 hr 4 min 15 sec) 
Finished CPU 0 instructions: 100000000 cycles: 57867498 cummulative IPC: 1.72809 (Simulation time: 1 hr 4 min 15 sec) 

ChampSim completed all CPUs

Region of Interest Statistics

CPU 0 cummulative IPC: 1.72809 instructions: 100000000 cycles: 57867498
LLC TOTAL     ACCESS:    1161487  HIT:     808119  MISS:     353368
LLC LOAD      ACCESS:     133284  HIT:     123170  MISS:      10114
LLC RFO       ACCESS:      47545  HIT:      15682  MISS:      31863
LLC PREFETCH  ACCESS:     680834  HIT:     425143  MISS:     255691
LLC WRITEBACK ACCESS:     299824  HIT:     244124  MISS:      55700
