
*** ChampSim Multicore Out-of-Order Simulator ***

Warmup Instructions: 10000000
Simulation Instructions: 100000000
Configuration: 2
Number of CPUs: 1
LLC sets: 2048
LLC ways: 16
Off-chip DRAM Channels: 1 Width: 64-bit Data Rate: 1600 MT/s

CPU 0 runs /datasets/cs240c-wi22-a00-public/data/Assignment2-gz/gcc_13B.trace.gz
CPU 0 L1D next line prefetcher
CPU 0 L2C IP-based stride prefetcher
Heartbeat CPU 0 instructions: 1000000 cycles: 633311 heartbeat IPC: 1.579 cumulative IPC: 1.579 (Simulation time: 0 hr 0 min 47 sec) 
Heartbeat CPU 0 instructions: 2000001 cycles: 1243580 heartbeat IPC: 1.63862 cumulative IPC: 1.60826 (Simulation time: 0 hr 1 min 29 sec) 
Heartbeat CPU 0 instructions: 3000001 cycles: 1717231 heartbeat IPC: 2.11126 cumulative IPC: 1.747 (Simulation time: 0 hr 2 min 12 sec) 
Heartbeat CPU 0 instructions: 4000000 cycles: 2190603 heartbeat IPC: 2.1125 cumulative IPC: 1.82598 (Simulation time: 0 hr 2 min 55 sec) 
Heartbeat CPU 0 instructions: 5000002 cycles: 2664517 heartbeat IPC: 2.11009 cumulative IPC: 1.87651 (Simulation time: 0 hr 3 min 40 sec) 
Heartbeat CPU 0 instructions: 6000002 cycles: 3138281 heartbeat IPC: 2.11076 cumulative IPC: 1.91188 (Simulation time: 0 hr 4 min 23 sec) 
Heartbeat CPU 0 instructions: 7000001 cycles: 3613636 heartbeat IPC: 2.10369 cumulative IPC: 1.93711 (Simulation time: 0 hr 5 min 6 sec) 
Heartbeat CPU 0 instructions: 8000000 cycles: 4090374 heartbeat IPC: 2.09759 cumulative IPC: 1.95581 (Simulation time: 0 hr 5 min 45 sec) 
Heartbeat CPU 0 instructions: 9000001 cycles: 4831266 heartbeat IPC: 1.34973 cumulative IPC: 1.86287 (Simulation time: 0 hr 6 min 32 sec) 
Heartbeat CPU 0 instructions: 10000001 cycles: 5535429 heartbeat IPC: 1.42013 cumulative IPC: 1.80654 (Simulation time: 0 hr 7 min 16 sec) 

Warmup complete CPU 0 instructions: 10000001 cycles: 5535429 (Simulation time: 0 hr 7 min 16 sec) 

Heartbeat CPU 0 instructions: 11000000 cycles: 12426242 heartbeat IPC: 0.145121 cumulative IPC: 0.145121 (Simulation time: 0 hr 8 min 22 sec) 
Heartbeat CPU 0 instructions: 12000000 cycles: 18737662 heartbeat IPC: 0.158443 cumulative IPC: 0.151489 (Simulation time: 0 hr 9 min 22 sec) 
Heartbeat CPU 0 instructions: 13000000 cycles: 24645860 heartbeat IPC: 0.169256 cumulative IPC: 0.156982 (Simulation time: 0 hr 10 min 20 sec) 
Heartbeat CPU 0 instructions: 14000000 cycles: 30155764 heartbeat IPC: 0.181491 cumulative IPC: 0.162467 (Simulation time: 0 hr 11 min 26 sec) 
Heartbeat CPU 0 instructions: 15000000 cycles: 32882080 heartbeat IPC: 0.366795 cumulative IPC: 0.182838 (Simulation time: 0 hr 12 min 19 sec) 
Heartbeat CPU 0 instructions: 16000000 cycles: 34996386 heartbeat IPC: 0.472968 cumulative IPC: 0.203659 (Simulation time: 0 hr 13 min 6 sec) 
Heartbeat CPU 0 instructions: 17000000 cycles: 37128802 heartbeat IPC: 0.468952 cumulative IPC: 0.221565 (Simulation time: 0 hr 13 min 47 sec) 
Heartbeat CPU 0 instructions: 18000000 cycles: 39252869 heartbeat IPC: 0.470795 cumulative IPC: 0.237266 (Simulation time: 0 hr 14 min 31 sec) 
Heartbeat CPU 0 instructions: 19000002 cycles: 41407326 heartbeat IPC: 0.464155 cumulative IPC: 0.250893 (Simulation time: 0 hr 15 min 21 sec) 
Heartbeat CPU 0 instructions: 20000000 cycles: 43575067 heartbeat IPC: 0.461309 cumulative IPC: 0.262884 (Simulation time: 0 hr 16 min 3 sec) 
Heartbeat CPU 0 instructions: 21000001 cycles: 45953523 heartbeat IPC: 0.420441 cumulative IPC: 0.272155 (Simulation time: 0 hr 16 min 50 sec) 
Heartbeat CPU 0 instructions: 22000001 cycles: 50190148 heartbeat IPC: 0.236037 cumulative IPC: 0.268729 (Simulation time: 0 hr 17 min 52 sec) 
Heartbeat CPU 0 instructions: 23000002 cycles: 57211227 heartbeat IPC: 0.142428 cumulative IPC: 0.251568 (Simulation time: 0 hr 18 min 58 sec) 
Heartbeat CPU 0 instructions: 24000000 cycles: 64029808 heartbeat IPC: 0.146658 cumulative IPC: 0.239339 (Simulation time: 0 hr 19 min 58 sec) 
Heartbeat CPU 0 instructions: 25000000 cycles: 70314925 heartbeat IPC: 0.159106 cumulative IPC: 0.231555 (Simulation time: 0 hr 21 min 1 sec) 
Heartbeat CPU 0 instructions: 26000001 cycles: 76112132 heartbeat IPC: 0.172497 cumulative IPC: 0.226704 (Simulation time: 0 hr 21 min 58 sec) 
Heartbeat CPU 0 instructions: 27000000 cycles: 81436878 heartbeat IPC: 0.187802 cumulative IPC: 0.223975 (Simulation time: 0 hr 23 min 2 sec) 
Heartbeat CPU 0 instructions: 28000000 cycles: 84021405 heartbeat IPC: 0.386918 cumulative IPC: 0.22934 (Simulation time: 0 hr 23 min 52 sec) 
Heartbeat CPU 0 instructions: 29000000 cycles: 86168040 heartbeat IPC: 0.465845 cumulative IPC: 0.235637 (Simulation time: 0 hr 24 min 33 sec) 
Heartbeat CPU 0 instructions: 30000001 cycles: 88330524 heartbeat IPC: 0.462432 cumulative IPC: 0.24156 (Simulation time: 0 hr 25 min 16 sec) 
Heartbeat CPU 0 instructions: 31000000 cycles: 90496730 heartbeat IPC: 0.461636 cumulative IPC: 0.247171 (Simulation time: 0 hr 25 min 56 sec) 
Heartbeat CPU 0 instructions: 32000000 cycles: 92661622 heartbeat IPC: 0.461917 cumulative IPC: 0.252507 (Simulation time: 0 hr 26 min 44 sec) 
Heartbeat CPU 0 instructions: 33000000 cycles: 94833721 heartbeat IPC: 0.460384 cumulative IPC: 0.257564 (Simulation time: 0 hr 27 min 25 sec) 
Heartbeat CPU 0 instructions: 34000000 cycles: 97755075 heartbeat IPC: 0.342307 cumulative IPC: 0.260248 (Simulation time: 0 hr 28 min 11 sec) 
Heartbeat CPU 0 instructions: 35000000 cycles: 112102415 heartbeat IPC: 0.0696993 cumulative IPC: 0.234594 (Simulation time: 0 hr 30 min 4 sec) 
Heartbeat CPU 0 instructions: 36000000 cycles: 115957820 heartbeat IPC: 0.259376 cumulative IPC: 0.235459 (Simulation time: 0 hr 30 min 42 sec) 
Heartbeat CPU 0 instructions: 37000003 cycles: 119801106 heartbeat IPC: 0.260195 cumulative IPC: 0.236291 (Simulation time: 0 hr 31 min 25 sec) 
Heartbeat CPU 0 instructions: 38000000 cycles: 123660283 heartbeat IPC: 0.259122 cumulative IPC: 0.237037 (Simulation time: 0 hr 32 min 8 sec) 
Heartbeat CPU 0 instructions: 39000000 cycles: 127437123 heartbeat IPC: 0.264772 cumulative IPC: 0.237897 (Simulation time: 0 hr 32 min 53 sec) 
Heartbeat CPU 0 instructions: 40000000 cycles: 131113810 heartbeat IPC: 0.271984 cumulative IPC: 0.238895 (Simulation time: 0 hr 33 min 35 sec) 
Heartbeat CPU 0 instructions: 41000000 cycles: 134755536 heartbeat IPC: 0.274595 cumulative IPC: 0.239901 (Simulation time: 0 hr 34 min 17 sec) 
Heartbeat CPU 0 instructions: 42000000 cycles: 138417814 heartbeat IPC: 0.273054 cumulative IPC: 0.240814 (Simulation time: 0 hr 35 min 3 sec) 
Heartbeat CPU 0 instructions: 43000002 cycles: 142081590 heartbeat IPC: 0.272943 cumulative IPC: 0.241677 (Simulation time: 0 hr 35 min 51 sec) 
Heartbeat CPU 0 instructions: 44000000 cycles: 145740338 heartbeat IPC: 0.273317 cumulative IPC: 0.242502 (Simulation time: 0 hr 36 min 34 sec) 
Heartbeat CPU 0 instructions: 45000001 cycles: 149366530 heartbeat IPC: 0.275772 cumulative IPC: 0.243341 (Simulation time: 0 hr 37 min 18 sec) 
Heartbeat CPU 0 instructions: 46000001 cycles: 152971593 heartbeat IPC: 0.277388 cumulative IPC: 0.244173 (Simulation time: 0 hr 37 min 58 sec) 
Heartbeat CPU 0 instructions: 47000001 cycles: 156564401 heartbeat IPC: 0.278334 cumulative IPC: 0.244986 (Simulation time: 0 hr 38 min 43 sec) 
Heartbeat CPU 0 instructions: 48000000 cycles: 160130283 heartbeat IPC: 0.280435 cumulative IPC: 0.245804 (Simulation time: 0 hr 39 min 32 sec) 
Heartbeat CPU 0 instructions: 49000000 cycles: 163713124 heartbeat IPC: 0.279108 cumulative IPC: 0.246558 (Simulation time: 0 hr 40 min 18 sec) 
Heartbeat CPU 0 instructions: 50000003 cycles: 167293553 heartbeat IPC: 0.279297 cumulative IPC: 0.247283 (Simulation time: 0 hr 41 min 3 sec) 
Heartbeat CPU 0 instructions: 51000001 cycles: 170873966 heartbeat IPC: 0.279297 cumulative IPC: 0.247976 (Simulation time: 0 hr 41 min 48 sec) 
Heartbeat CPU 0 instructions: 52000000 cycles: 174439331 heartbeat IPC: 0.280476 cumulative IPC: 0.248662 (Simulation time: 0 hr 42 min 34 sec) 
Heartbeat CPU 0 instructions: 53000001 cycles: 178020164 heartbeat IPC: 0.279265 cumulative IPC: 0.249297 (Simulation time: 0 hr 43 min 18 sec) 
Heartbeat CPU 0 instructions: 54000000 cycles: 181594908 heartbeat IPC: 0.27974 cumulative IPC: 0.249916 (Simulation time: 0 hr 44 min 5 sec) 
Heartbeat CPU 0 instructions: 55000000 cycles: 185178415 heartbeat IPC: 0.279056 cumulative IPC: 0.250497 (Simulation time: 0 hr 44 min 54 sec) 
Heartbeat CPU 0 instructions: 56000000 cycles: 188751763 heartbeat IPC: 0.27985 cumulative IPC: 0.251069 (Simulation time: 0 hr 45 min 35 sec) 
Heartbeat CPU 0 instructions: 57000002 cycles: 192291338 heartbeat IPC: 0.28252 cumulative IPC: 0.251665 (Simulation time: 0 hr 46 min 24 sec) 
Heartbeat CPU 0 instructions: 58000001 cycles: 195837032 heartbeat IPC: 0.282032 cumulative IPC: 0.252231 (Simulation time: 0 hr 47 min 9 sec) 
Heartbeat CPU 0 instructions: 59000003 cycles: 199354827 heartbeat IPC: 0.28427 cumulative IPC: 0.252813 (Simulation time: 0 hr 47 min 50 sec) 
Heartbeat CPU 0 instructions: 60000000 cycles: 202869648 heartbeat IPC: 0.284509 cumulative IPC: 0.253377 (Simulation time: 0 hr 48 min 42 sec) 
Heartbeat CPU 0 instructions: 61000000 cycles: 206380645 heartbeat IPC: 0.284819 cumulative IPC: 0.253927 (Simulation time: 0 hr 49 min 32 sec) 
Heartbeat CPU 0 instructions: 62000003 cycles: 209888261 heartbeat IPC: 0.285095 cumulative IPC: 0.254462 (Simulation time: 0 hr 50 min 13 sec) 
Heartbeat CPU 0 instructions: 63000001 cycles: 213398541 heartbeat IPC: 0.284877 cumulative IPC: 0.254975 (Simulation time: 0 hr 50 min 59 sec) 
Heartbeat CPU 0 instructions: 64000000 cycles: 216928611 heartbeat IPC: 0.28328 cumulative IPC: 0.255448 (Simulation time: 0 hr 51 min 40 sec) 
Heartbeat CPU 0 instructions: 65000000 cycles: 220499364 heartbeat IPC: 0.280053 cumulative IPC: 0.255857 (Simulation time: 0 hr 52 min 26 sec) 
Heartbeat CPU 0 instructions: 66000000 cycles: 224105579 heartbeat IPC: 0.277299 cumulative IPC: 0.256211 (Simulation time: 0 hr 53 min 3 sec) 
Heartbeat CPU 0 instructions: 67000001 cycles: 227869738 heartbeat IPC: 0.265664 cumulative IPC: 0.256371 (Simulation time: 0 hr 53 min 56 sec) 
Heartbeat CPU 0 instructions: 68000000 cycles: 231651901 heartbeat IPC: 0.264399 cumulative IPC: 0.256505 (Simulation time: 0 hr 54 min 41 sec) 
Heartbeat CPU 0 instructions: 69000003 cycles: 235431019 heartbeat IPC: 0.264613 cumulative IPC: 0.256638 (Simulation time: 0 hr 55 min 26 sec) 
Heartbeat CPU 0 instructions: 70000000 cycles: 239252208 heartbeat IPC: 0.261698 cumulative IPC: 0.256721 (Simulation time: 0 hr 56 min 15 sec) 
Heartbeat CPU 0 instructions: 71000002 cycles: 242869812 heartbeat IPC: 0.276427 cumulative IPC: 0.257021 (Simulation time: 0 hr 57 min 5 sec) 
Heartbeat CPU 0 instructions: 72000000 cycles: 246462649 heartbeat IPC: 0.278331 cumulative IPC: 0.257339 (Simulation time: 0 hr 57 min 51 sec) 
Heartbeat CPU 0 instructions: 73000003 cycles: 250051491 heartbeat IPC: 0.278642 cumulative IPC: 0.257652 (Simulation time: 0 hr 58 min 40 sec) 
Heartbeat CPU 0 instructions: 74000000 cycles: 253665897 heartbeat IPC: 0.27667 cumulative IPC: 0.257929 (Simulation time: 0 hr 59 min 24 sec) 
Heartbeat CPU 0 instructions: 75000000 cycles: 257281390 heartbeat IPC: 0.276587 cumulative IPC: 0.258197 (Simulation time: 1 hr 0 min 3 sec) 
Heartbeat CPU 0 instructions: 76000000 cycles: 260910467 heartbeat IPC: 0.275552 cumulative IPC: 0.258443 (Simulation time: 1 hr 0 min 51 sec) 
Heartbeat CPU 0 instructions: 77000000 cycles: 264512553 heartbeat IPC: 0.277617 cumulative IPC: 0.25871 (Simulation time: 1 hr 1 min 28 sec) 
Heartbeat CPU 0 instructions: 78000003 cycles: 268062524 heartbeat IPC: 0.281693 cumulative IPC: 0.259021 (Simulation time: 1 hr 2 min 13 sec) 
Heartbeat CPU 0 instructions: 79000000 cycles: 271638071 heartbeat IPC: 0.279677 cumulative IPC: 0.259298 (Simulation time: 1 hr 2 min 45 sec) 
Heartbeat CPU 0 instructions: 80000000 cycles: 275183539 heartbeat IPC: 0.28205 cumulative IPC: 0.259598 (Simulation time: 1 hr 3 min 19 sec) 
Heartbeat CPU 0 instructions: 81000001 cycles: 278711655 heartbeat IPC: 0.283438 cumulative IPC: 0.259905 (Simulation time: 1 hr 3 min 52 sec) 
Heartbeat CPU 0 instructions: 82000000 cycles: 282242156 heartbeat IPC: 0.283246 cumulative IPC: 0.260203 (Simulation time: 1 hr 4 min 25 sec) 
Heartbeat CPU 0 instructions: 83000003 cycles: 285791295 heartbeat IPC: 0.281759 cumulative IPC: 0.260476 (Simulation time: 1 hr 4 min 56 sec) 
Heartbeat CPU 0 instructions: 84000000 cycles: 289320277 heartbeat IPC: 0.283367 cumulative IPC: 0.260761 (Simulation time: 1 hr 5 min 28 sec) 
Heartbeat CPU 0 instructions: 85000000 cycles: 292838554 heartbeat IPC: 0.28423 cumulative IPC: 0.261048 (Simulation time: 1 hr 5 min 55 sec) 
Heartbeat CPU 0 instructions: 86000001 cycles: 296361178 heartbeat IPC: 0.28388 cumulative IPC: 0.261325 (Simulation time: 1 hr 6 min 22 sec) 
Heartbeat CPU 0 instructions: 87000001 cycles: 299899187 heartbeat IPC: 0.282645 cumulative IPC: 0.261581 (Simulation time: 1 hr 6 min 56 sec) 
Heartbeat CPU 0 instructions: 88000000 cycles: 303430766 heartbeat IPC: 0.283159 cumulative IPC: 0.261837 (Simulation time: 1 hr 7 min 24 sec) 
Heartbeat CPU 0 instructions: 89000003 cycles: 306969896 heartbeat IPC: 0.282556 cumulative IPC: 0.26208 (Simulation time: 1 hr 7 min 54 sec) 
Heartbeat CPU 0 instructions: 90000000 cycles: 310501915 heartbeat IPC: 0.283123 cumulative IPC: 0.262324 (Simulation time: 1 hr 8 min 27 sec) 
Heartbeat CPU 0 instructions: 91000000 cycles: 314030180 heartbeat IPC: 0.283425 cumulative IPC: 0.262565 (Simulation time: 1 hr 8 min 58 sec) 
Heartbeat CPU 0 instructions: 92000000 cycles: 317542490 heartbeat IPC: 0.284713 cumulative IPC: 0.262815 (Simulation time: 1 hr 9 min 26 sec) 
Heartbeat CPU 0 instructions: 93000001 cycles: 321058664 heartbeat IPC: 0.2844 cumulative IPC: 0.263055 (Simulation time: 1 hr 9 min 51 sec) 
Heartbeat CPU 0 instructions: 94000003 cycles: 324564203 heartbeat IPC: 0.285263 cumulative IPC: 0.263299 (Simulation time: 1 hr 10 min 15 sec) 
Heartbeat CPU 0 instructions: 95000002 cycles: 328076674 heartbeat IPC: 0.2847 cumulative IPC: 0.263532 (Simulation time: 1 hr 10 min 38 sec) 
Heartbeat CPU 0 instructions: 96000000 cycles: 331566105 heartbeat IPC: 0.286579 cumulative IPC: 0.263779 (Simulation time: 1 hr 11 min 3 sec) 
Heartbeat CPU 0 instructions: 97000000 cycles: 335057230 heartbeat IPC: 0.286441 cumulative IPC: 0.264019 (Simulation time: 1 hr 11 min 24 sec) 
Heartbeat CPU 0 instructions: 98000000 cycles: 338542843 heartbeat IPC: 0.286894 cumulative IPC: 0.264258 (Simulation time: 1 hr 11 min 45 sec) 
Heartbeat CPU 0 instructions: 99000000 cycles: 342045207 heartbeat IPC: 0.285521 cumulative IPC: 0.26448 (Simulation time: 1 hr 12 min 8 sec) 
Heartbeat CPU 0 instructions: 100000000 cycles: 345582977 heartbeat IPC: 0.282664 cumulative IPC: 0.264669 (Simulation time: 1 hr 12 min 28 sec) 
Heartbeat CPU 0 instructions: 101000003 cycles: 349094839 heartbeat IPC: 0.28475 cumulative IPC: 0.264874 (Simulation time: 1 hr 12 min 49 sec) 
Heartbeat CPU 0 instructions: 102000000 cycles: 353134586 heartbeat IPC: 0.24754 cumulative IPC: 0.264673 (Simulation time: 1 hr 13 min 9 sec) 
Heartbeat CPU 0 instructions: 103000002 cycles: 357458443 heartbeat IPC: 0.231275 cumulative IPC: 0.264262 (Simulation time: 1 hr 13 min 28 sec) 
Heartbeat CPU 0 instructions: 104000000 cycles: 361549221 heartbeat IPC: 0.244452 cumulative IPC: 0.264035 (Simulation time: 1 hr 13 min 46 sec) 
Heartbeat CPU 0 instructions: 105000000 cycles: 365443489 heartbeat IPC: 0.256788 cumulative IPC: 0.263956 (Simulation time: 1 hr 14 min 2 sec) 
Heartbeat CPU 0 instructions: 106000002 cycles: 369323563 heartbeat IPC: 0.257728 cumulative IPC: 0.26389 (Simulation time: 1 hr 14 min 17 sec) 
Heartbeat CPU 0 instructions: 107000001 cycles: 373241817 heartbeat IPC: 0.255215 cumulative IPC: 0.263797 (Simulation time: 1 hr 14 min 32 sec) 
Heartbeat CPU 0 instructions: 108000000 cycles: 377037841 heartbeat IPC: 0.263433 cumulative IPC: 0.263794 (Simulation time: 1 hr 14 min 43 sec) 
Heartbeat CPU 0 instructions: 109000000 cycles: 380744780 heartbeat IPC: 0.269764 cumulative IPC: 0.263853 (Simulation time: 1 hr 14 min 54 sec) 
Heartbeat CPU 0 instructions: 110000002 cycles: 384425212 heartbeat IPC: 0.271708 cumulative IPC: 0.263929 (Simulation time: 1 hr 15 min 5 sec) 
Finished CPU 0 instructions: 100000001 cycles: 378889783 cummulative IPC: 0.263929 (Simulation time: 1 hr 15 min 5 sec) 

ChampSim completed all CPUs

Region of Interest Statistics

CPU 0 cummulative IPC: 0.263929 instructions: 100000001 cycles: 378889783
LLC TOTAL     ACCESS:    2540993  HIT:     306971  MISS:    2234022
LLC LOAD      ACCESS:     647733  HIT:      64812  MISS:     582921
LLC RFO       ACCESS:     277618  HIT:      27469  MISS:     250149
LLC PREFETCH  ACCESS:    1132433  HIT:      73728  MISS:    1058705
LLC WRITEBACK ACCESS:     483209  HIT:     140962  MISS:     342247
