
*** ChampSim Multicore Out-of-Order Simulator ***

Warmup Instructions: 10000000
Simulation Instructions: 100000000
Configuration: 2
Number of CPUs: 1
LLC sets: 2048
LLC ways: 16
Off-chip DRAM Channels: 1 Width: 64-bit Data Rate: 1600 MT/s

CPU 0 runs /datasets/cs240c-wi22-a00-public/data/Assignment2-gz/libquantum_1735B.trace.gz
CPU 0 L1D next line prefetcher
CPU 0 L2C IP-based stride prefetcher
Heartbeat CPU 0 instructions: 1000001 cycles: 333341 heartbeat IPC: 2.99993 cumulative IPC: 2.99993 (Simulation time: 0 hr 0 min 22 sec) 
Heartbeat CPU 0 instructions: 2000000 cycles: 666674 heartbeat IPC: 3 cumulative IPC: 2.99997 (Simulation time: 0 hr 0 min 42 sec) 
Heartbeat CPU 0 instructions: 3000000 cycles: 989045 heartbeat IPC: 3.10202 cumulative IPC: 3.03323 (Simulation time: 0 hr 1 min 3 sec) 
Heartbeat CPU 0 instructions: 4000000 cycles: 1290770 heartbeat IPC: 3.31428 cumulative IPC: 3.09893 (Simulation time: 0 hr 1 min 19 sec) 
Heartbeat CPU 0 instructions: 5000001 cycles: 1592495 heartbeat IPC: 3.31428 cumulative IPC: 3.13973 (Simulation time: 0 hr 1 min 37 sec) 
Heartbeat CPU 0 instructions: 6000001 cycles: 1894219 heartbeat IPC: 3.31429 cumulative IPC: 3.16753 (Simulation time: 0 hr 1 min 55 sec) 
Heartbeat CPU 0 instructions: 7000002 cycles: 2195942 heartbeat IPC: 3.3143 cumulative IPC: 3.1877 (Simulation time: 0 hr 2 min 12 sec) 
Heartbeat CPU 0 instructions: 8000000 cycles: 2501897 heartbeat IPC: 3.26845 cumulative IPC: 3.19757 (Simulation time: 0 hr 2 min 31 sec) 
Heartbeat CPU 0 instructions: 9000000 cycles: 2835230 heartbeat IPC: 3 cumulative IPC: 3.17435 (Simulation time: 0 hr 2 min 47 sec) 
Heartbeat CPU 0 instructions: 10000002 cycles: 3168564 heartbeat IPC: 3 cumulative IPC: 3.156 (Simulation time: 0 hr 3 min 4 sec) 

Warmup complete CPU 0 instructions: 10000002 cycles: 3168564 (Simulation time: 0 hr 3 min 4 sec) 

Heartbeat CPU 0 instructions: 11000001 cycles: 4593870 heartbeat IPC: 0.701603 cumulative IPC: 0.701603 (Simulation time: 0 hr 3 min 36 sec) 
Heartbeat CPU 0 instructions: 12000000 cycles: 6018722 heartbeat IPC: 0.701827 cumulative IPC: 0.701715 (Simulation time: 0 hr 4 min 8 sec) 
Heartbeat CPU 0 instructions: 13000001 cycles: 7839469 heartbeat IPC: 0.549226 cumulative IPC: 0.642274 (Simulation time: 0 hr 4 min 38 sec) 
Heartbeat CPU 0 instructions: 14000000 cycles: 10329191 heartbeat IPC: 0.401651 cumulative IPC: 0.55861 (Simulation time: 0 hr 5 min 8 sec) 
Heartbeat CPU 0 instructions: 15000000 cycles: 12811762 heartbeat IPC: 0.402808 cumulative IPC: 0.5185 (Simulation time: 0 hr 5 min 34 sec) 
Heartbeat CPU 0 instructions: 16000000 cycles: 15280521 heartbeat IPC: 0.405062 cumulative IPC: 0.495378 (Simulation time: 0 hr 5 min 56 sec) 
Heartbeat CPU 0 instructions: 17000002 cycles: 17765211 heartbeat IPC: 0.402465 cumulative IPC: 0.479562 (Simulation time: 0 hr 6 min 22 sec) 
Heartbeat CPU 0 instructions: 18000001 cycles: 19933295 heartbeat IPC: 0.461236 cumulative IPC: 0.477192 (Simulation time: 0 hr 6 min 49 sec) 
Heartbeat CPU 0 instructions: 19000000 cycles: 21432876 heartbeat IPC: 0.666852 cumulative IPC: 0.492764 (Simulation time: 0 hr 7 min 20 sec) 
Heartbeat CPU 0 instructions: 20000000 cycles: 22932378 heartbeat IPC: 0.666888 cumulative IPC: 0.505975 (Simulation time: 0 hr 7 min 51 sec) 
Heartbeat CPU 0 instructions: 21000001 cycles: 24432008 heartbeat IPC: 0.666832 cumulative IPC: 0.51732 (Simulation time: 0 hr 8 min 23 sec) 
Heartbeat CPU 0 instructions: 22000000 cycles: 25931514 heartbeat IPC: 0.666886 cumulative IPC: 0.527172 (Simulation time: 0 hr 8 min 54 sec) 
Heartbeat CPU 0 instructions: 23000000 cycles: 28138226 heartbeat IPC: 0.453163 cumulative IPC: 0.520632 (Simulation time: 0 hr 9 min 22 sec) 
Heartbeat CPU 0 instructions: 24000000 cycles: 30785621 heartbeat IPC: 0.37773 cumulative IPC: 0.506933 (Simulation time: 0 hr 9 min 48 sec) 
Heartbeat CPU 0 instructions: 25000000 cycles: 33439347 heartbeat IPC: 0.376829 cumulative IPC: 0.495527 (Simulation time: 0 hr 10 min 13 sec) 
Heartbeat CPU 0 instructions: 26000000 cycles: 36088195 heartbeat IPC: 0.377523 cumulative IPC: 0.486032 (Simulation time: 0 hr 10 min 38 sec) 
Heartbeat CPU 0 instructions: 27000001 cycles: 38754518 heartbeat IPC: 0.375049 cumulative IPC: 0.477717 (Simulation time: 0 hr 11 min 3 sec) 
Heartbeat CPU 0 instructions: 28000000 cycles: 40723247 heartbeat IPC: 0.507941 cumulative IPC: 0.479301 (Simulation time: 0 hr 11 min 37 sec) 
Heartbeat CPU 0 instructions: 29000000 cycles: 42145189 heartbeat IPC: 0.703264 cumulative IPC: 0.487472 (Simulation time: 0 hr 12 min 12 sec) 
Heartbeat CPU 0 instructions: 30000001 cycles: 43567010 heartbeat IPC: 0.703324 cumulative IPC: 0.495069 (Simulation time: 0 hr 12 min 44 sec) 
Heartbeat CPU 0 instructions: 31000000 cycles: 44988905 heartbeat IPC: 0.703286 cumulative IPC: 0.502148 (Simulation time: 0 hr 13 min 15 sec) 
Heartbeat CPU 0 instructions: 32000000 cycles: 46410721 heartbeat IPC: 0.703326 cumulative IPC: 0.508763 (Simulation time: 0 hr 13 min 47 sec) 
Heartbeat CPU 0 instructions: 33000002 cycles: 48453301 heartbeat IPC: 0.489578 cumulative IPC: 0.507897 (Simulation time: 0 hr 14 min 15 sec) 
Heartbeat CPU 0 instructions: 34000000 cycles: 50631526 heartbeat IPC: 0.459088 cumulative IPC: 0.505657 (Simulation time: 0 hr 14 min 47 sec) 
Heartbeat CPU 0 instructions: 35000000 cycles: 52792599 heartbeat IPC: 0.462733 cumulative IPC: 0.503788 (Simulation time: 0 hr 15 min 13 sec) 
Heartbeat CPU 0 instructions: 36000000 cycles: 54961744 heartbeat IPC: 0.461011 cumulative IPC: 0.501997 (Simulation time: 0 hr 15 min 39 sec) 
Heartbeat CPU 0 instructions: 37000002 cycles: 57135999 heartbeat IPC: 0.459929 cumulative IPC: 0.500302 (Simulation time: 0 hr 16 min 3 sec) 
Heartbeat CPU 0 instructions: 38000003 cycles: 58844667 heartbeat IPC: 0.585252 cumulative IPC: 0.502909 (Simulation time: 0 hr 16 min 37 sec) 
Heartbeat CPU 0 instructions: 39000000 cycles: 60256073 heartbeat IPC: 0.708511 cumulative IPC: 0.507992 (Simulation time: 0 hr 17 min 10 sec) 
Heartbeat CPU 0 instructions: 40000000 cycles: 61667545 heartbeat IPC: 0.70848 cumulative IPC: 0.512829 (Simulation time: 0 hr 17 min 41 sec) 
Heartbeat CPU 0 instructions: 41000000 cycles: 63079071 heartbeat IPC: 0.708453 cumulative IPC: 0.517438 (Simulation time: 0 hr 18 min 14 sec) 
Heartbeat CPU 0 instructions: 42000001 cycles: 64490476 heartbeat IPC: 0.708515 cumulative IPC: 0.521836 (Simulation time: 0 hr 18 min 46 sec) 
Heartbeat CPU 0 instructions: 43000000 cycles: 66558621 heartbeat IPC: 0.483525 cumulative IPC: 0.520586 (Simulation time: 0 hr 19 min 9 sec) 
Heartbeat CPU 0 instructions: 44000000 cycles: 68715808 heartbeat IPC: 0.463567 cumulative IPC: 0.51871 (Simulation time: 0 hr 19 min 36 sec) 
Heartbeat CPU 0 instructions: 45000001 cycles: 70874830 heartbeat IPC: 0.463173 cumulative IPC: 0.516939 (Simulation time: 0 hr 20 min 5 sec) 
Heartbeat CPU 0 instructions: 46000002 cycles: 73026959 heartbeat IPC: 0.464657 cumulative IPC: 0.515328 (Simulation time: 0 hr 20 min 32 sec) 
Heartbeat CPU 0 instructions: 47000000 cycles: 75194478 heartbeat IPC: 0.461356 cumulative IPC: 0.513704 (Simulation time: 0 hr 21 min 5 sec) 
Heartbeat CPU 0 instructions: 48000000 cycles: 76931847 heartbeat IPC: 0.575583 cumulative IPC: 0.515161 (Simulation time: 0 hr 21 min 40 sec) 
Heartbeat CPU 0 instructions: 49000002 cycles: 78451439 heartbeat IPC: 0.658073 cumulative IPC: 0.518046 (Simulation time: 0 hr 22 min 13 sec) 
Heartbeat CPU 0 instructions: 50000001 cycles: 79970907 heartbeat IPC: 0.658124 cumulative IPC: 0.520817 (Simulation time: 0 hr 22 min 48 sec) 
Heartbeat CPU 0 instructions: 51000000 cycles: 81490478 heartbeat IPC: 0.65808 cumulative IPC: 0.523481 (Simulation time: 0 hr 23 min 19 sec) 
Heartbeat CPU 0 instructions: 52000000 cycles: 83010152 heartbeat IPC: 0.658036 cumulative IPC: 0.526042 (Simulation time: 0 hr 23 min 52 sec) 
Heartbeat CPU 0 instructions: 53000002 cycles: 84529856 heartbeat IPC: 0.658024 cumulative IPC: 0.528507 (Simulation time: 0 hr 24 min 29 sec) 
Heartbeat CPU 0 instructions: 54000001 cycles: 86048996 heartbeat IPC: 0.658267 cumulative IPC: 0.530885 (Simulation time: 0 hr 24 min 57 sec) 
Heartbeat CPU 0 instructions: 55000000 cycles: 87567571 heartbeat IPC: 0.658511 cumulative IPC: 0.533182 (Simulation time: 0 hr 25 min 29 sec) 
Heartbeat CPU 0 instructions: 56000000 cycles: 89086670 heartbeat IPC: 0.658285 cumulative IPC: 0.535394 (Simulation time: 0 hr 26 min 4 sec) 
Heartbeat CPU 0 instructions: 57000000 cycles: 90606263 heartbeat IPC: 0.658071 cumulative IPC: 0.537526 (Simulation time: 0 hr 26 min 34 sec) 
Heartbeat CPU 0 instructions: 58000002 cycles: 92125734 heartbeat IPC: 0.658125 cumulative IPC: 0.539586 (Simulation time: 0 hr 27 min 6 sec) 
Heartbeat CPU 0 instructions: 59000001 cycles: 93645280 heartbeat IPC: 0.658091 cumulative IPC: 0.541576 (Simulation time: 0 hr 27 min 37 sec) 
Heartbeat CPU 0 instructions: 60000000 cycles: 95164744 heartbeat IPC: 0.658126 cumulative IPC: 0.543501 (Simulation time: 0 hr 28 min 11 sec) 
Heartbeat CPU 0 instructions: 61000003 cycles: 96684364 heartbeat IPC: 0.658061 cumulative IPC: 0.545362 (Simulation time: 0 hr 28 min 44 sec) 
Heartbeat CPU 0 instructions: 62000002 cycles: 98200876 heartbeat IPC: 0.659407 cumulative IPC: 0.547182 (Simulation time: 0 hr 29 min 18 sec) 
Heartbeat CPU 0 instructions: 63000001 cycles: 99672521 heartbeat IPC: 0.679511 cumulative IPC: 0.5492 (Simulation time: 0 hr 29 min 48 sec) 
Heartbeat CPU 0 instructions: 64000000 cycles: 101156083 heartbeat IPC: 0.674053 cumulative IPC: 0.551091 (Simulation time: 0 hr 30 min 26 sec) 
Heartbeat CPU 0 instructions: 65000001 cycles: 102675571 heartbeat IPC: 0.658117 cumulative IPC: 0.552725 (Simulation time: 0 hr 31 min 4 sec) 
Heartbeat CPU 0 instructions: 66000000 cycles: 104186705 heartbeat IPC: 0.661754 cumulative IPC: 0.554356 (Simulation time: 0 hr 31 min 37 sec) 
Heartbeat CPU 0 instructions: 67000001 cycles: 105656518 heartbeat IPC: 0.680359 cumulative IPC: 0.556163 (Simulation time: 0 hr 32 min 10 sec) 
Heartbeat CPU 0 instructions: 68000000 cycles: 107148641 heartbeat IPC: 0.670185 cumulative IPC: 0.557799 (Simulation time: 0 hr 32 min 42 sec) 
Heartbeat CPU 0 instructions: 69000002 cycles: 108640788 heartbeat IPC: 0.670177 cumulative IPC: 0.559389 (Simulation time: 0 hr 33 min 12 sec) 
Heartbeat CPU 0 instructions: 70000001 cycles: 110133009 heartbeat IPC: 0.670141 cumulative IPC: 0.560934 (Simulation time: 0 hr 33 min 41 sec) 
Heartbeat CPU 0 instructions: 71000003 cycles: 111686373 heartbeat IPC: 0.643765 cumulative IPC: 0.56212 (Simulation time: 0 hr 34 min 13 sec) 
Heartbeat CPU 0 instructions: 72000000 cycles: 113851987 heartbeat IPC: 0.461761 cumulative IPC: 0.560156 (Simulation time: 0 hr 34 min 39 sec) 
Heartbeat CPU 0 instructions: 73000000 cycles: 116028839 heartbeat IPC: 0.459379 cumulative IPC: 0.558212 (Simulation time: 0 hr 35 min 6 sec) 
Heartbeat CPU 0 instructions: 74000000 cycles: 118186950 heartbeat IPC: 0.463368 cumulative IPC: 0.556433 (Simulation time: 0 hr 35 min 35 sec) 
Heartbeat CPU 0 instructions: 75000000 cycles: 120355793 heartbeat IPC: 0.461075 cumulative IPC: 0.554668 (Simulation time: 0 hr 36 min 2 sec) 
Heartbeat CPU 0 instructions: 76000000 cycles: 122533357 heartbeat IPC: 0.459229 cumulative IPC: 0.552927 (Simulation time: 0 hr 36 min 28 sec) 
Heartbeat CPU 0 instructions: 77000001 cycles: 124125193 heartbeat IPC: 0.628206 cumulative IPC: 0.553918 (Simulation time: 0 hr 37 min 4 sec) 
Heartbeat CPU 0 instructions: 78000000 cycles: 125630343 heartbeat IPC: 0.664385 cumulative IPC: 0.555275 (Simulation time: 0 hr 37 min 36 sec) 
Heartbeat CPU 0 instructions: 79000001 cycles: 127135566 heartbeat IPC: 0.664354 cumulative IPC: 0.5566 (Simulation time: 0 hr 38 min 8 sec) 
Heartbeat CPU 0 instructions: 80000000 cycles: 128640709 heartbeat IPC: 0.664388 cumulative IPC: 0.557893 (Simulation time: 0 hr 38 min 45 sec) 
Heartbeat CPU 0 instructions: 81000002 cycles: 130242794 heartbeat IPC: 0.624188 cumulative IPC: 0.558729 (Simulation time: 0 hr 39 min 16 sec) 
Heartbeat CPU 0 instructions: 82000003 cycles: 132386098 heartbeat IPC: 0.46657 cumulative IPC: 0.5572 (Simulation time: 0 hr 39 min 46 sec) 
Heartbeat CPU 0 instructions: 83000000 cycles: 134537360 heartbeat IPC: 0.464842 cumulative IPC: 0.555687 (Simulation time: 0 hr 40 min 12 sec) 
Heartbeat CPU 0 instructions: 84000000 cycles: 136694067 heartbeat IPC: 0.46367 cumulative IPC: 0.554201 (Simulation time: 0 hr 40 min 42 sec) 
Heartbeat CPU 0 instructions: 85000002 cycles: 138846309 heartbeat IPC: 0.464633 cumulative IPC: 0.55278 (Simulation time: 0 hr 41 min 11 sec) 
Heartbeat CPU 0 instructions: 86000002 cycles: 141016892 heartbeat IPC: 0.460706 cumulative IPC: 0.551331 (Simulation time: 0 hr 41 min 45 sec) 
Heartbeat CPU 0 instructions: 87000002 cycles: 142649946 heartbeat IPC: 0.61235 cumulative IPC: 0.552045 (Simulation time: 0 hr 42 min 24 sec) 
Heartbeat CPU 0 instructions: 88000000 cycles: 144226340 heartbeat IPC: 0.634358 cumulative IPC: 0.552965 (Simulation time: 0 hr 42 min 59 sec) 
Heartbeat CPU 0 instructions: 89000000 cycles: 145802504 heartbeat IPC: 0.634452 cumulative IPC: 0.553865 (Simulation time: 0 hr 43 min 36 sec) 
Heartbeat CPU 0 instructions: 90000000 cycles: 147712887 heartbeat IPC: 0.523455 cumulative IPC: 0.553463 (Simulation time: 0 hr 44 min 9 sec) 
Heartbeat CPU 0 instructions: 91000001 cycles: 150472306 heartbeat IPC: 0.362395 cumulative IPC: 0.549884 (Simulation time: 0 hr 44 min 38 sec) 
Heartbeat CPU 0 instructions: 92000000 cycles: 153204261 heartbeat IPC: 0.366038 cumulative IPC: 0.546537 (Simulation time: 0 hr 45 min 10 sec) 
Heartbeat CPU 0 instructions: 93000001 cycles: 155949552 heartbeat IPC: 0.36426 cumulative IPC: 0.543261 (Simulation time: 0 hr 45 min 38 sec) 
Heartbeat CPU 0 instructions: 94000001 cycles: 158492601 heartbeat IPC: 0.393229 cumulative IPC: 0.540805 (Simulation time: 0 hr 46 min 11 sec) 
Heartbeat CPU 0 instructions: 95000000 cycles: 160064535 heartbeat IPC: 0.636158 cumulative IPC: 0.54176 (Simulation time: 0 hr 46 min 52 sec) 
Heartbeat CPU 0 instructions: 96000000 cycles: 161636517 heartbeat IPC: 0.63614 cumulative IPC: 0.542696 (Simulation time: 0 hr 47 min 28 sec) 
Heartbeat CPU 0 instructions: 97000002 cycles: 163208565 heartbeat IPC: 0.636114 cumulative IPC: 0.543614 (Simulation time: 0 hr 48 min 5 sec) 
Heartbeat CPU 0 instructions: 98000001 cycles: 165345321 heartbeat IPC: 0.467999 cumulative IPC: 0.542618 (Simulation time: 0 hr 48 min 38 sec) 
Heartbeat CPU 0 instructions: 99000003 cycles: 168050265 heartbeat IPC: 0.369694 cumulative IPC: 0.539781 (Simulation time: 0 hr 49 min 11 sec) 
Heartbeat CPU 0 instructions: 100000000 cycles: 170760974 heartbeat IPC: 0.368906 cumulative IPC: 0.537017 (Simulation time: 0 hr 49 min 43 sec) 
Heartbeat CPU 0 instructions: 101000000 cycles: 173456868 heartbeat IPC: 0.370934 cumulative IPC: 0.534388 (Simulation time: 0 hr 50 min 11 sec) 
Heartbeat CPU 0 instructions: 102000000 cycles: 175702636 heartbeat IPC: 0.445282 cumulative IPC: 0.533228 (Simulation time: 0 hr 50 min 40 sec) 
Heartbeat CPU 0 instructions: 103000002 cycles: 177173501 heartbeat IPC: 0.679873 cumulative IPC: 0.534468 (Simulation time: 0 hr 51 min 10 sec) 
Heartbeat CPU 0 instructions: 104000000 cycles: 178644437 heartbeat IPC: 0.679838 cumulative IPC: 0.535686 (Simulation time: 0 hr 51 min 43 sec) 
Heartbeat CPU 0 instructions: 105000000 cycles: 180092527 heartbeat IPC: 0.690565 cumulative IPC: 0.536954 (Simulation time: 0 hr 52 min 17 sec) 
Heartbeat CPU 0 instructions: 106000003 cycles: 181510242 heartbeat IPC: 0.705362 cumulative IPC: 0.538293 (Simulation time: 0 hr 52 min 54 sec) 
Heartbeat CPU 0 instructions: 107000000 cycles: 183651044 heartbeat IPC: 0.467113 cumulative IPC: 0.537448 (Simulation time: 0 hr 53 min 31 sec) 
Heartbeat CPU 0 instructions: 108000000 cycles: 186149112 heartbeat IPC: 0.400309 cumulative IPC: 0.535576 (Simulation time: 0 hr 54 min 0 sec) 
Heartbeat CPU 0 instructions: 109000002 cycles: 188630501 heartbeat IPC: 0.403001 cumulative IPC: 0.533802 (Simulation time: 0 hr 54 min 27 sec) 
Heartbeat CPU 0 instructions: 110000002 cycles: 191116381 heartbeat IPC: 0.402272 cumulative IPC: 0.532063 (Simulation time: 0 hr 54 min 52 sec) 
Finished CPU 0 instructions: 100000000 cycles: 187947817 cummulative IPC: 0.532063 (Simulation time: 0 hr 54 min 52 sec) 

ChampSim completed all CPUs

Region of Interest Statistics

CPU 0 cummulative IPC: 0.532063 instructions: 100000000 cycles: 187947817
LLC TOTAL     ACCESS:    3801551  HIT:      21602  MISS:    3779949
LLC LOAD      ACCESS:     655956  HIT:       5786  MISS:     650170
LLC RFO       ACCESS:         20  HIT:         15  MISS:          5
LLC PREFETCH  ACCESS:    2133470  HIT:      11699  MISS:    2121771
LLC WRITEBACK ACCESS:    1012105  HIT:       4102  MISS:    1008003
