
*** ChampSim Multicore Out-of-Order Simulator ***

Warmup Instructions: 10000000
Simulation Instructions: 100000000
Configuration: 2
Number of CPUs: 1
LLC sets: 2048
LLC ways: 16
Off-chip DRAM Channels: 1 Width: 64-bit Data Rate: 1600 MT/s

CPU 0 runs /datasets/cs240c-wi22-a00-public/data/Assignment2-gz/milc_360B.trace.gz
CPU 0 L1D next line prefetcher
CPU 0 L2C IP-based stride prefetcher
Heartbeat CPU 0 instructions: 1000001 cycles: 549511 heartbeat IPC: 1.8198 cumulative IPC: 1.8198 (Simulation time: 0 hr 0 min 39 sec) 
Heartbeat CPU 0 instructions: 2000003 cycles: 1099026 heartbeat IPC: 1.81979 cumulative IPC: 1.8198 (Simulation time: 0 hr 1 min 18 sec) 
Heartbeat CPU 0 instructions: 3000001 cycles: 1648486 heartbeat IPC: 1.81997 cumulative IPC: 1.81985 (Simulation time: 0 hr 1 min 56 sec) 
Heartbeat CPU 0 instructions: 4000000 cycles: 2197959 heartbeat IPC: 1.81992 cumulative IPC: 1.81987 (Simulation time: 0 hr 2 min 34 sec) 
Heartbeat CPU 0 instructions: 5000002 cycles: 2747468 heartbeat IPC: 1.81981 cumulative IPC: 1.81986 (Simulation time: 0 hr 3 min 16 sec) 
Heartbeat CPU 0 instructions: 6000001 cycles: 3296983 heartbeat IPC: 1.81978 cumulative IPC: 1.81985 (Simulation time: 0 hr 3 min 58 sec) 
Heartbeat CPU 0 instructions: 7000000 cycles: 3846462 heartbeat IPC: 1.8199 cumulative IPC: 1.81985 (Simulation time: 0 hr 4 min 37 sec) 
Heartbeat CPU 0 instructions: 8000000 cycles: 4395923 heartbeat IPC: 1.81997 cumulative IPC: 1.81987 (Simulation time: 0 hr 5 min 13 sec) 
Heartbeat CPU 0 instructions: 9000001 cycles: 4945436 heartbeat IPC: 1.8198 cumulative IPC: 1.81986 (Simulation time: 0 hr 5 min 53 sec) 
Heartbeat CPU 0 instructions: 10000001 cycles: 5494911 heartbeat IPC: 1.81992 cumulative IPC: 1.81987 (Simulation time: 0 hr 6 min 30 sec) 

Warmup complete CPU 0 instructions: 10000001 cycles: 5494911 (Simulation time: 0 hr 6 min 30 sec) 

Heartbeat CPU 0 instructions: 11000001 cycles: 7199266 heartbeat IPC: 0.586732 cumulative IPC: 0.586732 (Simulation time: 0 hr 7 min 6 sec) 
Heartbeat CPU 0 instructions: 12000000 cycles: 8902555 heartbeat IPC: 0.587099 cumulative IPC: 0.586915 (Simulation time: 0 hr 7 min 46 sec) 
Heartbeat CPU 0 instructions: 13000001 cycles: 10607380 heartbeat IPC: 0.586571 cumulative IPC: 0.586801 (Simulation time: 0 hr 8 min 31 sec) 
Heartbeat CPU 0 instructions: 14000001 cycles: 12309894 heartbeat IPC: 0.587367 cumulative IPC: 0.586942 (Simulation time: 0 hr 9 min 9 sec) 
Heartbeat CPU 0 instructions: 15000003 cycles: 14008397 heartbeat IPC: 0.588755 cumulative IPC: 0.587304 (Simulation time: 0 hr 9 min 48 sec) 
Heartbeat CPU 0 instructions: 16000000 cycles: 15718791 heartbeat IPC: 0.584659 cumulative IPC: 0.586861 (Simulation time: 0 hr 10 min 29 sec) 
Heartbeat CPU 0 instructions: 17000003 cycles: 17427448 heartbeat IPC: 0.585257 cumulative IPC: 0.586631 (Simulation time: 0 hr 11 min 11 sec) 
Heartbeat CPU 0 instructions: 18000002 cycles: 19136248 heartbeat IPC: 0.585205 cumulative IPC: 0.586453 (Simulation time: 0 hr 11 min 52 sec) 
Heartbeat CPU 0 instructions: 19000000 cycles: 20841281 heartbeat IPC: 0.586498 cumulative IPC: 0.586458 (Simulation time: 0 hr 12 min 37 sec) 
Heartbeat CPU 0 instructions: 20000000 cycles: 22543866 heartbeat IPC: 0.587342 cumulative IPC: 0.586546 (Simulation time: 0 hr 13 min 21 sec) 
Heartbeat CPU 0 instructions: 21000002 cycles: 24241169 heartbeat IPC: 0.589171 cumulative IPC: 0.586784 (Simulation time: 0 hr 14 min 8 sec) 
Heartbeat CPU 0 instructions: 22000003 cycles: 25936054 heartbeat IPC: 0.590011 cumulative IPC: 0.587051 (Simulation time: 0 hr 14 min 52 sec) 
Heartbeat CPU 0 instructions: 23000001 cycles: 27633329 heartbeat IPC: 0.589179 cumulative IPC: 0.587214 (Simulation time: 0 hr 15 min 37 sec) 
Heartbeat CPU 0 instructions: 24000000 cycles: 29332112 heartbeat IPC: 0.588656 cumulative IPC: 0.587317 (Simulation time: 0 hr 16 min 17 sec) 
Heartbeat CPU 0 instructions: 25000003 cycles: 31031694 heartbeat IPC: 0.588382 cumulative IPC: 0.587388 (Simulation time: 0 hr 16 min 57 sec) 
Heartbeat CPU 0 instructions: 26000001 cycles: 32728185 heartbeat IPC: 0.589451 cumulative IPC: 0.587517 (Simulation time: 0 hr 17 min 42 sec) 
Heartbeat CPU 0 instructions: 27000001 cycles: 34428089 heartbeat IPC: 0.588269 cumulative IPC: 0.587561 (Simulation time: 0 hr 18 min 27 sec) 
Heartbeat CPU 0 instructions: 28000000 cycles: 36124974 heartbeat IPC: 0.589315 cumulative IPC: 0.587658 (Simulation time: 0 hr 19 min 12 sec) 
Heartbeat CPU 0 instructions: 29000001 cycles: 37821326 heartbeat IPC: 0.589501 cumulative IPC: 0.587755 (Simulation time: 0 hr 19 min 54 sec) 
Heartbeat CPU 0 instructions: 30000000 cycles: 39518104 heartbeat IPC: 0.589352 cumulative IPC: 0.587834 (Simulation time: 0 hr 20 min 35 sec) 
Heartbeat CPU 0 instructions: 31000003 cycles: 41216999 heartbeat IPC: 0.58862 cumulative IPC: 0.587872 (Simulation time: 0 hr 21 min 18 sec) 
Heartbeat CPU 0 instructions: 32000000 cycles: 42909232 heartbeat IPC: 0.590933 cumulative IPC: 0.58801 (Simulation time: 0 hr 22 min 4 sec) 
Heartbeat CPU 0 instructions: 33000000 cycles: 44607232 heartbeat IPC: 0.588928 cumulative IPC: 0.58805 (Simulation time: 0 hr 22 min 47 sec) 
Heartbeat CPU 0 instructions: 34000003 cycles: 46301532 heartbeat IPC: 0.590216 cumulative IPC: 0.58814 (Simulation time: 0 hr 23 min 27 sec) 
Heartbeat CPU 0 instructions: 35000001 cycles: 48000570 heartbeat IPC: 0.588567 cumulative IPC: 0.588157 (Simulation time: 0 hr 24 min 11 sec) 
Heartbeat CPU 0 instructions: 36000000 cycles: 49700792 heartbeat IPC: 0.588158 cumulative IPC: 0.588157 (Simulation time: 0 hr 24 min 54 sec) 
Heartbeat CPU 0 instructions: 37000000 cycles: 51401859 heartbeat IPC: 0.587866 cumulative IPC: 0.588146 (Simulation time: 0 hr 25 min 34 sec) 
Heartbeat CPU 0 instructions: 38000001 cycles: 53094472 heartbeat IPC: 0.590803 cumulative IPC: 0.588241 (Simulation time: 0 hr 26 min 20 sec) 
Heartbeat CPU 0 instructions: 39000000 cycles: 54790165 heartbeat IPC: 0.589729 cumulative IPC: 0.588292 (Simulation time: 0 hr 27 min 3 sec) 
Heartbeat CPU 0 instructions: 40000000 cycles: 56493093 heartbeat IPC: 0.587224 cumulative IPC: 0.588256 (Simulation time: 0 hr 27 min 45 sec) 
Heartbeat CPU 0 instructions: 41000001 cycles: 58189031 heartbeat IPC: 0.589645 cumulative IPC: 0.588301 (Simulation time: 0 hr 28 min 30 sec) 
Heartbeat CPU 0 instructions: 42000001 cycles: 59891252 heartbeat IPC: 0.587468 cumulative IPC: 0.588275 (Simulation time: 0 hr 29 min 18 sec) 
Heartbeat CPU 0 instructions: 43000000 cycles: 61589119 heartbeat IPC: 0.588974 cumulative IPC: 0.588296 (Simulation time: 0 hr 30 min 7 sec) 
Heartbeat CPU 0 instructions: 44000000 cycles: 63577171 heartbeat IPC: 0.503005 cumulative IPC: 0.585377 (Simulation time: 0 hr 30 min 58 sec) 
Heartbeat CPU 0 instructions: 45000002 cycles: 65760919 heartbeat IPC: 0.457929 cumulative IPC: 0.580759 (Simulation time: 0 hr 31 min 45 sec) 
Heartbeat CPU 0 instructions: 46000001 cycles: 67884227 heartbeat IPC: 0.470963 cumulative IPC: 0.577022 (Simulation time: 0 hr 32 min 36 sec) 
Heartbeat CPU 0 instructions: 47000002 cycles: 70040219 heartbeat IPC: 0.463824 cumulative IPC: 0.573241 (Simulation time: 0 hr 33 min 23 sec) 
Heartbeat CPU 0 instructions: 48000000 cycles: 72145630 heartbeat IPC: 0.474966 cumulative IPC: 0.570136 (Simulation time: 0 hr 34 min 14 sec) 
Heartbeat CPU 0 instructions: 49000001 cycles: 74228334 heartbeat IPC: 0.480146 cumulative IPC: 0.56741 (Simulation time: 0 hr 34 min 59 sec) 
Heartbeat CPU 0 instructions: 50000002 cycles: 76114936 heartbeat IPC: 0.530054 cumulative IPC: 0.566412 (Simulation time: 0 hr 35 min 46 sec) 
Heartbeat CPU 0 instructions: 51000002 cycles: 77127060 heartbeat IPC: 0.988021 cumulative IPC: 0.572369 (Simulation time: 0 hr 36 min 24 sec) 
Heartbeat CPU 0 instructions: 52000000 cycles: 78919456 heartbeat IPC: 0.557911 cumulative IPC: 0.572016 (Simulation time: 0 hr 37 min 7 sec) 
Heartbeat CPU 0 instructions: 53000002 cycles: 81124381 heartbeat IPC: 0.453531 cumulative IPC: 0.568561 (Simulation time: 0 hr 37 min 47 sec) 
Heartbeat CPU 0 instructions: 54000003 cycles: 83339311 heartbeat IPC: 0.451482 cumulative IPC: 0.56523 (Simulation time: 0 hr 38 min 29 sec) 
Heartbeat CPU 0 instructions: 55000003 cycles: 85563015 heartbeat IPC: 0.4497 cumulative IPC: 0.562022 (Simulation time: 0 hr 39 min 10 sec) 
Heartbeat CPU 0 instructions: 56000000 cycles: 87795217 heartbeat IPC: 0.447987 cumulative IPC: 0.558929 (Simulation time: 0 hr 39 min 48 sec) 
Heartbeat CPU 0 instructions: 57000000 cycles: 90027657 heartbeat IPC: 0.44794 cumulative IPC: 0.555998 (Simulation time: 0 hr 40 min 25 sec) 
Heartbeat CPU 0 instructions: 58000000 cycles: 92253741 heartbeat IPC: 0.449219 cumulative IPC: 0.553258 (Simulation time: 0 hr 41 min 5 sec) 
Heartbeat CPU 0 instructions: 59000001 cycles: 94480700 heartbeat IPC: 0.449043 cumulative IPC: 0.55065 (Simulation time: 0 hr 41 min 52 sec) 
Heartbeat CPU 0 instructions: 60000000 cycles: 96711783 heartbeat IPC: 0.448212 cumulative IPC: 0.548144 (Simulation time: 0 hr 42 min 37 sec) 
Heartbeat CPU 0 instructions: 61000000 cycles: 98939239 heartbeat IPC: 0.448943 cumulative IPC: 0.54578 (Simulation time: 0 hr 43 min 20 sec) 
Heartbeat CPU 0 instructions: 62000003 cycles: 101165051 heartbeat IPC: 0.449276 cumulative IPC: 0.543534 (Simulation time: 0 hr 44 min 5 sec) 
Heartbeat CPU 0 instructions: 63000003 cycles: 103393679 heartbeat IPC: 0.448707 cumulative IPC: 0.541376 (Simulation time: 0 hr 44 min 50 sec) 
Heartbeat CPU 0 instructions: 64000000 cycles: 105622895 heartbeat IPC: 0.448587 cumulative IPC: 0.53931 (Simulation time: 0 hr 45 min 33 sec) 
Heartbeat CPU 0 instructions: 65000000 cycles: 107858012 heartbeat IPC: 0.447404 cumulative IPC: 0.537303 (Simulation time: 0 hr 46 min 19 sec) 
Heartbeat CPU 0 instructions: 66000001 cycles: 110084059 heartbeat IPC: 0.449227 cumulative IPC: 0.535428 (Simulation time: 0 hr 46 min 59 sec) 
Heartbeat CPU 0 instructions: 67000002 cycles: 112313155 heartbeat IPC: 0.448613 cumulative IPC: 0.533617 (Simulation time: 0 hr 47 min 40 sec) 
Heartbeat CPU 0 instructions: 68000000 cycles: 114543978 heartbeat IPC: 0.448264 cumulative IPC: 0.531871 (Simulation time: 0 hr 48 min 26 sec) 
Heartbeat CPU 0 instructions: 69000001 cycles: 116769035 heartbeat IPC: 0.449427 cumulative IPC: 0.530222 (Simulation time: 0 hr 49 min 11 sec) 
Heartbeat CPU 0 instructions: 70000000 cycles: 118998471 heartbeat IPC: 0.448543 cumulative IPC: 0.528618 (Simulation time: 0 hr 49 min 53 sec) 
Heartbeat CPU 0 instructions: 71000000 cycles: 121223386 heartbeat IPC: 0.449455 cumulative IPC: 0.527096 (Simulation time: 0 hr 50 min 37 sec) 
Heartbeat CPU 0 instructions: 72000000 cycles: 123450069 heartbeat IPC: 0.449098 cumulative IPC: 0.525623 (Simulation time: 0 hr 51 min 15 sec) 
Heartbeat CPU 0 instructions: 73000001 cycles: 125664422 heartbeat IPC: 0.4516 cumulative IPC: 0.524259 (Simulation time: 0 hr 51 min 58 sec) 
Heartbeat CPU 0 instructions: 74000002 cycles: 127266855 heartbeat IPC: 0.624052 cumulative IPC: 0.525573 (Simulation time: 0 hr 52 min 45 sec) 
Heartbeat CPU 0 instructions: 75000003 cycles: 128842097 heartbeat IPC: 0.634824 cumulative IPC: 0.526968 (Simulation time: 0 hr 53 min 28 sec) 
Heartbeat CPU 0 instructions: 76000000 cycles: 130406041 heartbeat IPC: 0.639407 cumulative IPC: 0.528376 (Simulation time: 0 hr 54 min 16 sec) 
Heartbeat CPU 0 instructions: 77000000 cycles: 131971161 heartbeat IPC: 0.638929 cumulative IPC: 0.529744 (Simulation time: 0 hr 54 min 57 sec) 
Heartbeat CPU 0 instructions: 78000000 cycles: 133539103 heartbeat IPC: 0.637779 cumulative IPC: 0.531067 (Simulation time: 0 hr 55 min 35 sec) 
Heartbeat CPU 0 instructions: 79000000 cycles: 135103713 heartbeat IPC: 0.639137 cumulative IPC: 0.532371 (Simulation time: 0 hr 56 min 19 sec) 
Heartbeat CPU 0 instructions: 80000000 cycles: 136675733 heartbeat IPC: 0.636124 cumulative IPC: 0.533615 (Simulation time: 0 hr 57 min 2 sec) 
Heartbeat CPU 0 instructions: 81000003 cycles: 138251242 heartbeat IPC: 0.634717 cumulative IPC: 0.534814 (Simulation time: 0 hr 57 min 44 sec) 
Heartbeat CPU 0 instructions: 82000003 cycles: 139822648 heartbeat IPC: 0.636373 cumulative IPC: 0.536003 (Simulation time: 0 hr 58 min 30 sec) 
Heartbeat CPU 0 instructions: 83000002 cycles: 141394150 heartbeat IPC: 0.636333 cumulative IPC: 0.537163 (Simulation time: 0 hr 59 min 8 sec) 
Heartbeat CPU 0 instructions: 84000000 cycles: 142972392 heartbeat IPC: 0.633615 cumulative IPC: 0.53827 (Simulation time: 0 hr 59 min 49 sec) 
Heartbeat CPU 0 instructions: 85000000 cycles: 144546224 heartbeat IPC: 0.635392 cumulative IPC: 0.539369 (Simulation time: 1 hr 0 min 25 sec) 
Heartbeat CPU 0 instructions: 86000000 cycles: 146124910 heartbeat IPC: 0.633438 cumulative IPC: 0.540425 (Simulation time: 1 hr 1 min 9 sec) 
Heartbeat CPU 0 instructions: 87000000 cycles: 147694689 heartbeat IPC: 0.637032 cumulative IPC: 0.541492 (Simulation time: 1 hr 1 min 43 sec) 
Heartbeat CPU 0 instructions: 88000000 cycles: 149271211 heartbeat IPC: 0.634308 cumulative IPC: 0.542509 (Simulation time: 1 hr 2 min 16 sec) 
Heartbeat CPU 0 instructions: 89000002 cycles: 150847496 heartbeat IPC: 0.634404 cumulative IPC: 0.543506 (Simulation time: 1 hr 2 min 48 sec) 
Heartbeat CPU 0 instructions: 90000002 cycles: 152413791 heartbeat IPC: 0.638449 cumulative IPC: 0.544518 (Simulation time: 1 hr 3 min 21 sec) 
Heartbeat CPU 0 instructions: 91000003 cycles: 153987770 heartbeat IPC: 0.635333 cumulative IPC: 0.545481 (Simulation time: 1 hr 3 min 52 sec) 
Heartbeat CPU 0 instructions: 92000000 cycles: 155564240 heartbeat IPC: 0.634327 cumulative IPC: 0.546414 (Simulation time: 1 hr 4 min 21 sec) 
Heartbeat CPU 0 instructions: 93000000 cycles: 157135029 heartbeat IPC: 0.636623 cumulative IPC: 0.547349 (Simulation time: 1 hr 4 min 53 sec) 
Heartbeat CPU 0 instructions: 94000000 cycles: 158708742 heartbeat IPC: 0.63544 cumulative IPC: 0.548253 (Simulation time: 1 hr 5 min 25 sec) 
Heartbeat CPU 0 instructions: 95000000 cycles: 160282757 heartbeat IPC: 0.635318 cumulative IPC: 0.549139 (Simulation time: 1 hr 5 min 53 sec) 
Heartbeat CPU 0 instructions: 96000000 cycles: 161859440 heartbeat IPC: 0.634243 cumulative IPC: 0.549997 (Simulation time: 1 hr 6 min 22 sec) 
Heartbeat CPU 0 instructions: 97000002 cycles: 163422339 heartbeat IPC: 0.639838 cumulative IPC: 0.550886 (Simulation time: 1 hr 6 min 53 sec) 
Heartbeat CPU 0 instructions: 98000003 cycles: 164985395 heartbeat IPC: 0.639773 cumulative IPC: 0.551757 (Simulation time: 1 hr 7 min 27 sec) 
Heartbeat CPU 0 instructions: 99000000 cycles: 166547865 heartbeat IPC: 0.64001 cumulative IPC: 0.552613 (Simulation time: 1 hr 7 min 54 sec) 
Heartbeat CPU 0 instructions: 100000000 cycles: 168111243 heartbeat IPC: 0.639641 cumulative IPC: 0.55345 (Simulation time: 1 hr 8 min 22 sec) 
Heartbeat CPU 0 instructions: 101000002 cycles: 169677597 heartbeat IPC: 0.638427 cumulative IPC: 0.554261 (Simulation time: 1 hr 8 min 45 sec) 
Heartbeat CPU 0 instructions: 102000000 cycles: 171240899 heartbeat IPC: 0.63967 cumulative IPC: 0.555066 (Simulation time: 1 hr 9 min 11 sec) 
Heartbeat CPU 0 instructions: 103000002 cycles: 172806555 heartbeat IPC: 0.638711 cumulative IPC: 0.555849 (Simulation time: 1 hr 9 min 34 sec) 
Heartbeat CPU 0 instructions: 104000000 cycles: 174368370 heartbeat IPC: 0.640279 cumulative IPC: 0.55663 (Simulation time: 1 hr 9 min 58 sec) 
Heartbeat CPU 0 instructions: 105000003 cycles: 175934281 heartbeat IPC: 0.638608 cumulative IPC: 0.557383 (Simulation time: 1 hr 10 min 22 sec) 
Heartbeat CPU 0 instructions: 106000002 cycles: 177503415 heartbeat IPC: 0.637294 cumulative IPC: 0.558112 (Simulation time: 1 hr 10 min 43 sec) 
Heartbeat CPU 0 instructions: 107000000 cycles: 179068550 heartbeat IPC: 0.638921 cumulative IPC: 0.558841 (Simulation time: 1 hr 11 min 4 sec) 
Heartbeat CPU 0 instructions: 108000000 cycles: 180630614 heartbeat IPC: 0.640179 cumulative IPC: 0.559566 (Simulation time: 1 hr 11 min 23 sec) 
Heartbeat CPU 0 instructions: 109000002 cycles: 182194780 heartbeat IPC: 0.63932 cumulative IPC: 0.560272 (Simulation time: 1 hr 11 min 41 sec) 
Heartbeat CPU 0 instructions: 110000000 cycles: 183759082 heartbeat IPC: 0.639261 cumulative IPC: 0.560965 (Simulation time: 1 hr 12 min 1 sec) 
Finished CPU 0 instructions: 100000003 cycles: 178264172 cummulative IPC: 0.560965 (Simulation time: 1 hr 12 min 1 sec) 

ChampSim completed all CPUs

Region of Interest Statistics

CPU 0 cummulative IPC: 0.560965 instructions: 100000003 cycles: 178264172
LLC TOTAL     ACCESS:    3481388  HIT:     185557  MISS:    3295831
LLC LOAD      ACCESS:    1002176  HIT:         15  MISS:    1002161
LLC RFO       ACCESS:     140009  HIT:          0  MISS:     140009
LLC PREFETCH  ACCESS:    1596532  HIT:      24959  MISS:    1571573
LLC WRITEBACK ACCESS:     742671  HIT:     160583  MISS:     582088
