Initialize SIGNATURE TABLE
ST_SET: 1
ST_WAY: 256
ST_TAG_BIT: 16
ST_TAG_MASK: ffff

Initialize PATTERN TABLE
PT_SET: 512
PT_WAY: 4
SIG_DELTA_BIT: 7
C_SIG_BIT: 4
C_DELTA_BIT: 4

Initialize PREFETCH FILTER
FILTER_SET: 1024

*** ChampSim Multicore Out-of-Order Simulator ***

Warmup Instructions: 50000000
Simulation Instructions: 50000000
Number of CPUs: 1
LLC sets: 2048
LLC ways: 16
Off-chip DRAM Size: 4096 MB Channels: 1 Width: 64-bit Data Rate: 3200 MT/s

CPU 0 runs /Users/gandhardeshpande/Desktop/CSE240C/HW1/ChampSim/ipc1_public/client_004.champsimtrace.xz
CPU 0 L1I next line prefetcher
Running FNL-MMA for L1I
CPU 0 L1D next line prefetcher
Heartbeat CPU 0 instructions: 10000000 cycles: 3592278 heartbeat IPC: 2.78375 cumulative IPC: 2.78375 (Simulation time: 0 hr 0 min 14 sec) 
Heartbeat CPU 0 instructions: 20000003 cycles: 7056716 heartbeat IPC: 2.88647 cumulative IPC: 2.83418 (Simulation time: 0 hr 0 min 27 sec) 
Heartbeat CPU 0 instructions: 30000000 cycles: 10647360 heartbeat IPC: 2.78501 cumulative IPC: 2.8176 (Simulation time: 0 hr 0 min 41 sec) 
Heartbeat CPU 0 instructions: 40000003 cycles: 14327823 heartbeat IPC: 2.71705 cumulative IPC: 2.79177 (Simulation time: 0 hr 0 min 55 sec) 
Heartbeat CPU 0 instructions: 50000001 cycles: 17845691 heartbeat IPC: 2.84263 cumulative IPC: 2.8018 (Simulation time: 0 hr 1 min 10 sec) 

Warmup complete CPU 0 instructions: 50000001 cycles: 17845691 (Simulation time: 0 hr 1 min 10 sec) 

Heartbeat CPU 0 instructions: 60000002 cycles: 25544628 heartbeat IPC: 1.29888 cumulative IPC: 1.29888 (Simulation time: 0 hr 1 min 21 sec) 
Heartbeat CPU 0 instructions: 70000001 cycles: 33356997 heartbeat IPC: 1.28002 cumulative IPC: 1.28938 (Simulation time: 0 hr 1 min 34 sec) 
Heartbeat CPU 0 instructions: 80000002 cycles: 41932603 heartbeat IPC: 1.1661 cumulative IPC: 1.24549 (Simulation time: 0 hr 1 min 45 sec) 
Heartbeat CPU 0 instructions: 90000000 cycles: 49974463 heartbeat IPC: 1.24349 cumulative IPC: 1.24499 (Simulation time: 0 hr 1 min 56 sec) 
Heartbeat CPU 0 instructions: 100000001 cycles: 57761267 heartbeat IPC: 1.28422 cumulative IPC: 1.25264 (Simulation time: 0 hr 2 min 8 sec) 
Finished CPU 0 instructions: 50000000 cycles: 39915576 cumulative IPC: 1.25264 (Simulation time: 0 hr 2 min 8 sec) 

ChampSim completed all CPUs

Region of Interest Statistics

CPU 0 cumulative IPC: 1.25264 instructions: 50000000 cycles: 39915576
L1D TOTAL     ACCESS:   21953245  HIT:   21064301  MISS:     888944
L1D LOAD      ACCESS:    8717945  HIT:    8322101  MISS:     395844
L1D RFO       ACCESS:    4810228  HIT:    4688849  MISS:     121379
L1D PREFETCH  ACCESS:    8425072  HIT:    8053351  MISS:     371721
L1D WRITEBACK ACCESS:          0  HIT:          0  MISS:          0
L1D PREFETCH  REQUESTED:    8757224  ISSUED:    8597657  USEFUL:     133224  USELESS:     238505
L1D AVERAGE MISS LATENCY: 29.962 cycles
L1I TOTAL     ACCESS:   10907755  HIT:   10019341  MISS:     888414
L1I LOAD      ACCESS:    9390045  HIT:    9248282  MISS:     141763
L1I RFO       ACCESS:          0  HIT:          0  MISS:          0
L1I PREFETCH  ACCESS:    1517710  HIT:     771059  MISS:     746651
L1I WRITEBACK ACCESS:          0  HIT:          0  MISS:          0
L1I PREFETCH  REQUESTED:    1591035  ISSUED:    1590948  USEFUL:     472792  USELESS:     273867
L1I AVERAGE MISS LATENCY: 26.791 cycles
L2C TOTAL     ACCESS:    2614499  HIT:    2312362  MISS:     302137
L2C LOAD      ACCESS:     499654  HIT:     435263  MISS:      64391
L2C RFO       ACCESS:     117419  HIT:      45669  MISS:      71750
L2C PREFETCH  ACCESS:    1775428  HIT:    1610082  MISS:     165346
L2C WRITEBACK ACCESS:     221998  HIT:     221348  MISS:        650
L2C PREFETCH  REQUESTED:    1909222  ISSUED:    1908381  USEFUL:      25875  USELESS:     138283
L2C AVERAGE MISS LATENCY: 87.7643 cycles
LLC TOTAL     ACCESS:     738106  HIT:     599740  MISS:     138366
LLC LOAD      ACCESS:      64373  HIT:      45988  MISS:      18385
LLC RFO       ACCESS:      71749  HIT:      40750  MISS:      30999
LLC PREFETCH  ACCESS:     501316  HIT:     412687  MISS:      88629
LLC WRITEBACK ACCESS:     100668  HIT:     100315  MISS:        353
LLC PREFETCH  REQUESTED:          0  ISSUED:          0  USEFUL:      18536  USELESS:      69926
LLC AVERAGE MISS LATENCY: 185.386 cycles
Major fault: 0 Minor fault: 3981
I-Shadow cache 408 bytes
Touched + WorthPF tables 24576 bytes 
MMA filter 174 bytes 
FNL filter 272 bytes 
TOTAL PREFETCHER STORAGE SIZE: 98134 bytes
CPU 0 L1I next line prefetcher final stats
CPU 0 L1D next line prefetcher final stats

DRAM Statistics
 CHANNEL 0
 RQ ROW_BUFFER_HIT:      35312  ROW_BUFFER_MISS:     102682
 DBUS_CONGESTED:      72472
 WQ ROW_BUFFER_HIT:       8216  ROW_BUFFER_MISS:      37215  FULL:          0

 AVG_CONGESTED_CYCLE: 6

CPU 0 Branch Prediction Accuracy: 94.1242% MPKI: 11.6089 Average ROB Occupancy at Mispredict: 55.929

Branch types
NOT_BRANCH: 40121069 80.2421%
BRANCH_DIRECT_JUMP: 644555 1.28911%
BRANCH_INDIRECT: 201946 0.403892%
BRANCH_CONDITIONAL: 7003556 14.0071%
BRANCH_DIRECT_CALL: 564821 1.12964%
BRANCH_INDIRECT_CALL: 445012 0.890024%
BRANCH_RETURN: 1018716 2.03743%
BRANCH_OTHER: 0 0%

