Initialize SIGNATURE TABLE
ST_SET: 1
ST_WAY: 256
ST_TAG_BIT: 16
ST_TAG_MASK: ffff

Initialize PATTERN TABLE
PT_SET: 512
PT_WAY: 4
SIG_DELTA_BIT: 7
C_SIG_BIT: 4
C_DELTA_BIT: 4

Initialize PREFETCH FILTER
FILTER_SET: 1024

*** ChampSim Multicore Out-of-Order Simulator ***

Warmup Instructions: 50000000
Simulation Instructions: 50000000
Number of CPUs: 1
LLC sets: 2048
LLC ways: 16
Off-chip DRAM Size: 4096 MB Channels: 1 Width: 64-bit Data Rate: 3200 MT/s

CPU 0 runs /Users/gandhardeshpande/Desktop/CSE240C/HW1/ChampSim/ipc1_public/server_034.champsimtrace.xz
CPU 0 L1I next line prefetcher
Running FNL-MMA for L1I
CPU 0 L1D next line prefetcher
Heartbeat CPU 0 instructions: 10000000 cycles: 3328655 heartbeat IPC: 3.00422 cumulative IPC: 3.00422 (Simulation time: 0 hr 0 min 15 sec) 
Heartbeat CPU 0 instructions: 20000002 cycles: 6650024 heartbeat IPC: 3.01081 cumulative IPC: 3.00751 (Simulation time: 0 hr 0 min 29 sec) 
Heartbeat CPU 0 instructions: 30000003 cycles: 9979656 heartbeat IPC: 3.00334 cumulative IPC: 3.00612 (Simulation time: 0 hr 0 min 44 sec) 
Heartbeat CPU 0 instructions: 40000001 cycles: 13307268 heartbeat IPC: 3.00516 cumulative IPC: 3.00588 (Simulation time: 0 hr 0 min 59 sec) 
Heartbeat CPU 0 instructions: 50000000 cycles: 16634677 heartbeat IPC: 3.00534 cumulative IPC: 3.00577 (Simulation time: 0 hr 1 min 13 sec) 

Warmup complete CPU 0 instructions: 50000002 cycles: 16634678 (Simulation time: 0 hr 1 min 13 sec) 

Heartbeat CPU 0 instructions: 60000002 cycles: 22566131 heartbeat IPC: 1.68593 cumulative IPC: 1.68593 (Simulation time: 0 hr 1 min 28 sec) 
Heartbeat CPU 0 instructions: 70000003 cycles: 28910313 heartbeat IPC: 1.57625 cumulative IPC: 1.62924 (Simulation time: 0 hr 1 min 43 sec) 
Heartbeat CPU 0 instructions: 80000002 cycles: 34921052 heartbeat IPC: 1.66369 cumulative IPC: 1.64057 (Simulation time: 0 hr 1 min 59 sec) 
Heartbeat CPU 0 instructions: 90000002 cycles: 40929373 heartbeat IPC: 1.66436 cumulative IPC: 1.64645 (Simulation time: 0 hr 2 min 14 sec) 
Heartbeat CPU 0 instructions: 100000002 cycles: 46914558 heartbeat IPC: 1.67079 cumulative IPC: 1.65126 (Simulation time: 0 hr 2 min 29 sec) 
Finished CPU 0 instructions: 50000000 cycles: 30279880 cumulative IPC: 1.65126 (Simulation time: 0 hr 2 min 29 sec) 

ChampSim completed all CPUs

Region of Interest Statistics

CPU 0 cumulative IPC: 1.65126 instructions: 50000000 cycles: 30279880
L1D TOTAL     ACCESS:   18230031  HIT:   16805991  MISS:    1424040
L1D LOAD      ACCESS:    6124772  HIT:    5468550  MISS:     656222
L1D RFO       ACCESS:    6162506  HIT:    6019966  MISS:     142540
L1D PREFETCH  ACCESS:    5942753  HIT:    5317475  MISS:     625278
L1D WRITEBACK ACCESS:          0  HIT:          0  MISS:          0
L1D PREFETCH  REQUESTED:    6158630  ISSUED:    6069141  USEFUL:     140878  USELESS:     484369
L1D AVERAGE MISS LATENCY: 17.536 cycles
L1I TOTAL     ACCESS:   15287493  HIT:   11143303  MISS:    4144190
L1I LOAD      ACCESS:    9682513  HIT:    9628038  MISS:      54475
L1I RFO       ACCESS:          0  HIT:          0  MISS:          0
L1I PREFETCH  ACCESS:    5604980  HIT:    1515265  MISS:    4089715
L1I WRITEBACK ACCESS:          0  HIT:          0  MISS:          0
L1I PREFETCH  REQUESTED:    5791366  ISSUED:    5790086  USEFUL:    3343248  USELESS:     746442
L1I AVERAGE MISS LATENCY: 14.9262 cycles
L2C TOTAL     ACCESS:    7331645  HIT:    7232621  MISS:      99024
L2C LOAD      ACCESS:     664540  HIT:     629324  MISS:      35216
L2C RFO       ACCESS:     140713  HIT:     132263  MISS:       8450
L2C PREFETCH  ACCESS:    6175663  HIT:    6121379  MISS:      54284
L2C WRITEBACK ACCESS:     350729  HIT:     349655  MISS:       1074
L2C PREFETCH  REQUESTED:    7305504  ISSUED:    7288983  USEFUL:       2794  USELESS:      50715
L2C AVERAGE MISS LATENCY: 43.0483 cycles
LLC TOTAL     ACCESS:    2318988  HIT:    2302914  MISS:      16074
LLC LOAD      ACCESS:      35133  HIT:      32165  MISS:       2968
LLC RFO       ACCESS:       8450  HIT:       8247  MISS:        203
LLC PREFETCH  ACCESS:    2237846  HIT:    2225041  MISS:      12805
LLC WRITEBACK ACCESS:      37559  HIT:      37461  MISS:         98
LLC PREFETCH  REQUESTED:          0  ISSUED:          0  USEFUL:       3281  USELESS:       6580
LLC AVERAGE MISS LATENCY: 160.888 cycles
Major fault: 0 Minor fault: 1170
I-Shadow cache 408 bytes
Touched + WorthPF tables 24576 bytes 
MMA filter 174 bytes 
FNL filter 272 bytes 
TOTAL PREFETCHER STORAGE SIZE: 98134 bytes
CPU 0 L1I next line prefetcher final stats
CPU 0 L1D next line prefetcher final stats

DRAM Statistics
 CHANNEL 0
 RQ ROW_BUFFER_HIT:       3841  ROW_BUFFER_MISS:      12128
 DBUS_CONGESTED:       7108
 WQ ROW_BUFFER_HIT:       1179  ROW_BUFFER_MISS:       3549  FULL:          0

 AVG_CONGESTED_CYCLE: 5

CPU 0 Branch Prediction Accuracy: 99.926% MPKI: 0.14472 Average ROB Occupancy at Mispredict: 261.615

Branch types
NOT_BRANCH: 40221104 80.4422%
BRANCH_DIRECT_JUMP: 771319 1.54264%
BRANCH_INDIRECT: 108663 0.217326%
BRANCH_CONDITIONAL: 6375047 12.7501%
BRANCH_DIRECT_CALL: 1049638 2.09928%
BRANCH_INDIRECT_CALL: 212283 0.424566%
BRANCH_RETURN: 1261927 2.52385%
BRANCH_OTHER: 0 0%

