Initialize SIGNATURE TABLE
ST_SET: 1
ST_WAY: 256
ST_TAG_BIT: 16
ST_TAG_MASK: ffff

Initialize PATTERN TABLE
PT_SET: 512
PT_WAY: 4
SIG_DELTA_BIT: 7
C_SIG_BIT: 4
C_DELTA_BIT: 4

Initialize PREFETCH FILTER
FILTER_SET: 1024

*** ChampSim Multicore Out-of-Order Simulator ***

Warmup Instructions: 50000000
Simulation Instructions: 50000000
Number of CPUs: 1
LLC sets: 2048
LLC ways: 16
Off-chip DRAM Size: 4096 MB Channels: 1 Width: 64-bit Data Rate: 3200 MT/s

CPU 0 runs /Users/gandhardeshpande/Desktop/CSE240C/HW1/ChampSim/ipc1_public/server_009.champsimtrace.xz
CPU 0 L1I next line prefetcher
Running FNL-MMA for L1I
CPU 0 L1D next line prefetcher
Heartbeat CPU 0 instructions: 10000003 cycles: 3196044 heartbeat IPC: 3.12887 cumulative IPC: 3.12887 (Simulation time: 0 hr 0 min 13 sec) 
Heartbeat CPU 0 instructions: 20000001 cycles: 6385107 heartbeat IPC: 3.13572 cumulative IPC: 3.13229 (Simulation time: 0 hr 0 min 27 sec) 
Heartbeat CPU 0 instructions: 30000002 cycles: 9588434 heartbeat IPC: 3.12175 cumulative IPC: 3.12877 (Simulation time: 0 hr 0 min 41 sec) 
Heartbeat CPU 0 instructions: 40000003 cycles: 12788369 heartbeat IPC: 3.12506 cumulative IPC: 3.12784 (Simulation time: 0 hr 0 min 55 sec) 
Heartbeat CPU 0 instructions: 50000000 cycles: 16044937 heartbeat IPC: 3.07072 cumulative IPC: 3.11625 (Simulation time: 0 hr 1 min 8 sec) 

Warmup complete CPU 0 instructions: 50000004 cycles: 16044938 (Simulation time: 0 hr 1 min 8 sec) 

Heartbeat CPU 0 instructions: 60000002 cycles: 31666677 heartbeat IPC: 0.640134 cumulative IPC: 0.640134 (Simulation time: 0 hr 1 min 26 sec) 
Heartbeat CPU 0 instructions: 70000003 cycles: 52678548 heartbeat IPC: 0.475921 cumulative IPC: 0.545947 (Simulation time: 0 hr 1 min 47 sec) 
Heartbeat CPU 0 instructions: 80000000 cycles: 59786492 heartbeat IPC: 1.40688 cumulative IPC: 0.685847 (Simulation time: 0 hr 1 min 59 sec) 
Heartbeat CPU 0 instructions: 90000001 cycles: 67028896 heartbeat IPC: 1.38076 cumulative IPC: 0.78456 (Simulation time: 0 hr 2 min 12 sec) 
Heartbeat CPU 0 instructions: 100000003 cycles: 74160368 heartbeat IPC: 1.40224 cumulative IPC: 0.860357 (Simulation time: 0 hr 2 min 24 sec) 
Finished CPU 0 instructions: 50000003 cycles: 58115431 cumulative IPC: 0.860357 (Simulation time: 0 hr 2 min 24 sec) 

ChampSim completed all CPUs

Region of Interest Statistics

CPU 0 cumulative IPC: 0.860357 instructions: 50000003 cycles: 58115431
L1D TOTAL     ACCESS:   21602843  HIT:   17023285  MISS:    4579558
L1D LOAD      ACCESS:    8618804  HIT:    6337742  MISS:    2281062
L1D RFO       ACCESS:    4579219  HIT:    4474766  MISS:     104453
L1D PREFETCH  ACCESS:    8404820  HIT:    6210777  MISS:    2194043
L1D WRITEBACK ACCESS:          0  HIT:          0  MISS:          0
L1D PREFETCH  REQUESTED:    8651539  ISSUED:    8554541  USEFUL:     105557  USELESS:    2088485
L1D AVERAGE MISS LATENCY: 20.4299 cycles
L1I TOTAL     ACCESS:   13227870  HIT:   11629000  MISS:    1598870
L1I LOAD      ACCESS:   10759668  HIT:   10649581  MISS:     110087
L1I RFO       ACCESS:          0  HIT:          0  MISS:          0
L1I PREFETCH  ACCESS:    2468202  HIT:     979419  MISS:    1488783
L1I WRITEBACK ACCESS:          0  HIT:          0  MISS:          0
L1I PREFETCH  REQUESTED:    2619106  ISSUED:    2618429  USEFUL:    1020395  USELESS:     468386
L1I AVERAGE MISS LATENCY: 29.571 cycles
L2C TOTAL     ACCESS:    7855436  HIT:    6787227  MISS:    1068209
L2C LOAD      ACCESS:    2288563  HIT:    2079005  MISS:     209558
L2C RFO       ACCESS:     103484  HIT:      62763  MISS:      40721
L2C PREFETCH  ACCESS:    5206523  HIT:    4390108  MISS:     816415
L2C WRITEBACK ACCESS:     256866  HIT:     255351  MISS:       1515
L2C PREFETCH  REQUESTED:    7423136  ISSUED:    7421144  USEFUL:      21055  USELESS:     794434
L2C AVERAGE MISS LATENCY: 48.0329 cycles
LLC TOTAL     ACCESS:    2376188  HIT:    2243702  MISS:     132486
LLC LOAD      ACCESS:     209314  HIT:     189963  MISS:      19351
LLC RFO       ACCESS:      40719  HIT:      31341  MISS:       9378
LLC PREFETCH  ACCESS:    1987578  HIT:    1884048  MISS:     103530
LLC WRITEBACK ACCESS:     138577  HIT:     138350  MISS:        227
LLC PREFETCH  REQUESTED:          0  ISSUED:          0  USEFUL:       9671  USELESS:      91050
LLC AVERAGE MISS LATENCY: 173.636 cycles
Major fault: 0 Minor fault: 6355
I-Shadow cache 408 bytes
Touched + WorthPF tables 24576 bytes 
MMA filter 174 bytes 
FNL filter 272 bytes 
TOTAL PREFETCHER STORAGE SIZE: 98134 bytes
CPU 0 L1I next line prefetcher final stats
CPU 0 L1D next line prefetcher final stats

DRAM Statistics
 CHANNEL 0
 RQ ROW_BUFFER_HIT:      24721  ROW_BUFFER_MISS:     107520
 DBUS_CONGESTED:      59064
 WQ ROW_BUFFER_HIT:       9135  ROW_BUFFER_MISS:      38052  FULL:          0

 AVG_CONGESTED_CYCLE: 5

CPU 0 Branch Prediction Accuracy: 99.4713% MPKI: 1.11484 Average ROB Occupancy at Mispredict: 119.363

Branch types
NOT_BRANCH: 39456616 78.9132%
BRANCH_DIRECT_JUMP: 445350 0.8907%
BRANCH_INDIRECT: 131149 0.262298%
BRANCH_CONDITIONAL: 8130196 16.2604%
BRANCH_DIRECT_CALL: 732485 1.46497%
BRANCH_INDIRECT_CALL: 172369 0.344738%
BRANCH_RETURN: 931558 1.86312%
BRANCH_OTHER: 0 0%

