Initialize SIGNATURE TABLE
ST_SET: 1
ST_WAY: 256
ST_TAG_BIT: 16
ST_TAG_MASK: ffff

Initialize PATTERN TABLE
PT_SET: 512
PT_WAY: 4
SIG_DELTA_BIT: 7
C_SIG_BIT: 4
C_DELTA_BIT: 4

Initialize PREFETCH FILTER
FILTER_SET: 1024

*** ChampSim Multicore Out-of-Order Simulator ***

Warmup Instructions: 50000000
Simulation Instructions: 50000000
Number of CPUs: 1
LLC sets: 2048
LLC ways: 16
Off-chip DRAM Size: 4096 MB Channels: 1 Width: 64-bit Data Rate: 3200 MT/s

CPU 0 runs /Users/gandhardeshpande/Desktop/CSE240C/HW1/ChampSim/ipc1_public/spec_gobmk_002.champsimtrace.xz
CPU 0 L1I next line prefetcher
Running FNL-MMA for L1I
CPU 0 L1D next line prefetcher
Heartbeat CPU 0 instructions: 10000001 cycles: 3287498 heartbeat IPC: 3.04183 cumulative IPC: 3.04183 (Simulation time: 0 hr 0 min 12 sec) 
Heartbeat CPU 0 instructions: 20000000 cycles: 6619102 heartbeat IPC: 3.00156 cumulative IPC: 3.02156 (Simulation time: 0 hr 0 min 25 sec) 
Heartbeat CPU 0 instructions: 30000000 cycles: 9957032 heartbeat IPC: 2.99587 cumulative IPC: 3.01295 (Simulation time: 0 hr 0 min 37 sec) 
Heartbeat CPU 0 instructions: 40000000 cycles: 13266376 heartbeat IPC: 3.02175 cumulative IPC: 3.01514 (Simulation time: 0 hr 0 min 50 sec) 
Heartbeat CPU 0 instructions: 50000003 cycles: 16529886 heartbeat IPC: 3.06419 cumulative IPC: 3.02482 (Simulation time: 0 hr 1 min 3 sec) 

Warmup complete CPU 0 instructions: 50000003 cycles: 16529886 (Simulation time: 0 hr 1 min 3 sec) 

Heartbeat CPU 0 instructions: 60000003 cycles: 23995903 heartbeat IPC: 1.3394 cumulative IPC: 1.3394 (Simulation time: 0 hr 1 min 13 sec) 
Heartbeat CPU 0 instructions: 70000000 cycles: 31422429 heartbeat IPC: 1.34652 cumulative IPC: 1.34295 (Simulation time: 0 hr 1 min 22 sec) 
Heartbeat CPU 0 instructions: 80000000 cycles: 38706202 heartbeat IPC: 1.37291 cumulative IPC: 1.35279 (Simulation time: 0 hr 1 min 31 sec) 
Heartbeat CPU 0 instructions: 90000001 cycles: 46299280 heartbeat IPC: 1.31699 cumulative IPC: 1.34366 (Simulation time: 0 hr 1 min 39 sec) 
Heartbeat CPU 0 instructions: 100000003 cycles: 54134683 heartbeat IPC: 1.27626 cumulative IPC: 1.32962 (Simulation time: 0 hr 1 min 48 sec) 
Finished CPU 0 instructions: 50000000 cycles: 37604797 cumulative IPC: 1.32962 (Simulation time: 0 hr 1 min 48 sec) 

ChampSim completed all CPUs

Region of Interest Statistics

CPU 0 cumulative IPC: 1.32962 instructions: 50000000 cycles: 37604797
L1D TOTAL     ACCESS:   17658604  HIT:   17535475  MISS:     123129
L1D LOAD      ACCESS:    6674561  HIT:    6640349  MISS:      34212
L1D RFO       ACCESS:    4388061  HIT:    4345368  MISS:      42693
L1D PREFETCH  ACCESS:    6595982  HIT:    6549758  MISS:      46224
L1D WRITEBACK ACCESS:          0  HIT:          0  MISS:          0
L1D PREFETCH  REQUESTED:    6676920  ISSUED:    6609487  USEFUL:      17159  USELESS:      29248
L1D AVERAGE MISS LATENCY: 49.9905 cycles
L1I TOTAL     ACCESS:   13805937  HIT:   11995800  MISS:    1810137
L1I LOAD      ACCESS:    8867183  HIT:    8705095  MISS:     162088
L1I RFO       ACCESS:          0  HIT:          0  MISS:          0
L1I PREFETCH  ACCESS:    4938754  HIT:    3290705  MISS:    1648049
L1I WRITEBACK ACCESS:          0  HIT:          0  MISS:          0
L1I PREFETCH  REQUESTED:    5109988  ISSUED:    5109930  USEFUL:     879007  USELESS:     769047
L1I AVERAGE MISS LATENCY: 14.4516 cycles
L2C TOTAL     ACCESS:    2927540  HIT:    2890217  MISS:      37323
L2C LOAD      ACCESS:     169368  HIT:     155442  MISS:      13926
L2C RFO       ACCESS:      42573  HIT:      39678  MISS:       2895
L2C PREFETCH  ACCESS:    2641392  HIT:    2621011  MISS:      20381
L2C WRITEBACK ACCESS:      74207  HIT:      74086  MISS:        121
L2C PREFETCH  REQUESTED:    2403895  ISSUED:    2403783  USEFUL:       2292  USELESS:      18562
L2C AVERAGE MISS LATENCY: 123.534 cycles
LLC TOTAL     ACCESS:     166901  HIT:     130467  MISS:      36434
LLC LOAD      ACCESS:      13926  HIT:       5461  MISS:       8465
LLC RFO       ACCESS:       2895  HIT:       1304  MISS:       1591
LLC PREFETCH  ACCESS:     132072  HIT:     106208  MISS:      25864
LLC WRITEBACK ACCESS:      18008  HIT:      17494  MISS:        514
LLC PREFETCH  REQUESTED:          0  ISSUED:          0  USEFUL:       2503  USELESS:      22836
LLC AVERAGE MISS LATENCY: 185.916 cycles
Major fault: 0 Minor fault: 2777
I-Shadow cache 408 bytes
Touched + WorthPF tables 24576 bytes 
MMA filter 174 bytes 
FNL filter 272 bytes 
TOTAL PREFETCHER STORAGE SIZE: 98134 bytes
CPU 0 L1I next line prefetcher final stats
CPU 0 L1D next line prefetcher final stats

DRAM Statistics
 CHANNEL 0
 RQ ROW_BUFFER_HIT:       2817  ROW_BUFFER_MISS:      33103
 DBUS_CONGESTED:      20420
 WQ ROW_BUFFER_HIT:        745  ROW_BUFFER_MISS:      14064  FULL:          0

 AVG_CONGESTED_CYCLE: 4

CPU 0 Branch Prediction Accuracy: 93.9974% MPKI: 10.2447 Average ROB Occupancy at Mispredict: 39.3193

Branch types
NOT_BRANCH: 41466054 82.9321%
BRANCH_DIRECT_JUMP: 464313 0.928626%
BRANCH_INDIRECT: 32 6.4e-05%
BRANCH_CONDITIONAL: 7069451 14.1389%
BRANCH_DIRECT_CALL: 499587 0.999174%
BRANCH_INDIRECT_CALL: 342 0.000684%
BRANCH_RETURN: 499906 0.999812%
BRANCH_OTHER: 0 0%

