
*** ChampSim Multicore Out-of-Order Simulator ***

Warmup Instructions: 50000000
Simulation Instructions: 100000000
Configuration: 2
Number of CPUs: 1
LLC sets: 2048
LLC ways: 16
Off-chip DRAM Channels: 1 Width: 64-bit Data Rate: 1600 MT/s

CPU 0 runs /datasets/cs240c-wi22-a00-public/data/Assignment2-gz/bzip2_281B.trace.gz
CPU 0 L1D next line prefetcher
CPU 0 L2C IP-based stride prefetcher
Heartbeat CPU 0 instructions: 1000000 cycles: 445877 heartbeat IPC: 2.24277 cumulative IPC: 2.24277 (Simulation time: 0 hr 0 min 39 sec) 
Heartbeat CPU 0 instructions: 2000003 cycles: 900175 heartbeat IPC: 2.20121 cumulative IPC: 2.22179 (Simulation time: 0 hr 1 min 19 sec) 
Heartbeat CPU 0 instructions: 3000002 cycles: 1315028 heartbeat IPC: 2.41049 cumulative IPC: 2.28132 (Simulation time: 0 hr 1 min 58 sec) 
Heartbeat CPU 0 instructions: 4000000 cycles: 1753511 heartbeat IPC: 2.28059 cumulative IPC: 2.28114 (Simulation time: 0 hr 2 min 37 sec) 
Heartbeat CPU 0 instructions: 5000002 cycles: 2175498 heartbeat IPC: 2.36975 cumulative IPC: 2.29833 (Simulation time: 0 hr 3 min 11 sec) 
Heartbeat CPU 0 instructions: 6000000 cycles: 2666163 heartbeat IPC: 2.03805 cumulative IPC: 2.25043 (Simulation time: 0 hr 3 min 49 sec) 
Heartbeat CPU 0 instructions: 7000001 cycles: 3193395 heartbeat IPC: 1.8967 cumulative IPC: 2.19202 (Simulation time: 0 hr 4 min 28 sec) 
Heartbeat CPU 0 instructions: 8000000 cycles: 3725956 heartbeat IPC: 1.87772 cumulative IPC: 2.1471 (Simulation time: 0 hr 5 min 6 sec) 
Heartbeat CPU 0 instructions: 9000000 cycles: 4232261 heartbeat IPC: 1.97509 cumulative IPC: 2.12652 (Simulation time: 0 hr 5 min 42 sec) 
Heartbeat CPU 0 instructions: 10000002 cycles: 4685217 heartbeat IPC: 2.20772 cumulative IPC: 2.13437 (Simulation time: 0 hr 6 min 15 sec) 
Heartbeat CPU 0 instructions: 11000000 cycles: 5132642 heartbeat IPC: 2.23501 cumulative IPC: 2.14315 (Simulation time: 0 hr 6 min 47 sec) 
Heartbeat CPU 0 instructions: 12000000 cycles: 5613676 heartbeat IPC: 2.07886 cumulative IPC: 2.13764 (Simulation time: 0 hr 7 min 20 sec) 
Heartbeat CPU 0 instructions: 13000001 cycles: 6025180 heartbeat IPC: 2.43011 cumulative IPC: 2.15761 (Simulation time: 0 hr 7 min 52 sec) 
