
*** ChampSim Multicore Out-of-Order Simulator ***

Warmup Instructions: 50000000
Simulation Instructions: 100000000
Configuration: 2
Number of CPUs: 1
LLC sets: 2048
LLC ways: 16
Off-chip DRAM Channels: 1 Width: 64-bit Data Rate: 1600 MT/s

CPU 0 runs /datasets/cs240c-wi22-a00-public/data/Assignment2-gz/soplex_66B.trace.gz
CPU 0 L1D next line prefetcher
CPU 0 L2C IP-based stride prefetcher
Heartbeat CPU 0 instructions: 1000003 cycles: 415095 heartbeat IPC: 2.40909 cumulative IPC: 2.40909 (Simulation time: 0 hr 0 min 39 sec) 
Heartbeat CPU 0 instructions: 2000003 cycles: 837089 heartbeat IPC: 2.3697 cumulative IPC: 2.38924 (Simulation time: 0 hr 1 min 21 sec) 
Heartbeat CPU 0 instructions: 3000003 cycles: 1241958 heartbeat IPC: 2.46993 cumulative IPC: 2.41554 (Simulation time: 0 hr 2 min 1 sec) 
Heartbeat CPU 0 instructions: 4000000 cycles: 1626069 heartbeat IPC: 2.60341 cumulative IPC: 2.45992 (Simulation time: 0 hr 2 min 35 sec) 
Heartbeat CPU 0 instructions: 5000000 cycles: 2041493 heartbeat IPC: 2.40718 cumulative IPC: 2.44919 (Simulation time: 0 hr 3 min 10 sec) 
Heartbeat CPU 0 instructions: 6000000 cycles: 2514273 heartbeat IPC: 2.11515 cumulative IPC: 2.38638 (Simulation time: 0 hr 3 min 46 sec) 
Heartbeat CPU 0 instructions: 7000002 cycles: 2887001 heartbeat IPC: 2.68293 cumulative IPC: 2.42466 (Simulation time: 0 hr 4 min 20 sec) 
Heartbeat CPU 0 instructions: 8000000 cycles: 3312594 heartbeat IPC: 2.34966 cumulative IPC: 2.41503 (Simulation time: 0 hr 5 min 2 sec) 
Heartbeat CPU 0 instructions: 9000001 cycles: 3751097 heartbeat IPC: 2.28049 cumulative IPC: 2.3993 (Simulation time: 0 hr 5 min 38 sec) 
Heartbeat CPU 0 instructions: 10000002 cycles: 4163127 heartbeat IPC: 2.42701 cumulative IPC: 2.40204 (Simulation time: 0 hr 6 min 14 sec) 
Heartbeat CPU 0 instructions: 11000001 cycles: 4574025 heartbeat IPC: 2.43369 cumulative IPC: 2.40488 (Simulation time: 0 hr 6 min 51 sec) 
Heartbeat CPU 0 instructions: 12000000 cycles: 4957961 heartbeat IPC: 2.6046 cumulative IPC: 2.42035 (Simulation time: 0 hr 7 min 20 sec) 
Heartbeat CPU 0 instructions: 13000003 cycles: 5357918 heartbeat IPC: 2.50028 cumulative IPC: 2.42632 (Simulation time: 0 hr 7 min 51 sec) 
