
*** ChampSim Multicore Out-of-Order Simulator ***

Warmup Instructions: 50000000
Simulation Instructions: 100000000
Configuration: 2
Number of CPUs: 1
LLC sets: 2048
LLC ways: 16
Off-chip DRAM Channels: 1 Width: 64-bit Data Rate: 1600 MT/s

CPU 0 runs /datasets/cs240c-wi22-a00-public/data/Assignment2-gz/GemsFDTD_109B.trace.gz
CPU 0 L1D next line prefetcher
CPU 0 L2C IP-based stride prefetcher
Heartbeat CPU 0 instructions: 1000002 cycles: 579772 heartbeat IPC: 1.72482 cumulative IPC: 1.72482 (Simulation time: 0 hr 0 min 49 sec) 
Heartbeat CPU 0 instructions: 2000001 cycles: 1159543 heartbeat IPC: 1.72482 cumulative IPC: 1.72482 (Simulation time: 0 hr 1 min 43 sec) 
Heartbeat CPU 0 instructions: 3000000 cycles: 1738728 heartbeat IPC: 1.72656 cumulative IPC: 1.7254 (Simulation time: 0 hr 2 min 35 sec) 
Heartbeat CPU 0 instructions: 4000000 cycles: 2317724 heartbeat IPC: 1.72713 cumulative IPC: 1.72583 (Simulation time: 0 hr 3 min 23 sec) 
Heartbeat CPU 0 instructions: 5000000 cycles: 2897563 heartbeat IPC: 1.72462 cumulative IPC: 1.72559 (Simulation time: 0 hr 4 min 10 sec) 
Heartbeat CPU 0 instructions: 6000002 cycles: 3478298 heartbeat IPC: 1.72196 cumulative IPC: 1.72498 (Simulation time: 0 hr 4 min 57 sec) 
Heartbeat CPU 0 instructions: 7000001 cycles: 4059003 heartbeat IPC: 1.72204 cumulative IPC: 1.72456 (Simulation time: 0 hr 5 min 44 sec) 
Heartbeat CPU 0 instructions: 8000000 cycles: 4639203 heartbeat IPC: 1.72354 cumulative IPC: 1.72443 (Simulation time: 0 hr 6 min 29 sec) 
Heartbeat CPU 0 instructions: 9000002 cycles: 5219392 heartbeat IPC: 1.72358 cumulative IPC: 1.72434 (Simulation time: 0 hr 7 min 12 sec) 
Heartbeat CPU 0 instructions: 10000001 cycles: 5799575 heartbeat IPC: 1.72359 cumulative IPC: 1.72426 (Simulation time: 0 hr 7 min 56 sec) 
