
*** ChampSim Multicore Out-of-Order Simulator ***

Warmup Instructions: 50000000
Simulation Instructions: 100000000
Configuration: 2
Number of CPUs: 1
LLC sets: 2048
LLC ways: 16
Off-chip DRAM Channels: 1 Width: 64-bit Data Rate: 1600 MT/s

CPU 0 runs /datasets/cs240c-wi22-a00-public/data/Assignment2-gz/lbm_564B.trace.gz
CPU 0 L1D next line prefetcher
CPU 0 L2C IP-based stride prefetcher
Heartbeat CPU 0 instructions: 1000000 cycles: 390168 heartbeat IPC: 2.563 cumulative IPC: 2.563 (Simulation time: 0 hr 0 min 42 sec) 
Heartbeat CPU 0 instructions: 2000003 cycles: 785204 heartbeat IPC: 2.53142 cumulative IPC: 2.54711 (Simulation time: 0 hr 1 min 24 sec) 
Heartbeat CPU 0 instructions: 3000002 cycles: 1175399 heartbeat IPC: 2.56282 cumulative IPC: 2.55233 (Simulation time: 0 hr 2 min 6 sec) 
Heartbeat CPU 0 instructions: 4000000 cycles: 1565582 heartbeat IPC: 2.56289 cumulative IPC: 2.55496 (Simulation time: 0 hr 2 min 48 sec) 
Heartbeat CPU 0 instructions: 5000000 cycles: 1960696 heartbeat IPC: 2.53092 cumulative IPC: 2.55011 (Simulation time: 0 hr 3 min 26 sec) 
Heartbeat CPU 0 instructions: 6000002 cycles: 2350852 heartbeat IPC: 2.56308 cumulative IPC: 2.55227 (Simulation time: 0 hr 4 min 5 sec) 
Heartbeat CPU 0 instructions: 7000001 cycles: 2741113 heartbeat IPC: 2.56239 cumulative IPC: 2.55371 (Simulation time: 0 hr 4 min 41 sec) 
Heartbeat CPU 0 instructions: 8000000 cycles: 3136115 heartbeat IPC: 2.53163 cumulative IPC: 2.55093 (Simulation time: 0 hr 5 min 23 sec) 
Heartbeat CPU 0 instructions: 9000000 cycles: 3526370 heartbeat IPC: 2.56243 cumulative IPC: 2.5522 (Simulation time: 0 hr 5 min 59 sec) 
Heartbeat CPU 0 instructions: 10000002 cycles: 3916519 heartbeat IPC: 2.56313 cumulative IPC: 2.55329 (Simulation time: 0 hr 6 min 34 sec) 
Heartbeat CPU 0 instructions: 11000000 cycles: 4306757 heartbeat IPC: 2.56253 cumulative IPC: 2.55413 (Simulation time: 0 hr 7 min 9 sec) 
Heartbeat CPU 0 instructions: 12000000 cycles: 4701737 heartbeat IPC: 2.53177 cumulative IPC: 2.55225 (Simulation time: 0 hr 7 min 45 sec) 
Heartbeat CPU 0 instructions: 13000001 cycles: 5091966 heartbeat IPC: 2.5626 cumulative IPC: 2.55304 (Simulation time: 0 hr 8 min 20 sec) 
