
*** ChampSim Multicore Out-of-Order Simulator ***

Warmup Instructions: 50000000
Simulation Instructions: 100000000
Configuration: 2
Number of CPUs: 1
LLC sets: 2048
LLC ways: 16
Off-chip DRAM Channels: 1 Width: 64-bit Data Rate: 1600 MT/s

CPU 0 runs /datasets/cs240c-wi22-a00-public/data/Assignment2-gz/gcc_13B.trace.gz
CPU 0 L1D next line prefetcher
CPU 0 L2C IP-based stride prefetcher
Heartbeat CPU 0 instructions: 1000000 cycles: 633312 heartbeat IPC: 1.579 cumulative IPC: 1.579 (Simulation time: 0 hr 0 min 47 sec) 
Heartbeat CPU 0 instructions: 2000001 cycles: 1243602 heartbeat IPC: 1.63857 cumulative IPC: 1.60823 (Simulation time: 0 hr 1 min 39 sec) 
Heartbeat CPU 0 instructions: 3000001 cycles: 1717388 heartbeat IPC: 2.11066 cumulative IPC: 1.74684 (Simulation time: 0 hr 2 min 26 sec) 
Heartbeat CPU 0 instructions: 4000000 cycles: 2190936 heartbeat IPC: 2.11172 cumulative IPC: 1.8257 (Simulation time: 0 hr 3 min 7 sec) 
Heartbeat CPU 0 instructions: 5000002 cycles: 2664972 heartbeat IPC: 2.10955 cumulative IPC: 1.87619 (Simulation time: 0 hr 3 min 48 sec) 
Heartbeat CPU 0 instructions: 6000002 cycles: 3138792 heartbeat IPC: 2.11051 cumulative IPC: 1.91156 (Simulation time: 0 hr 4 min 28 sec) 
Heartbeat CPU 0 instructions: 7000001 cycles: 3614151 heartbeat IPC: 2.10367 cumulative IPC: 1.93683 (Simulation time: 0 hr 5 min 10 sec) 
Heartbeat CPU 0 instructions: 8000000 cycles: 4091151 heartbeat IPC: 2.09643 cumulative IPC: 1.95544 (Simulation time: 0 hr 5 min 50 sec) 
Heartbeat CPU 0 instructions: 9000001 cycles: 4832453 heartbeat IPC: 1.34898 cumulative IPC: 1.86241 (Simulation time: 0 hr 6 min 46 sec) 
Heartbeat CPU 0 instructions: 10000001 cycles: 5537150 heartbeat IPC: 1.41905 cumulative IPC: 1.80598 (Simulation time: 0 hr 7 min 35 sec) 
Heartbeat CPU 0 instructions: 11000002 cycles: 6158041 heartbeat IPC: 1.61059 cumulative IPC: 1.78628 (Simulation time: 0 hr 8 min 18 sec) 
