
*** ChampSim Multicore Out-of-Order Simulator ***

Warmup Instructions: 50000000
Simulation Instructions: 100000000
Configuration: 2
Number of CPUs: 1
LLC sets: 2048
LLC ways: 16
Off-chip DRAM Channels: 1 Width: 64-bit Data Rate: 1600 MT/s

CPU 0 runs /datasets/cs240c-wi22-a00-public/data/Assignment2-gz/soplex_205B.trace.gz
CPU 0 L1D next line prefetcher
CPU 0 L2C IP-based stride prefetcher
Heartbeat CPU 0 instructions: 1000000 cycles: 395620 heartbeat IPC: 2.52768 cumulative IPC: 2.52768 (Simulation time: 0 hr 0 min 32 sec) 
Heartbeat CPU 0 instructions: 2000002 cycles: 928257 heartbeat IPC: 1.87745 cumulative IPC: 2.15458 (Simulation time: 0 hr 1 min 12 sec) 
Heartbeat CPU 0 instructions: 3000000 cycles: 1400785 heartbeat IPC: 2.11627 cumulative IPC: 2.14166 (Simulation time: 0 hr 2 min 9 sec) 
