
*** ChampSim Multicore Out-of-Order Simulator ***

Warmup Instructions: 50000000
Simulation Instructions: 100000000
Configuration: 2
Number of CPUs: 1
LLC sets: 2048
LLC ways: 16
Off-chip DRAM Channels: 1 Width: 64-bit Data Rate: 1600 MT/s

CPU 0 runs /datasets/cs240c-wi22-a00-public/data/Assignment2-gz/zeusmp_300B.trace.gz
CPU 0 L1D next line prefetcher
CPU 0 L2C IP-based stride prefetcher
Heartbeat CPU 0 instructions: 1000003 cycles: 509580 heartbeat IPC: 1.96241 cumulative IPC: 1.96241 (Simulation time: 0 hr 0 min 35 sec) 
Heartbeat CPU 0 instructions: 2000003 cycles: 1062148 heartbeat IPC: 1.80973 cumulative IPC: 1.88298 (Simulation time: 0 hr 1 min 5 sec) 
Heartbeat CPU 0 instructions: 3000002 cycles: 1606419 heartbeat IPC: 1.83732 cumulative IPC: 1.86751 (Simulation time: 0 hr 1 min 36 sec) 
Heartbeat CPU 0 instructions: 4000000 cycles: 2093208 heartbeat IPC: 2.05427 cumulative IPC: 1.91094 (Simulation time: 0 hr 2 min 7 sec) 
Heartbeat CPU 0 instructions: 5000001 cycles: 2575890 heartbeat IPC: 2.07176 cumulative IPC: 1.94108 (Simulation time: 0 hr 2 min 39 sec) 
Heartbeat CPU 0 instructions: 6000000 cycles: 3062578 heartbeat IPC: 2.0547 cumulative IPC: 1.95913 (Simulation time: 0 hr 3 min 11 sec) 
Heartbeat CPU 0 instructions: 7000001 cycles: 3590722 heartbeat IPC: 1.89342 cumulative IPC: 1.94947 (Simulation time: 0 hr 3 min 43 sec) 
Heartbeat CPU 0 instructions: 8000000 cycles: 4144746 heartbeat IPC: 1.80497 cumulative IPC: 1.93015 (Simulation time: 0 hr 4 min 15 sec) 
Heartbeat CPU 0 instructions: 9000000 cycles: 4672639 heartbeat IPC: 1.89432 cumulative IPC: 1.92611 (Simulation time: 0 hr 4 min 44 sec) 
Heartbeat CPU 0 instructions: 10000002 cycles: 5158928 heartbeat IPC: 2.05639 cumulative IPC: 1.93839 (Simulation time: 0 hr 5 min 14 sec) 
Heartbeat CPU 0 instructions: 11000003 cycles: 5643385 heartbeat IPC: 2.06417 cumulative IPC: 1.94919 (Simulation time: 0 hr 5 min 45 sec) 
Heartbeat CPU 0 instructions: 12000000 cycles: 6129760 heartbeat IPC: 2.05602 cumulative IPC: 1.95766 (Simulation time: 0 hr 6 min 14 sec) 
Heartbeat CPU 0 instructions: 13000001 cycles: 6673168 heartbeat IPC: 1.84024 cumulative IPC: 1.9481 (Simulation time: 0 hr 6 min 42 sec) 
Heartbeat CPU 0 instructions: 14000002 cycles: 7229010 heartbeat IPC: 1.79907 cumulative IPC: 1.93664 (Simulation time: 0 hr 7 min 9 sec) 
Heartbeat CPU 0 instructions: 15000002 cycles: 7738476 heartbeat IPC: 1.96284 cumulative IPC: 1.93837 (Simulation time: 0 hr 7 min 36 sec) 
Heartbeat CPU 0 instructions: 16000000 cycles: 8224655 heartbeat IPC: 2.05685 cumulative IPC: 1.94537 (Simulation time: 0 hr 8 min 3 sec) 
