
*** ChampSim Multicore Out-of-Order Simulator ***

Warmup Instructions: 50000000
Simulation Instructions: 100000000
Configuration: 2
Number of CPUs: 1
LLC sets: 2048
LLC ways: 16
Off-chip DRAM Channels: 1 Width: 64-bit Data Rate: 1600 MT/s

CPU 0 runs /datasets/cs240c-wi22-a00-public/data/Assignment2-gz/sphinx3_1339B.trace.gz
CPU 0 L1D next line prefetcher
CPU 0 L2C IP-based stride prefetcher
Heartbeat CPU 0 instructions: 1000000 cycles: 339022 heartbeat IPC: 2.94966 cumulative IPC: 2.94966 (Simulation time: 0 hr 0 min 37 sec) 
Heartbeat CPU 0 instructions: 2000001 cycles: 693417 heartbeat IPC: 2.82171 cumulative IPC: 2.88427 (Simulation time: 0 hr 1 min 13 sec) 
Heartbeat CPU 0 instructions: 3000000 cycles: 1084485 heartbeat IPC: 2.5571 cumulative IPC: 2.76629 (Simulation time: 0 hr 1 min 53 sec) 
Heartbeat CPU 0 instructions: 4000000 cycles: 1529903 heartbeat IPC: 2.24508 cumulative IPC: 2.61454 (Simulation time: 0 hr 2 min 26 sec) 
Heartbeat CPU 0 instructions: 5000003 cycles: 1868912 heartbeat IPC: 2.94978 cumulative IPC: 2.67535 (Simulation time: 0 hr 2 min 57 sec) 
Heartbeat CPU 0 instructions: 6000002 cycles: 2253129 heartbeat IPC: 2.60269 cumulative IPC: 2.66296 (Simulation time: 0 hr 3 min 29 sec) 
Heartbeat CPU 0 instructions: 7000001 cycles: 2716967 heartbeat IPC: 2.15592 cumulative IPC: 2.5764 (Simulation time: 0 hr 4 min 0 sec) 
Heartbeat CPU 0 instructions: 8000000 cycles: 3055834 heartbeat IPC: 2.95101 cumulative IPC: 2.61794 (Simulation time: 0 hr 4 min 32 sec) 
Heartbeat CPU 0 instructions: 9000003 cycles: 3412393 heartbeat IPC: 2.80459 cumulative IPC: 2.63745 (Simulation time: 0 hr 5 min 1 sec) 
Heartbeat CPU 0 instructions: 10000001 cycles: 3799184 heartbeat IPC: 2.58537 cumulative IPC: 2.63214 (Simulation time: 0 hr 5 min 33 sec) 
Heartbeat CPU 0 instructions: 11000002 cycles: 4242364 heartbeat IPC: 2.25642 cumulative IPC: 2.59289 (Simulation time: 0 hr 6 min 1 sec) 
Heartbeat CPU 0 instructions: 12000000 cycles: 4581327 heartbeat IPC: 2.95017 cumulative IPC: 2.61933 (Simulation time: 0 hr 6 min 28 sec) 
Heartbeat CPU 0 instructions: 13000000 cycles: 4973258 heartbeat IPC: 2.55147 cumulative IPC: 2.61398 (Simulation time: 0 hr 6 min 59 sec) 
Heartbeat CPU 0 instructions: 14000003 cycles: 5428269 heartbeat IPC: 2.19776 cumulative IPC: 2.57909 (Simulation time: 0 hr 7 min 27 sec) 
Heartbeat CPU 0 instructions: 15000003 cycles: 5767227 heartbeat IPC: 2.95022 cumulative IPC: 2.6009 (Simulation time: 0 hr 7 min 54 sec) 
