
*** ChampSim Multicore Out-of-Order Simulator ***

Warmup Instructions: 50000000
Simulation Instructions: 100000000
Configuration: 2
Number of CPUs: 1
LLC sets: 2048
LLC ways: 16
Off-chip DRAM Channels: 1 Width: 64-bit Data Rate: 1600 MT/s

CPU 0 runs /datasets/cs240c-wi22-a00-public/data/Assignment2-gz/astar_313B.trace.gz
CPU 0 L1D next line prefetcher
CPU 0 L2C IP-based stride prefetcher
Heartbeat CPU 0 instructions: 1000001 cycles: 675741 heartbeat IPC: 1.47986 cumulative IPC: 1.47986 (Simulation time: 0 hr 0 min 52 sec) 
Heartbeat CPU 0 instructions: 2000003 cycles: 1263056 heartbeat IPC: 1.70267 cumulative IPC: 1.58346 (Simulation time: 0 hr 1 min 57 sec) 
Heartbeat CPU 0 instructions: 3000003 cycles: 1937133 heartbeat IPC: 1.48351 cumulative IPC: 1.54868 (Simulation time: 0 hr 2 min 50 sec) 
Heartbeat CPU 0 instructions: 4000000 cycles: 2610564 heartbeat IPC: 1.48493 cumulative IPC: 1.53224 (Simulation time: 0 hr 3 min 42 sec) 
Heartbeat CPU 0 instructions: 5000002 cycles: 3284740 heartbeat IPC: 1.4833 cumulative IPC: 1.52219 (Simulation time: 0 hr 4 min 32 sec) 
Heartbeat CPU 0 instructions: 6000001 cycles: 3871280 heartbeat IPC: 1.70491 cumulative IPC: 1.54988 (Simulation time: 0 hr 5 min 28 sec) 
