
*** ChampSim Multicore Out-of-Order Simulator ***

Warmup Instructions: 50000000
Simulation Instructions: 100000000
Configuration: 2
Number of CPUs: 1
LLC sets: 2048
LLC ways: 16
Off-chip DRAM Channels: 1 Width: 64-bit Data Rate: 1600 MT/s

CPU 0 runs /datasets/cs240c-wi22-a00-public/data/Assignment2-gz/astar_23B.trace.gz
CPU 0 L1D next line prefetcher
CPU 0 L2C IP-based stride prefetcher
Heartbeat CPU 0 instructions: 1000000 cycles: 359871 heartbeat IPC: 2.77877 cumulative IPC: 2.77877 (Simulation time: 0 hr 0 min 44 sec) 
Heartbeat CPU 0 instructions: 2000001 cycles: 720485 heartbeat IPC: 2.77305 cumulative IPC: 2.77591 (Simulation time: 0 hr 1 min 31 sec) 
Heartbeat CPU 0 instructions: 3000000 cycles: 1079206 heartbeat IPC: 2.78768 cumulative IPC: 2.77982 (Simulation time: 0 hr 2 min 14 sec) 
Heartbeat CPU 0 instructions: 4000000 cycles: 1440453 heartbeat IPC: 2.76819 cumulative IPC: 2.7769 (Simulation time: 0 hr 2 min 58 sec) 
Heartbeat CPU 0 instructions: 5000000 cycles: 1802377 heartbeat IPC: 2.76301 cumulative IPC: 2.77411 (Simulation time: 0 hr 3 min 41 sec) 
Heartbeat CPU 0 instructions: 6000002 cycles: 2163876 heartbeat IPC: 2.76626 cumulative IPC: 2.7728 (Simulation time: 0 hr 4 min 24 sec) 
Heartbeat CPU 0 instructions: 7000002 cycles: 2525210 heartbeat IPC: 2.76752 cumulative IPC: 2.77205 (Simulation time: 0 hr 5 min 4 sec) 
Heartbeat CPU 0 instructions: 8000000 cycles: 2887981 heartbeat IPC: 2.75655 cumulative IPC: 2.7701 (Simulation time: 0 hr 5 min 50 sec) 
Heartbeat CPU 0 instructions: 9000000 cycles: 3250774 heartbeat IPC: 2.75639 cumulative IPC: 2.76857 (Simulation time: 0 hr 6 min 28 sec) 
Heartbeat CPU 0 instructions: 10000003 cycles: 3615511 heartbeat IPC: 2.74171 cumulative IPC: 2.76586 (Simulation time: 0 hr 7 min 12 sec) 
Heartbeat CPU 0 instructions: 11000000 cycles: 3979670 heartbeat IPC: 2.74605 cumulative IPC: 2.76405 (Simulation time: 0 hr 7 min 54 sec) 
