
*** ChampSim Multicore Out-of-Order Simulator ***

Warmup Instructions: 50000000
Simulation Instructions: 100000000
Configuration: 2
Number of CPUs: 1
LLC sets: 2048
LLC ways: 16
Off-chip DRAM Channels: 1 Width: 64-bit Data Rate: 1600 MT/s

CPU 0 runs /datasets/cs240c-wi22-a00-public/data/Assignment2-gz/milc_409B.trace.gz
CPU 0 L1D next line prefetcher
CPU 0 L2C IP-based stride prefetcher
Heartbeat CPU 0 instructions: 1000002 cycles: 407040 heartbeat IPC: 2.45677 cumulative IPC: 2.45677 (Simulation time: 0 hr 0 min 38 sec) 
Heartbeat CPU 0 instructions: 2000002 cycles: 889867 heartbeat IPC: 2.07114 cumulative IPC: 2.24753 (Simulation time: 0 hr 1 min 22 sec) 
Heartbeat CPU 0 instructions: 3000003 cycles: 1672034 heartbeat IPC: 1.2785 cumulative IPC: 1.79422 (Simulation time: 0 hr 2 min 23 sec) 
Heartbeat CPU 0 instructions: 4000000 cycles: 2454290 heartbeat IPC: 1.27835 cumulative IPC: 1.6298 (Simulation time: 0 hr 3 min 22 sec) 
Heartbeat CPU 0 instructions: 5000000 cycles: 3135411 heartbeat IPC: 1.46817 cumulative IPC: 1.59469 (Simulation time: 0 hr 4 min 10 sec) 
Heartbeat CPU 0 instructions: 6000003 cycles: 3679803 heartbeat IPC: 1.83692 cumulative IPC: 1.63052 (Simulation time: 0 hr 4 min 50 sec) 
Heartbeat CPU 0 instructions: 7000002 cycles: 4224109 heartbeat IPC: 1.8372 cumulative IPC: 1.65715 (Simulation time: 0 hr 5 min 29 sec) 
Heartbeat CPU 0 instructions: 8000000 cycles: 4768517 heartbeat IPC: 1.83685 cumulative IPC: 1.67767 (Simulation time: 0 hr 6 min 7 sec) 
Heartbeat CPU 0 instructions: 9000003 cycles: 5312843 heartbeat IPC: 1.83714 cumulative IPC: 1.69401 (Simulation time: 0 hr 6 min 45 sec) 
Heartbeat CPU 0 instructions: 10000000 cycles: 5857231 heartbeat IPC: 1.83692 cumulative IPC: 1.70729 (Simulation time: 0 hr 7 min 25 sec) 
Heartbeat CPU 0 instructions: 11000002 cycles: 6401581 heartbeat IPC: 1.83706 cumulative IPC: 1.71833 (Simulation time: 0 hr 8 min 3 sec) 
