Initialize SIGNATURE TABLE
ST_SET: 1
ST_WAY: 256
ST_TAG_BIT: 16
ST_TAG_MASK: ffff

Initialize PATTERN TABLE
PT_SET: 512
PT_WAY: 4
SIG_DELTA_BIT: 7
C_SIG_BIT: 4
C_DELTA_BIT: 4

Initialize PREFETCH FILTER
FILTER_SET: 1024

*** ChampSim Multicore Out-of-Order Simulator ***

Warmup Instructions: 50000000
Simulation Instructions: 50000000
Number of CPUs: 1
LLC sets: 2048
LLC ways: 16
Off-chip DRAM Size: 4096 MB Channels: 1 Width: 64-bit Data Rate: 3200 MT/s

CPU 0 runs /Users/gandhardeshpande/Desktop/CSE240C/HW1/ChampSim/ipc1_public/client_005.champsimtrace.xz
CPU 0 L1I next line prefetcher
Running FNL-MMA for L1I
CPU 0 L1D next line prefetcher
Heartbeat CPU 0 instructions: 10000001 cycles: 3291604 heartbeat IPC: 3.03803 cumulative IPC: 3.03803 (Simulation time: 0 hr 0 min 14 sec) 
Heartbeat CPU 0 instructions: 20000002 cycles: 6696774 heartbeat IPC: 2.93671 cumulative IPC: 2.98651 (Simulation time: 0 hr 0 min 28 sec) 
Heartbeat CPU 0 instructions: 30000001 cycles: 10390056 heartbeat IPC: 2.70762 cumulative IPC: 2.88738 (Simulation time: 0 hr 0 min 43 sec) 
Heartbeat CPU 0 instructions: 40000000 cycles: 14067869 heartbeat IPC: 2.71901 cumulative IPC: 2.84336 (Simulation time: 0 hr 0 min 58 sec) 
Heartbeat CPU 0 instructions: 50000001 cycles: 17341481 heartbeat IPC: 3.05473 cumulative IPC: 2.88326 (Simulation time: 0 hr 1 min 11 sec) 

Warmup complete CPU 0 instructions: 50000001 cycles: 17341481 (Simulation time: 0 hr 1 min 11 sec) 

Heartbeat CPU 0 instructions: 60000002 cycles: 24961737 heartbeat IPC: 1.31229 cumulative IPC: 1.31229 (Simulation time: 0 hr 1 min 23 sec) 
Heartbeat CPU 0 instructions: 70000003 cycles: 32245943 heartbeat IPC: 1.37283 cumulative IPC: 1.34188 (Simulation time: 0 hr 1 min 35 sec) 
Heartbeat CPU 0 instructions: 80000001 cycles: 39119011 heartbeat IPC: 1.45495 cumulative IPC: 1.37757 (Simulation time: 0 hr 1 min 49 sec) 
Heartbeat CPU 0 instructions: 90000002 cycles: 48601783 heartbeat IPC: 1.05454 cumulative IPC: 1.27958 (Simulation time: 0 hr 2 min 3 sec) 
Heartbeat CPU 0 instructions: 100000002 cycles: 56134058 heartbeat IPC: 1.32762 cumulative IPC: 1.28891 (Simulation time: 0 hr 2 min 14 sec) 
Finished CPU 0 instructions: 50000001 cycles: 38792577 cumulative IPC: 1.28891 (Simulation time: 0 hr 2 min 14 sec) 

ChampSim completed all CPUs

Region of Interest Statistics

CPU 0 cumulative IPC: 1.28891 instructions: 50000001 cycles: 38792577
L1D TOTAL     ACCESS:   19653195  HIT:   19117346  MISS:     535849
L1D LOAD      ACCESS:    6654274  HIT:    6482582  MISS:     171692
L1D RFO       ACCESS:    6795892  HIT:    6611470  MISS:     184422
L1D PREFETCH  ACCESS:    6203029  HIT:    6023294  MISS:     179735
L1D WRITEBACK ACCESS:          0  HIT:          0  MISS:          0
L1D PREFETCH  REQUESTED:    6677718  ISSUED:    6307561  USEFUL:      59522  USELESS:     120100
L1D AVERAGE MISS LATENCY: 92.6754 cycles
L1I TOTAL     ACCESS:   11906158  HIT:   10863558  MISS:    1042600
L1I LOAD      ACCESS:    9311949  HIT:    9136443  MISS:     175506
L1I RFO       ACCESS:          0  HIT:          0  MISS:          0
L1I PREFETCH  ACCESS:    2594209  HIT:    1727115  MISS:     867094
L1I WRITEBACK ACCESS:          0  HIT:          0  MISS:          0
L1I PREFETCH  REQUESTED:    2690186  ISSUED:    2690186  USEFUL:     592363  USELESS:     274650
L1I AVERAGE MISS LATENCY: 19.9816 cycles
L2C TOTAL     ACCESS:    2321370  HIT:    1937405  MISS:     383965
L2C LOAD      ACCESS:     301765  HIT:     215512  MISS:      86253
L2C RFO       ACCESS:     180796  HIT:      31497  MISS:     149299
L2C PREFETCH  ACCESS:    1585755  HIT:    1438290  MISS:     147465
L2C WRITEBACK ACCESS:     253054  HIT:     252106  MISS:        948
L2C PREFETCH  REQUESTED:    1585858  ISSUED:    1585400  USEFUL:      15083  USELESS:     130610
L2C AVERAGE MISS LATENCY: 128.562 cycles
LLC TOTAL     ACCESS:     934908  HIT:     635801  MISS:     299107
LLC LOAD      ACCESS:      86228  HIT:      44219  MISS:      42009
LLC RFO       ACCESS:     149291  HIT:      19127  MISS:     130164
LLC PREFETCH  ACCESS:     500067  HIT:     373986  MISS:     126081
LLC WRITEBACK ACCESS:     199322  HIT:     198469  MISS:        853
LLC PREFETCH  REQUESTED:          0  ISSUED:          0  USEFUL:      26942  USELESS:      94826
LLC AVERAGE MISS LATENCY: 169.316 cycles
Major fault: 0 Minor fault: 6084
I-Shadow cache 408 bytes
Touched + WorthPF tables 24576 bytes 
MMA filter 174 bytes 
FNL filter 272 bytes 
TOTAL PREFETCHER STORAGE SIZE: 98134 bytes
CPU 0 L1I next line prefetcher final stats
CPU 0 L1D next line prefetcher final stats

DRAM Statistics
 CHANNEL 0
 RQ ROW_BUFFER_HIT:      96883  ROW_BUFFER_MISS:     201365
 DBUS_CONGESTED:     242245
 WQ ROW_BUFFER_HIT:      51766  ROW_BUFFER_MISS:     131064  FULL:          0

 AVG_CONGESTED_CYCLE: 6

CPU 0 Branch Prediction Accuracy: 97.8666% MPKI: 3.9013 Average ROB Occupancy at Mispredict: 87.8465

Branch types
NOT_BRANCH: 40856330 81.7127%
BRANCH_DIRECT_JUMP: 484667 0.969334%
BRANCH_INDIRECT: 85086 0.170172%
BRANCH_CONDITIONAL: 6230887 12.4618%
BRANCH_DIRECT_CALL: 1028917 2.05783%
BRANCH_INDIRECT_CALL: 141825 0.28365%
BRANCH_RETURN: 1171986 2.34397%
BRANCH_OTHER: 0 0%

