Initialize SIGNATURE TABLE
ST_SET: 1
ST_WAY: 256
ST_TAG_BIT: 16
ST_TAG_MASK: ffff

Initialize PATTERN TABLE
PT_SET: 512
PT_WAY: 4
SIG_DELTA_BIT: 7
C_SIG_BIT: 4
C_DELTA_BIT: 4

Initialize PREFETCH FILTER
FILTER_SET: 1024

*** ChampSim Multicore Out-of-Order Simulator ***

Warmup Instructions: 50000000
Simulation Instructions: 50000000
Number of CPUs: 1
LLC sets: 2048
LLC ways: 16
Off-chip DRAM Size: 4096 MB Channels: 1 Width: 64-bit Data Rate: 3200 MT/s

CPU 0 runs /Users/gandhardeshpande/Desktop/CSE240C/HW1/ChampSim/ipc1_public/server_010.champsimtrace.xz
CPU 0 L1I next line prefetcher
Running FNL-MMA for L1I
CPU 0 L1D next line prefetcher
Heartbeat CPU 0 instructions: 10000000 cycles: 3192882 heartbeat IPC: 3.13197 cumulative IPC: 3.13197 (Simulation time: 0 hr 0 min 14 sec) 
Heartbeat CPU 0 instructions: 20000002 cycles: 6382013 heartbeat IPC: 3.13565 cumulative IPC: 3.13381 (Simulation time: 0 hr 0 min 27 sec) 
Heartbeat CPU 0 instructions: 30000001 cycles: 9574653 heartbeat IPC: 3.1322 cumulative IPC: 3.13327 (Simulation time: 0 hr 0 min 41 sec) 
Heartbeat CPU 0 instructions: 40000000 cycles: 12763429 heartbeat IPC: 3.136 cumulative IPC: 3.13395 (Simulation time: 0 hr 0 min 54 sec) 
Heartbeat CPU 0 instructions: 50000003 cycles: 15957785 heartbeat IPC: 3.13052 cumulative IPC: 3.13327 (Simulation time: 0 hr 1 min 8 sec) 

Warmup complete CPU 0 instructions: 50000003 cycles: 15957785 (Simulation time: 0 hr 1 min 8 sec) 

Heartbeat CPU 0 instructions: 60000001 cycles: 23226304 heartbeat IPC: 1.3758 cumulative IPC: 1.3758 (Simulation time: 0 hr 1 min 20 sec) 
Heartbeat CPU 0 instructions: 70000000 cycles: 30554403 heartbeat IPC: 1.36461 cumulative IPC: 1.37018 (Simulation time: 0 hr 1 min 32 sec) 
Heartbeat CPU 0 instructions: 80000003 cycles: 37964497 heartbeat IPC: 1.34951 cumulative IPC: 1.36322 (Simulation time: 0 hr 1 min 44 sec) 
Heartbeat CPU 0 instructions: 90000002 cycles: 45120872 heartbeat IPC: 1.39736 cumulative IPC: 1.3716 (Simulation time: 0 hr 1 min 56 sec) 
Heartbeat CPU 0 instructions: 100000003 cycles: 65775567 heartbeat IPC: 0.484151 cumulative IPC: 1.00366 (Simulation time: 0 hr 2 min 16 sec) 
Finished CPU 0 instructions: 50000000 cycles: 49817782 cumulative IPC: 1.00366 (Simulation time: 0 hr 2 min 16 sec) 

ChampSim completed all CPUs

Region of Interest Statistics

CPU 0 cumulative IPC: 1.00366 instructions: 50000000 cycles: 49817782
L1D TOTAL     ACCESS:   19953971  HIT:   16728834  MISS:    3225137
L1D LOAD      ACCESS:    7732659  HIT:    6139715  MISS:    1592944
L1D RFO       ACCESS:    4712574  HIT:    4618188  MISS:      94386
L1D PREFETCH  ACCESS:    7508738  HIT:    5970931  MISS:    1537807
L1D WRITEBACK ACCESS:          0  HIT:          0  MISS:          0
L1D PREFETCH  REQUESTED:    7765967  ISSUED:    7667973  USEFUL:     117294  USELESS:    1420485
L1D AVERAGE MISS LATENCY: 22.7308 cycles
L1I TOTAL     ACCESS:   12229320  HIT:   10623329  MISS:    1605991
L1I LOAD      ACCESS:    9916653  HIT:    9718231  MISS:     198422
L1I RFO       ACCESS:          0  HIT:          0  MISS:          0
L1I PREFETCH  ACCESS:    2312667  HIT:     905098  MISS:    1407569
L1I WRITEBACK ACCESS:          0  HIT:          0  MISS:          0
L1I PREFETCH  REQUESTED:    2539880  ISSUED:    2539880  USEFUL:    1038834  USELESS:     368736
L1I AVERAGE MISS LATENCY: 26.6897 cycles
L2C TOTAL     ACCESS:    6150575  HIT:    5022081  MISS:    1128494
L2C LOAD      ACCESS:    1598768  HIT:    1373928  MISS:     224840
L2C RFO       ACCESS:      93297  HIT:      48726  MISS:      44571
L2C PREFETCH  ACCESS:    4193162  HIT:    3335134  MISS:     858028
L2C WRITEBACK ACCESS:     265348  HIT:     264293  MISS:       1055
L2C PREFETCH  REQUESTED:    5781768  ISSUED:    5779788  USEFUL:      22328  USELESS:     836938
L2C AVERAGE MISS LATENCY: 46.2377 cycles
LLC TOTAL     ACCESS:    2354725  HIT:    2229597  MISS:     125128
LLC LOAD      ACCESS:     224761  HIT:     208197  MISS:      16564
LLC RFO       ACCESS:      44567  HIT:      34954  MISS:       9613
LLC PREFETCH  ACCESS:    1936249  HIT:    1837481  MISS:      98768
LLC WRITEBACK ACCESS:     149148  HIT:     148965  MISS:        183
LLC PREFETCH  REQUESTED:          0  ISSUED:          0  USEFUL:       8784  USELESS:      90431
LLC AVERAGE MISS LATENCY: 175.408 cycles
Major fault: 0 Minor fault: 5596
I-Shadow cache 408 bytes
Touched + WorthPF tables 24576 bytes 
MMA filter 174 bytes 
FNL filter 272 bytes 
TOTAL PREFETCHER STORAGE SIZE: 98134 bytes
CPU 0 L1I next line prefetcher final stats
CPU 0 L1D next line prefetcher final stats

DRAM Statistics
 CHANNEL 0
 RQ ROW_BUFFER_HIT:      18829  ROW_BUFFER_MISS:     106101
 DBUS_CONGESTED:      56887
 WQ ROW_BUFFER_HIT:      10006  ROW_BUFFER_MISS:      44220  FULL:          0

 AVG_CONGESTED_CYCLE: 5

CPU 0 Branch Prediction Accuracy: 99.5528% MPKI: 0.89798 Average ROB Occupancy at Mispredict: 124.865

Branch types
NOT_BRANCH: 39958798 79.9176%
BRANCH_DIRECT_JUMP: 449946 0.899892%
BRANCH_INDIRECT: 140210 0.28042%
BRANCH_CONDITIONAL: 7679678 15.3594%
BRANCH_DIRECT_CALL: 701578 1.40316%
BRANCH_INDIRECT_CALL: 168971 0.337942%
BRANCH_RETURN: 900560 1.80112%
BRANCH_OTHER: 0 0%

