Initialize SIGNATURE TABLE
ST_SET: 1
ST_WAY: 256
ST_TAG_BIT: 16
ST_TAG_MASK: ffff

Initialize PATTERN TABLE
PT_SET: 512
PT_WAY: 4
SIG_DELTA_BIT: 7
C_SIG_BIT: 4
C_DELTA_BIT: 4

Initialize PREFETCH FILTER
FILTER_SET: 1024

*** ChampSim Multicore Out-of-Order Simulator ***

Warmup Instructions: 50000000
Simulation Instructions: 50000000
Number of CPUs: 1
LLC sets: 2048
LLC ways: 16
Off-chip DRAM Size: 4096 MB Channels: 1 Width: 64-bit Data Rate: 3200 MT/s

CPU 0 runs /Users/gandhardeshpande/Desktop/CSE240C/HW1/ChampSim/ipc1_public/server_026.champsimtrace.xz
CPU 0 L1I next line prefetcher
Running FNL-MMA for L1I
CPU 0 L1D next line prefetcher
Heartbeat CPU 0 instructions: 10000000 cycles: 3522393 heartbeat IPC: 2.83898 cumulative IPC: 2.83898 (Simulation time: 0 hr 0 min 15 sec) 
Heartbeat CPU 0 instructions: 20000002 cycles: 7050689 heartbeat IPC: 2.83423 cumulative IPC: 2.8366 (Simulation time: 0 hr 0 min 29 sec) 
Heartbeat CPU 0 instructions: 30000000 cycles: 10569391 heartbeat IPC: 2.84196 cumulative IPC: 2.83838 (Simulation time: 0 hr 0 min 44 sec) 
Heartbeat CPU 0 instructions: 40000003 cycles: 14096953 heartbeat IPC: 2.83482 cumulative IPC: 2.83749 (Simulation time: 0 hr 0 min 59 sec) 
Heartbeat CPU 0 instructions: 50000000 cycles: 17617803 heartbeat IPC: 2.84022 cumulative IPC: 2.83804 (Simulation time: 0 hr 1 min 14 sec) 

Warmup complete CPU 0 instructions: 50000004 cycles: 17617804 (Simulation time: 0 hr 1 min 14 sec) 

*** Reached end of trace for Core: 0 Repeating trace: /Users/gandhardeshpande/Desktop/CSE240C/HW1/ChampSim/ipc1_public/server_026.champsimtrace.xz
Heartbeat CPU 0 instructions: 60000000 cycles: 24569332 heartbeat IPC: 1.43853 cumulative IPC: 1.43853 (Simulation time: 0 hr 1 min 29 sec) 
Heartbeat CPU 0 instructions: 70000003 cycles: 31399983 heartbeat IPC: 1.46399 cumulative IPC: 1.45115 (Simulation time: 0 hr 1 min 44 sec) 
Heartbeat CPU 0 instructions: 80000002 cycles: 38328008 heartbeat IPC: 1.44341 cumulative IPC: 1.44856 (Simulation time: 0 hr 1 min 59 sec) 
Heartbeat CPU 0 instructions: 90000002 cycles: 45156592 heartbeat IPC: 1.46443 cumulative IPC: 1.4525 (Simulation time: 0 hr 2 min 14 sec) 
Heartbeat CPU 0 instructions: 100000000 cycles: 52073805 heartbeat IPC: 1.44567 cumulative IPC: 1.45113 (Simulation time: 0 hr 2 min 29 sec) 
Finished CPU 0 instructions: 50000000 cycles: 34456002 cumulative IPC: 1.45113 (Simulation time: 0 hr 2 min 29 sec) 

ChampSim completed all CPUs

Region of Interest Statistics

CPU 0 cumulative IPC: 1.45113 instructions: 50000000 cycles: 34456002
L1D TOTAL     ACCESS:   19808430  HIT:   18163518  MISS:    1644912
L1D LOAD      ACCESS:    6949622  HIT:    6219603  MISS:     730019
L1D RFO       ACCESS:    6243559  HIT:    5956772  MISS:     286787
L1D PREFETCH  ACCESS:    6615249  HIT:    5987143  MISS:     628106
L1D WRITEBACK ACCESS:          0  HIT:          0  MISS:          0
L1D PREFETCH  REQUESTED:    6997185  ISSUED:    6855368  USEFUL:     150576  USELESS:     477542
L1D AVERAGE MISS LATENCY: 24.2805 cycles
L1I TOTAL     ACCESS:   14197554  HIT:   10570866  MISS:    3626688
L1I LOAD      ACCESS:    9442695  HIT:    9251536  MISS:     191159
L1I RFO       ACCESS:          0  HIT:          0  MISS:          0
L1I PREFETCH  ACCESS:    4754859  HIT:    1319330  MISS:    3435529
L1I WRITEBACK ACCESS:          0  HIT:          0  MISS:          0
L1I PREFETCH  REQUESTED:    5060255  ISSUED:    5060255  USEFUL:    2636555  USELESS:     798995
L1I AVERAGE MISS LATENCY: 17.7137 cycles
L2C TOTAL     ACCESS:    7167625  HIT:    6289526  MISS:     878099
L2C LOAD      ACCESS:     725649  HIT:     575859  MISS:     149790
L2C RFO       ACCESS:     284798  HIT:     179484  MISS:     105314
L2C PREFETCH  ACCESS:    5596024  HIT:    4976544  MISS:     619480
L2C WRITEBACK ACCESS:     561154  HIT:     557639  MISS:       3515
L2C PREFETCH  REQUESTED:    6267355  ISSUED:    6259890  USEFUL:      16585  USELESS:     602582
L2C AVERAGE MISS LATENCY: 38.7721 cycles
LLC TOTAL     ACCESS:    2559421  HIT:    2523031  MISS:      36390
LLC LOAD      ACCESS:     149444  HIT:     145824  MISS:       3620
LLC RFO       ACCESS:     105296  HIT:      90701  MISS:      14595
LLC PREFETCH  ACCESS:    2132526  HIT:    2114568  MISS:      17958
LLC WRITEBACK ACCESS:     172155  HIT:     171938  MISS:        217
LLC PREFETCH  REQUESTED:          0  ISSUED:          0  USEFUL:       1047  USELESS:      16611
LLC AVERAGE MISS LATENCY: 188.66 cycles
Major fault: 0 Minor fault: 2166
I-Shadow cache 408 bytes
Touched + WorthPF tables 24576 bytes 
MMA filter 174 bytes 
FNL filter 272 bytes 
TOTAL PREFETCHER STORAGE SIZE: 98134 bytes
CPU 0 L1I next line prefetcher final stats
CPU 0 L1D next line prefetcher final stats

DRAM Statistics
 CHANNEL 0
 RQ ROW_BUFFER_HIT:      12741  ROW_BUFFER_MISS:      23425
 DBUS_CONGESTED:      24095
 WQ ROW_BUFFER_HIT:       1676  ROW_BUFFER_MISS:      14494  FULL:          0

 AVG_CONGESTED_CYCLE: 6

CPU 0 Branch Prediction Accuracy: 99.822% MPKI: 0.32584 Average ROB Occupancy at Mispredict: 195.763

Branch types
NOT_BRANCH: 40848558 81.6971%
BRANCH_DIRECT_JUMP: 522045 1.04409%
BRANCH_INDIRECT: 204034 0.408068%
BRANCH_CONDITIONAL: 6212961 12.4259%
BRANCH_DIRECT_CALL: 932391 1.86478%
BRANCH_INDIRECT_CALL: 173764 0.347528%
BRANCH_RETURN: 1106152 2.2123%
BRANCH_OTHER: 0 0%

