Initialize SIGNATURE TABLE
ST_SET: 1
ST_WAY: 256
ST_TAG_BIT: 16
ST_TAG_MASK: ffff

Initialize PATTERN TABLE
PT_SET: 512
PT_WAY: 4
SIG_DELTA_BIT: 7
C_SIG_BIT: 4
C_DELTA_BIT: 4

Initialize PREFETCH FILTER
FILTER_SET: 1024

*** ChampSim Multicore Out-of-Order Simulator ***

Warmup Instructions: 50000000
Simulation Instructions: 50000000
Number of CPUs: 1
LLC sets: 2048
LLC ways: 16
Off-chip DRAM Size: 4096 MB Channels: 1 Width: 64-bit Data Rate: 3200 MT/s

CPU 0 runs /Users/gandhardeshpande/Desktop/CSE240C/HW1/ChampSim/ipc1_public/server_034.champsimtrace.xz
CPU 0 L1I next line prefetcher
Running FNL-MMA for L1I
CPU 0 L1D next line prefetcher
Heartbeat CPU 0 instructions: 10000000 cycles: 3328536 heartbeat IPC: 3.00432 cumulative IPC: 3.00432 (Simulation time: 0 hr 0 min 15 sec) 
Heartbeat CPU 0 instructions: 20000002 cycles: 6649923 heartbeat IPC: 3.01079 cumulative IPC: 3.00755 (Simulation time: 0 hr 0 min 29 sec) 
Heartbeat CPU 0 instructions: 30000003 cycles: 9979691 heartbeat IPC: 3.00321 cumulative IPC: 3.00611 (Simulation time: 0 hr 0 min 43 sec) 
Heartbeat CPU 0 instructions: 40000001 cycles: 13307292 heartbeat IPC: 3.00517 cumulative IPC: 3.00587 (Simulation time: 0 hr 0 min 58 sec) 
Heartbeat CPU 0 instructions: 50000000 cycles: 16634149 heartbeat IPC: 3.00584 cumulative IPC: 3.00586 (Simulation time: 0 hr 1 min 12 sec) 

Warmup complete CPU 0 instructions: 50000002 cycles: 16634150 (Simulation time: 0 hr 1 min 12 sec) 

Heartbeat CPU 0 instructions: 60000002 cycles: 22576398 heartbeat IPC: 1.68286 cumulative IPC: 1.68286 (Simulation time: 0 hr 1 min 27 sec) 
Heartbeat CPU 0 instructions: 70000003 cycles: 28963528 heartbeat IPC: 1.56565 cumulative IPC: 1.62214 (Simulation time: 0 hr 1 min 42 sec) 
Heartbeat CPU 0 instructions: 80000002 cycles: 34982069 heartbeat IPC: 1.66153 cumulative IPC: 1.63506 (Simulation time: 0 hr 1 min 57 sec) 
Heartbeat CPU 0 instructions: 90000002 cycles: 40999028 heartbeat IPC: 1.66197 cumulative IPC: 1.64171 (Simulation time: 0 hr 2 min 12 sec) 
Heartbeat CPU 0 instructions: 100000002 cycles: 46998872 heartbeat IPC: 1.66671 cumulative IPC: 1.64665 (Simulation time: 0 hr 2 min 27 sec) 
Finished CPU 0 instructions: 50000000 cycles: 30364722 cumulative IPC: 1.64665 (Simulation time: 0 hr 2 min 27 sec) 

ChampSim completed all CPUs

Region of Interest Statistics

CPU 0 cumulative IPC: 1.64665 instructions: 50000000 cycles: 30364722
L1D TOTAL     ACCESS:   18240456  HIT:   16816393  MISS:    1424063
L1D LOAD      ACCESS:    6129415  HIT:    5473074  MISS:     656341
L1D RFO       ACCESS:    6162922  HIT:    6020268  MISS:     142654
L1D PREFETCH  ACCESS:    5948119  HIT:    5323051  MISS:     625068
L1D WRITEBACK ACCESS:          0  HIT:          0  MISS:          0
L1D PREFETCH  REQUESTED:    6163447  ISSUED:    6074197  USEFUL:     140652  USELESS:     484385
L1D AVERAGE MISS LATENCY: 17.6643 cycles
L1I TOTAL     ACCESS:   14919890  HIT:   10942112  MISS:    3977778
L1I LOAD      ACCESS:    9663358  HIT:    9555370  MISS:     107988
L1I RFO       ACCESS:          0  HIT:          0  MISS:          0
L1I PREFETCH  ACCESS:    5256532  HIT:    1386742  MISS:    3869790
L1I WRITEBACK ACCESS:          0  HIT:          0  MISS:          0
L1I PREFETCH  REQUESTED:    5458603  ISSUED:    5458603  USEFUL:    3266341  USELESS:     603410
L1I AVERAGE MISS LATENCY: 14.6322 cycles
L2C TOTAL     ACCESS:    7253785  HIT:    7149052  MISS:     104733
L2C LOAD      ACCESS:     670581  HIT:     633970  MISS:      36611
L2C RFO       ACCESS:     140825  HIT:     132233  MISS:       8592
L2C PREFETCH  ACCESS:    6091667  HIT:    6033123  MISS:      58544
L2C WRITEBACK ACCESS:     350712  HIT:     349726  MISS:        986
L2C PREFETCH  REQUESTED:    6450606  ISSUED:    6434182  USEFUL:       3165  USELESS:      54595
L2C AVERAGE MISS LATENCY: 43.791 cycles
LLC TOTAL     ACCESS:    2235823  HIT:    2218789  MISS:      17034
LLC LOAD      ACCESS:      36526  HIT:      33389  MISS:       3137
LLC RFO       ACCESS:       8592  HIT:       8369  MISS:        223
LLC PREFETCH  ACCESS:    2152284  HIT:    2138754  MISS:      13530
LLC WRITEBACK ACCESS:      38421  HIT:      38277  MISS:        144
LLC PREFETCH  REQUESTED:          0  ISSUED:          0  USEFUL:       3563  USELESS:       7795
LLC AVERAGE MISS LATENCY: 163.156 cycles
Major fault: 0 Minor fault: 1170
I-Shadow cache 408 bytes
Touched + WorthPF tables 24576 bytes 
MMA filter 174 bytes 
FNL filter 272 bytes 
TOTAL PREFETCHER STORAGE SIZE: 98134 bytes
CPU 0 L1I next line prefetcher final stats
CPU 0 L1D next line prefetcher final stats

DRAM Statistics
 CHANNEL 0
 RQ ROW_BUFFER_HIT:       4018  ROW_BUFFER_MISS:      12864
 DBUS_CONGESTED:       7793
 WQ ROW_BUFFER_HIT:       1386  ROW_BUFFER_MISS:       3820  FULL:          0

 AVG_CONGESTED_CYCLE: 5

CPU 0 Branch Prediction Accuracy: 99.926% MPKI: 0.14472 Average ROB Occupancy at Mispredict: 262.056

Branch types
NOT_BRANCH: 40221080 80.4422%
BRANCH_DIRECT_JUMP: 771319 1.54264%
BRANCH_INDIRECT: 108663 0.217326%
BRANCH_CONDITIONAL: 6375043 12.7501%
BRANCH_DIRECT_CALL: 1049638 2.09928%
BRANCH_INDIRECT_CALL: 212283 0.424566%
BRANCH_RETURN: 1261926 2.52385%
BRANCH_OTHER: 0 0%

