Initialize SIGNATURE TABLE
ST_SET: 1
ST_WAY: 256
ST_TAG_BIT: 16
ST_TAG_MASK: ffff

Initialize PATTERN TABLE
PT_SET: 512
PT_WAY: 4
SIG_DELTA_BIT: 7
C_SIG_BIT: 4
C_DELTA_BIT: 4

Initialize PREFETCH FILTER
FILTER_SET: 1024

*** ChampSim Multicore Out-of-Order Simulator ***

Warmup Instructions: 50000000
Simulation Instructions: 50000000
Number of CPUs: 1
LLC sets: 2048
LLC ways: 16
Off-chip DRAM Size: 4096 MB Channels: 1 Width: 64-bit Data Rate: 3200 MT/s

CPU 0 runs /Users/gandhardeshpande/Desktop/CSE240C/HW1/ChampSim/ipc1_public/spec_gobmk_002.champsimtrace.xz
CPU 0 L1I next line prefetcher
Running FNL-MMA for L1I
CPU 0 L1D next line prefetcher
Heartbeat CPU 0 instructions: 10000001 cycles: 3287475 heartbeat IPC: 3.04185 cumulative IPC: 3.04185 (Simulation time: 0 hr 0 min 12 sec) 
Heartbeat CPU 0 instructions: 20000000 cycles: 6619004 heartbeat IPC: 3.00162 cumulative IPC: 3.0216 (Simulation time: 0 hr 0 min 24 sec) 
Heartbeat CPU 0 instructions: 30000000 cycles: 9956913 heartbeat IPC: 2.99589 cumulative IPC: 3.01298 (Simulation time: 0 hr 0 min 37 sec) 
Heartbeat CPU 0 instructions: 40000000 cycles: 13266266 heartbeat IPC: 3.02174 cumulative IPC: 3.01517 (Simulation time: 0 hr 0 min 49 sec) 
Heartbeat CPU 0 instructions: 50000003 cycles: 16529740 heartbeat IPC: 3.06422 cumulative IPC: 3.02485 (Simulation time: 0 hr 1 min 2 sec) 

Warmup complete CPU 0 instructions: 50000003 cycles: 16529740 (Simulation time: 0 hr 1 min 2 sec) 

Heartbeat CPU 0 instructions: 60000003 cycles: 23973089 heartbeat IPC: 1.34348 cumulative IPC: 1.34348 (Simulation time: 0 hr 1 min 11 sec) 
Heartbeat CPU 0 instructions: 70000001 cycles: 31368365 heartbeat IPC: 1.35221 cumulative IPC: 1.34783 (Simulation time: 0 hr 1 min 19 sec) 
Heartbeat CPU 0 instructions: 80000000 cycles: 38614422 heartbeat IPC: 1.38006 cumulative IPC: 1.35841 (Simulation time: 0 hr 1 min 28 sec) 
Heartbeat CPU 0 instructions: 90000001 cycles: 46182465 heartbeat IPC: 1.32135 cumulative IPC: 1.34895 (Simulation time: 0 hr 1 min 37 sec) 
Heartbeat CPU 0 instructions: 100000003 cycles: 53993124 heartbeat IPC: 1.2803 cumulative IPC: 1.33464 (Simulation time: 0 hr 1 min 45 sec) 
Finished CPU 0 instructions: 50000000 cycles: 37463384 cumulative IPC: 1.33464 (Simulation time: 0 hr 1 min 45 sec) 

ChampSim completed all CPUs

Region of Interest Statistics

CPU 0 cumulative IPC: 1.33464 instructions: 50000000 cycles: 37463384
L1D TOTAL     ACCESS:   17634073  HIT:   17510938  MISS:     123135
L1D LOAD      ACCESS:    6662421  HIT:    6628180  MISS:      34241
L1D RFO       ACCESS:    4387567  HIT:    4344882  MISS:      42685
L1D PREFETCH  ACCESS:    6584085  HIT:    6537876  MISS:      46209
L1D WRITEBACK ACCESS:          0  HIT:          0  MISS:          0
L1D PREFETCH  REQUESTED:    6664865  ISSUED:    6597514  USEFUL:      17140  USELESS:      29255
L1D AVERAGE MISS LATENCY: 50.2635 cycles
L1I TOTAL     ACCESS:   12765219  HIT:   11400760  MISS:    1364459
L1I LOAD      ACCESS:    8846256  HIT:    8701631  MISS:     144625
L1I RFO       ACCESS:          0  HIT:          0  MISS:          0
L1I PREFETCH  ACCESS:    3918963  HIT:    2699129  MISS:    1219834
L1I WRITEBACK ACCESS:          0  HIT:          0  MISS:          0
L1I PREFETCH  REQUESTED:    4035397  ISSUED:    4035397  USEFUL:     739014  USELESS:     480824
L1I AVERAGE MISS LATENCY: 14.1579 cycles
L2C TOTAL     ACCESS:    2204165  HIT:    2166823  MISS:      37342
L2C LOAD      ACCESS:     139167  HIT:     125339  MISS:      13828
L2C RFO       ACCESS:      42554  HIT:      39680  MISS:       2874
L2C PREFETCH  ACCESS:    1948231  HIT:    1927713  MISS:      20518
L2C WRITEBACK ACCESS:      74213  HIT:      74091  MISS:        122
L2C PREFETCH  REQUESTED:    1475710  ISSUED:    1475677  USEFUL:       2317  USELESS:      18679
L2C AVERAGE MISS LATENCY: 124.704 cycles
LLC TOTAL     ACCESS:     148300  HIT:     113763  MISS:      34537
LLC LOAD      ACCESS:      13828  HIT:       5272  MISS:       8556
LLC RFO       ACCESS:       2874  HIT:       1273  MISS:       1601
LLC PREFETCH  ACCESS:     113621  HIT:      89726  MISS:      23895
LLC WRITEBACK ACCESS:      17977  HIT:      17492  MISS:        485
LLC PREFETCH  REQUESTED:          0  ISSUED:          0  USEFUL:       2359  USELESS:      21156
LLC AVERAGE MISS LATENCY: 184.479 cycles
Major fault: 0 Minor fault: 2777
I-Shadow cache 408 bytes
Touched + WorthPF tables 24576 bytes 
MMA filter 174 bytes 
FNL filter 272 bytes 
TOTAL PREFETCHER STORAGE SIZE: 98134 bytes
CPU 0 L1I next line prefetcher final stats
CPU 0 L1D next line prefetcher final stats

DRAM Statistics
 CHANNEL 0
 RQ ROW_BUFFER_HIT:       2732  ROW_BUFFER_MISS:      31320
 DBUS_CONGESTED:      17706
 WQ ROW_BUFFER_HIT:        724  ROW_BUFFER_MISS:      13606  FULL:          0

 AVG_CONGESTED_CYCLE: 4

CPU 0 Branch Prediction Accuracy: 93.9974% MPKI: 10.2447 Average ROB Occupancy at Mispredict: 39.8278

Branch types
NOT_BRANCH: 41466058 82.9321%
BRANCH_DIRECT_JUMP: 464313 0.928626%
BRANCH_INDIRECT: 32 6.4e-05%
BRANCH_CONDITIONAL: 7069453 14.1389%
BRANCH_DIRECT_CALL: 499587 0.999174%
BRANCH_INDIRECT_CALL: 342 0.000684%
BRANCH_RETURN: 499906 0.999812%
BRANCH_OTHER: 0 0%

