Initialize SIGNATURE TABLE
ST_SET: 1
ST_WAY: 256
ST_TAG_BIT: 16
ST_TAG_MASK: ffff

Initialize PATTERN TABLE
PT_SET: 512
PT_WAY: 4
SIG_DELTA_BIT: 7
C_SIG_BIT: 4
C_DELTA_BIT: 4

Initialize PREFETCH FILTER
FILTER_SET: 1024

*** ChampSim Multicore Out-of-Order Simulator ***

Warmup Instructions: 50000000
Simulation Instructions: 50000000
Number of CPUs: 1
LLC sets: 2048
LLC ways: 16
Off-chip DRAM Size: 4096 MB Channels: 1 Width: 64-bit Data Rate: 3200 MT/s

CPU 0 runs /Users/gandhardeshpande/Desktop/CSE240C/HW1/ChampSim/ipc1_public/client_001.champsimtrace.xz
L1I Barca has been initializedCPU 0 L1D next line prefetcher
Heartbeat CPU 0 instructions: 10000003 cycles: 3410132 heartbeat IPC: 2.93244 cumulative IPC: 2.93244 (Simulation time: 0 hr 0 min 19 sec) 
Heartbeat CPU 0 instructions: 20000001 cycles: 7118261 heartbeat IPC: 2.69678 cumulative IPC: 2.80968 (Simulation time: 0 hr 0 min 38 sec) 
Heartbeat CPU 0 instructions: 30000001 cycles: 10480797 heartbeat IPC: 2.97395 cumulative IPC: 2.86238 (Simulation time: 0 hr 0 min 56 sec) 
Heartbeat CPU 0 instructions: 40000003 cycles: 14350502 heartbeat IPC: 2.58418 cumulative IPC: 2.78736 (Simulation time: 0 hr 1 min 15 sec) 
Heartbeat CPU 0 instructions: 50000003 cycles: 17647210 heartbeat IPC: 3.03333 cumulative IPC: 2.83331 (Simulation time: 0 hr 1 min 32 sec) 

Warmup complete CPU 0 instructions: 50000003 cycles: 17647210 (Simulation time: 0 hr 1 min 32 sec) 

Heartbeat CPU 0 instructions: 60000000 cycles: 26674989 heartbeat IPC: 1.10769 cumulative IPC: 1.10769 (Simulation time: 0 hr 1 min 51 sec) 
Heartbeat CPU 0 instructions: 70000000 cycles: 32990233 heartbeat IPC: 1.58347 cumulative IPC: 1.30352 (Simulation time: 0 hr 2 min 6 sec) 
Heartbeat CPU 0 instructions: 80000002 cycles: 42320250 heartbeat IPC: 1.07181 cumulative IPC: 1.2159 (Simulation time: 0 hr 2 min 29 sec) 
Heartbeat CPU 0 instructions: 90000000 cycles: 48507573 heartbeat IPC: 1.61621 cumulative IPC: 1.29616 (Simulation time: 0 hr 2 min 43 sec) 
Heartbeat CPU 0 instructions: 100000002 cycles: 57366770 heartbeat IPC: 1.12877 cumulative IPC: 1.25883 (Simulation time: 0 hr 3 min 3 sec) 
Finished CPU 0 instructions: 50000003 cycles: 39719561 cumulative IPC: 1.25883 (Simulation time: 0 hr 3 min 3 sec) 

ChampSim completed all CPUs

Region of Interest Statistics

CPU 0 cumulative IPC: 1.25883 instructions: 50000003 cycles: 39719561
L1D TOTAL     ACCESS:   21237787  HIT:   20401370  MISS:     836417
L1D LOAD      ACCESS:    8820480  HIT:    8425818  MISS:     394662
L1D RFO       ACCESS:    4039862  HIT:    3980822  MISS:      59040
L1D PREFETCH  ACCESS:    8377445  HIT:    7994730  MISS:     382715
L1D WRITEBACK ACCESS:          0  HIT:          0  MISS:          0
L1D PREFETCH  REQUESTED:    8865888  ISSUED:    8556242  USEFUL:     129684  USELESS:     253004
L1D AVERAGE MISS LATENCY: 47.6852 cycles
L1I TOTAL     ACCESS:    9364644  HIT:    8986263  MISS:     378381
L1I LOAD      ACCESS:    8919749  HIT:    8900214  MISS:      19535
L1I RFO       ACCESS:          0  HIT:          0  MISS:          0
L1I PREFETCH  ACCESS:     444895  HIT:      86049  MISS:     358846
L1I WRITEBACK ACCESS:          0  HIT:          0  MISS:          0
L1I PREFETCH  REQUESTED:     491480  ISSUED:     491480  USEFUL:     284304  USELESS:      74539
L1I AVERAGE MISS LATENCY: 21.0503 cycles
L2C TOTAL     ACCESS:    1861217  HIT:    1555888  MISS:     305329
L2C LOAD      ACCESS:     383083  HIT:     269265  MISS:     113818
L2C RFO       ACCESS:      58290  HIT:      21122  MISS:      37168
L2C PREFETCH  ACCESS:    1230266  HIT:    1076125  MISS:     154141
L2C WRITEBACK ACCESS:     189578  HIT:     189376  MISS:        202
L2C PREFETCH  REQUESTED:    1471136  ISSUED:    1464772  USEFUL:      13518  USELESS:     139692
L2C AVERAGE MISS LATENCY: 104.982 cycles
LLC TOTAL     ACCESS:     829085  HIT:     629466  MISS:     199619
LLC LOAD      ACCESS:     113506  HIT:      71638  MISS:      41868
LLC RFO       ACCESS:      37167  HIT:       8895  MISS:      28272
LLC PREFETCH  ACCESS:     572013  HIT:     443229  MISS:     128784
LLC WRITEBACK ACCESS:     106399  HIT:     105704  MISS:        695
LLC PREFETCH  REQUESTED:          0  ISSUED:          0  USEFUL:      28785  USELESS:     102005
LLC AVERAGE MISS LATENCY: 188.632 cycles
Major fault: 0 Minor fault: 3433
CPU 0 L1D next line prefetcher final stats

DRAM Statistics
 CHANNEL 0
 RQ ROW_BUFFER_HIT:      48054  ROW_BUFFER_MISS:     150864
 DBUS_CONGESTED:     118913
 WQ ROW_BUFFER_HIT:      16168  ROW_BUFFER_MISS:      64940  FULL:          0

 AVG_CONGESTED_CYCLE: 5

CPU 0 Branch Prediction Accuracy: 97.9037% MPKI: 3.63418 Average ROB Occupancy at Mispredict: 86.6563

Branch types
NOT_BRANCH: 41331383 82.6628%
BRANCH_DIRECT_JUMP: 455615 0.91123%
BRANCH_INDIRECT: 20390 0.04078%
BRANCH_CONDITIONAL: 6745374 13.4907%
BRANCH_DIRECT_CALL: 494532 0.989064%
BRANCH_INDIRECT_CALL: 228815 0.45763%
BRANCH_RETURN: 723560 1.44712%
BRANCH_OTHER: 0 0%

