Initialize SIGNATURE TABLE
ST_SET: 1
ST_WAY: 256
ST_TAG_BIT: 16
ST_TAG_MASK: ffff

Initialize PATTERN TABLE
PT_SET: 512
PT_WAY: 4
SIG_DELTA_BIT: 7
C_SIG_BIT: 4
C_DELTA_BIT: 4

Initialize PREFETCH FILTER
FILTER_SET: 1024

*** ChampSim Multicore Out-of-Order Simulator ***

Warmup Instructions: 50000000
Simulation Instructions: 50000000
Number of CPUs: 1
LLC sets: 2048
LLC ways: 16
Off-chip DRAM Size: 4096 MB Channels: 1 Width: 64-bit Data Rate: 3200 MT/s

CPU 0 runs /Users/gandhardeshpande/Desktop/CSE240C/HW1/ChampSim/ipc1_public/server_039.champsimtrace.xz
L1I Barca has been initializedCPU 0 L1D next line prefetcher
Heartbeat CPU 0 instructions: 10000003 cycles: 3451915 heartbeat IPC: 2.89694 cumulative IPC: 2.89694 (Simulation time: 0 hr 0 min 26 sec) 
Heartbeat CPU 0 instructions: 20000002 cycles: 6896816 heartbeat IPC: 2.90284 cumulative IPC: 2.89989 (Simulation time: 0 hr 0 min 50 sec) 
Heartbeat CPU 0 instructions: 30000001 cycles: 10343482 heartbeat IPC: 2.90135 cumulative IPC: 2.90038 (Simulation time: 0 hr 1 min 12 sec) 
Heartbeat CPU 0 instructions: 40000002 cycles: 13785582 heartbeat IPC: 2.9052 cumulative IPC: 2.90158 (Simulation time: 0 hr 1 min 34 sec) 
Heartbeat CPU 0 instructions: 50000001 cycles: 17226928 heartbeat IPC: 2.90584 cumulative IPC: 2.90243 (Simulation time: 0 hr 1 min 57 sec) 

Warmup complete CPU 0 instructions: 50000001 cycles: 17226928 (Simulation time: 0 hr 1 min 57 sec) 

Heartbeat CPU 0 instructions: 60000000 cycles: 23076819 heartbeat IPC: 1.70943 cumulative IPC: 1.70943 (Simulation time: 0 hr 2 min 18 sec) 
Heartbeat CPU 0 instructions: 70000000 cycles: 28915107 heartbeat IPC: 1.71283 cumulative IPC: 1.71113 (Simulation time: 0 hr 2 min 40 sec) 
Heartbeat CPU 0 instructions: 80000000 cycles: 34765086 heartbeat IPC: 1.70941 cumulative IPC: 1.71056 (Simulation time: 0 hr 3 min 4 sec) 
Heartbeat CPU 0 instructions: 90000001 cycles: 40603414 heartbeat IPC: 1.71282 cumulative IPC: 1.71112 (Simulation time: 0 hr 3 min 25 sec) 
Heartbeat CPU 0 instructions: 100000002 cycles: 46451772 heartbeat IPC: 1.70988 cumulative IPC: 1.71087 (Simulation time: 0 hr 3 min 47 sec) 
Finished CPU 0 instructions: 50000001 cycles: 29224844 cumulative IPC: 1.71087 (Simulation time: 0 hr 3 min 47 sec) 

ChampSim completed all CPUs

Region of Interest Statistics

CPU 0 cumulative IPC: 1.71087 instructions: 50000001 cycles: 29224844
L1D TOTAL     ACCESS:   19980380  HIT:   19485582  MISS:     494798
L1D LOAD      ACCESS:    6536004  HIT:    6314259  MISS:     221745
L1D RFO       ACCESS:    7090930  HIT:    7024035  MISS:      66895
L1D PREFETCH  ACCESS:    6353446  HIT:    6147288  MISS:     206158
L1D WRITEBACK ACCESS:          0  HIT:          0  MISS:          0
L1D PREFETCH  REQUESTED:    6551940  ISSUED:    6423714  USEFUL:      50017  USELESS:     156145
L1D AVERAGE MISS LATENCY: 15.0786 cycles
L1I TOTAL     ACCESS:   15285421  HIT:   10197046  MISS:    5088375
L1I LOAD      ACCESS:    9277436  HIT:    8897225  MISS:     380211
L1I RFO       ACCESS:          0  HIT:          0  MISS:          0
L1I PREFETCH  ACCESS:    6007985  HIT:    1299821  MISS:    4708164
L1I WRITEBACK ACCESS:          0  HIT:          0  MISS:          0
L1I PREFETCH  REQUESTED:    6978105  ISSUED:    6978105  USEFUL:    3853916  USELESS:     854262
L1I AVERAGE MISS LATENCY: 13.8004 cycles
L2C TOTAL     ACCESS:    7377867  HIT:    7377681  MISS:        186
L2C LOAD      ACCESS:     329643  HIT:     329640  MISS:          3
L2C RFO       ACCESS:      66751  HIT:      66751  MISS:          0
L2C PREFETCH  ACCESS:    6801417  HIT:    6801234  MISS:        183
L2C WRITEBACK ACCESS:     180056  HIT:     180056  MISS:          0
L2C PREFETCH  REQUESTED:    3960287  ISSUED:    3959467  USEFUL:          1  USELESS:          0
L2C AVERAGE MISS LATENCY: 37.3226 cycles
LLC TOTAL     ACCESS:     920596  HIT:     919798  MISS:        798
LLC LOAD      ACCESS:          3  HIT:          2  MISS:          1
LLC RFO       ACCESS:          0  HIT:          0  MISS:          0
LLC PREFETCH  ACCESS:     920593  HIT:     919796  MISS:        797
LLC WRITEBACK ACCESS:          0  HIT:          0  MISS:          0
LLC PREFETCH  REQUESTED:          0  ISSUED:          0  USEFUL:          2  USELESS:          0
LLC AVERAGE MISS LATENCY: 182.756 cycles
Major fault: 0 Minor fault: 356
CPU 0 L1D next line prefetcher final stats

DRAM Statistics
 CHANNEL 0
 RQ ROW_BUFFER_HIT:        115  ROW_BUFFER_MISS:        683
 DBUS_CONGESTED:         74
 WQ ROW_BUFFER_HIT:          0  ROW_BUFFER_MISS:          0  FULL:          0

 AVG_CONGESTED_CYCLE: 5

CPU 0 Branch Prediction Accuracy: 99.9091% MPKI: 0.1547 Average ROB Occupancy at Mispredict: 245.779

Branch types
NOT_BRANCH: 41495007 82.99%
BRANCH_DIRECT_JUMP: 491308 0.982616%
BRANCH_INDIRECT: 0 0%
BRANCH_CONDITIONAL: 5595259 11.1905%
BRANCH_DIRECT_CALL: 1028408 2.05682%
BRANCH_INDIRECT_CALL: 180756 0.361512%
BRANCH_RETURN: 1209170 2.41834%
BRANCH_OTHER: 0 0%

