Initialize SIGNATURE TABLE
ST_SET: 1
ST_WAY: 256
ST_TAG_BIT: 16
ST_TAG_MASK: ffff

Initialize PATTERN TABLE
PT_SET: 512
PT_WAY: 4
SIG_DELTA_BIT: 7
C_SIG_BIT: 4
C_DELTA_BIT: 4

Initialize PREFETCH FILTER
FILTER_SET: 1024

*** ChampSim Multicore Out-of-Order Simulator ***

Warmup Instructions: 50000000
Simulation Instructions: 50000000
Number of CPUs: 1
LLC sets: 2048
LLC ways: 16
Off-chip DRAM Size: 4096 MB Channels: 1 Width: 64-bit Data Rate: 3200 MT/s

CPU 0 runs /Users/gandhardeshpande/Desktop/CSE240C/HW1/ChampSim/ipc1_public/server_035.champsimtrace.xz
L1I Barca has been initializedCPU 0 L1D next line prefetcher
Heartbeat CPU 0 instructions: 10000001 cycles: 3336599 heartbeat IPC: 2.99706 cumulative IPC: 2.99706 (Simulation time: 0 hr 0 min 21 sec) 
Heartbeat CPU 0 instructions: 20000000 cycles: 6673259 heartbeat IPC: 2.99701 cumulative IPC: 2.99704 (Simulation time: 0 hr 0 min 42 sec) 
Heartbeat CPU 0 instructions: 30000000 cycles: 10006348 heartbeat IPC: 3.00022 cumulative IPC: 2.9981 (Simulation time: 0 hr 1 min 4 sec) 
Heartbeat CPU 0 instructions: 40000000 cycles: 13343789 heartbeat IPC: 2.99631 cumulative IPC: 2.99765 (Simulation time: 0 hr 1 min 26 sec) 
Heartbeat CPU 0 instructions: 50000003 cycles: 16678015 heartbeat IPC: 2.9992 cumulative IPC: 2.99796 (Simulation time: 0 hr 1 min 47 sec) 

Warmup complete CPU 0 instructions: 50000003 cycles: 16678015 (Simulation time: 0 hr 1 min 47 sec) 

Heartbeat CPU 0 instructions: 60000001 cycles: 25261452 heartbeat IPC: 1.16503 cumulative IPC: 1.16503 (Simulation time: 0 hr 2 min 10 sec) 
Heartbeat CPU 0 instructions: 70000003 cycles: 33460527 heartbeat IPC: 1.21965 cumulative IPC: 1.19172 (Simulation time: 0 hr 2 min 34 sec) 
Heartbeat CPU 0 instructions: 80000001 cycles: 41814997 heartbeat IPC: 1.19696 cumulative IPC: 1.19346 (Simulation time: 0 hr 2 min 57 sec) 
Heartbeat CPU 0 instructions: 90000002 cycles: 49515981 heartbeat IPC: 1.29854 cumulative IPC: 1.2181 (Simulation time: 0 hr 3 min 20 sec) 
Heartbeat CPU 0 instructions: 100000002 cycles: 57793875 heartbeat IPC: 1.20804 cumulative IPC: 1.21608 (Simulation time: 0 hr 3 min 43 sec) 
Finished CPU 0 instructions: 50000003 cycles: 41115861 cumulative IPC: 1.21608 (Simulation time: 0 hr 3 min 43 sec) 

ChampSim completed all CPUs

Region of Interest Statistics

CPU 0 cumulative IPC: 1.21608 instructions: 50000003 cycles: 41115861
L1D TOTAL     ACCESS:   18252254  HIT:   16748082  MISS:    1504172
L1D LOAD      ACCESS:    6157773  HIT:    5455433  MISS:     702340
L1D RFO       ACCESS:    6156677  HIT:    6004169  MISS:     152508
L1D PREFETCH  ACCESS:    5937804  HIT:    5288480  MISS:     649324
L1D WRITEBACK ACCESS:          0  HIT:          0  MISS:          0
L1D PREFETCH  REQUESTED:    6203942  ISSUED:    6103530  USEFUL:     137596  USELESS:     511733
L1D AVERAGE MISS LATENCY: 44.6427 cycles
L1I TOTAL     ACCESS:   14548118  HIT:   10242075  MISS:    4306043
L1I LOAD      ACCESS:    9646769  HIT:    9318953  MISS:     327816
L1I RFO       ACCESS:          0  HIT:          0  MISS:          0
L1I PREFETCH  ACCESS:    4901349  HIT:     923122  MISS:    3978227
L1I WRITEBACK ACCESS:          0  HIT:          0  MISS:          0
L1I PREFETCH  REQUESTED:    5594560  ISSUED:    5594560  USEFUL:    3097172  USELESS:     880996
L1I AVERAGE MISS LATENCY: 15.1401 cycles
L2C TOTAL     ACCESS:    7640353  HIT:    7321400  MISS:     318953
L2C LOAD      ACCESS:     803202  HIT:     674969  MISS:     128233
L2C RFO       ACCESS:     150634  HIT:     130518  MISS:      20116
L2C PREFETCH  ACCESS:    6321456  HIT:    6152308  MISS:     169148
L2C WRITEBACK ACCESS:     365061  HIT:     363605  MISS:       1456
L2C PREFETCH  REQUESTED:    4722446  ISSUED:    4716442  USEFUL:      13049  USELESS:     155845
L2C AVERAGE MISS LATENCY: 157.187 cycles
LLC TOTAL     ACCESS:    1894649  HIT:    1608716  MISS:     285933
LLC LOAD      ACCESS:     127924  HIT:      41515  MISS:      86409
LLC RFO       ACCESS:      20115  HIT:       8387  MISS:      11728
LLC PREFETCH  ACCESS:    1644990  HIT:    1458299  MISS:     186691
LLC WRITEBACK ACCESS:     101620  HIT:     100515  MISS:       1105
LLC PREFETCH  REQUESTED:          0  ISSUED:          0  USEFUL:      28231  USELESS:     157413
LLC AVERAGE MISS LATENCY: 215.555 cycles
Major fault: 0 Minor fault: 5547
CPU 0 L1D next line prefetcher final stats

DRAM Statistics
 CHANNEL 0
 RQ ROW_BUFFER_HIT:      71167  ROW_BUFFER_MISS:     213651
 DBUS_CONGESTED:     157528
 WQ ROW_BUFFER_HIT:      18219  ROW_BUFFER_MISS:      73057  FULL:          0

 AVG_CONGESTED_CYCLE: 5

CPU 0 Branch Prediction Accuracy: 99.9115% MPKI: 0.17232 Average ROB Occupancy at Mispredict: 210.196

Branch types
NOT_BRANCH: 40267349 80.5347%
BRANCH_DIRECT_JUMP: 771900 1.5438%
BRANCH_INDIRECT: 108179 0.216358%
BRANCH_CONDITIONAL: 6307185 12.6144%
BRANCH_DIRECT_CALL: 1060896 2.12179%
BRANCH_INDIRECT_CALL: 211720 0.42344%
BRANCH_RETURN: 1272637 2.54527%
BRANCH_OTHER: 0 0%

