Initialize SIGNATURE TABLE
ST_SET: 1
ST_WAY: 256
ST_TAG_BIT: 16
ST_TAG_MASK: ffff

Initialize PATTERN TABLE
PT_SET: 512
PT_WAY: 4
SIG_DELTA_BIT: 7
C_SIG_BIT: 4
C_DELTA_BIT: 4

Initialize PREFETCH FILTER
FILTER_SET: 1024

*** ChampSim Multicore Out-of-Order Simulator ***

Warmup Instructions: 50000000
Simulation Instructions: 50000000
Number of CPUs: 1
LLC sets: 2048
LLC ways: 16
Off-chip DRAM Size: 4096 MB Channels: 1 Width: 64-bit Data Rate: 3200 MT/s

CPU 0 runs /Users/gandhardeshpande/Desktop/CSE240C/HW1/ChampSim/ipc1_public/server_024.champsimtrace.xz
L1I Barca has been initializedCPU 0 L1D next line prefetcher
Heartbeat CPU 0 instructions: 10000000 cycles: 3500549 heartbeat IPC: 2.85669 cumulative IPC: 2.85669 (Simulation time: 0 hr 0 min 19 sec) 
Heartbeat CPU 0 instructions: 20000002 cycles: 6993464 heartbeat IPC: 2.86294 cumulative IPC: 2.85981 (Simulation time: 0 hr 0 min 39 sec) 
Heartbeat CPU 0 instructions: 30000000 cycles: 10497258 heartbeat IPC: 2.85405 cumulative IPC: 2.85789 (Simulation time: 0 hr 0 min 59 sec) 
Heartbeat CPU 0 instructions: 40000000 cycles: 13998263 heartbeat IPC: 2.85632 cumulative IPC: 2.8575 (Simulation time: 0 hr 1 min 18 sec) 
Heartbeat CPU 0 instructions: 50000001 cycles: 17488813 heartbeat IPC: 2.86488 cumulative IPC: 2.85897 (Simulation time: 0 hr 1 min 38 sec) 

Warmup complete CPU 0 instructions: 50000001 cycles: 17488813 (Simulation time: 0 hr 1 min 38 sec) 

Heartbeat CPU 0 instructions: 60000003 cycles: 24350082 heartbeat IPC: 1.45746 cumulative IPC: 1.45746 (Simulation time: 0 hr 1 min 57 sec) 
Heartbeat CPU 0 instructions: 70000000 cycles: 31236051 heartbeat IPC: 1.45223 cumulative IPC: 1.45484 (Simulation time: 0 hr 2 min 17 sec) 
*** Reached end of trace for Core: 0 Repeating trace: /Users/gandhardeshpande/Desktop/CSE240C/HW1/ChampSim/ipc1_public/server_024.champsimtrace.xz
Heartbeat CPU 0 instructions: 80000003 cycles: 38105837 heartbeat IPC: 1.45565 cumulative IPC: 1.45511 (Simulation time: 0 hr 2 min 37 sec) 
Heartbeat CPU 0 instructions: 90000003 cycles: 45016600 heartbeat IPC: 1.44702 cumulative IPC: 1.45308 (Simulation time: 0 hr 2 min 57 sec) 
Heartbeat CPU 0 instructions: 100000002 cycles: 51893076 heartbeat IPC: 1.45423 cumulative IPC: 1.45331 (Simulation time: 0 hr 3 min 17 sec) 
Finished CPU 0 instructions: 50000001 cycles: 34404263 cumulative IPC: 1.45331 (Simulation time: 0 hr 3 min 17 sec) 

ChampSim completed all CPUs

Region of Interest Statistics

CPU 0 cumulative IPC: 1.45331 instructions: 50000001 cycles: 34404263
L1D TOTAL     ACCESS:   19767567  HIT:   18249908  MISS:    1517659
L1D LOAD      ACCESS:    6972156  HIT:    6291785  MISS:     680371
L1D RFO       ACCESS:    6149635  HIT:    5875650  MISS:     273985
L1D PREFETCH  ACCESS:    6645776  HIT:    6082473  MISS:     563303
L1D WRITEBACK ACCESS:          0  HIT:          0  MISS:          0
L1D PREFETCH  REQUESTED:    7026614  ISSUED:    6907890  USEFUL:     135927  USELESS:     427381
L1D AVERAGE MISS LATENCY: 25.3847 cycles
L1I TOTAL     ACCESS:   13101281  HIT:    9690656  MISS:    3410625
L1I LOAD      ACCESS:    9239778  HIT:    8930895  MISS:     308883
L1I RFO       ACCESS:          0  HIT:          0  MISS:          0
L1I PREFETCH  ACCESS:    3861503  HIT:     759761  MISS:    3101742
L1I WRITEBACK ACCESS:          0  HIT:          0  MISS:          0
L1I PREFETCH  REQUESTED:    4451690  ISSUED:    4451690  USEFUL:    2280740  USELESS:     821006
L1I AVERAGE MISS LATENCY: 16.817 cycles
L2C TOTAL     ACCESS:    6670285  HIT:    5958538  MISS:     711747
L2C LOAD      ACCESS:     753030  HIT:     607146  MISS:     145884
L2C RFO       ACCESS:     272219  HIT:     183206  MISS:      89013
L2C PREFETCH  ACCESS:    5124870  HIT:    4655397  MISS:     469473
L2C WRITEBACK ACCESS:     520166  HIT:     512789  MISS:       7377
L2C PREFETCH  REQUESTED:    3704406  ISSUED:    3701985  USEFUL:      15685  USELESS:     453437
L2C AVERAGE MISS LATENCY: 42.2501 cycles
LLC TOTAL     ACCESS:    1890762  HIT:    1838926  MISS:      51836
LLC LOAD      ACCESS:     145714  HIT:     139921  MISS:       5793
LLC RFO       ACCESS:      88997  HIT:      66751  MISS:      22246
LLC PREFETCH  ACCESS:    1507254  HIT:    1483746  MISS:      23508
LLC WRITEBACK ACCESS:     148797  HIT:     148508  MISS:        289
LLC PREFETCH  REQUESTED:          0  ISSUED:          0  USEFUL:       1838  USELESS:      21604
LLC AVERAGE MISS LATENCY: 196.024 cycles
Major fault: 0 Minor fault: 2362
CPU 0 L1D next line prefetcher final stats

DRAM Statistics
 CHANNEL 0
 RQ ROW_BUFFER_HIT:      17629  ROW_BUFFER_MISS:      33893
 DBUS_CONGESTED:      36534
 WQ ROW_BUFFER_HIT:       2707  ROW_BUFFER_MISS:      22742  FULL:          0

 AVG_CONGESTED_CYCLE: 6

CPU 0 Branch Prediction Accuracy: 99.7477% MPKI: 0.46156 Average ROB Occupancy at Mispredict: 166.096

Branch types
NOT_BRANCH: 40853708 81.7074%
BRANCH_DIRECT_JUMP: 566821 1.13364%
BRANCH_INDIRECT: 197171 0.394342%
BRANCH_CONDITIONAL: 6308429 12.6169%
BRANCH_DIRECT_CALL: 876400 1.7528%
BRANCH_INDIRECT_CALL: 160491 0.320982%
BRANCH_RETURN: 1036885 2.07377%
BRANCH_OTHER: 0 0%

