Initialize SIGNATURE TABLE
ST_SET: 1
ST_WAY: 256
ST_TAG_BIT: 16
ST_TAG_MASK: ffff

Initialize PATTERN TABLE
PT_SET: 512
PT_WAY: 4
SIG_DELTA_BIT: 7
C_SIG_BIT: 4
C_DELTA_BIT: 4

Initialize PREFETCH FILTER
FILTER_SET: 1024

*** ChampSim Multicore Out-of-Order Simulator ***

Warmup Instructions: 50000000
Simulation Instructions: 50000000
Number of CPUs: 1
LLC sets: 2048
LLC ways: 16
Off-chip DRAM Size: 4096 MB Channels: 1 Width: 64-bit Data Rate: 3200 MT/s

CPU 0 runs /Users/gandhardeshpande/Desktop/CSE240C/HW1/ChampSim/ipc1_public/spec_gobmk_002.champsimtrace.xz
L1I Barca has been initializedCPU 0 L1D next line prefetcher
Heartbeat CPU 0 instructions: 10000001 cycles: 3287499 heartbeat IPC: 3.04183 cumulative IPC: 3.04183 (Simulation time: 0 hr 0 min 19 sec) 
Heartbeat CPU 0 instructions: 20000000 cycles: 6619061 heartbeat IPC: 3.00159 cumulative IPC: 3.02158 (Simulation time: 0 hr 0 min 36 sec) 
Heartbeat CPU 0 instructions: 30000000 cycles: 9957016 heartbeat IPC: 2.99585 cumulative IPC: 3.01295 (Simulation time: 0 hr 0 min 56 sec) 
Heartbeat CPU 0 instructions: 40000000 cycles: 13266418 heartbeat IPC: 3.02169 cumulative IPC: 3.01513 (Simulation time: 0 hr 1 min 17 sec) 
Heartbeat CPU 0 instructions: 50000003 cycles: 16529940 heartbeat IPC: 3.06418 cumulative IPC: 3.02481 (Simulation time: 0 hr 1 min 38 sec) 

Warmup complete CPU 0 instructions: 50000003 cycles: 16529940 (Simulation time: 0 hr 1 min 38 sec) 

Heartbeat CPU 0 instructions: 60000003 cycles: 23844601 heartbeat IPC: 1.36712 cumulative IPC: 1.36712 (Simulation time: 0 hr 1 min 56 sec) 
Heartbeat CPU 0 instructions: 70000003 cycles: 31109778 heartbeat IPC: 1.37643 cumulative IPC: 1.37176 (Simulation time: 0 hr 2 min 14 sec) 
Heartbeat CPU 0 instructions: 80000000 cycles: 38242562 heartbeat IPC: 1.40198 cumulative IPC: 1.38168 (Simulation time: 0 hr 2 min 32 sec) 
Heartbeat CPU 0 instructions: 90000001 cycles: 45722032 heartbeat IPC: 1.33699 cumulative IPC: 1.37023 (Simulation time: 0 hr 2 min 48 sec) 
Heartbeat CPU 0 instructions: 100000003 cycles: 53424395 heartbeat IPC: 1.2983 cumulative IPC: 1.35522 (Simulation time: 0 hr 3 min 5 sec) 
Finished CPU 0 instructions: 50000000 cycles: 36894455 cumulative IPC: 1.35522 (Simulation time: 0 hr 3 min 5 sec) 

ChampSim completed all CPUs

Region of Interest Statistics

CPU 0 cumulative IPC: 1.35522 instructions: 50000000 cycles: 36894455
L1D TOTAL     ACCESS:   17590696  HIT:   17467563  MISS:     123133
L1D LOAD      ACCESS:    6641014  HIT:    6606750  MISS:      34264
L1D RFO       ACCESS:    4387171  HIT:    4344473  MISS:      42698
L1D PREFETCH  ACCESS:    6562511  HIT:    6516340  MISS:      46171
L1D WRITEBACK ACCESS:          0  HIT:          0  MISS:          0
L1D PREFETCH  REQUESTED:    6643491  ISSUED:    6576239  USEFUL:      17097  USELESS:      29256
L1D AVERAGE MISS LATENCY: 51.15 cycles
L1I TOTAL     ACCESS:   11014268  HIT:    9395320  MISS:    1618948
L1I LOAD      ACCESS:    8845209  HIT:    8777330  MISS:      67879
L1I RFO       ACCESS:          0  HIT:          0  MISS:          0
L1I PREFETCH  ACCESS:    2169059  HIT:     617990  MISS:    1551069
L1I WRITEBACK ACCESS:          0  HIT:          0  MISS:          0
L1I PREFETCH  REQUESTED:    2335613  ISSUED:    2335613  USEFUL:     890512  USELESS:     660579
L1I AVERAGE MISS LATENCY: 14.2737 cycles
L2C TOTAL     ACCESS:    2399947  HIT:    2362433  MISS:      37514
L2C LOAD      ACCESS:      68800  HIT:      55053  MISS:      13747
L2C RFO       ACCESS:      42553  HIT:      39692  MISS:       2861
L2C PREFETCH  ACCESS:    2214386  HIT:    2193605  MISS:      20781
L2C WRITEBACK ACCESS:      74208  HIT:      74083  MISS:        125
L2C PREFETCH  REQUESTED:     942905  ISSUED:     942898  USEFUL:       2178  USELESS:      19111
L2C AVERAGE MISS LATENCY: 127.635 cycles
LLC TOTAL     ACCESS:     117792  HIT:      87294  MISS:      30498
LLC LOAD      ACCESS:      13747  HIT:       4932  MISS:       8815
LLC RFO       ACCESS:       2861  HIT:       1243  MISS:       1618
LLC PREFETCH  ACCESS:      83170  HIT:      63552  MISS:      19618
LLC WRITEBACK ACCESS:      18014  HIT:      17567  MISS:        447
LLC PREFETCH  REQUESTED:          0  ISSUED:          0  USEFUL:       2035  USELESS:      17161
LLC AVERAGE MISS LATENCY: 182.804 cycles
Major fault: 0 Minor fault: 2776
CPU 0 L1D next line prefetcher final stats

DRAM Statistics
 CHANNEL 0
 RQ ROW_BUFFER_HIT:       2632  ROW_BUFFER_MISS:      27419
 DBUS_CONGESTED:      13889
 WQ ROW_BUFFER_HIT:        749  ROW_BUFFER_MISS:      12390  FULL:          0

 AVG_CONGESTED_CYCLE: 4

CPU 0 Branch Prediction Accuracy: 93.9974% MPKI: 10.2447 Average ROB Occupancy at Mispredict: 40.8055

Branch types
NOT_BRANCH: 41466058 82.9321%
BRANCH_DIRECT_JUMP: 464313 0.928626%
BRANCH_INDIRECT: 32 6.4e-05%
BRANCH_CONDITIONAL: 7069453 14.1389%
BRANCH_DIRECT_CALL: 499587 0.999174%
BRANCH_INDIRECT_CALL: 342 0.000684%
BRANCH_RETURN: 499906 0.999812%
BRANCH_OTHER: 0 0%

