Initialize SIGNATURE TABLE
ST_SET: 1
ST_WAY: 256
ST_TAG_BIT: 16
ST_TAG_MASK: ffff

Initialize PATTERN TABLE
PT_SET: 512
PT_WAY: 4
SIG_DELTA_BIT: 7
C_SIG_BIT: 4
C_DELTA_BIT: 4

Initialize PREFETCH FILTER
FILTER_SET: 1024

*** ChampSim Multicore Out-of-Order Simulator ***

Warmup Instructions: 50000000
Simulation Instructions: 50000000
Number of CPUs: 1
LLC sets: 2048
LLC ways: 16
Off-chip DRAM Size: 4096 MB Channels: 1 Width: 64-bit Data Rate: 3200 MT/s

CPU 0 runs /Users/gandhardeshpande/Desktop/CSE240C/HW1/ChampSim/ipc1_public/server_039.champsimtrace.xz
CPU 0 L1I next line prefetcher
Running FNL-MMA for L1I
CPU 0 L1D next line prefetcher
Heartbeat CPU 0 instructions: 10000003 cycles: 3451436 heartbeat IPC: 2.89735 cumulative IPC: 2.89735 (Simulation time: 0 hr 0 min 15 sec) 
Heartbeat CPU 0 instructions: 20000002 cycles: 6895982 heartbeat IPC: 2.90314 cumulative IPC: 2.90024 (Simulation time: 0 hr 0 min 30 sec) 
Heartbeat CPU 0 instructions: 30000001 cycles: 10342355 heartbeat IPC: 2.9016 cumulative IPC: 2.90069 (Simulation time: 0 hr 0 min 45 sec) 
Heartbeat CPU 0 instructions: 40000002 cycles: 13784126 heartbeat IPC: 2.90548 cumulative IPC: 2.90189 (Simulation time: 0 hr 1 min 0 sec) 
Heartbeat CPU 0 instructions: 50000001 cycles: 17225248 heartbeat IPC: 2.90603 cumulative IPC: 2.90272 (Simulation time: 0 hr 1 min 15 sec) 

Warmup complete CPU 0 instructions: 50000001 cycles: 17225248 (Simulation time: 0 hr 1 min 15 sec) 

Heartbeat CPU 0 instructions: 60000000 cycles: 23006756 heartbeat IPC: 1.72965 cumulative IPC: 1.72965 (Simulation time: 0 hr 1 min 29 sec) 
Heartbeat CPU 0 instructions: 70000000 cycles: 28785016 heartbeat IPC: 1.73062 cumulative IPC: 1.73014 (Simulation time: 0 hr 1 min 44 sec) 
Heartbeat CPU 0 instructions: 80000000 cycles: 34561968 heartbeat IPC: 1.73102 cumulative IPC: 1.73043 (Simulation time: 0 hr 1 min 58 sec) 
Heartbeat CPU 0 instructions: 90000001 cycles: 40340837 heartbeat IPC: 1.73044 cumulative IPC: 1.73043 (Simulation time: 0 hr 2 min 13 sec) 
Heartbeat CPU 0 instructions: 100000002 cycles: 46126896 heartbeat IPC: 1.72829 cumulative IPC: 1.73001 (Simulation time: 0 hr 2 min 28 sec) 
Finished CPU 0 instructions: 50000001 cycles: 28901648 cumulative IPC: 1.73001 (Simulation time: 0 hr 2 min 28 sec) 

ChampSim completed all CPUs

Region of Interest Statistics

CPU 0 cumulative IPC: 1.73001 instructions: 50000001 cycles: 28901648
L1D TOTAL     ACCESS:   19880692  HIT:   19386055  MISS:     494637
L1D LOAD      ACCESS:    6489381  HIT:    6267804  MISS:     221577
L1D RFO       ACCESS:    7089256  HIT:    7022428  MISS:      66828
L1D PREFETCH  ACCESS:    6302055  HIT:    6095823  MISS:     206232
L1D WRITEBACK ACCESS:          0  HIT:          0  MISS:          0
L1D PREFETCH  REQUESTED:    6505067  ISSUED:    6372245  USEFUL:      50090  USELESS:     156146
L1D AVERAGE MISS LATENCY: 15.0747 cycles
L1I TOTAL     ACCESS:   16318876  HIT:   11304996  MISS:    5013880
L1I LOAD      ACCESS:    9390606  HIT:    9373997  MISS:      16609
L1I RFO       ACCESS:          0  HIT:          0  MISS:          0
L1I PREFETCH  ACCESS:    6928270  HIT:    1930999  MISS:    4997271
L1I WRITEBACK ACCESS:          0  HIT:          0  MISS:          0
L1I PREFETCH  REQUESTED:    7138472  ISSUED:    7138472  USEFUL:    4217538  USELESS:     779775
L1I AVERAGE MISS LATENCY: 14.6771 cycles
L2C TOTAL     ACCESS:    7454826  HIT:    7454756  MISS:         70
L2C LOAD      ACCESS:     219668  HIT:     219665  MISS:          3
L2C RFO       ACCESS:      66752  HIT:      66752  MISS:          0
L2C PREFETCH  ACCESS:    6988385  HIT:    6988318  MISS:         67
L2C WRITEBACK ACCESS:     180021  HIT:     180021  MISS:          0
L2C PREFETCH  REQUESTED:    5911093  ISSUED:    5908882  USEFUL:          1  USELESS:          0
L2C AVERAGE MISS LATENCY: 60.4571 cycles
LLC TOTAL     ACCESS:     947891  HIT:     947496  MISS:        395
LLC LOAD      ACCESS:          3  HIT:          2  MISS:          1
LLC RFO       ACCESS:          0  HIT:          0  MISS:          0
LLC PREFETCH  ACCESS:     947888  HIT:     947494  MISS:        394
LLC WRITEBACK ACCESS:          0  HIT:          0  MISS:          0
LLC PREFETCH  REQUESTED:          0  ISSUED:          0  USEFUL:          2  USELESS:          0
LLC AVERAGE MISS LATENCY: 174.408 cycles
Major fault: 0 Minor fault: 356
I-Shadow cache 408 bytes
Touched + WorthPF tables 24576 bytes 
MMA filter 174 bytes 
FNL filter 272 bytes 
TOTAL PREFETCHER STORAGE SIZE: 98134 bytes
CPU 0 L1I next line prefetcher final stats
CPU 0 L1D next line prefetcher final stats

DRAM Statistics
 CHANNEL 0
 RQ ROW_BUFFER_HIT:         70  ROW_BUFFER_MISS:        325
 DBUS_CONGESTED:         65
 WQ ROW_BUFFER_HIT:          0  ROW_BUFFER_MISS:          0  FULL:          0

 AVG_CONGESTED_CYCLE: 6

CPU 0 Branch Prediction Accuracy: 99.9091% MPKI: 0.1547 Average ROB Occupancy at Mispredict: 301.322

Branch types
NOT_BRANCH: 41495041 82.9901%
BRANCH_DIRECT_JUMP: 491309 0.982618%
BRANCH_INDIRECT: 0 0%
BRANCH_CONDITIONAL: 5595263 11.1905%
BRANCH_DIRECT_CALL: 1028409 2.05682%
BRANCH_INDIRECT_CALL: 180757 0.361514%
BRANCH_RETURN: 1209171 2.41834%
BRANCH_OTHER: 0 0%

