Initialize SIGNATURE TABLE
ST_SET: 1
ST_WAY: 256
ST_TAG_BIT: 16
ST_TAG_MASK: ffff

Initialize PATTERN TABLE
PT_SET: 512
PT_WAY: 4
SIG_DELTA_BIT: 7
C_SIG_BIT: 4
C_DELTA_BIT: 4

Initialize PREFETCH FILTER
FILTER_SET: 1024

*** ChampSim Multicore Out-of-Order Simulator ***

Warmup Instructions: 50000000
Simulation Instructions: 50000000
Number of CPUs: 1
LLC sets: 2048
LLC ways: 16
Off-chip DRAM Size: 4096 MB Channels: 1 Width: 64-bit Data Rate: 3200 MT/s

CPU 0 runs /Users/gandhardeshpande/Desktop/CSE240C/HW1/ChampSim/ipc1_public/spec_perlbench_001.champsimtrace.xz
CPU 0 L1I next line prefetcher
Running FNL-MMA for L1I
CPU 0 L1D next line prefetcher
Heartbeat CPU 0 instructions: 10000000 cycles: 3275767 heartbeat IPC: 3.05272 cumulative IPC: 3.05272 (Simulation time: 0 hr 0 min 13 sec) 
Heartbeat CPU 0 instructions: 20000000 cycles: 6540263 heartbeat IPC: 3.06326 cumulative IPC: 3.05798 (Simulation time: 0 hr 0 min 26 sec) 
Heartbeat CPU 0 instructions: 30000002 cycles: 9856669 heartbeat IPC: 3.01531 cumulative IPC: 3.04362 (Simulation time: 0 hr 0 min 40 sec) 
Heartbeat CPU 0 instructions: 40000002 cycles: 13112126 heartbeat IPC: 3.07177 cumulative IPC: 3.05061 (Simulation time: 0 hr 0 min 53 sec) 
Heartbeat CPU 0 instructions: 50000001 cycles: 16385974 heartbeat IPC: 3.05451 cumulative IPC: 3.05139 (Simulation time: 0 hr 1 min 6 sec) 

Warmup complete CPU 0 instructions: 50000001 cycles: 16385974 (Simulation time: 0 hr 1 min 6 sec) 

Heartbeat CPU 0 instructions: 60000001 cycles: 24679310 heartbeat IPC: 1.20579 cumulative IPC: 1.20579 (Simulation time: 0 hr 1 min 18 sec) 
Heartbeat CPU 0 instructions: 70000003 cycles: 32812971 heartbeat IPC: 1.22946 cumulative IPC: 1.21751 (Simulation time: 0 hr 1 min 30 sec) 
Heartbeat CPU 0 instructions: 80000000 cycles: 41216462 heartbeat IPC: 1.18998 cumulative IPC: 1.20819 (Simulation time: 0 hr 1 min 42 sec) 
Heartbeat CPU 0 instructions: 90000000 cycles: 46937715 heartbeat IPC: 1.74787 cumulative IPC: 1.30925 (Simulation time: 0 hr 1 min 51 sec) 
Heartbeat CPU 0 instructions: 100000002 cycles: 52809082 heartbeat IPC: 1.70318 cumulative IPC: 1.37275 (Simulation time: 0 hr 2 min 1 sec) 
Finished CPU 0 instructions: 50000001 cycles: 36423108 cumulative IPC: 1.37275 (Simulation time: 0 hr 2 min 1 sec) 

ChampSim completed all CPUs

Region of Interest Statistics

CPU 0 cumulative IPC: 1.37275 instructions: 50000001 cycles: 36423108
L1D TOTAL     ACCESS:   20701980  HIT:   20286884  MISS:     415096
L1D LOAD      ACCESS:    7180374  HIT:    6966710  MISS:     213664
L1D RFO       ACCESS:    6542534  HIT:    6524017  MISS:      18517
L1D PREFETCH  ACCESS:    6979072  HIT:    6796157  MISS:     182915
L1D WRITEBACK ACCESS:          0  HIT:          0  MISS:          0
L1D PREFETCH  REQUESTED:    7196036  ISSUED:    7079529  USEFUL:      55222  USELESS:     127688
L1D AVERAGE MISS LATENCY: 57.6891 cycles
L1I TOTAL     ACCESS:   10808985  HIT:   10142476  MISS:     666509
L1I LOAD      ACCESS:    9151951  HIT:    9061705  MISS:      90246
L1I RFO       ACCESS:          0  HIT:          0  MISS:          0
L1I PREFETCH  ACCESS:    1657034  HIT:    1080771  MISS:     576263
L1I WRITEBACK ACCESS:          0  HIT:          0  MISS:          0
L1I PREFETCH  REQUESTED:    1716715  ISSUED:    1716715  USEFUL:     359719  USELESS:     216532
L1I AVERAGE MISS LATENCY: 17.295 cycles
L2C TOTAL     ACCESS:    1501001  HIT:    1331811  MISS:     169190
L2C LOAD      ACCESS:     285671  HIT:     204023  MISS:      81648
L2C RFO       ACCESS:      18278  HIT:      12846  MISS:       5432
L2C PREFETCH  ACCESS:    1118116  HIT:    1036358  MISS:      81758
L2C WRITEBACK ACCESS:      78936  HIT:      78584  MISS:        352
L2C PREFETCH  REQUESTED:    1167627  ISSUED:    1167611  USEFUL:       6487  USELESS:      75344
L2C AVERAGE MISS LATENCY: 117.718 cycles
LLC TOTAL     ACCESS:     447434  HIT:     302226  MISS:     145208
LLC LOAD      ACCESS:      81644  HIT:      33377  MISS:      48267
LLC RFO       ACCESS:       5432  HIT:       2443  MISS:       2989
LLC PREFETCH  ACCESS:     334922  HIT:     241498  MISS:      93424
LLC WRITEBACK ACCESS:      25436  HIT:      24908  MISS:        528
LLC PREFETCH  REQUESTED:          0  ISSUED:          0  USEFUL:      15563  USELESS:      77996
LLC AVERAGE MISS LATENCY: 159.782 cycles
Major fault: 0 Minor fault: 6365
I-Shadow cache 408 bytes
Touched + WorthPF tables 24576 bytes 
MMA filter 174 bytes 
FNL filter 272 bytes 
TOTAL PREFETCHER STORAGE SIZE: 98134 bytes
CPU 0 L1I next line prefetcher final stats
CPU 0 L1D next line prefetcher final stats

DRAM Statistics
 CHANNEL 0
 RQ ROW_BUFFER_HIT:      32608  ROW_BUFFER_MISS:     112069
 DBUS_CONGESTED:      61702
 WQ ROW_BUFFER_HIT:       4171  ROW_BUFFER_MISS:      13303  FULL:          0

 AVG_CONGESTED_CYCLE: 4

CPU 0 Branch Prediction Accuracy: 98.7418% MPKI: 2.47758 Average ROB Occupancy at Mispredict: 77.8072

Branch types
NOT_BRANCH: 40154100 80.3082%
BRANCH_DIRECT_JUMP: 817094 1.63419%
BRANCH_INDIRECT: 303787 0.607574%
BRANCH_CONDITIONAL: 7492103 14.9842%
BRANCH_DIRECT_CALL: 471777 0.943554%
BRANCH_INDIRECT_CALL: 144546 0.289092%
BRANCH_RETURN: 616324 1.23265%
BRANCH_OTHER: 0 0%

