Initialize SIGNATURE TABLE
ST_SET: 1
ST_WAY: 256
ST_TAG_BIT: 16
ST_TAG_MASK: ffff

Initialize PATTERN TABLE
PT_SET: 512
PT_WAY: 4
SIG_DELTA_BIT: 7
C_SIG_BIT: 4
C_DELTA_BIT: 4

Initialize PREFETCH FILTER
FILTER_SET: 1024

*** ChampSim Multicore Out-of-Order Simulator ***

Warmup Instructions: 50000000
Simulation Instructions: 50000000
Number of CPUs: 1
LLC sets: 2048
LLC ways: 16
Off-chip DRAM Size: 4096 MB Channels: 1 Width: 64-bit Data Rate: 3200 MT/s

CPU 0 runs /Users/gandhardeshpande/Desktop/CSE240C/HW1/ChampSim/ipc1_public/client_001.champsimtrace.xz
CPU 0 L1I next line prefetcher
Running FNL-MMA for L1I
CPU 0 L1D next line prefetcher
Heartbeat CPU 0 instructions: 10000003 cycles: 3409971 heartbeat IPC: 2.93258 cumulative IPC: 2.93258 (Simulation time: 0 hr 0 min 14 sec) 
Heartbeat CPU 0 instructions: 20000001 cycles: 7118224 heartbeat IPC: 2.69669 cumulative IPC: 2.80969 (Simulation time: 0 hr 0 min 27 sec) 
Heartbeat CPU 0 instructions: 30000001 cycles: 10480732 heartbeat IPC: 2.97397 cumulative IPC: 2.8624 (Simulation time: 0 hr 0 min 40 sec) 
Heartbeat CPU 0 instructions: 40000003 cycles: 14350350 heartbeat IPC: 2.58423 cumulative IPC: 2.78739 (Simulation time: 0 hr 0 min 55 sec) 
Heartbeat CPU 0 instructions: 50000003 cycles: 17647161 heartbeat IPC: 3.03323 cumulative IPC: 2.83332 (Simulation time: 0 hr 1 min 8 sec) 

Warmup complete CPU 0 instructions: 50000003 cycles: 17647161 (Simulation time: 0 hr 1 min 8 sec) 

Heartbeat CPU 0 instructions: 60000000 cycles: 26638076 heartbeat IPC: 1.11223 cumulative IPC: 1.11223 (Simulation time: 0 hr 1 min 21 sec) 
Heartbeat CPU 0 instructions: 70000000 cycles: 32964680 heartbeat IPC: 1.58063 cumulative IPC: 1.30569 (Simulation time: 0 hr 1 min 32 sec) 
Heartbeat CPU 0 instructions: 80000002 cycles: 42287829 heartbeat IPC: 1.0726 cumulative IPC: 1.2175 (Simulation time: 0 hr 1 min 46 sec) 
Heartbeat CPU 0 instructions: 90000000 cycles: 48487514 heartbeat IPC: 1.61298 cumulative IPC: 1.297 (Simulation time: 0 hr 1 min 56 sec) 
Heartbeat CPU 0 instructions: 100000002 cycles: 57329150 heartbeat IPC: 1.13101 cumulative IPC: 1.26002 (Simulation time: 0 hr 2 min 8 sec) 
Finished CPU 0 instructions: 50000003 cycles: 39681990 cumulative IPC: 1.26002 (Simulation time: 0 hr 2 min 8 sec) 

ChampSim completed all CPUs

Region of Interest Statistics

CPU 0 cumulative IPC: 1.26002 instructions: 50000003 cycles: 39681990
L1D TOTAL     ACCESS:   21213509  HIT:   20377107  MISS:     836402
L1D LOAD      ACCESS:    8808838  HIT:    8413842  MISS:     394996
L1D RFO       ACCESS:    4040231  HIT:    3981203  MISS:      59028
L1D PREFETCH  ACCESS:    8364440  HIT:    7982062  MISS:     382378
L1D WRITEBACK ACCESS:          0  HIT:          0  MISS:          0
L1D PREFETCH  REQUESTED:    8854207  ISSUED:    8544346  USEFUL:     129364  USELESS:     252988
L1D AVERAGE MISS LATENCY: 47.6266 cycles
L1I TOTAL     ACCESS:   10251832  HIT:    9778760  MISS:     473072
L1I LOAD      ACCESS:    8925823  HIT:    8913373  MISS:      12450
L1I RFO       ACCESS:          0  HIT:          0  MISS:          0
L1I PREFETCH  ACCESS:    1326009  HIT:     865387  MISS:     460622
L1I WRITEBACK ACCESS:          0  HIT:          0  MISS:          0
L1I PREFETCH  REQUESTED:    1356056  ISSUED:    1356049  USEFUL:     324685  USELESS:     135841
L1I AVERAGE MISS LATENCY: 20.2437 cycles
L2C TOTAL     ACCESS:    1991529  HIT:    1685544  MISS:     305985
L2C LOAD      ACCESS:     382535  HIT:     269013  MISS:     113522
L2C RFO       ACCESS:      58255  HIT:      21191  MISS:      37064
L2C PREFETCH  ACCESS:    1361156  HIT:    1205967  MISS:     155189
L2C WRITEBACK ACCESS:     189583  HIT:     189373  MISS:        210
L2C PREFETCH  REQUESTED:    1742556  ISSUED:    1737691  USEFUL:      13529  USELESS:     140592
L2C AVERAGE MISS LATENCY: 105.156 cycles
LLC TOTAL     ACCESS:     813221  HIT:     617050  MISS:     196171
LLC LOAD      ACCESS:     113196  HIT:      70910  MISS:      42286
LLC RFO       ACCESS:      37064  HIT:       9039  MISS:      28025
LLC PREFETCH  ACCESS:     556511  HIT:     431278  MISS:     125233
LLC WRITEBACK ACCESS:     106450  HIT:     105823  MISS:        627
LLC PREFETCH  REQUESTED:          0  ISSUED:          0  USEFUL:      28064  USELESS:      99030
LLC AVERAGE MISS LATENCY: 187.727 cycles
Major fault: 0 Minor fault: 3434
I-Shadow cache 408 bytes
Touched + WorthPF tables 24576 bytes 
MMA filter 174 bytes 
FNL filter 272 bytes 
TOTAL PREFETCHER STORAGE SIZE: 98134 bytes
CPU 0 L1I next line prefetcher final stats
CPU 0 L1D next line prefetcher final stats

DRAM Statistics
 CHANNEL 0
 RQ ROW_BUFFER_HIT:      47939  ROW_BUFFER_MISS:     147600
 DBUS_CONGESTED:     117574
 WQ ROW_BUFFER_HIT:      15919  ROW_BUFFER_MISS:      65011  FULL:          0

 AVG_CONGESTED_CYCLE: 5

CPU 0 Branch Prediction Accuracy: 97.9037% MPKI: 3.63418 Average ROB Occupancy at Mispredict: 87.0497

Branch types
NOT_BRANCH: 41331383 82.6628%
BRANCH_DIRECT_JUMP: 455615 0.91123%
BRANCH_INDIRECT: 20390 0.04078%
BRANCH_CONDITIONAL: 6745374 13.4907%
BRANCH_DIRECT_CALL: 494532 0.989064%
BRANCH_INDIRECT_CALL: 228815 0.45763%
BRANCH_RETURN: 723560 1.44712%
BRANCH_OTHER: 0 0%

