Initialize SIGNATURE TABLE
ST_SET: 1
ST_WAY: 256
ST_TAG_BIT: 16
ST_TAG_MASK: ffff

Initialize PATTERN TABLE
PT_SET: 512
PT_WAY: 4
SIG_DELTA_BIT: 7
C_SIG_BIT: 4
C_DELTA_BIT: 4

Initialize PREFETCH FILTER
FILTER_SET: 1024

*** ChampSim Multicore Out-of-Order Simulator ***

Warmup Instructions: 50000000
Simulation Instructions: 50000000
Number of CPUs: 1
LLC sets: 2048
LLC ways: 16
Off-chip DRAM Size: 4096 MB Channels: 1 Width: 64-bit Data Rate: 3200 MT/s

CPU 0 runs /Users/gandhardeshpande/Desktop/CSE240C/HW1/ChampSim/ipc1_public/server_010.champsimtrace.xz
CPU 0 L1I next line prefetcher
Running FNL-MMA for L1I
CPU 0 L1D next line prefetcher
Heartbeat CPU 0 instructions: 10000000 cycles: 3194033 heartbeat IPC: 3.13084 cumulative IPC: 3.13084 (Simulation time: 0 hr 0 min 14 sec) 
Heartbeat CPU 0 instructions: 20000002 cycles: 6384201 heartbeat IPC: 3.13463 cumulative IPC: 3.13273 (Simulation time: 0 hr 0 min 27 sec) 
Heartbeat CPU 0 instructions: 30000001 cycles: 9577740 heartbeat IPC: 3.13132 cumulative IPC: 3.13226 (Simulation time: 0 hr 0 min 41 sec) 
Heartbeat CPU 0 instructions: 40000000 cycles: 12767637 heartbeat IPC: 3.1349 cumulative IPC: 3.13292 (Simulation time: 0 hr 0 min 54 sec) 
Heartbeat CPU 0 instructions: 50000003 cycles: 15963361 heartbeat IPC: 3.12918 cumulative IPC: 3.13217 (Simulation time: 0 hr 1 min 8 sec) 

Warmup complete CPU 0 instructions: 50000003 cycles: 15963361 (Simulation time: 0 hr 1 min 8 sec) 

Heartbeat CPU 0 instructions: 60000001 cycles: 23123200 heartbeat IPC: 1.39668 cumulative IPC: 1.39668 (Simulation time: 0 hr 1 min 20 sec) 
Heartbeat CPU 0 instructions: 70000000 cycles: 30346365 heartbeat IPC: 1.38443 cumulative IPC: 1.39053 (Simulation time: 0 hr 1 min 33 sec) 
Heartbeat CPU 0 instructions: 80000003 cycles: 37644120 heartbeat IPC: 1.37028 cumulative IPC: 1.38372 (Simulation time: 0 hr 1 min 45 sec) 
Heartbeat CPU 0 instructions: 90000002 cycles: 44687813 heartbeat IPC: 1.41971 cumulative IPC: 1.39254 (Simulation time: 0 hr 1 min 57 sec) 
Heartbeat CPU 0 instructions: 100000003 cycles: 65299812 heartbeat IPC: 0.485154 cumulative IPC: 1.01345 (Simulation time: 0 hr 2 min 18 sec) 
Finished CPU 0 instructions: 50000000 cycles: 49336451 cumulative IPC: 1.01345 (Simulation time: 0 hr 2 min 18 sec) 

ChampSim completed all CPUs

Region of Interest Statistics

CPU 0 cumulative IPC: 1.01345 instructions: 50000000 cycles: 49336451
L1D TOTAL     ACCESS:   19883040  HIT:   16657944  MISS:    3225096
L1D LOAD      ACCESS:    7698334  HIT:    6104448  MISS:    1593886
L1D RFO       ACCESS:    4710382  HIT:    4616051  MISS:      94331
L1D PREFETCH  ACCESS:    7474324  HIT:    5937445  MISS:    1536879
L1D WRITEBACK ACCESS:          0  HIT:          0  MISS:          0
L1D PREFETCH  REQUESTED:    7731676  ISSUED:    7634746  USEFUL:     116391  USELESS:    1420460
L1D AVERAGE MISS LATENCY: 22.8052 cycles
L1I TOTAL     ACCESS:   12798944  HIT:   11052473  MISS:    1746471
L1I LOAD      ACCESS:    9948416  HIT:    9820224  MISS:     128192
L1I RFO       ACCESS:          0  HIT:          0  MISS:          0
L1I PREFETCH  ACCESS:    2850528  HIT:    1232249  MISS:    1618279
L1I WRITEBACK ACCESS:          0  HIT:          0  MISS:          0
L1I PREFETCH  REQUESTED:    3019562  ISSUED:    3019355  USEFUL:    1126277  USELESS:     492063
L1I AVERAGE MISS LATENCY: 28.8655 cycles
L2C TOTAL     ACCESS:    6297726  HIT:    5134887  MISS:    1162839
L2C LOAD      ACCESS:    1599368  HIT:    1371259  MISS:     228109
L2C RFO       ACCESS:      93281  HIT:      48100  MISS:      45181
L2C PREFETCH  ACCESS:    4339727  HIT:    3451660  MISS:     888067
L2C WRITEBACK ACCESS:     265350  HIT:     263868  MISS:       1482
L2C PREFETCH  REQUESTED:    5643497  ISSUED:    5641649  USEFUL:      22642  USELESS:     866613
L2C AVERAGE MISS LATENCY: 46.5731 cycles
LLC TOTAL     ACCESS:    2343901  HIT:    2217968  MISS:     125933
LLC LOAD      ACCESS:     228006  HIT:     211585  MISS:      16421
LLC RFO       ACCESS:      45180  HIT:      35716  MISS:       9464
LLC PREFETCH  ACCESS:    1919206  HIT:    1819300  MISS:      99906
LLC WRITEBACK ACCESS:     151509  HIT:     151367  MISS:        142
LLC PREFETCH  REQUESTED:          0  ISSUED:          0  USEFUL:       8899  USELESS:      91522
LLC AVERAGE MISS LATENCY: 174.806 cycles
Major fault: 0 Minor fault: 5597
I-Shadow cache 408 bytes
Touched + WorthPF tables 24576 bytes 
MMA filter 174 bytes 
FNL filter 272 bytes 
TOTAL PREFETCHER STORAGE SIZE: 98134 bytes
CPU 0 L1I next line prefetcher final stats
CPU 0 L1D next line prefetcher final stats

DRAM Statistics
 CHANNEL 0
 RQ ROW_BUFFER_HIT:      19362  ROW_BUFFER_MISS:     106415
 DBUS_CONGESTED:      56451
 WQ ROW_BUFFER_HIT:      10253  ROW_BUFFER_MISS:      43622  FULL:          0

 AVG_CONGESTED_CYCLE: 5

CPU 0 Branch Prediction Accuracy: 99.5528% MPKI: 0.89798 Average ROB Occupancy at Mispredict: 128.964

Branch types
NOT_BRANCH: 39958786 79.9176%
BRANCH_DIRECT_JUMP: 449946 0.899892%
BRANCH_INDIRECT: 140210 0.28042%
BRANCH_CONDITIONAL: 7679676 15.3594%
BRANCH_DIRECT_CALL: 701578 1.40316%
BRANCH_INDIRECT_CALL: 168971 0.337942%
BRANCH_RETURN: 900560 1.80112%
BRANCH_OTHER: 0 0%

