Initialize SIGNATURE TABLE
ST_SET: 1
ST_WAY: 256
ST_TAG_BIT: 16
ST_TAG_MASK: ffff

Initialize PATTERN TABLE
PT_SET: 512
PT_WAY: 4
SIG_DELTA_BIT: 7
C_SIG_BIT: 4
C_DELTA_BIT: 4

Initialize PREFETCH FILTER
FILTER_SET: 1024

*** ChampSim Multicore Out-of-Order Simulator ***

Warmup Instructions: 50000000
Simulation Instructions: 50000000
Number of CPUs: 1
LLC sets: 2048
LLC ways: 16
Off-chip DRAM Size: 4096 MB Channels: 1 Width: 64-bit Data Rate: 3200 MT/s

CPU 0 runs /Users/gandhardeshpande/Desktop/CSE240C/HW1/ChampSim/ipc1_public/server_033.champsimtrace.xz
CPU 0 L1I next line prefetcher
Running FNL-MMA for L1I
CPU 0 L1D next line prefetcher
Heartbeat CPU 0 instructions: 10000001 cycles: 3339741 heartbeat IPC: 2.99424 cumulative IPC: 2.99424 (Simulation time: 0 hr 0 min 14 sec) 
Heartbeat CPU 0 instructions: 20000002 cycles: 6677890 heartbeat IPC: 2.99567 cumulative IPC: 2.99496 (Simulation time: 0 hr 0 min 29 sec) 
Heartbeat CPU 0 instructions: 30000001 cycles: 10005959 heartbeat IPC: 3.00475 cumulative IPC: 2.99821 (Simulation time: 0 hr 0 min 44 sec) 
Heartbeat CPU 0 instructions: 40000000 cycles: 13342661 heartbeat IPC: 2.99697 cumulative IPC: 2.9979 (Simulation time: 0 hr 0 min 59 sec) 
Heartbeat CPU 0 instructions: 50000000 cycles: 16678979 heartbeat IPC: 2.99732 cumulative IPC: 2.99779 (Simulation time: 0 hr 1 min 13 sec) 

Warmup complete CPU 0 instructions: 50000004 cycles: 16678980 (Simulation time: 0 hr 1 min 13 sec) 

Heartbeat CPU 0 instructions: 60000000 cycles: 23273716 heartbeat IPC: 1.51636 cumulative IPC: 1.51636 (Simulation time: 0 hr 1 min 29 sec) 
Heartbeat CPU 0 instructions: 70000000 cycles: 29822033 heartbeat IPC: 1.52711 cumulative IPC: 1.52172 (Simulation time: 0 hr 1 min 44 sec) 
Heartbeat CPU 0 instructions: 80000000 cycles: 37180688 heartbeat IPC: 1.35894 cumulative IPC: 1.46329 (Simulation time: 0 hr 2 min 0 sec) 
Heartbeat CPU 0 instructions: 90000003 cycles: 43837910 heartbeat IPC: 1.50213 cumulative IPC: 1.47281 (Simulation time: 0 hr 2 min 15 sec) 
Heartbeat CPU 0 instructions: 100000003 cycles: 50435636 heartbeat IPC: 1.51567 cumulative IPC: 1.48119 (Simulation time: 0 hr 2 min 30 sec) 
Finished CPU 0 instructions: 50000003 cycles: 33756657 cumulative IPC: 1.48119 (Simulation time: 0 hr 2 min 30 sec) 

ChampSim completed all CPUs

Region of Interest Statistics

CPU 0 cumulative IPC: 1.48119 instructions: 50000003 cycles: 33756657
L1D TOTAL     ACCESS:   18233165  HIT:   16750875  MISS:    1482290
L1D LOAD      ACCESS:    6141806  HIT:    5458225  MISS:     683581
L1D RFO       ACCESS:    6164873  HIT:    6015601  MISS:     149272
L1D PREFETCH  ACCESS:    5926486  HIT:    5277049  MISS:     649437
L1D WRITEBACK ACCESS:          0  HIT:          0  MISS:          0
L1D PREFETCH  REQUESTED:    6183317  ISSUED:    6063355  USEFUL:     141184  USELESS:     508259
L1D AVERAGE MISS LATENCY: 23.9478 cycles
L1I TOTAL     ACCESS:   15358563  HIT:   11235983  MISS:    4122580
L1I LOAD      ACCESS:    9697804  HIT:    9646273  MISS:      51531
L1I RFO       ACCESS:          0  HIT:          0  MISS:          0
L1I PREFETCH  ACCESS:    5660759  HIT:    1589710  MISS:    4071049
L1I WRITEBACK ACCESS:          0  HIT:          0  MISS:          0
L1I PREFETCH  REQUESTED:    5850262  ISSUED:    5850254  USEFUL:    3342233  USELESS:     728770
L1I AVERAGE MISS LATENCY: 15.2687 cycles
L2C TOTAL     ACCESS:    7415957  HIT:    7122831  MISS:     293126
L2C LOAD      ACCESS:     686158  HIT:     567654  MISS:     118504
L2C RFO       ACCESS:     147906  HIT:     128594  MISS:      19312
L2C PREFETCH  ACCESS:    6215404  HIT:    6061331  MISS:     154073
L2C WRITEBACK ACCESS:     366489  HIT:     365252  MISS:       1237
L2C PREFETCH  REQUESTED:    7336225  ISSUED:    7313360  USEFUL:       9713  USELESS:     144067
L2C AVERAGE MISS LATENCY: 52.691 cycles
LLC TOTAL     ACCESS:    2698432  HIT:    2622615  MISS:      75817
LLC LOAD      ACCESS:     118407  HIT:     103067  MISS:      15340
LLC RFO       ACCESS:      19301  HIT:      16402  MISS:       2899
LLC PREFETCH  ACCESS:    2458245  HIT:    2401135  MISS:      57110
LLC WRITEBACK ACCESS:     102479  HIT:     102011  MISS:        468
LLC PREFETCH  REQUESTED:          0  ISSUED:          0  USEFUL:       8542  USELESS:      46222
LLC AVERAGE MISS LATENCY: 175.898 cycles
Major fault: 0 Minor fault: 2482
I-Shadow cache 408 bytes
Touched + WorthPF tables 24576 bytes 
MMA filter 174 bytes 
FNL filter 272 bytes 
TOTAL PREFETCHER STORAGE SIZE: 98134 bytes
CPU 0 L1I next line prefetcher final stats
CPU 0 L1D next line prefetcher final stats

DRAM Statistics
 CHANNEL 0
 RQ ROW_BUFFER_HIT:      11493  ROW_BUFFER_MISS:      63843
 DBUS_CONGESTED:      32273
 WQ ROW_BUFFER_HIT:       4361  ROW_BUFFER_MISS:      19842  FULL:          0

 AVG_CONGESTED_CYCLE: 5

CPU 0 Branch Prediction Accuracy: 99.9029% MPKI: 0.19006 Average ROB Occupancy at Mispredict: 253.531

Branch types
NOT_BRANCH: 40217181 80.4344%
BRANCH_DIRECT_JUMP: 774600 1.5492%
BRANCH_INDIRECT: 108806 0.217612%
BRANCH_CONDITIONAL: 6379339 12.7587%
BRANCH_DIRECT_CALL: 1048812 2.09762%
BRANCH_INDIRECT_CALL: 211109 0.422218%
BRANCH_RETURN: 1259927 2.51985%
BRANCH_OTHER: 0 0%

