Initialize SIGNATURE TABLE
ST_SET: 1
ST_WAY: 256
ST_TAG_BIT: 16
ST_TAG_MASK: ffff

Initialize PATTERN TABLE
PT_SET: 512
PT_WAY: 4
SIG_DELTA_BIT: 7
C_SIG_BIT: 4
C_DELTA_BIT: 4

Initialize PREFETCH FILTER
FILTER_SET: 1024

*** ChampSim Multicore Out-of-Order Simulator ***

Warmup Instructions: 50000000
Simulation Instructions: 50000000
Number of CPUs: 1
LLC sets: 2048
LLC ways: 16
Off-chip DRAM Size: 4096 MB Channels: 1 Width: 64-bit Data Rate: 3200 MT/s

CPU 0 runs /Users/gandhardeshpande/Desktop/CSE240C/HW1/ChampSim/ipc1_public/spec_gcc_003.champsimtrace.xz
CPU 0 L1I next line prefetcher
Running FNL-MMA for L1I
CPU 0 L1D next line prefetcher
Heartbeat CPU 0 instructions: 10000001 cycles: 3479488 heartbeat IPC: 2.87399 cumulative IPC: 2.87399 (Simulation time: 0 hr 0 min 11 sec) 
Heartbeat CPU 0 instructions: 20000000 cycles: 6945369 heartbeat IPC: 2.88527 cumulative IPC: 2.87962 (Simulation time: 0 hr 0 min 21 sec) 
Heartbeat CPU 0 instructions: 30000002 cycles: 10386247 heartbeat IPC: 2.90624 cumulative IPC: 2.88844 (Simulation time: 0 hr 0 min 31 sec) 
Heartbeat CPU 0 instructions: 40000000 cycles: 13854630 heartbeat IPC: 2.88319 cumulative IPC: 2.88712 (Simulation time: 0 hr 0 min 41 sec) 
Heartbeat CPU 0 instructions: 50000001 cycles: 17164898 heartbeat IPC: 3.0209 cumulative IPC: 2.91292 (Simulation time: 0 hr 0 min 51 sec) 

Warmup complete CPU 0 instructions: 50000001 cycles: 17164898 (Simulation time: 0 hr 0 min 51 sec) 

Heartbeat CPU 0 instructions: 60000000 cycles: 56680518 heartbeat IPC: 0.253064 cumulative IPC: 0.253064 (Simulation time: 0 hr 1 min 18 sec) 
Heartbeat CPU 0 instructions: 70000000 cycles: 98413148 heartbeat IPC: 0.239621 cumulative IPC: 0.246159 (Simulation time: 0 hr 1 min 46 sec) 
Heartbeat CPU 0 instructions: 80000003 cycles: 141279639 heartbeat IPC: 0.233283 cumulative IPC: 0.241712 (Simulation time: 0 hr 2 min 15 sec) 
Heartbeat CPU 0 instructions: 90000002 cycles: 177334321 heartbeat IPC: 0.277356 cumulative IPC: 0.249736 (Simulation time: 0 hr 2 min 40 sec) 
Heartbeat CPU 0 instructions: 100000001 cycles: 222830584 heartbeat IPC: 0.219798 cumulative IPC: 0.243113 (Simulation time: 0 hr 3 min 10 sec) 
Finished CPU 0 instructions: 50000000 cycles: 205665686 cumulative IPC: 0.243113 (Simulation time: 0 hr 3 min 10 sec) 

ChampSim completed all CPUs

Region of Interest Statistics

CPU 0 cumulative IPC: 0.243113 instructions: 50000000 cycles: 205665686
L1D TOTAL     ACCESS:   16849370  HIT:   11125046  MISS:    5724324
L1D LOAD      ACCESS:    4565182  HIT:    4182311  MISS:     382871
L1D RFO       ACCESS:    8207033  HIT:    3155449  MISS:    5051584
L1D PREFETCH  ACCESS:    4077155  HIT:    3787286  MISS:     289869
L1D WRITEBACK ACCESS:          0  HIT:          0  MISS:          0
L1D PREFETCH  REQUESTED:    4582810  ISSUED:    4523017  USEFUL:     152428  USELESS:     137621
L1D AVERAGE MISS LATENCY: 490.203 cycles
L1I TOTAL     ACCESS:   13620680  HIT:   12270070  MISS:    1350610
L1I LOAD      ACCESS:   11273122  HIT:   11162689  MISS:     110433
L1I RFO       ACCESS:          0  HIT:          0  MISS:          0
L1I PREFETCH  ACCESS:    2347558  HIT:    1107381  MISS:    1240177
L1I WRITEBACK ACCESS:          0  HIT:          0  MISS:          0
L1I PREFETCH  REQUESTED:    2514226  ISSUED:    2508689  USEFUL:     758594  USELESS:     481493
L1I AVERAGE MISS LATENCY: 51.5814 cycles
L2C TOTAL     ACCESS:   12542344  HIT:    6463547  MISS:    6078797
L2C LOAD      ACCESS:     261128  HIT:      84641  MISS:     176487
L2C RFO       ACCESS:    5049806  HIT:       6478  MISS:    5043328
L2C PREFETCH  ACCESS:    2073545  HIT:    1214735  MISS:     858810
L2C WRITEBACK ACCESS:    5157865  HIT:    5157693  MISS:        172
L2C PREFETCH  REQUESTED:    2460193  ISSUED:    2459836  USEFUL:      33947  USELESS:     822044
L2C AVERAGE MISS LATENCY: 459.966 cycles
LLC TOTAL     ACCESS:   12038375  HIT:    7425163  MISS:    4613212
LLC LOAD      ACCESS:     176431  HIT:     132718  MISS:      43713
LLC RFO       ACCESS:    5043329  HIT:     745820  MISS:    4297509
LLC PREFETCH  ACCESS:    1684953  HIT:    1412963  MISS:     271990
LLC WRITEBACK ACCESS:    5133662  HIT:    5133662  MISS:          0
LLC PREFETCH  REQUESTED:          0  ISSUED:          0  USEFUL:      12438  USELESS:     259635
LLC AVERAGE MISS LATENCY: 574.294 cycles
Major fault: 0 Minor fault: 2817
I-Shadow cache 408 bytes
Touched + WorthPF tables 24576 bytes 
MMA filter 174 bytes 
FNL filter 272 bytes 
TOTAL PREFETCHER STORAGE SIZE: 98134 bytes
CPU 0 L1I next line prefetcher final stats
CPU 0 L1D next line prefetcher final stats

DRAM Statistics
 CHANNEL 0
 RQ ROW_BUFFER_HIT:    1392591  ROW_BUFFER_MISS:    3218980
 DBUS_CONGESTED:    7950372
 WQ ROW_BUFFER_HIT:    1147747  ROW_BUFFER_MISS:    3178686  FULL:       1338

 AVG_CONGESTED_CYCLE: 6

CPU 0 Branch Prediction Accuracy: 99.665% MPKI: 0.78342 Average ROB Occupancy at Mispredict: 119.908

Branch types
NOT_BRANCH: 38305856 76.6117%
BRANCH_DIRECT_JUMP: 384281 0.768562%
BRANCH_INDIRECT: 71949 0.143898%
BRANCH_CONDITIONAL: 9879825 19.7597%
BRANCH_DIRECT_CALL: 650586 1.30117%
BRANCH_INDIRECT_CALL: 28456 0.056912%
BRANCH_RETURN: 679046 1.35809%
BRANCH_OTHER: 0 0%

