Initialize SIGNATURE TABLE
ST_SET: 1
ST_WAY: 256
ST_TAG_BIT: 16
ST_TAG_MASK: ffff

Initialize PATTERN TABLE
PT_SET: 512
PT_WAY: 4
SIG_DELTA_BIT: 7
C_SIG_BIT: 4
C_DELTA_BIT: 4

Initialize PREFETCH FILTER
FILTER_SET: 1024

*** ChampSim Multicore Out-of-Order Simulator ***

Warmup Instructions: 50000000
Simulation Instructions: 50000000
Number of CPUs: 1
LLC sets: 2048
LLC ways: 16
Off-chip DRAM Size: 4096 MB Channels: 1 Width: 64-bit Data Rate: 3200 MT/s

CPU 0 runs /Users/gandhardeshpande/Desktop/CSE240C/HW1/ChampSim/ipc1_public/server_026.champsimtrace.xz
CPU 0 L1I next line prefetcher
Running FNL-MMA for L1I
CPU 0 L1D next line prefetcher
Heartbeat CPU 0 instructions: 10000000 cycles: 3524929 heartbeat IPC: 2.83694 cumulative IPC: 2.83694 (Simulation time: 0 hr 0 min 15 sec) 
Heartbeat CPU 0 instructions: 20000002 cycles: 7054961 heartbeat IPC: 2.83284 cumulative IPC: 2.83488 (Simulation time: 0 hr 0 min 30 sec) 
Heartbeat CPU 0 instructions: 30000000 cycles: 10574841 heartbeat IPC: 2.84101 cumulative IPC: 2.83692 (Simulation time: 0 hr 0 min 45 sec) 
Heartbeat CPU 0 instructions: 40000003 cycles: 14103549 heartbeat IPC: 2.8339 cumulative IPC: 2.83617 (Simulation time: 0 hr 1 min 0 sec) 
Heartbeat CPU 0 instructions: 50000000 cycles: 17625309 heartbeat IPC: 2.83949 cumulative IPC: 2.83683 (Simulation time: 0 hr 1 min 15 sec) 

Warmup complete CPU 0 instructions: 50000004 cycles: 17625310 (Simulation time: 0 hr 1 min 15 sec) 

*** Reached end of trace for Core: 0 Repeating trace: /Users/gandhardeshpande/Desktop/CSE240C/HW1/ChampSim/ipc1_public/server_026.champsimtrace.xz
Heartbeat CPU 0 instructions: 60000000 cycles: 24543756 heartbeat IPC: 1.44541 cumulative IPC: 1.44541 (Simulation time: 0 hr 1 min 30 sec) 
Heartbeat CPU 0 instructions: 70000003 cycles: 31349327 heartbeat IPC: 1.46938 cumulative IPC: 1.4573 (Simulation time: 0 hr 1 min 45 sec) 
Heartbeat CPU 0 instructions: 80000002 cycles: 38267936 heartbeat IPC: 1.44538 cumulative IPC: 1.4533 (Simulation time: 0 hr 2 min 1 sec) 
Heartbeat CPU 0 instructions: 90000002 cycles: 45088625 heartbeat IPC: 1.46613 cumulative IPC: 1.45649 (Simulation time: 0 hr 2 min 16 sec) 
Heartbeat CPU 0 instructions: 100000000 cycles: 51987966 heartbeat IPC: 1.44941 cumulative IPC: 1.45507 (Simulation time: 0 hr 2 min 32 sec) 
Finished CPU 0 instructions: 50000000 cycles: 34362657 cumulative IPC: 1.45507 (Simulation time: 0 hr 2 min 32 sec) 

ChampSim completed all CPUs

Region of Interest Statistics

CPU 0 cumulative IPC: 1.45507 instructions: 50000000 cycles: 34362657
L1D TOTAL     ACCESS:   19775289  HIT:   18130421  MISS:    1644868
L1D LOAD      ACCESS:    6935339  HIT:    6205181  MISS:     730158
L1D RFO       ACCESS:    6240970  HIT:    5954144  MISS:     286826
L1D PREFETCH  ACCESS:    6598980  HIT:    5971096  MISS:     627884
L1D WRITEBACK ACCESS:          0  HIT:          0  MISS:          0
L1D PREFETCH  REQUESTED:    6983899  ISSUED:    6840981  USEFUL:     150391  USELESS:     477504
L1D AVERAGE MISS LATENCY: 24.5035 cycles
L1I TOTAL     ACCESS:   14671124  HIT:   10865322  MISS:    3805802
L1I LOAD      ACCESS:    9488149  HIT:    9373216  MISS:     114933
L1I RFO       ACCESS:          0  HIT:          0  MISS:          0
L1I PREFETCH  ACCESS:    5182975  HIT:    1492106  MISS:    3690869
L1I WRITEBACK ACCESS:          0  HIT:          0  MISS:          0
L1I PREFETCH  REQUESTED:    5432628  ISSUED:    5430419  USEFUL:    2736193  USELESS:     954647
L1I AVERAGE MISS LATENCY: 18.5565 cycles
L2C TOTAL     ACCESS:    7307519  HIT:    6405451  MISS:     902068
L2C LOAD      ACCESS:     718050  HIT:     562453  MISS:     155597
L2C RFO       ACCESS:     284803  HIT:     178465  MISS:     106338
L2C PREFETCH  ACCESS:    5743502  HIT:    5107102  MISS:     636400
L2C WRITEBACK ACCESS:     561164  HIT:     557431  MISS:       3733
L2C PREFETCH  REQUESTED:    7008682  ISSUED:    6997831  USEFUL:      16048  USELESS:     620023
L2C AVERAGE MISS LATENCY: 38.913 cycles
LLC TOTAL     ACCESS:    2720967  HIT:    2684724  MISS:      36243
LLC LOAD      ACCESS:     155262  HIT:     151817  MISS:       3445
LLC RFO       ACCESS:     106305  HIT:      91711  MISS:      14594
LLC PREFETCH  ACCESS:    2284868  HIT:    2266878  MISS:      17990
LLC WRITEBACK ACCESS:     174532  HIT:     174318  MISS:        214
LLC PREFETCH  REQUESTED:          0  ISSUED:          0  USEFUL:       1045  USELESS:      16162
LLC AVERAGE MISS LATENCY: 191.53 cycles
Major fault: 0 Minor fault: 2166
I-Shadow cache 408 bytes
Touched + WorthPF tables 24576 bytes 
MMA filter 174 bytes 
FNL filter 272 bytes 
TOTAL PREFETCHER STORAGE SIZE: 98134 bytes
CPU 0 L1I next line prefetcher final stats
CPU 0 L1D next line prefetcher final stats

DRAM Statistics
 CHANNEL 0
 RQ ROW_BUFFER_HIT:      12760  ROW_BUFFER_MISS:      23259
 DBUS_CONGESTED:      25095
 WQ ROW_BUFFER_HIT:       1731  ROW_BUFFER_MISS:      14761  FULL:          0

 AVG_CONGESTED_CYCLE: 6

CPU 0 Branch Prediction Accuracy: 99.822% MPKI: 0.32584 Average ROB Occupancy at Mispredict: 203.101

Branch types
NOT_BRANCH: 40848551 81.6971%
BRANCH_DIRECT_JUMP: 522045 1.04409%
BRANCH_INDIRECT: 204034 0.408068%
BRANCH_CONDITIONAL: 6212957 12.4259%
BRANCH_DIRECT_CALL: 932391 1.86478%
BRANCH_INDIRECT_CALL: 173764 0.347528%
BRANCH_RETURN: 1106152 2.2123%
BRANCH_OTHER: 0 0%

