Initialize SIGNATURE TABLE
ST_SET: 1
ST_WAY: 256
ST_TAG_BIT: 16
ST_TAG_MASK: ffff

Initialize PATTERN TABLE
PT_SET: 512
PT_WAY: 4
SIG_DELTA_BIT: 7
C_SIG_BIT: 4
C_DELTA_BIT: 4

Initialize PREFETCH FILTER
FILTER_SET: 1024

*** ChampSim Multicore Out-of-Order Simulator ***

Warmup Instructions: 50000000
Simulation Instructions: 50000000
Number of CPUs: 1
LLC sets: 2048
LLC ways: 16
Off-chip DRAM Size: 4096 MB Channels: 1 Width: 64-bit Data Rate: 3200 MT/s

CPU 0 runs /Users/gandhardeshpande/Desktop/CSE240C/HW1/ChampSim/ipc1_public/server_011.champsimtrace.xz
CPU 0 L1I next line prefetcher
Running FNL-MMA for L1I
CPU 0 L1D next line prefetcher
Heartbeat CPU 0 instructions: 10000002 cycles: 3202304 heartbeat IPC: 3.12275 cumulative IPC: 3.12275 (Simulation time: 0 hr 0 min 14 sec) 
Heartbeat CPU 0 instructions: 20000001 cycles: 6409324 heartbeat IPC: 3.11816 cumulative IPC: 3.12045 (Simulation time: 0 hr 0 min 28 sec) 
Heartbeat CPU 0 instructions: 30000001 cycles: 9661347 heartbeat IPC: 3.07501 cumulative IPC: 3.10516 (Simulation time: 0 hr 0 min 42 sec) 
Heartbeat CPU 0 instructions: 40000003 cycles: 12860362 heartbeat IPC: 3.12596 cumulative IPC: 3.11033 (Simulation time: 0 hr 0 min 56 sec) 
Heartbeat CPU 0 instructions: 50000000 cycles: 16065773 heartbeat IPC: 3.11972 cumulative IPC: 3.11221 (Simulation time: 0 hr 1 min 9 sec) 

Warmup complete CPU 0 instructions: 50000004 cycles: 16065774 (Simulation time: 0 hr 1 min 9 sec) 

Heartbeat CPU 0 instructions: 60000002 cycles: 23531420 heartbeat IPC: 1.33947 cumulative IPC: 1.33947 (Simulation time: 0 hr 1 min 22 sec) 
Heartbeat CPU 0 instructions: 70000001 cycles: 31406907 heartbeat IPC: 1.26976 cumulative IPC: 1.30368 (Simulation time: 0 hr 1 min 34 sec) 
Heartbeat CPU 0 instructions: 80000003 cycles: 40083292 heartbeat IPC: 1.15255 cumulative IPC: 1.24909 (Simulation time: 0 hr 1 min 45 sec) 
Heartbeat CPU 0 instructions: 90000001 cycles: 47657747 heartbeat IPC: 1.32023 cumulative IPC: 1.26614 (Simulation time: 0 hr 1 min 57 sec) 
Heartbeat CPU 0 instructions: 100000000 cycles: 55081090 heartbeat IPC: 1.3471 cumulative IPC: 1.28155 (Simulation time: 0 hr 2 min 9 sec) 
Finished CPU 0 instructions: 50000003 cycles: 39015328 cumulative IPC: 1.28155 (Simulation time: 0 hr 2 min 9 sec) 

ChampSim completed all CPUs

Region of Interest Statistics

CPU 0 cumulative IPC: 1.28155 instructions: 50000003 cycles: 39015328
L1D TOTAL     ACCESS:   18175244  HIT:   17144082  MISS:    1031162
L1D LOAD      ACCESS:    6790242  HIT:    6308128  MISS:     482114
L1D RFO       ACCESS:    4834765  HIT:    4752742  MISS:      82023
L1D PREFETCH  ACCESS:    6550237  HIT:    6083212  MISS:     467025
L1D WRITEBACK ACCESS:          0  HIT:          0  MISS:          0
L1D PREFETCH  REQUESTED:    6827424  ISSUED:    6735070  USEFUL:     136737  USELESS:     330283
L1D AVERAGE MISS LATENCY: 41.3193 cycles
L1I TOTAL     ACCESS:   12050762  HIT:   10229288  MISS:    1821474
L1I LOAD      ACCESS:    8865251  HIT:    8716340  MISS:     148911
L1I RFO       ACCESS:          0  HIT:          0  MISS:          0
L1I PREFETCH  ACCESS:    3185511  HIT:    1512948  MISS:    1672563
L1I WRITEBACK ACCESS:          0  HIT:          0  MISS:          0
L1I PREFETCH  REQUESTED:    3356001  ISSUED:    3355899  USEFUL:    1158039  USELESS:     514467
L1I AVERAGE MISS LATENCY: 30.4143 cycles
L2C TOTAL     ACCESS:    3609739  HIT:    2453152  MISS:    1156587
L2C LOAD      ACCESS:     514639  HIT:     282680  MISS:     231959
L2C RFO       ACCESS:      80184  HIT:      34668  MISS:      45516
L2C PREFETCH  ACCESS:    2746810  HIT:    1868991  MISS:     877819
L2C WRITEBACK ACCESS:     268106  HIT:     266813  MISS:       1293
L2C PREFETCH  REQUESTED:    2997300  ISSUED:    2995256  USEFUL:      27324  USELESS:     850647
L2C AVERAGE MISS LATENCY: 52.571 cycles
LLC TOTAL     ACCESS:    2123504  HIT:    1940054  MISS:     183450
LLC LOAD      ACCESS:     231832  HIT:     204610  MISS:      27222
LLC RFO       ACCESS:      45508  HIT:      31994  MISS:      13514
LLC PREFETCH  ACCESS:    1693906  HIT:    1551605  MISS:     142301
LLC WRITEBACK ACCESS:     152258  HIT:     151845  MISS:        413
LLC PREFETCH  REQUESTED:          0  ISSUED:          0  USEFUL:      14095  USELESS:     125726
LLC AVERAGE MISS LATENCY: 179.007 cycles
Major fault: 0 Minor fault: 6976
I-Shadow cache 408 bytes
Touched + WorthPF tables 24576 bytes 
MMA filter 174 bytes 
FNL filter 272 bytes 
TOTAL PREFETCHER STORAGE SIZE: 98134 bytes
CPU 0 L1I next line prefetcher final stats
CPU 0 L1D next line prefetcher final stats

DRAM Statistics
 CHANNEL 0
 RQ ROW_BUFFER_HIT:      34105  ROW_BUFFER_MISS:     148917
 DBUS_CONGESTED:      83896
 WQ ROW_BUFFER_HIT:      12167  ROW_BUFFER_MISS:      49802  FULL:          0

 AVG_CONGESTED_CYCLE: 5

CPU 0 Branch Prediction Accuracy: 97.5565% MPKI: 4.59006 Average ROB Occupancy at Mispredict: 62.4131

Branch types
NOT_BRANCH: 40607199 81.2144%
BRANCH_DIRECT_JUMP: 451601 0.903202%
BRANCH_INDIRECT: 151580 0.30316%
BRANCH_CONDITIONAL: 7041635 14.0833%
BRANCH_DIRECT_CALL: 647827 1.29565%
BRANCH_INDIRECT_CALL: 211373 0.422746%
BRANCH_RETURN: 888439 1.77688%
BRANCH_OTHER: 0 0%

