Initialize SIGNATURE TABLE
ST_SET: 1
ST_WAY: 256
ST_TAG_BIT: 16
ST_TAG_MASK: ffff

Initialize PATTERN TABLE
PT_SET: 512
PT_WAY: 4
SIG_DELTA_BIT: 7
C_SIG_BIT: 4
C_DELTA_BIT: 4

Initialize PREFETCH FILTER
FILTER_SET: 1024

*** ChampSim Multicore Out-of-Order Simulator ***

Warmup Instructions: 50000000
Simulation Instructions: 50000000
Number of CPUs: 1
LLC sets: 2048
LLC ways: 16
Off-chip DRAM Size: 4096 MB Channels: 1 Width: 64-bit Data Rate: 3200 MT/s

CPU 0 runs /Users/gandhardeshpande/Desktop/CSE240C/HW1/ChampSim/ipc1_public/server_032.champsimtrace.xz
CPU 0 L1I next line prefetcher
Running FNL-MMA for L1I
CPU 0 L1D next line prefetcher
Heartbeat CPU 0 instructions: 10000002 cycles: 3521078 heartbeat IPC: 2.84004 cumulative IPC: 2.84004 (Simulation time: 0 hr 0 min 15 sec) 
Heartbeat CPU 0 instructions: 20000003 cycles: 7043213 heartbeat IPC: 2.83919 cumulative IPC: 2.83961 (Simulation time: 0 hr 0 min 30 sec) 
Heartbeat CPU 0 instructions: 30000000 cycles: 10565163 heartbeat IPC: 2.83934 cumulative IPC: 2.83952 (Simulation time: 0 hr 0 min 45 sec) 
Heartbeat CPU 0 instructions: 40000003 cycles: 14087625 heartbeat IPC: 2.83892 cumulative IPC: 2.83937 (Simulation time: 0 hr 1 min 1 sec) 
Heartbeat CPU 0 instructions: 50000000 cycles: 17608913 heartbeat IPC: 2.83987 cumulative IPC: 2.83947 (Simulation time: 0 hr 1 min 16 sec) 

Warmup complete CPU 0 instructions: 50000004 cycles: 17608914 (Simulation time: 0 hr 1 min 16 sec) 

Heartbeat CPU 0 instructions: 60000002 cycles: 24422142 heartbeat IPC: 1.46773 cumulative IPC: 1.46773 (Simulation time: 0 hr 1 min 32 sec) 
Heartbeat CPU 0 instructions: 70000000 cycles: 31230110 heartbeat IPC: 1.46887 cumulative IPC: 1.4683 (Simulation time: 0 hr 1 min 48 sec) 
*** Reached end of trace for Core: 0 Repeating trace: /Users/gandhardeshpande/Desktop/CSE240C/HW1/ChampSim/ipc1_public/server_032.champsimtrace.xz
Heartbeat CPU 0 instructions: 80000003 cycles: 38044889 heartbeat IPC: 1.4674 cumulative IPC: 1.468 (Simulation time: 0 hr 2 min 4 sec) 
Heartbeat CPU 0 instructions: 90000002 cycles: 44839557 heartbeat IPC: 1.47174 cumulative IPC: 1.46893 (Simulation time: 0 hr 2 min 20 sec) 
Heartbeat CPU 0 instructions: 100000001 cycles: 51638968 heartbeat IPC: 1.47072 cumulative IPC: 1.46929 (Simulation time: 0 hr 2 min 36 sec) 
Finished CPU 0 instructions: 50000002 cycles: 34030056 cumulative IPC: 1.46929 (Simulation time: 0 hr 2 min 36 sec) 

ChampSim completed all CPUs

Region of Interest Statistics

CPU 0 cumulative IPC: 1.46929 instructions: 50000002 cycles: 34030056
L1D TOTAL     ACCESS:   19788346  HIT:   17960106  MISS:    1828240
L1D LOAD      ACCESS:    6765259  HIT:    5970471  MISS:     794788
L1D RFO       ACCESS:    6539273  HIT:    6244266  MISS:     295007
L1D PREFETCH  ACCESS:    6483814  HIT:    5745369  MISS:     738445
L1D WRITEBACK ACCESS:          0  HIT:          0  MISS:          0
L1D PREFETCH  REQUESTED:    6815143  ISSUED:    6676957  USEFUL:     168819  USELESS:     569626
L1D AVERAGE MISS LATENCY: 19.8504 cycles
L1I TOTAL     ACCESS:   15275977  HIT:   11262277  MISS:    4013700
L1I LOAD      ACCESS:    9710554  HIT:    9597247  MISS:     113307
L1I RFO       ACCESS:          0  HIT:          0  MISS:          0
L1I PREFETCH  ACCESS:    5565423  HIT:    1665030  MISS:    3900393
L1I WRITEBACK ACCESS:          0  HIT:          0  MISS:          0
L1I PREFETCH  REQUESTED:    5851078  ISSUED:    5851078  USEFUL:    3139919  USELESS:     760458
L1I AVERAGE MISS LATENCY: 17.5559 cycles
L2C TOTAL     ACCESS:    8022690  HIT:    7292904  MISS:     729786
L2C LOAD      ACCESS:     783969  HIT:     662806  MISS:     121163
L2C RFO       ACCESS:     292635  HIT:     238536  MISS:      54099
L2C PREFETCH  ACCESS:    6309853  HIT:    5760669  MISS:     549184
L2C WRITEBACK ACCESS:     636233  HIT:     630893  MISS:       5340
L2C PREFETCH  REQUESTED:    7847764  ISSUED:    7823719  USEFUL:       9431  USELESS:     539623
L2C AVERAGE MISS LATENCY: 33.8075 cycles
LLC TOTAL     ACCESS:    2641719  HIT:    2635038  MISS:       6681
LLC LOAD      ACCESS:     121116  HIT:     120629  MISS:        487
LLC RFO       ACCESS:      53902  HIT:      53902  MISS:          0
LLC PREFETCH  ACCESS:    2356496  HIT:    2350349  MISS:       6147
LLC WRITEBACK ACCESS:     110205  HIT:     110158  MISS:         47
LLC PREFETCH  REQUESTED:          0  ISSUED:          0  USEFUL:        400  USELESS:       2502
LLC AVERAGE MISS LATENCY: 148.271 cycles
Major fault: 0 Minor fault: 1179
I-Shadow cache 408 bytes
Touched + WorthPF tables 24576 bytes 
MMA filter 174 bytes 
FNL filter 272 bytes 
TOTAL PREFETCHER STORAGE SIZE: 98134 bytes
CPU 0 L1I next line prefetcher final stats
CPU 0 L1D next line prefetcher final stats

DRAM Statistics
 CHANNEL 0
 RQ ROW_BUFFER_HIT:       1734  ROW_BUFFER_MISS:       4900
 DBUS_CONGESTED:        877
 WQ ROW_BUFFER_HIT:          1  ROW_BUFFER_MISS:         12  FULL:          0

 AVG_CONGESTED_CYCLE: 5

CPU 0 Branch Prediction Accuracy: 99.8762% MPKI: 0.2296 Average ROB Occupancy at Mispredict: 192.303

Branch types
NOT_BRANCH: 40726134 81.4523%
BRANCH_DIRECT_JUMP: 508373 1.01675%
BRANCH_INDIRECT: 180051 0.360102%
BRANCH_CONDITIONAL: 5999657 11.9993%
BRANCH_DIRECT_CALL: 1086739 2.17348%
BRANCH_INDIRECT_CALL: 206109 0.412218%
BRANCH_RETURN: 1292837 2.58567%
BRANCH_OTHER: 0 0%

