Initialize SIGNATURE TABLE
ST_SET: 1
ST_WAY: 256
ST_TAG_BIT: 16
ST_TAG_MASK: ffff

Initialize PATTERN TABLE
PT_SET: 512
PT_WAY: 4
SIG_DELTA_BIT: 7
C_SIG_BIT: 4
C_DELTA_BIT: 4

Initialize PREFETCH FILTER
FILTER_SET: 1024

*** ChampSim Multicore Out-of-Order Simulator ***

Warmup Instructions: 50000000
Simulation Instructions: 50000000
Number of CPUs: 1
LLC sets: 2048
LLC ways: 16
Off-chip DRAM Size: 4096 MB Channels: 1 Width: 64-bit Data Rate: 3200 MT/s

CPU 0 runs /Users/gandhardeshpande/Desktop/CSE240C/HW1/ChampSim/ipc1_public/spec_perlbench_001.champsimtrace.xz
CPU 0 L1I next line prefetcher
Running FNL-MMA for L1I
CPU 0 L1D next line prefetcher
Heartbeat CPU 0 instructions: 10000000 cycles: 3275855 heartbeat IPC: 3.05264 cumulative IPC: 3.05264 (Simulation time: 0 hr 0 min 13 sec) 
Heartbeat CPU 0 instructions: 20000000 cycles: 6540349 heartbeat IPC: 3.06326 cumulative IPC: 3.05794 (Simulation time: 0 hr 0 min 27 sec) 
Heartbeat CPU 0 instructions: 30000002 cycles: 9856790 heartbeat IPC: 3.01528 cumulative IPC: 3.04359 (Simulation time: 0 hr 0 min 41 sec) 
Heartbeat CPU 0 instructions: 40000002 cycles: 13112181 heartbeat IPC: 3.07183 cumulative IPC: 3.0506 (Simulation time: 0 hr 0 min 54 sec) 
Heartbeat CPU 0 instructions: 50000001 cycles: 16386011 heartbeat IPC: 3.05453 cumulative IPC: 3.05138 (Simulation time: 0 hr 1 min 7 sec) 

Warmup complete CPU 0 instructions: 50000001 cycles: 16386011 (Simulation time: 0 hr 1 min 7 sec) 

Heartbeat CPU 0 instructions: 60000001 cycles: 24663806 heartbeat IPC: 1.20805 cumulative IPC: 1.20805 (Simulation time: 0 hr 1 min 18 sec) 
Heartbeat CPU 0 instructions: 70000003 cycles: 32777629 heartbeat IPC: 1.23246 cumulative IPC: 1.22014 (Simulation time: 0 hr 1 min 31 sec) 
Heartbeat CPU 0 instructions: 80000000 cycles: 41176020 heartbeat IPC: 1.1907 cumulative IPC: 1.21016 (Simulation time: 0 hr 1 min 43 sec) 
Heartbeat CPU 0 instructions: 90000000 cycles: 46905013 heartbeat IPC: 1.74551 cumulative IPC: 1.31066 (Simulation time: 0 hr 1 min 52 sec) 
Heartbeat CPU 0 instructions: 100000002 cycles: 52783350 heartbeat IPC: 1.70116 cumulative IPC: 1.37373 (Simulation time: 0 hr 2 min 2 sec) 
Finished CPU 0 instructions: 50000001 cycles: 36397339 cumulative IPC: 1.37373 (Simulation time: 0 hr 2 min 2 sec) 

ChampSim completed all CPUs

Region of Interest Statistics

CPU 0 cumulative IPC: 1.37373 instructions: 50000001 cycles: 36397339
L1D TOTAL     ACCESS:   20694099  HIT:   20278995  MISS:     415104
L1D LOAD      ACCESS:    7176535  HIT:    6962826  MISS:     213709
L1D RFO       ACCESS:    6542495  HIT:    6523983  MISS:      18512
L1D PREFETCH  ACCESS:    6975069  HIT:    6792186  MISS:     182883
L1D WRITEBACK ACCESS:          0  HIT:          0  MISS:          0
L1D PREFETCH  REQUESTED:    7192136  ISSUED:    7075623  USEFUL:      55193  USELESS:     127685
L1D AVERAGE MISS LATENCY: 57.745 cycles
L1I TOTAL     ACCESS:   10911738  HIT:   10220653  MISS:     691085
L1I LOAD      ACCESS:    9151456  HIT:    9074621  MISS:      76835
L1I RFO       ACCESS:          0  HIT:          0  MISS:          0
L1I PREFETCH  ACCESS:    1760282  HIT:    1146032  MISS:     614250
L1I WRITEBACK ACCESS:          0  HIT:          0  MISS:          0
L1I PREFETCH  REQUESTED:    1819697  ISSUED:    1819619  USEFUL:     380330  USELESS:     233901
L1I AVERAGE MISS LATENCY: 17.2387 cycles
L2C TOTAL     ACCESS:    1530998  HIT:    1361736  MISS:     169262
L2C LOAD      ACCESS:     273430  HIT:     192160  MISS:      81270
L2C RFO       ACCESS:      18269  HIT:      12853  MISS:       5416
L2C PREFETCH  ACCESS:    1160340  HIT:    1078123  MISS:      82217
L2C WRITEBACK ACCESS:      78959  HIT:      78600  MISS:        359
L2C PREFETCH  REQUESTED:    1182955  ISSUED:    1182915  USEFUL:       6483  USELESS:      75818
L2C AVERAGE MISS LATENCY: 117.85 cycles
LLC TOTAL     ACCESS:     446525  HIT:     301586  MISS:     144939
LLC LOAD      ACCESS:      81266  HIT:      32947  MISS:      48319
LLC RFO       ACCESS:       5416  HIT:       2423  MISS:       2993
LLC PREFETCH  ACCESS:     334360  HIT:     241271  MISS:      93089
LLC WRITEBACK ACCESS:      25483  HIT:      24945  MISS:        538
LLC PREFETCH  REQUESTED:          0  ISSUED:          0  USEFUL:      15304  USELESS:      77948
LLC AVERAGE MISS LATENCY: 159.708 cycles
Major fault: 0 Minor fault: 6365
I-Shadow cache 408 bytes
Touched + WorthPF tables 24576 bytes 
MMA filter 174 bytes 
FNL filter 272 bytes 
TOTAL PREFETCHER STORAGE SIZE: 98134 bytes
CPU 0 L1I next line prefetcher final stats
CPU 0 L1D next line prefetcher final stats

DRAM Statistics
 CHANNEL 0
 RQ ROW_BUFFER_HIT:      32656  ROW_BUFFER_MISS:     111742
 DBUS_CONGESTED:      60992
 WQ ROW_BUFFER_HIT:       4098  ROW_BUFFER_MISS:      13378  FULL:          0

 AVG_CONGESTED_CYCLE: 4

CPU 0 Branch Prediction Accuracy: 98.7418% MPKI: 2.47758 Average ROB Occupancy at Mispredict: 78.5091

Branch types
NOT_BRANCH: 40154100 80.3082%
BRANCH_DIRECT_JUMP: 817094 1.63419%
BRANCH_INDIRECT: 303787 0.607574%
BRANCH_CONDITIONAL: 7492103 14.9842%
BRANCH_DIRECT_CALL: 471777 0.943554%
BRANCH_INDIRECT_CALL: 144546 0.289092%
BRANCH_RETURN: 616324 1.23265%
BRANCH_OTHER: 0 0%

