Initialize SIGNATURE TABLE
ST_SET: 1
ST_WAY: 256
ST_TAG_BIT: 16
ST_TAG_MASK: ffff

Initialize PATTERN TABLE
PT_SET: 512
PT_WAY: 4
SIG_DELTA_BIT: 7
C_SIG_BIT: 4
C_DELTA_BIT: 4

Initialize PREFETCH FILTER
FILTER_SET: 1024

*** ChampSim Multicore Out-of-Order Simulator ***

Warmup Instructions: 50000000
Simulation Instructions: 50000000
Number of CPUs: 1
LLC sets: 2048
LLC ways: 16
Off-chip DRAM Size: 4096 MB Channels: 1 Width: 64-bit Data Rate: 3200 MT/s

CPU 0 runs /Users/gandhardeshpande/Desktop/CSE240C/HW1/ChampSim/ipc1_public/spec_gcc_002.champsimtrace.xz
CPU 0 L1I next line prefetcher
Running FNL-MMA for L1I
CPU 0 L1D next line prefetcher
Heartbeat CPU 0 instructions: 10000002 cycles: 3538217 heartbeat IPC: 2.82628 cumulative IPC: 2.82628 (Simulation time: 0 hr 0 min 12 sec) 
Heartbeat CPU 0 instructions: 20000000 cycles: 7126126 heartbeat IPC: 2.78714 cumulative IPC: 2.80657 (Simulation time: 0 hr 0 min 23 sec) 
Heartbeat CPU 0 instructions: 30000000 cycles: 10846312 heartbeat IPC: 2.68804 cumulative IPC: 2.76592 (Simulation time: 0 hr 0 min 36 sec) 
Heartbeat CPU 0 instructions: 40000000 cycles: 14428373 heartbeat IPC: 2.79169 cumulative IPC: 2.77232 (Simulation time: 0 hr 0 min 47 sec) 
Heartbeat CPU 0 instructions: 50000002 cycles: 17933735 heartbeat IPC: 2.85277 cumulative IPC: 2.78804 (Simulation time: 0 hr 0 min 57 sec) 

Warmup complete CPU 0 instructions: 50000002 cycles: 17933735 (Simulation time: 0 hr 0 min 57 sec) 

Heartbeat CPU 0 instructions: 60000001 cycles: 49735222 heartbeat IPC: 0.314451 cumulative IPC: 0.314451 (Simulation time: 0 hr 1 min 21 sec) 
Heartbeat CPU 0 instructions: 70000001 cycles: 80532927 heartbeat IPC: 0.3247 cumulative IPC: 0.319493 (Simulation time: 0 hr 1 min 44 sec) 
Heartbeat CPU 0 instructions: 80000002 cycles: 126364718 heartbeat IPC: 0.218189 cumulative IPC: 0.276674 (Simulation time: 0 hr 2 min 14 sec) 
Heartbeat CPU 0 instructions: 90000001 cycles: 167682708 heartbeat IPC: 0.242025 cumulative IPC: 0.267114 (Simulation time: 0 hr 2 min 42 sec) 
Heartbeat CPU 0 instructions: 100000000 cycles: 190904928 heartbeat IPC: 0.430622 cumulative IPC: 0.289065 (Simulation time: 0 hr 3 min 2 sec) 
Finished CPU 0 instructions: 50000002 cycles: 172971201 cumulative IPC: 0.289065 (Simulation time: 0 hr 3 min 2 sec) 

ChampSim completed all CPUs

Region of Interest Statistics

CPU 0 cumulative IPC: 0.289065 instructions: 50000002 cycles: 172971201
L1D TOTAL     ACCESS:   18302342  HIT:   13068832  MISS:    5233510
L1D LOAD      ACCESS:    6346131  HIT:    5333405  MISS:    1012726
L1D RFO       ACCESS:    7069444  HIT:    3468842  MISS:    3600602
L1D PREFETCH  ACCESS:    4886767  HIT:    4266585  MISS:     620182
L1D WRITEBACK ACCESS:          0  HIT:          0  MISS:          0
L1D PREFETCH  REQUESTED:    6366354  ISSUED:    6295794  USEFUL:     460473  USELESS:     159925
L1D AVERAGE MISS LATENCY: 318.786 cycles
L1I TOTAL     ACCESS:   14011354  HIT:   12917081  MISS:    1094273
L1I LOAD      ACCESS:   12007002  HIT:   11918416  MISS:      88586
L1I RFO       ACCESS:          0  HIT:          0  MISS:          0
L1I PREFETCH  ACCESS:    2004352  HIT:     998665  MISS:    1005687
L1I WRITEBACK ACCESS:          0  HIT:          0  MISS:          0
L1I PREFETCH  REQUESTED:    2129820  ISSUED:    2127899  USEFUL:     621501  USELESS:     384163
L1I AVERAGE MISS LATENCY: 48.8818 cycles
L2C TOTAL     ACCESS:   10454206  HIT:    5087338  MISS:    5366868
L2C LOAD      ACCESS:     309401  HIT:     130113  MISS:     179288
L2C RFO       ACCESS:    3599073  HIT:      10963  MISS:    3588110
L2C PREFETCH  ACCESS:    2820252  HIT:    1220939  MISS:    1599313
L2C WRITEBACK ACCESS:    3725480  HIT:    3725323  MISS:        157
L2C PREFETCH  REQUESTED:    3723975  ISSUED:    3723720  USEFUL:      34960  USELESS:    1564446
L2C AVERAGE MISS LATENCY: 318.825 cycles
LLC TOTAL     ACCESS:   10284168  HIT:    7101588  MISS:    3182580
LLC LOAD      ACCESS:     179169  HIT:     134412  MISS:      44757
LLC RFO       ACCESS:    3588111  HIT:     937101  MISS:    2651010
LLC PREFETCH  ACCESS:    2843398  HIT:    2356585  MISS:     486813
LLC WRITEBACK ACCESS:    3673490  HIT:    3673490  MISS:          0
LLC PREFETCH  REQUESTED:          0  ISSUED:          0  USEFUL:     184620  USELESS:     302925
LLC AVERAGE MISS LATENCY: 504.257 cycles
Major fault: 0 Minor fault: 4152
I-Shadow cache 408 bytes
Touched + WorthPF tables 24576 bytes 
MMA filter 174 bytes 
FNL filter 272 bytes 
TOTAL PREFETCHER STORAGE SIZE: 98134 bytes
CPU 0 L1I next line prefetcher final stats
CPU 0 L1D next line prefetcher final stats

DRAM Statistics
 CHANNEL 0
 RQ ROW_BUFFER_HIT:     858926  ROW_BUFFER_MISS:    2321642
 DBUS_CONGESTED:    4954487
 WQ ROW_BUFFER_HIT:     807803  ROW_BUFFER_MISS:    2044940  FULL:          0

 AVG_CONGESTED_CYCLE: 6

CPU 0 Branch Prediction Accuracy: 99.5987% MPKI: 0.82446 Average ROB Occupancy at Mispredict: 130.537

Branch types
NOT_BRANCH: 39726803 79.4536%
BRANCH_DIRECT_JUMP: 391438 0.782876%
BRANCH_INDIRECT: 62076 0.124152%
BRANCH_CONDITIONAL: 8421539 16.8431%
BRANCH_DIRECT_CALL: 672962 1.34592%
BRANCH_INDIRECT_CALL: 26115 0.05223%
BRANCH_RETURN: 699082 1.39816%
BRANCH_OTHER: 0 0%

