
*** ChampSim Multicore Out-of-Order Simulator ***

Warmup Instructions: 10000000
Simulation Instructions: 100000000
Configuration: 2
Number of CPUs: 1
LLC sets: 2048
LLC ways: 16
Off-chip DRAM Channels: 1 Width: 64-bit Data Rate: 1600 MT/s

CPU 0 runs /datasets/cs240c-wi22-a00-public/data/Assignment2-gz/leslie3d_94B.trace.gz
CPU 0 L1D next line prefetcher
CPU 0 L2C IP-based stride prefetcher
Heartbeat CPU 0 instructions: 1000003 cycles: 597056 heartbeat IPC: 1.67489 cumulative IPC: 1.67489 (Simulation time: 0 hr 0 min 42 sec) 
Heartbeat CPU 0 instructions: 2000002 cycles: 1215973 heartbeat IPC: 1.61572 cumulative IPC: 1.64478 (Simulation time: 0 hr 1 min 27 sec) 
Heartbeat CPU 0 instructions: 3000002 cycles: 1867808 heartbeat IPC: 1.53413 cumulative IPC: 1.60616 (Simulation time: 0 hr 2 min 11 sec) 
Heartbeat CPU 0 instructions: 4000000 cycles: 2519116 heartbeat IPC: 1.53537 cumulative IPC: 1.58786 (Simulation time: 0 hr 2 min 54 sec) 
Heartbeat CPU 0 instructions: 5000002 cycles: 3084141 heartbeat IPC: 1.76984 cumulative IPC: 1.6212 (Simulation time: 0 hr 3 min 35 sec) 
Heartbeat CPU 0 instructions: 6000002 cycles: 3734784 heartbeat IPC: 1.53694 cumulative IPC: 1.60652 (Simulation time: 0 hr 4 min 16 sec) 
Heartbeat CPU 0 instructions: 7000000 cycles: 4385479 heartbeat IPC: 1.53682 cumulative IPC: 1.59618 (Simulation time: 0 hr 4 min 58 sec) 
Heartbeat CPU 0 instructions: 8000000 cycles: 4950484 heartbeat IPC: 1.7699 cumulative IPC: 1.616 (Simulation time: 0 hr 5 min 37 sec) 
Heartbeat CPU 0 instructions: 9000000 cycles: 5601367 heartbeat IPC: 1.53637 cumulative IPC: 1.60675 (Simulation time: 0 hr 6 min 19 sec) 
Heartbeat CPU 0 instructions: 10000001 cycles: 6252587 heartbeat IPC: 1.53558 cumulative IPC: 1.59934 (Simulation time: 0 hr 7 min 0 sec) 

Warmup complete CPU 0 instructions: 10000001 cycles: 6252587 (Simulation time: 0 hr 7 min 0 sec) 

Heartbeat CPU 0 instructions: 11000000 cycles: 7491397 heartbeat IPC: 0.807225 cumulative IPC: 0.807225 (Simulation time: 0 hr 7 min 45 sec) 
Heartbeat CPU 0 instructions: 12000000 cycles: 9231481 heartbeat IPC: 0.574685 cumulative IPC: 0.67139 (Simulation time: 0 hr 8 min 28 sec) 
Heartbeat CPU 0 instructions: 13000000 cycles: 11174073 heartbeat IPC: 0.514776 cumulative IPC: 0.609572 (Simulation time: 0 hr 9 min 15 sec) 
Heartbeat CPU 0 instructions: 14000001 cycles: 13258109 heartbeat IPC: 0.479839 cumulative IPC: 0.570978 (Simulation time: 0 hr 10 min 1 sec) 
Heartbeat CPU 0 instructions: 15000001 cycles: 15299149 heartbeat IPC: 0.489946 cumulative IPC: 0.552696 (Simulation time: 0 hr 10 min 49 sec) 
Heartbeat CPU 0 instructions: 16000000 cycles: 17302839 heartbeat IPC: 0.499079 cumulative IPC: 0.542974 (Simulation time: 0 hr 11 min 35 sec) 
Heartbeat CPU 0 instructions: 17000000 cycles: 19265416 heartbeat IPC: 0.509534 cumulative IPC: 0.537931 (Simulation time: 0 hr 12 min 25 sec) 
Heartbeat CPU 0 instructions: 18000002 cycles: 21256649 heartbeat IPC: 0.502202 cumulative IPC: 0.533189 (Simulation time: 0 hr 13 min 12 sec) 
Heartbeat CPU 0 instructions: 19000001 cycles: 23269118 heartbeat IPC: 0.496902 cumulative IPC: 0.528897 (Simulation time: 0 hr 14 min 1 sec) 
Heartbeat CPU 0 instructions: 20000000 cycles: 25254627 heartbeat IPC: 0.503649 cumulative IPC: 0.526259 (Simulation time: 0 hr 14 min 51 sec) 
Heartbeat CPU 0 instructions: 21000002 cycles: 27197884 heartbeat IPC: 0.514601 cumulative IPC: 0.525178 (Simulation time: 0 hr 15 min 38 sec) 
Heartbeat CPU 0 instructions: 22000002 cycles: 29438150 heartbeat IPC: 0.446376 cumulative IPC: 0.517564 (Simulation time: 0 hr 16 min 29 sec) 
Heartbeat CPU 0 instructions: 23000000 cycles: 31870723 heartbeat IPC: 0.411087 cumulative IPC: 0.507453 (Simulation time: 0 hr 17 min 20 sec) 
Heartbeat CPU 0 instructions: 24000000 cycles: 34314074 heartbeat IPC: 0.409274 cumulative IPC: 0.498904 (Simulation time: 0 hr 18 min 10 sec) 
Heartbeat CPU 0 instructions: 25000000 cycles: 36734983 heartbeat IPC: 0.413068 cumulative IPC: 0.492087 (Simulation time: 0 hr 18 min 55 sec) 
Heartbeat CPU 0 instructions: 26000002 cycles: 39021401 heartbeat IPC: 0.437366 cumulative IPC: 0.488269 (Simulation time: 0 hr 19 min 51 sec) 
Heartbeat CPU 0 instructions: 27000001 cycles: 41362508 heartbeat IPC: 0.427148 cumulative IPC: 0.484194 (Simulation time: 0 hr 20 min 44 sec) 
Heartbeat CPU 0 instructions: 28000000 cycles: 43744512 heartbeat IPC: 0.419814 cumulative IPC: 0.480103 (Simulation time: 0 hr 21 min 42 sec) 
Heartbeat CPU 0 instructions: 29000000 cycles: 46095016 heartbeat IPC: 0.425441 cumulative IPC: 0.476879 (Simulation time: 0 hr 22 min 36 sec) 
Heartbeat CPU 0 instructions: 30000000 cycles: 47532927 heartbeat IPC: 0.695453 cumulative IPC: 0.484492 (Simulation time: 0 hr 23 min 23 sec) 
Heartbeat CPU 0 instructions: 31000002 cycles: 48867851 heartbeat IPC: 0.749108 cumulative IPC: 0.492781 (Simulation time: 0 hr 24 min 6 sec) 
Heartbeat CPU 0 instructions: 32000000 cycles: 50226297 heartbeat IPC: 0.736134 cumulative IPC: 0.500299 (Simulation time: 0 hr 24 min 50 sec) 
Heartbeat CPU 0 instructions: 33000001 cycles: 51563838 heartbeat IPC: 0.747641 cumulative IPC: 0.5076 (Simulation time: 0 hr 25 min 34 sec) 
Heartbeat CPU 0 instructions: 34000003 cycles: 52923106 heartbeat IPC: 0.735692 cumulative IPC: 0.514243 (Simulation time: 0 hr 26 min 16 sec) 
Heartbeat CPU 0 instructions: 35000000 cycles: 54252068 heartbeat IPC: 0.752465 cumulative IPC: 0.520839 (Simulation time: 0 hr 27 min 1 sec) 
Heartbeat CPU 0 instructions: 36000000 cycles: 55632092 heartbeat IPC: 0.724625 cumulative IPC: 0.526534 (Simulation time: 0 hr 27 min 45 sec) 
Heartbeat CPU 0 instructions: 37000003 cycles: 56984905 heartbeat IPC: 0.739203 cumulative IPC: 0.532205 (Simulation time: 0 hr 28 min 31 sec) 
Heartbeat CPU 0 instructions: 38000000 cycles: 58329528 heartbeat IPC: 0.743701 cumulative IPC: 0.537666 (Simulation time: 0 hr 29 min 18 sec) 
Heartbeat CPU 0 instructions: 39000001 cycles: 59677916 heartbeat IPC: 0.741627 cumulative IPC: 0.542814 (Simulation time: 0 hr 30 min 3 sec) 
Heartbeat CPU 0 instructions: 40000000 cycles: 60992044 heartbeat IPC: 0.76096 cumulative IPC: 0.548051 (Simulation time: 0 hr 30 min 47 sec) 
Heartbeat CPU 0 instructions: 41000002 cycles: 62358611 heartbeat IPC: 0.731762 cumulative IPC: 0.552525 (Simulation time: 0 hr 31 min 29 sec) 
Heartbeat CPU 0 instructions: 42000002 cycles: 63698003 heartbeat IPC: 0.746607 cumulative IPC: 0.557051 (Simulation time: 0 hr 32 min 13 sec) 
Heartbeat CPU 0 instructions: 43000002 cycles: 65063928 heartbeat IPC: 0.732105 cumulative IPC: 0.561116 (Simulation time: 0 hr 32 min 56 sec) 
Heartbeat CPU 0 instructions: 44000000 cycles: 66403857 heartbeat IPC: 0.746307 cumulative IPC: 0.565242 (Simulation time: 0 hr 33 min 41 sec) 
Heartbeat CPU 0 instructions: 45000003 cycles: 67765317 heartbeat IPC: 0.734508 cumulative IPC: 0.568988 (Simulation time: 0 hr 34 min 27 sec) 
Heartbeat CPU 0 instructions: 46000001 cycles: 69167592 heartbeat IPC: 0.713125 cumulative IPC: 0.572201 (Simulation time: 0 hr 35 min 10 sec) 
Heartbeat CPU 0 instructions: 47000000 cycles: 70503984 heartbeat IPC: 0.748283 cumulative IPC: 0.575863 (Simulation time: 0 hr 35 min 52 sec) 
Heartbeat CPU 0 instructions: 48000000 cycles: 71888907 heartbeat IPC: 0.722062 cumulative IPC: 0.578948 (Simulation time: 0 hr 36 min 38 sec) 
Heartbeat CPU 0 instructions: 49000001 cycles: 73223091 heartbeat IPC: 0.749523 cumulative IPC: 0.582346 (Simulation time: 0 hr 37 min 21 sec) 
Heartbeat CPU 0 instructions: 50000001 cycles: 74582654 heartbeat IPC: 0.73553 cumulative IPC: 0.585394 (Simulation time: 0 hr 38 min 4 sec) 
Heartbeat CPU 0 instructions: 51000003 cycles: 75912460 heartbeat IPC: 0.751991 cumulative IPC: 0.588574 (Simulation time: 0 hr 38 min 50 sec) 
Heartbeat CPU 0 instructions: 52000000 cycles: 77229667 heartbeat IPC: 0.75918 cumulative IPC: 0.59174 (Simulation time: 0 hr 39 min 32 sec) 
Heartbeat CPU 0 instructions: 53000002 cycles: 78601527 heartbeat IPC: 0.728939 cumulative IPC: 0.594342 (Simulation time: 0 hr 40 min 18 sec) 
Heartbeat CPU 0 instructions: 54000001 cycles: 79922257 heartbeat IPC: 0.757156 cumulative IPC: 0.597261 (Simulation time: 0 hr 41 min 3 sec) 
Heartbeat CPU 0 instructions: 55000000 cycles: 81292004 heartbeat IPC: 0.730061 cumulative IPC: 0.599685 (Simulation time: 0 hr 41 min 48 sec) 
Heartbeat CPU 0 instructions: 56000000 cycles: 82635266 heartbeat IPC: 0.744456 cumulative IPC: 0.602231 (Simulation time: 0 hr 42 min 34 sec) 
Heartbeat CPU 0 instructions: 57000000 cycles: 84000902 heartbeat IPC: 0.73226 cumulative IPC: 0.604515 (Simulation time: 0 hr 43 min 19 sec) 
Heartbeat CPU 0 instructions: 58000001 cycles: 85343058 heartbeat IPC: 0.745071 cumulative IPC: 0.6069 (Simulation time: 0 hr 44 min 4 sec) 
Heartbeat CPU 0 instructions: 59000003 cycles: 86655870 heartbeat IPC: 0.761725 cumulative IPC: 0.609428 (Simulation time: 0 hr 44 min 51 sec) 
Heartbeat CPU 0 instructions: 60000000 cycles: 88007721 heartbeat IPC: 0.739724 cumulative IPC: 0.611582 (Simulation time: 0 hr 45 min 37 sec) 
Heartbeat CPU 0 instructions: 61000001 cycles: 89340064 heartbeat IPC: 0.750558 cumulative IPC: 0.613811 (Simulation time: 0 hr 46 min 24 sec) 
Heartbeat CPU 0 instructions: 62000000 cycles: 90685474 heartbeat IPC: 0.743267 cumulative IPC: 0.615874 (Simulation time: 0 hr 47 min 9 sec) 
Heartbeat CPU 0 instructions: 63000000 cycles: 92015740 heartbeat IPC: 0.751729 cumulative IPC: 0.617981 (Simulation time: 0 hr 47 min 53 sec) 
Heartbeat CPU 0 instructions: 64000000 cycles: 93367011 heartbeat IPC: 0.740044 cumulative IPC: 0.619874 (Simulation time: 0 hr 48 min 35 sec) 
Heartbeat CPU 0 instructions: 65000000 cycles: 94726822 heartbeat IPC: 0.735396 cumulative IPC: 0.62165 (Simulation time: 0 hr 49 min 22 sec) 
Heartbeat CPU 0 instructions: 66000000 cycles: 96087797 heartbeat IPC: 0.734767 cumulative IPC: 0.623364 (Simulation time: 0 hr 50 min 5 sec) 
Heartbeat CPU 0 instructions: 67000003 cycles: 97440144 heartbeat IPC: 0.739457 cumulative IPC: 0.625085 (Simulation time: 0 hr 50 min 50 sec) 
Heartbeat CPU 0 instructions: 68000000 cycles: 98783017 heartbeat IPC: 0.74467 cumulative IPC: 0.626821 (Simulation time: 0 hr 51 min 32 sec) 
Heartbeat CPU 0 instructions: 69000000 cycles: 100123225 heartbeat IPC: 0.746153 cumulative IPC: 0.628525 (Simulation time: 0 hr 52 min 15 sec) 
Heartbeat CPU 0 instructions: 70000001 cycles: 101457051 heartbeat IPC: 0.749724 cumulative IPC: 0.630223 (Simulation time: 0 hr 53 min 0 sec) 
Heartbeat CPU 0 instructions: 71000002 cycles: 102815608 heartbeat IPC: 0.736076 cumulative IPC: 0.631712 (Simulation time: 0 hr 53 min 45 sec) 
Heartbeat CPU 0 instructions: 72000000 cycles: 104148069 heartbeat IPC: 0.75049 cumulative IPC: 0.633328 (Simulation time: 0 hr 54 min 34 sec) 
Heartbeat CPU 0 instructions: 73000000 cycles: 105500568 heartbeat IPC: 0.739372 cumulative IPC: 0.634774 (Simulation time: 0 hr 55 min 17 sec) 
Heartbeat CPU 0 instructions: 74000000 cycles: 106833041 heartbeat IPC: 0.750484 cumulative IPC: 0.636307 (Simulation time: 0 hr 56 min 1 sec) 
Heartbeat CPU 0 instructions: 75000002 cycles: 108158336 heartbeat IPC: 0.754551 cumulative IPC: 0.637844 (Simulation time: 0 hr 56 min 47 sec) 
Heartbeat CPU 0 instructions: 76000000 cycles: 109512746 heartbeat IPC: 0.738327 cumulative IPC: 0.639162 (Simulation time: 0 hr 57 min 31 sec) 
Heartbeat CPU 0 instructions: 77000000 cycles: 110839728 heartbeat IPC: 0.75359 cumulative IPC: 0.640614 (Simulation time: 0 hr 58 min 18 sec) 
Heartbeat CPU 0 instructions: 78000003 cycles: 112221524 heartbeat IPC: 0.723698 cumulative IPC: 0.641698 (Simulation time: 0 hr 59 min 4 sec) 
Heartbeat CPU 0 instructions: 79000000 cycles: 113709088 heartbeat IPC: 0.672238 cumulative IPC: 0.64212 (Simulation time: 0 hr 59 min 49 sec) 
Heartbeat CPU 0 instructions: 80000000 cycles: 115307640 heartbeat IPC: 0.625566 cumulative IPC: 0.641878 (Simulation time: 1 hr 0 min 34 sec) 
Heartbeat CPU 0 instructions: 81000002 cycles: 116896753 heartbeat IPC: 0.629283 cumulative IPC: 0.641697 (Simulation time: 1 hr 1 min 22 sec) 
Heartbeat CPU 0 instructions: 82000003 cycles: 118554948 heartbeat IPC: 0.603066 cumulative IPC: 0.641126 (Simulation time: 1 hr 2 min 8 sec) 
Heartbeat CPU 0 instructions: 83000000 cycles: 120232186 heartbeat IPC: 0.596216 cumulative IPC: 0.640465 (Simulation time: 1 hr 2 min 54 sec) 
Heartbeat CPU 0 instructions: 84000000 cycles: 121861303 heartbeat IPC: 0.613829 cumulative IPC: 0.64009 (Simulation time: 1 hr 3 min 37 sec) 
Heartbeat CPU 0 instructions: 85000001 cycles: 123519841 heartbeat IPC: 0.602941 cumulative IPC: 0.639565 (Simulation time: 1 hr 4 min 19 sec) 
Heartbeat CPU 0 instructions: 86000002 cycles: 125142629 heartbeat IPC: 0.616224 cumulative IPC: 0.639246 (Simulation time: 1 hr 5 min 1 sec) 
Heartbeat CPU 0 instructions: 87000000 cycles: 126783144 heartbeat IPC: 0.609563 cumulative IPC: 0.638842 (Simulation time: 1 hr 5 min 44 sec) 
Heartbeat CPU 0 instructions: 88000000 cycles: 128445961 heartbeat IPC: 0.601389 cumulative IPC: 0.638332 (Simulation time: 1 hr 6 min 24 sec) 
Heartbeat CPU 0 instructions: 89000002 cycles: 130070770 heartbeat IPC: 0.615458 cumulative IPC: 0.638032 (Simulation time: 1 hr 7 min 4 sec) 
Heartbeat CPU 0 instructions: 90000001 cycles: 131700922 heartbeat IPC: 0.613439 cumulative IPC: 0.637713 (Simulation time: 1 hr 7 min 42 sec) 
Heartbeat CPU 0 instructions: 91000003 cycles: 133326440 heartbeat IPC: 0.61519 cumulative IPC: 0.637425 (Simulation time: 1 hr 8 min 19 sec) 
Heartbeat CPU 0 instructions: 92000000 cycles: 134970901 heartbeat IPC: 0.6081 cumulative IPC: 0.63705 (Simulation time: 1 hr 8 min 57 sec) 
Heartbeat CPU 0 instructions: 93000001 cycles: 136639951 heartbeat IPC: 0.599144 cumulative IPC: 0.636565 (Simulation time: 1 hr 9 min 34 sec) 
Heartbeat CPU 0 instructions: 94000003 cycles: 138286420 heartbeat IPC: 0.607362 cumulative IPC: 0.636201 (Simulation time: 1 hr 10 min 11 sec) 
Heartbeat CPU 0 instructions: 95000002 cycles: 139981749 heartbeat IPC: 0.589855 cumulative IPC: 0.635613 (Simulation time: 1 hr 10 min 49 sec) 
Heartbeat CPU 0 instructions: 96000000 cycles: 141627718 heartbeat IPC: 0.607544 cumulative IPC: 0.635272 (Simulation time: 1 hr 11 min 25 sec) 
Heartbeat CPU 0 instructions: 97000003 cycles: 143647043 heartbeat IPC: 0.495216 cumulative IPC: 0.633213 (Simulation time: 1 hr 12 min 4 sec) 
Heartbeat CPU 0 instructions: 98000002 cycles: 149384915 heartbeat IPC: 0.17428 cumulative IPC: 0.614816 (Simulation time: 1 hr 13 min 21 sec) 
Heartbeat CPU 0 instructions: 99000000 cycles: 152549387 heartbeat IPC: 0.316008 cumulative IPC: 0.608352 (Simulation time: 1 hr 14 min 21 sec) 
Heartbeat CPU 0 instructions: 100000000 cycles: 154157829 heartbeat IPC: 0.62172 cumulative IPC: 0.608498 (Simulation time: 1 hr 14 min 55 sec) 
Heartbeat CPU 0 instructions: 101000002 cycles: 155422450 heartbeat IPC: 0.790752 cumulative IPC: 0.610043 (Simulation time: 1 hr 15 min 21 sec) 
Heartbeat CPU 0 instructions: 102000003 cycles: 156826056 heartbeat IPC: 0.712451 cumulative IPC: 0.610997 (Simulation time: 1 hr 15 min 49 sec) 
Heartbeat CPU 0 instructions: 103000002 cycles: 158283712 heartbeat IPC: 0.686032 cumulative IPC: 0.611717 (Simulation time: 1 hr 16 min 18 sec) 
Heartbeat CPU 0 instructions: 104000000 cycles: 159759125 heartbeat IPC: 0.677775 cumulative IPC: 0.612352 (Simulation time: 1 hr 16 min 47 sec) 
Heartbeat CPU 0 instructions: 105000001 cycles: 161297037 heartbeat IPC: 0.650233 cumulative IPC: 0.612728 (Simulation time: 1 hr 17 min 17 sec) 
Heartbeat CPU 0 instructions: 106000001 cycles: 162841147 heartbeat IPC: 0.647622 cumulative IPC: 0.613072 (Simulation time: 1 hr 17 min 43 sec) 
Heartbeat CPU 0 instructions: 107000001 cycles: 164371110 heartbeat IPC: 0.653611 cumulative IPC: 0.613464 (Simulation time: 1 hr 18 min 7 sec) 
Heartbeat CPU 0 instructions: 108000000 cycles: 165909296 heartbeat IPC: 0.650116 cumulative IPC: 0.613817 (Simulation time: 1 hr 18 min 31 sec) 
Heartbeat CPU 0 instructions: 109000001 cycles: 167414951 heartbeat IPC: 0.664163 cumulative IPC: 0.614287 (Simulation time: 1 hr 18 min 55 sec) 
Heartbeat CPU 0 instructions: 110000001 cycles: 168910474 heartbeat IPC: 0.668662 cumulative IPC: 0.614787 (Simulation time: 1 hr 19 min 17 sec) 
Finished CPU 0 instructions: 100000000 cycles: 162657887 cummulative IPC: 0.614787 (Simulation time: 1 hr 19 min 17 sec) 

ChampSim completed all CPUs

Region of Interest Statistics

CPU 0 cummulative IPC: 0.614787 instructions: 100000000 cycles: 162657887
LLC TOTAL     ACCESS:    4606518  HIT:     959737  MISS:    3646781
LLC LOAD      ACCESS:     464165  HIT:      58698  MISS:     405467
LLC RFO       ACCESS:     743298  HIT:      94484  MISS:     648814
LLC PREFETCH  ACCESS:    2299280  HIT:     151139  MISS:    2148141
LLC WRITEBACK ACCESS:    1099775  HIT:     655416  MISS:     444359
