
*** ChampSim Multicore Out-of-Order Simulator ***

Warmup Instructions: 10000000
Simulation Instructions: 100000000
Configuration: 2
Number of CPUs: 1
LLC sets: 2048
LLC ways: 16
Off-chip DRAM Channels: 1 Width: 64-bit Data Rate: 1600 MT/s

CPU 0 runs /datasets/cs240c-wi22-a00-public/data/Assignment2-gz/perlbench_135B.trace.gz
CPU 0 L1D next line prefetcher
CPU 0 L2C IP-based stride prefetcher
Heartbeat CPU 0 instructions: 1000000 cycles: 600047 heartbeat IPC: 1.66654 cumulative IPC: 1.66654 (Simulation time: 0 hr 0 min 49 sec) 
Heartbeat CPU 0 instructions: 2000000 cycles: 1209323 heartbeat IPC: 1.64129 cumulative IPC: 1.65382 (Simulation time: 0 hr 1 min 40 sec) 
Heartbeat CPU 0 instructions: 3000000 cycles: 1832880 heartbeat IPC: 1.6037 cumulative IPC: 1.63677 (Simulation time: 0 hr 2 min 30 sec) 
Heartbeat CPU 0 instructions: 4000000 cycles: 2492730 heartbeat IPC: 1.5155 cumulative IPC: 1.60467 (Simulation time: 0 hr 3 min 23 sec) 
Heartbeat CPU 0 instructions: 5000001 cycles: 3079430 heartbeat IPC: 1.70445 cumulative IPC: 1.62368 (Simulation time: 0 hr 4 min 12 sec) 
Heartbeat CPU 0 instructions: 6000002 cycles: 3681882 heartbeat IPC: 1.65988 cumulative IPC: 1.6296 (Simulation time: 0 hr 4 min 59 sec) 
Heartbeat CPU 0 instructions: 7000001 cycles: 4282700 heartbeat IPC: 1.6644 cumulative IPC: 1.63448 (Simulation time: 0 hr 5 min 47 sec) 
Heartbeat CPU 0 instructions: 8000000 cycles: 4893193 heartbeat IPC: 1.63802 cumulative IPC: 1.63492 (Simulation time: 0 hr 6 min 35 sec) 
Heartbeat CPU 0 instructions: 9000001 cycles: 5534301 heartbeat IPC: 1.5598 cumulative IPC: 1.62622 (Simulation time: 0 hr 7 min 24 sec) 
Heartbeat CPU 0 instructions: 10000000 cycles: 6193050 heartbeat IPC: 1.51803 cumulative IPC: 1.61471 (Simulation time: 0 hr 8 min 15 sec) 

Warmup complete CPU 0 instructions: 10000004 cycles: 6193051 (Simulation time: 0 hr 8 min 15 sec) 

Heartbeat CPU 0 instructions: 11000003 cycles: 8938378 heartbeat IPC: 0.364256 cumulative IPC: 0.364255 (Simulation time: 0 hr 9 min 20 sec) 
Heartbeat CPU 0 instructions: 12000000 cycles: 11277643 heartbeat IPC: 0.427483 cumulative IPC: 0.393344 (Simulation time: 0 hr 10 min 18 sec) 
Heartbeat CPU 0 instructions: 13000000 cycles: 13837721 heartbeat IPC: 0.390613 cumulative IPC: 0.39243 (Simulation time: 0 hr 11 min 18 sec) 
Heartbeat CPU 0 instructions: 14000000 cycles: 16857933 heartbeat IPC: 0.331103 cumulative IPC: 0.375062 (Simulation time: 0 hr 12 min 18 sec) 
Heartbeat CPU 0 instructions: 15000003 cycles: 19553384 heartbeat IPC: 0.370997 cumulative IPC: 0.374242 (Simulation time: 0 hr 13 min 21 sec) 
Heartbeat CPU 0 instructions: 16000000 cycles: 22206489 heartbeat IPC: 0.376916 cumulative IPC: 0.374685 (Simulation time: 0 hr 14 min 27 sec) 
Heartbeat CPU 0 instructions: 17000000 cycles: 24929561 heartbeat IPC: 0.367232 cumulative IPC: 0.373602 (Simulation time: 0 hr 15 min 29 sec) 
Heartbeat CPU 0 instructions: 18000000 cycles: 27629084 heartbeat IPC: 0.370436 cumulative IPC: 0.373203 (Simulation time: 0 hr 16 min 29 sec) 
Heartbeat CPU 0 instructions: 19000003 cycles: 30280297 heartbeat IPC: 0.377187 cumulative IPC: 0.373642 (Simulation time: 0 hr 17 min 28 sec) 
Heartbeat CPU 0 instructions: 20000000 cycles: 32938676 heartbeat IPC: 0.376168 cumulative IPC: 0.373893 (Simulation time: 0 hr 18 min 27 sec) 
Heartbeat CPU 0 instructions: 21000000 cycles: 35579030 heartbeat IPC: 0.378737 cumulative IPC: 0.374328 (Simulation time: 0 hr 19 min 27 sec) 
Heartbeat CPU 0 instructions: 22000002 cycles: 38221960 heartbeat IPC: 0.378369 cumulative IPC: 0.374661 (Simulation time: 0 hr 20 min 28 sec) 
Heartbeat CPU 0 instructions: 23000003 cycles: 40883774 heartbeat IPC: 0.375684 cumulative IPC: 0.37474 (Simulation time: 0 hr 21 min 36 sec) 
Heartbeat CPU 0 instructions: 24000000 cycles: 42985130 heartbeat IPC: 0.475882 cumulative IPC: 0.380517 (Simulation time: 0 hr 22 min 33 sec) 
Heartbeat CPU 0 instructions: 25000000 cycles: 45595529 heartbeat IPC: 0.383083 cumulative IPC: 0.380687 (Simulation time: 0 hr 23 min 42 sec) 
Heartbeat CPU 0 instructions: 26000001 cycles: 48167065 heartbeat IPC: 0.388873 cumulative IPC: 0.381188 (Simulation time: 0 hr 24 min 44 sec) 
Heartbeat CPU 0 instructions: 27000000 cycles: 50850307 heartbeat IPC: 0.372683 cumulative IPC: 0.380677 (Simulation time: 0 hr 25 min 47 sec) 
Heartbeat CPU 0 instructions: 28000000 cycles: 53510982 heartbeat IPC: 0.375844 cumulative IPC: 0.380405 (Simulation time: 0 hr 26 min 50 sec) 
Heartbeat CPU 0 instructions: 29000000 cycles: 56158401 heartbeat IPC: 0.377726 cumulative IPC: 0.380263 (Simulation time: 0 hr 27 min 48 sec) 
Heartbeat CPU 0 instructions: 30000000 cycles: 58893773 heartbeat IPC: 0.365581 cumulative IPC: 0.379501 (Simulation time: 0 hr 28 min 45 sec) 
Heartbeat CPU 0 instructions: 31000001 cycles: 61552583 heartbeat IPC: 0.376108 cumulative IPC: 0.379338 (Simulation time: 0 hr 29 min 37 sec) 
Heartbeat CPU 0 instructions: 32000000 cycles: 64226114 heartbeat IPC: 0.374037 cumulative IPC: 0.379094 (Simulation time: 0 hr 30 min 29 sec) 
Heartbeat CPU 0 instructions: 33000000 cycles: 66874986 heartbeat IPC: 0.377519 cumulative IPC: 0.379025 (Simulation time: 0 hr 31 min 20 sec) 
Heartbeat CPU 0 instructions: 34000001 cycles: 69496727 heartbeat IPC: 0.381426 cumulative IPC: 0.379125 (Simulation time: 0 hr 32 min 10 sec) 
Heartbeat CPU 0 instructions: 35000003 cycles: 72155919 heartbeat IPC: 0.376055 cumulative IPC: 0.379001 (Simulation time: 0 hr 33 min 3 sec) 
Heartbeat CPU 0 instructions: 36000000 cycles: 74457625 heartbeat IPC: 0.434459 cumulative IPC: 0.380871 (Simulation time: 0 hr 33 min 57 sec) 
Heartbeat CPU 0 instructions: 37000000 cycles: 76746491 heartbeat IPC: 0.436898 cumulative IPC: 0.382689 (Simulation time: 0 hr 34 min 55 sec) 
Heartbeat CPU 0 instructions: 38000000 cycles: 78833921 heartbeat IPC: 0.479058 cumulative IPC: 0.385458 (Simulation time: 0 hr 35 min 44 sec) 
Heartbeat CPU 0 instructions: 39000000 cycles: 81129012 heartbeat IPC: 0.435713 cumulative IPC: 0.386997 (Simulation time: 0 hr 36 min 39 sec) 
Heartbeat CPU 0 instructions: 40000000 cycles: 83082395 heartbeat IPC: 0.511932 cumulative IPC: 0.390171 (Simulation time: 0 hr 37 min 25 sec) 
Heartbeat CPU 0 instructions: 41000001 cycles: 85162422 heartbeat IPC: 0.480763 cumulative IPC: 0.392557 (Simulation time: 0 hr 38 min 15 sec) 
Heartbeat CPU 0 instructions: 42000003 cycles: 87782840 heartbeat IPC: 0.381619 cumulative IPC: 0.392206 (Simulation time: 0 hr 39 min 12 sec) 
Heartbeat CPU 0 instructions: 43000001 cycles: 90346232 heartbeat IPC: 0.390107 cumulative IPC: 0.392142 (Simulation time: 0 hr 40 min 13 sec) 
Heartbeat CPU 0 instructions: 44000000 cycles: 92641160 heartbeat IPC: 0.435743 cumulative IPC: 0.393299 (Simulation time: 0 hr 41 min 14 sec) 
Heartbeat CPU 0 instructions: 45000003 cycles: 95283386 heartbeat IPC: 0.37847 cumulative IPC: 0.39286 (Simulation time: 0 hr 42 min 13 sec) 
Heartbeat CPU 0 instructions: 46000003 cycles: 97973633 heartbeat IPC: 0.371713 cumulative IPC: 0.39224 (Simulation time: 0 hr 43 min 6 sec) 
Heartbeat CPU 0 instructions: 47000000 cycles: 100622557 heartbeat IPC: 0.377511 cumulative IPC: 0.391827 (Simulation time: 0 hr 44 min 2 sec) 
Heartbeat CPU 0 instructions: 48000000 cycles: 103257394 heartbeat IPC: 0.37953 cumulative IPC: 0.391493 (Simulation time: 0 hr 44 min 59 sec) 
Heartbeat CPU 0 instructions: 49000000 cycles: 105946847 heartbeat IPC: 0.371823 cumulative IPC: 0.390963 (Simulation time: 0 hr 45 min 53 sec) 
Heartbeat CPU 0 instructions: 50000001 cycles: 108591030 heartbeat IPC: 0.378189 cumulative IPC: 0.390633 (Simulation time: 0 hr 46 min 50 sec) 
Heartbeat CPU 0 instructions: 51000000 cycles: 111229295 heartbeat IPC: 0.379037 cumulative IPC: 0.390341 (Simulation time: 0 hr 47 min 46 sec) 
Heartbeat CPU 0 instructions: 52000000 cycles: 113858749 heartbeat IPC: 0.380307 cumulative IPC: 0.390096 (Simulation time: 0 hr 48 min 43 sec) 
Heartbeat CPU 0 instructions: 53000000 cycles: 116453728 heartbeat IPC: 0.38536 cumulative IPC: 0.389985 (Simulation time: 0 hr 49 min 39 sec) 
Heartbeat CPU 0 instructions: 54000001 cycles: 119108237 heartbeat IPC: 0.376718 cumulative IPC: 0.389673 (Simulation time: 0 hr 50 min 36 sec) 
Heartbeat CPU 0 instructions: 55000001 cycles: 121557201 heartbeat IPC: 0.408336 cumulative IPC: 0.390069 (Simulation time: 0 hr 51 min 32 sec) 
Heartbeat CPU 0 instructions: 56000000 cycles: 123684680 heartbeat IPC: 0.470039 cumulative IPC: 0.391517 (Simulation time: 0 hr 52 min 24 sec) 
Heartbeat CPU 0 instructions: 57000000 cycles: 125886277 heartbeat IPC: 0.454216 cumulative IPC: 0.39267 (Simulation time: 0 hr 53 min 17 sec) 
Heartbeat CPU 0 instructions: 58000002 cycles: 127834127 heartbeat IPC: 0.513388 cumulative IPC: 0.394604 (Simulation time: 0 hr 54 min 5 sec) 
Heartbeat CPU 0 instructions: 59000003 cycles: 129957908 heartbeat IPC: 0.470859 cumulative IPC: 0.395912 (Simulation time: 0 hr 54 min 56 sec) 
Heartbeat CPU 0 instructions: 60000000 cycles: 132904186 heartbeat IPC: 0.33941 cumulative IPC: 0.394598 (Simulation time: 0 hr 55 min 53 sec) 
Heartbeat CPU 0 instructions: 61000000 cycles: 135322347 heartbeat IPC: 0.413537 cumulative IPC: 0.394953 (Simulation time: 0 hr 56 min 49 sec) 
Heartbeat CPU 0 instructions: 62000001 cycles: 138115652 heartbeat IPC: 0.357999 cumulative IPC: 0.39417 (Simulation time: 0 hr 57 min 46 sec) 
Heartbeat CPU 0 instructions: 63000000 cycles: 141012817 heartbeat IPC: 0.345165 cumulative IPC: 0.393117 (Simulation time: 0 hr 58 min 43 sec) 
Heartbeat CPU 0 instructions: 64000000 cycles: 143920768 heartbeat IPC: 0.343885 cumulative IPC: 0.392078 (Simulation time: 0 hr 59 min 35 sec) 
Heartbeat CPU 0 instructions: 65000001 cycles: 146811849 heartbeat IPC: 0.345892 cumulative IPC: 0.391128 (Simulation time: 1 hr 0 min 28 sec) 
Heartbeat CPU 0 instructions: 66000001 cycles: 149672183 heartbeat IPC: 0.34961 cumulative IPC: 0.390301 (Simulation time: 1 hr 1 min 22 sec) 
Heartbeat CPU 0 instructions: 67000001 cycles: 152405513 heartbeat IPC: 0.365854 cumulative IPC: 0.389844 (Simulation time: 1 hr 2 min 16 sec) 
Heartbeat CPU 0 instructions: 68000000 cycles: 155144563 heartbeat IPC: 0.36509 cumulative IPC: 0.389388 (Simulation time: 1 hr 3 min 10 sec) 
Heartbeat CPU 0 instructions: 69000002 cycles: 158095138 heartbeat IPC: 0.338918 cumulative IPC: 0.388408 (Simulation time: 1 hr 4 min 9 sec) 
Heartbeat CPU 0 instructions: 70000003 cycles: 159903745 heartbeat IPC: 0.552912 cumulative IPC: 0.390344 (Simulation time: 1 hr 4 min 55 sec) 
Heartbeat CPU 0 instructions: 71000000 cycles: 161823490 heartbeat IPC: 0.520901 cumulative IPC: 0.391954 (Simulation time: 1 hr 5 min 40 sec) 
Heartbeat CPU 0 instructions: 72000000 cycles: 163811704 heartbeat IPC: 0.502964 cumulative IPC: 0.393354 (Simulation time: 1 hr 6 min 25 sec) 
Heartbeat CPU 0 instructions: 73000000 cycles: 166089582 heartbeat IPC: 0.439005 cumulative IPC: 0.394005 (Simulation time: 1 hr 7 min 12 sec) 
Heartbeat CPU 0 instructions: 74000000 cycles: 168008128 heartbeat IPC: 0.521228 cumulative IPC: 0.395513 (Simulation time: 1 hr 7 min 55 sec) 
Heartbeat CPU 0 instructions: 75000003 cycles: 170245279 heartbeat IPC: 0.446998 cumulative IPC: 0.396215 (Simulation time: 1 hr 8 min 45 sec) 
Heartbeat CPU 0 instructions: 76000000 cycles: 172994789 heartbeat IPC: 0.3637 cumulative IPC: 0.395679 (Simulation time: 1 hr 9 min 35 sec) 
Heartbeat CPU 0 instructions: 77000000 cycles: 175696568 heartbeat IPC: 0.370126 cumulative IPC: 0.395272 (Simulation time: 1 hr 10 min 22 sec) 
Heartbeat CPU 0 instructions: 78000000 cycles: 178657084 heartbeat IPC: 0.337779 cumulative IPC: 0.394285 (Simulation time: 1 hr 11 min 10 sec) 
Heartbeat CPU 0 instructions: 79000000 cycles: 180517630 heartbeat IPC: 0.537477 cumulative IPC: 0.395813 (Simulation time: 1 hr 11 min 50 sec) 
Heartbeat CPU 0 instructions: 80000000 cycles: 182304809 heartbeat IPC: 0.559541 cumulative IPC: 0.397475 (Simulation time: 1 hr 12 min 27 sec) 
Heartbeat CPU 0 instructions: 81000000 cycles: 184226205 heartbeat IPC: 0.520455 cumulative IPC: 0.398802 (Simulation time: 1 hr 13 min 5 sec) 
Heartbeat CPU 0 instructions: 82000000 cycles: 186143744 heartbeat IPC: 0.521502 cumulative IPC: 0.40011 (Simulation time: 1 hr 13 min 43 sec) 
Heartbeat CPU 0 instructions: 83000000 cycles: 188477282 heartbeat IPC: 0.428534 cumulative IPC: 0.400473 (Simulation time: 1 hr 14 min 24 sec) 
Heartbeat CPU 0 instructions: 84000000 cycles: 190434350 heartbeat IPC: 0.510968 cumulative IPC: 0.401647 (Simulation time: 1 hr 15 min 2 sec) 
Heartbeat CPU 0 instructions: 85000000 cycles: 192355365 heartbeat IPC: 0.520558 cumulative IPC: 0.402874 (Simulation time: 1 hr 15 min 36 sec) 
Heartbeat CPU 0 instructions: 86000002 cycles: 194273899 heartbeat IPC: 0.521232 cumulative IPC: 0.404082 (Simulation time: 1 hr 16 min 9 sec) 
Heartbeat CPU 0 instructions: 87000003 cycles: 196441888 heartbeat IPC: 0.461257 cumulative IPC: 0.404733 (Simulation time: 1 hr 16 min 43 sec) 
Heartbeat CPU 0 instructions: 88000000 cycles: 199223703 heartbeat IPC: 0.359476 cumulative IPC: 0.404081 (Simulation time: 1 hr 17 min 18 sec) 
Heartbeat CPU 0 instructions: 89000003 cycles: 201797951 heartbeat IPC: 0.388464 cumulative IPC: 0.403875 (Simulation time: 1 hr 17 min 52 sec) 
Heartbeat CPU 0 instructions: 90000001 cycles: 204685030 heartbeat IPC: 0.34637 cumulative IPC: 0.403039 (Simulation time: 1 hr 18 min 26 sec) 
Heartbeat CPU 0 instructions: 91000000 cycles: 207180242 heartbeat IPC: 0.400767 cumulative IPC: 0.403011 (Simulation time: 1 hr 18 min 56 sec) 
Heartbeat CPU 0 instructions: 92000000 cycles: 209645375 heartbeat IPC: 0.405658 cumulative IPC: 0.403043 (Simulation time: 1 hr 19 min 25 sec) 
Heartbeat CPU 0 instructions: 93000000 cycles: 212348771 heartbeat IPC: 0.369905 cumulative IPC: 0.402608 (Simulation time: 1 hr 19 min 55 sec) 
Heartbeat CPU 0 instructions: 94000001 cycles: 215020274 heartbeat IPC: 0.374321 cumulative IPC: 0.402246 (Simulation time: 1 hr 20 min 22 sec) 
Heartbeat CPU 0 instructions: 95000000 cycles: 217874941 heartbeat IPC: 0.350303 cumulative IPC: 0.401546 (Simulation time: 1 hr 20 min 46 sec) 
Heartbeat CPU 0 instructions: 96000000 cycles: 220916297 heartbeat IPC: 0.328801 cumulative IPC: 0.400516 (Simulation time: 1 hr 21 min 12 sec) 
Heartbeat CPU 0 instructions: 97000001 cycles: 223823498 heartbeat IPC: 0.343974 cumulative IPC: 0.39976 (Simulation time: 1 hr 21 min 34 sec) 
Heartbeat CPU 0 instructions: 98000000 cycles: 226484168 heartbeat IPC: 0.375845 cumulative IPC: 0.399471 (Simulation time: 1 hr 21 min 53 sec) 
Heartbeat CPU 0 instructions: 99000000 cycles: 229092892 heartbeat IPC: 0.383329 cumulative IPC: 0.399282 (Simulation time: 1 hr 22 min 12 sec) 
Heartbeat CPU 0 instructions: 100000000 cycles: 231726572 heartbeat IPC: 0.379697 cumulative IPC: 0.399054 (Simulation time: 1 hr 22 min 30 sec) 
Heartbeat CPU 0 instructions: 101000001 cycles: 234339809 heartbeat IPC: 0.382668 cumulative IPC: 0.398866 (Simulation time: 1 hr 22 min 47 sec) 
Heartbeat CPU 0 instructions: 102000000 cycles: 236975762 heartbeat IPC: 0.379369 cumulative IPC: 0.398643 (Simulation time: 1 hr 23 min 4 sec) 
Heartbeat CPU 0 instructions: 103000000 cycles: 239628461 heartbeat IPC: 0.376975 cumulative IPC: 0.398397 (Simulation time: 1 hr 23 min 23 sec) 
Heartbeat CPU 0 instructions: 104000000 cycles: 242370020 heartbeat IPC: 0.364756 cumulative IPC: 0.398007 (Simulation time: 1 hr 23 min 37 sec) 
Heartbeat CPU 0 instructions: 105000001 cycles: 244983468 heartbeat IPC: 0.382637 cumulative IPC: 0.397838 (Simulation time: 1 hr 23 min 50 sec) 
Heartbeat CPU 0 instructions: 106000001 cycles: 247611853 heartbeat IPC: 0.380462 cumulative IPC: 0.397649 (Simulation time: 1 hr 24 min 2 sec) 
Heartbeat CPU 0 instructions: 107000000 cycles: 250239697 heartbeat IPC: 0.38054 cumulative IPC: 0.397465 (Simulation time: 1 hr 24 min 14 sec) 
Heartbeat CPU 0 instructions: 108000000 cycles: 252862114 heartbeat IPC: 0.381328 cumulative IPC: 0.397293 (Simulation time: 1 hr 24 min 26 sec) 
Heartbeat CPU 0 instructions: 109000001 cycles: 255442783 heartbeat IPC: 0.387497 cumulative IPC: 0.397192 (Simulation time: 1 hr 24 min 38 sec) 
Heartbeat CPU 0 instructions: 110000003 cycles: 257597574 heartbeat IPC: 0.464083 cumulative IPC: 0.397765 (Simulation time: 1 hr 24 min 48 sec) 
Finished CPU 0 instructions: 100000003 cycles: 251404524 cummulative IPC: 0.397765 (Simulation time: 1 hr 24 min 48 sec) 

ChampSim completed all CPUs

Region of Interest Statistics

CPU 0 cummulative IPC: 0.397765 instructions: 100000003 cycles: 251404524
LLC TOTAL     ACCESS:     635529  HIT:     466946  MISS:     168583
LLC LOAD      ACCESS:     295069  HIT:     287192  MISS:       7877
LLC RFO       ACCESS:      30362  HIT:      27059  MISS:       3303
LLC PREFETCH  ACCESS:     206817  HIT:      54733  MISS:     152084
LLC WRITEBACK ACCESS:     103281  HIT:      97962  MISS:       5319
