
*** ChampSim Multicore Out-of-Order Simulator ***

Warmup Instructions: 10000000
Simulation Instructions: 100000000
Configuration: 2
Number of CPUs: 1
LLC sets: 2048
LLC ways: 16
Off-chip DRAM Channels: 1 Width: 64-bit Data Rate: 1600 MT/s

CPU 0 runs /datasets/cs240c-wi22-a00-public/data/Assignment2-gz/soplex_217B.trace.gz
CPU 0 L1D next line prefetcher
CPU 0 L2C IP-based stride prefetcher
Heartbeat CPU 0 instructions: 1000002 cycles: 441694 heartbeat IPC: 2.26402 cumulative IPC: 2.26402 (Simulation time: 0 hr 0 min 51 sec) 
Heartbeat CPU 0 instructions: 2000003 cycles: 800734 heartbeat IPC: 2.78521 cumulative IPC: 2.49771 (Simulation time: 0 hr 1 min 34 sec) 
Heartbeat CPU 0 instructions: 3000002 cycles: 1245828 heartbeat IPC: 2.24671 cumulative IPC: 2.40804 (Simulation time: 0 hr 2 min 19 sec) 
Heartbeat CPU 0 instructions: 4000000 cycles: 1673756 heartbeat IPC: 2.33684 cumulative IPC: 2.38983 (Simulation time: 0 hr 3 min 10 sec) 
Heartbeat CPU 0 instructions: 5000001 cycles: 2057806 heartbeat IPC: 2.60383 cumulative IPC: 2.42977 (Simulation time: 0 hr 3 min 46 sec) 
Heartbeat CPU 0 instructions: 6000000 cycles: 2432165 heartbeat IPC: 2.67123 cumulative IPC: 2.46694 (Simulation time: 0 hr 4 min 22 sec) 
Heartbeat CPU 0 instructions: 7000003 cycles: 2961832 heartbeat IPC: 1.88798 cumulative IPC: 2.3634 (Simulation time: 0 hr 5 min 2 sec) 
Heartbeat CPU 0 instructions: 8000000 cycles: 3409780 heartbeat IPC: 2.2324 cumulative IPC: 2.34619 (Simulation time: 0 hr 5 min 49 sec) 
Heartbeat CPU 0 instructions: 9000001 cycles: 3834300 heartbeat IPC: 2.3556 cumulative IPC: 2.34723 (Simulation time: 0 hr 6 min 33 sec) 
Heartbeat CPU 0 instructions: 10000000 cycles: 4246801 heartbeat IPC: 2.42423 cumulative IPC: 2.35471 (Simulation time: 0 hr 7 min 12 sec) 

Warmup complete CPU 0 instructions: 10000004 cycles: 4246802 (Simulation time: 0 hr 7 min 12 sec) 

Heartbeat CPU 0 instructions: 11000002 cycles: 8204487 heartbeat IPC: 0.252673 cumulative IPC: 0.252672 (Simulation time: 0 hr 8 min 18 sec) 
Heartbeat CPU 0 instructions: 12000000 cycles: 10857124 heartbeat IPC: 0.376983 cumulative IPC: 0.302557 (Simulation time: 0 hr 9 min 5 sec) 
Heartbeat CPU 0 instructions: 13000000 cycles: 12208076 heartbeat IPC: 0.740219 cumulative IPC: 0.376824 (Simulation time: 0 hr 9 min 37 sec) 
Heartbeat CPU 0 instructions: 14000000 cycles: 14978791 heartbeat IPC: 0.360918 cumulative IPC: 0.372717 (Simulation time: 0 hr 10 min 24 sec) 
Heartbeat CPU 0 instructions: 15000000 cycles: 17734320 heartbeat IPC: 0.362907 cumulative IPC: 0.370713 (Simulation time: 0 hr 11 min 20 sec) 
Heartbeat CPU 0 instructions: 16000000 cycles: 21472068 heartbeat IPC: 0.267541 cumulative IPC: 0.348325 (Simulation time: 0 hr 12 min 29 sec) 
Heartbeat CPU 0 instructions: 17000002 cycles: 23836264 heartbeat IPC: 0.422978 cumulative IPC: 0.357335 (Simulation time: 0 hr 13 min 19 sec) 
Heartbeat CPU 0 instructions: 18000001 cycles: 26466188 heartbeat IPC: 0.380239 cumulative IPC: 0.360046 (Simulation time: 0 hr 14 min 13 sec) 
Heartbeat CPU 0 instructions: 19000000 cycles: 30050064 heartbeat IPC: 0.279027 cumulative IPC: 0.348793 (Simulation time: 0 hr 15 min 14 sec) 
Heartbeat CPU 0 instructions: 20000000 cycles: 31390888 heartbeat IPC: 0.74581 cumulative IPC: 0.368404 (Simulation time: 0 hr 15 min 45 sec) 
Heartbeat CPU 0 instructions: 21000000 cycles: 32849524 heartbeat IPC: 0.685572 cumulative IPC: 0.384579 (Simulation time: 0 hr 16 min 22 sec) 
Heartbeat CPU 0 instructions: 22000001 cycles: 36126231 heartbeat IPC: 0.305185 cumulative IPC: 0.376418 (Simulation time: 0 hr 17 min 17 sec) 
Heartbeat CPU 0 instructions: 23000003 cycles: 39769078 heartbeat IPC: 0.274511 cumulative IPC: 0.365968 (Simulation time: 0 hr 18 min 22 sec) 
Heartbeat CPU 0 instructions: 24000000 cycles: 42985848 heartbeat IPC: 0.31087 cumulative IPC: 0.361392 (Simulation time: 0 hr 19 min 24 sec) 
Heartbeat CPU 0 instructions: 25000001 cycles: 44581803 heartbeat IPC: 0.626585 cumulative IPC: 0.371885 (Simulation time: 0 hr 20 min 17 sec) 
Heartbeat CPU 0 instructions: 26000003 cycles: 48522867 heartbeat IPC: 0.253739 cumulative IPC: 0.361369 (Simulation time: 0 hr 21 min 33 sec) 
Heartbeat CPU 0 instructions: 27000002 cycles: 50943393 heartbeat IPC: 0.413133 cumulative IPC: 0.364052 (Simulation time: 0 hr 22 min 22 sec) 
Heartbeat CPU 0 instructions: 28000000 cycles: 52283519 heartbeat IPC: 0.746197 cumulative IPC: 0.374713 (Simulation time: 0 hr 23 min 0 sec) 
Heartbeat CPU 0 instructions: 29000002 cycles: 55009601 heartbeat IPC: 0.366828 cumulative IPC: 0.37429 (Simulation time: 0 hr 23 min 53 sec) 
Heartbeat CPU 0 instructions: 30000002 cycles: 57886041 heartbeat IPC: 0.347652 cumulative IPC: 0.372861 (Simulation time: 0 hr 24 min 59 sec) 
Heartbeat CPU 0 instructions: 31000000 cycles: 61187192 heartbeat IPC: 0.302924 cumulative IPC: 0.368807 (Simulation time: 0 hr 26 min 7 sec) 
Heartbeat CPU 0 instructions: 32000000 cycles: 63063549 heartbeat IPC: 0.532948 cumulative IPC: 0.374043 (Simulation time: 0 hr 27 min 5 sec) 
Heartbeat CPU 0 instructions: 33000001 cycles: 66634821 heartbeat IPC: 0.280013 cumulative IPC: 0.36866 (Simulation time: 0 hr 28 min 20 sec) 
Heartbeat CPU 0 instructions: 34000000 cycles: 69457113 heartbeat IPC: 0.354322 cumulative IPC: 0.36804 (Simulation time: 0 hr 29 min 18 sec) 
Heartbeat CPU 0 instructions: 35000002 cycles: 70810533 heartbeat IPC: 0.73887 cumulative IPC: 0.37558 (Simulation time: 0 hr 29 min 56 sec) 
Heartbeat CPU 0 instructions: 36000000 cycles: 73056168 heartbeat IPC: 0.445307 cumulative IPC: 0.377855 (Simulation time: 0 hr 30 min 41 sec) 
Heartbeat CPU 0 instructions: 37000002 cycles: 75658464 heartbeat IPC: 0.384277 cumulative IPC: 0.378089 (Simulation time: 0 hr 31 min 42 sec) 
Heartbeat CPU 0 instructions: 38000000 cycles: 79216221 heartbeat IPC: 0.281075 cumulative IPC: 0.373486 (Simulation time: 0 hr 32 min 57 sec) 
Heartbeat CPU 0 instructions: 39000001 cycles: 81357798 heartbeat IPC: 0.466946 cumulative IPC: 0.376081 (Simulation time: 0 hr 33 min 52 sec) 
Heartbeat CPU 0 instructions: 40000000 cycles: 84542724 heartbeat IPC: 0.313979 cumulative IPC: 0.373618 (Simulation time: 0 hr 35 min 5 sec) 
Heartbeat CPU 0 instructions: 41000000 cycles: 87671196 heartbeat IPC: 0.319645 cumulative IPC: 0.371594 (Simulation time: 0 hr 36 min 9 sec) 
Heartbeat CPU 0 instructions: 42000002 cycles: 89041125 heartbeat IPC: 0.729966 cumulative IPC: 0.377384 (Simulation time: 0 hr 36 min 44 sec) 
Heartbeat CPU 0 instructions: 43000001 cycles: 90861571 heartbeat IPC: 0.549315 cumulative IPC: 0.380997 (Simulation time: 0 hr 37 min 25 sec) 
Heartbeat CPU 0 instructions: 44000000 cycles: 93650841 heartbeat IPC: 0.358516 cumulative IPC: 0.380296 (Simulation time: 0 hr 38 min 25 sec) 
Heartbeat CPU 0 instructions: 45000003 cycles: 97274563 heartbeat IPC: 0.27596 cumulative IPC: 0.376232 (Simulation time: 0 hr 39 min 36 sec) 
Heartbeat CPU 0 instructions: 46000000 cycles: 100158210 heartbeat IPC: 0.346782 cumulative IPC: 0.375346 (Simulation time: 0 hr 40 min 39 sec) 
Heartbeat CPU 0 instructions: 47000001 cycles: 101919172 heartbeat IPC: 0.567872 cumulative IPC: 0.378817 (Simulation time: 0 hr 41 min 30 sec) 
Heartbeat CPU 0 instructions: 48000000 cycles: 105514108 heartbeat IPC: 0.278169 cumulative IPC: 0.375244 (Simulation time: 0 hr 42 min 34 sec) 
Heartbeat CPU 0 instructions: 49000000 cycles: 108146221 heartbeat IPC: 0.379923 cumulative IPC: 0.375363 (Simulation time: 0 hr 43 min 23 sec) 
Heartbeat CPU 0 instructions: 50000001 cycles: 109490918 heartbeat IPC: 0.743663 cumulative IPC: 0.380069 (Simulation time: 0 hr 43 min 55 sec) 
Heartbeat CPU 0 instructions: 51000000 cycles: 112033397 heartbeat IPC: 0.393317 cumulative IPC: 0.380381 (Simulation time: 0 hr 44 min 42 sec) 
Heartbeat CPU 0 instructions: 52000000 cycles: 114708513 heartbeat IPC: 0.373816 cumulative IPC: 0.380222 (Simulation time: 0 hr 45 min 40 sec) 
Heartbeat CPU 0 instructions: 53000000 cycles: 118063405 heartbeat IPC: 0.298072 cumulative IPC: 0.377801 (Simulation time: 0 hr 46 min 42 sec) 
Heartbeat CPU 0 instructions: 54000000 cycles: 120027388 heartbeat IPC: 0.509169 cumulative IPC: 0.380029 (Simulation time: 0 hr 47 min 32 sec) 
Heartbeat CPU 0 instructions: 55000000 cycles: 123446542 heartbeat IPC: 0.29247 cumulative IPC: 0.377518 (Simulation time: 0 hr 48 min 36 sec) 
Heartbeat CPU 0 instructions: 56000000 cycles: 126370091 heartbeat IPC: 0.34205 cumulative IPC: 0.376669 (Simulation time: 0 hr 49 min 28 sec) 
Heartbeat CPU 0 instructions: 57000003 cycles: 127721176 heartbeat IPC: 0.740148 cumulative IPC: 0.380646 (Simulation time: 0 hr 50 min 3 sec) 
Heartbeat CPU 0 instructions: 58000000 cycles: 129929457 heartbeat IPC: 0.45284 cumulative IPC: 0.381914 (Simulation time: 0 hr 50 min 52 sec) 
Heartbeat CPU 0 instructions: 59000001 cycles: 132534377 heartbeat IPC: 0.383889 cumulative IPC: 0.381954 (Simulation time: 0 hr 51 min 57 sec) 
Heartbeat CPU 0 instructions: 60000000 cycles: 136033412 heartbeat IPC: 0.285793 cumulative IPC: 0.379401 (Simulation time: 0 hr 53 min 19 sec) 
Heartbeat CPU 0 instructions: 61000000 cycles: 138351084 heartbeat IPC: 0.431467 cumulative IPC: 0.380301 (Simulation time: 0 hr 54 min 29 sec) 
Heartbeat CPU 0 instructions: 62000001 cycles: 141134857 heartbeat IPC: 0.359225 cumulative IPC: 0.379872 (Simulation time: 0 hr 55 min 48 sec) 
Heartbeat CPU 0 instructions: 63000001 cycles: 144626226 heartbeat IPC: 0.286421 cumulative IPC: 0.377548 (Simulation time: 0 hr 57 min 2 sec) 
Heartbeat CPU 0 instructions: 64000000 cycles: 145981602 heartbeat IPC: 0.737802 cumulative IPC: 0.380993 (Simulation time: 0 hr 57 min 42 sec) 
Heartbeat CPU 0 instructions: 65000000 cycles: 147511437 heartbeat IPC: 0.653665 cumulative IPC: 0.383905 (Simulation time: 0 hr 58 min 29 sec) 
Heartbeat CPU 0 instructions: 66000002 cycles: 150603733 heartbeat IPC: 0.323385 cumulative IPC: 0.382626 (Simulation time: 0 hr 59 min 36 sec) 
Heartbeat CPU 0 instructions: 67000000 cycles: 153990478 heartbeat IPC: 0.295268 cumulative IPC: 0.38065 (Simulation time: 1 hr 1 min 2 sec) 
Heartbeat CPU 0 instructions: 68000000 cycles: 160024816 heartbeat IPC: 0.165718 cumulative IPC: 0.372325 (Simulation time: 1 hr 2 min 31 sec) 
Heartbeat CPU 0 instructions: 69000001 cycles: 164211984 heartbeat IPC: 0.238825 cumulative IPC: 0.36883 (Simulation time: 1 hr 3 min 45 sec) 
Heartbeat CPU 0 instructions: 70000002 cycles: 168409375 heartbeat IPC: 0.238243 cumulative IPC: 0.365491 (Simulation time: 1 hr 5 min 2 sec) 
Heartbeat CPU 0 instructions: 71000002 cycles: 172932753 heartbeat IPC: 0.221074 cumulative IPC: 0.361619 (Simulation time: 1 hr 6 min 24 sec) 
Heartbeat CPU 0 instructions: 72000000 cycles: 176386878 heartbeat IPC: 0.289508 cumulative IPC: 0.360172 (Simulation time: 1 hr 7 min 29 sec) 
Heartbeat CPU 0 instructions: 73000000 cycles: 179762422 heartbeat IPC: 0.296249 cumulative IPC: 0.358942 (Simulation time: 1 hr 8 min 40 sec) 
Heartbeat CPU 0 instructions: 74000000 cycles: 183618525 heartbeat IPC: 0.259329 cumulative IPC: 0.356801 (Simulation time: 1 hr 9 min 33 sec) 
Heartbeat CPU 0 instructions: 75000002 cycles: 187593211 heartbeat IPC: 0.251593 cumulative IPC: 0.35452 (Simulation time: 1 hr 10 min 32 sec) 
Heartbeat CPU 0 instructions: 76000000 cycles: 190214139 heartbeat IPC: 0.381543 cumulative IPC: 0.354901 (Simulation time: 1 hr 11 min 19 sec) 
Heartbeat CPU 0 instructions: 77000000 cycles: 193892923 heartbeat IPC: 0.271829 cumulative IPC: 0.35329 (Simulation time: 1 hr 12 min 14 sec) 
Heartbeat CPU 0 instructions: 78000002 cycles: 196094778 heartbeat IPC: 0.454163 cumulative IPC: 0.354447 (Simulation time: 1 hr 13 min 1 sec) 
Heartbeat CPU 0 instructions: 79000002 cycles: 197947087 heartbeat IPC: 0.539867 cumulative IPC: 0.35622 (Simulation time: 1 hr 13 min 40 sec) 
Heartbeat CPU 0 instructions: 80000000 cycles: 199109327 heartbeat IPC: 0.860406 cumulative IPC: 0.359228 (Simulation time: 1 hr 14 min 12 sec) 
Heartbeat CPU 0 instructions: 81000003 cycles: 201279079 heartbeat IPC: 0.460884 cumulative IPC: 0.360347 (Simulation time: 1 hr 14 min 55 sec) 
Heartbeat CPU 0 instructions: 82000001 cycles: 204288743 heartbeat IPC: 0.332262 cumulative IPC: 0.359924 (Simulation time: 1 hr 15 min 38 sec) 
Heartbeat CPU 0 instructions: 83000002 cycles: 207045804 heartbeat IPC: 0.362705 cumulative IPC: 0.359962 (Simulation time: 1 hr 16 min 18 sec) 
Heartbeat CPU 0 instructions: 84000000 cycles: 209354179 heartbeat IPC: 0.433204 cumulative IPC: 0.360787 (Simulation time: 1 hr 16 min 55 sec) 
Heartbeat CPU 0 instructions: 85000000 cycles: 210988175 heartbeat IPC: 0.611997 cumulative IPC: 0.362772 (Simulation time: 1 hr 17 min 28 sec) 
Heartbeat CPU 0 instructions: 86000001 cycles: 215067753 heartbeat IPC: 0.245124 cumulative IPC: 0.360495 (Simulation time: 1 hr 18 min 10 sec) 
Heartbeat CPU 0 instructions: 87000000 cycles: 217727904 heartbeat IPC: 0.375918 cumulative IPC: 0.360688 (Simulation time: 1 hr 18 min 38 sec) 
Heartbeat CPU 0 instructions: 88000000 cycles: 219087750 heartbeat IPC: 0.735377 cumulative IPC: 0.363059 (Simulation time: 1 hr 18 min 55 sec) 
Heartbeat CPU 0 instructions: 89000003 cycles: 221724080 heartbeat IPC: 0.379316 cumulative IPC: 0.363256 (Simulation time: 1 hr 19 min 19 sec) 
Heartbeat CPU 0 instructions: 90000002 cycles: 224517099 heartbeat IPC: 0.358035 cumulative IPC: 0.36319 (Simulation time: 1 hr 19 min 48 sec) 
Heartbeat CPU 0 instructions: 91000001 cycles: 227886966 heartbeat IPC: 0.296747 cumulative IPC: 0.362189 (Simulation time: 1 hr 20 min 17 sec) 
Heartbeat CPU 0 instructions: 92000000 cycles: 229876008 heartbeat IPC: 0.502754 cumulative IPC: 0.363428 (Simulation time: 1 hr 20 min 39 sec) 
Heartbeat CPU 0 instructions: 93000000 cycles: 233401203 heartbeat IPC: 0.283672 cumulative IPC: 0.362201 (Simulation time: 1 hr 21 min 6 sec) 
Heartbeat CPU 0 instructions: 94000001 cycles: 236312156 heartbeat IPC: 0.34353 cumulative IPC: 0.361967 (Simulation time: 1 hr 21 min 26 sec) 
Heartbeat CPU 0 instructions: 95000003 cycles: 237674014 heartbeat IPC: 0.734292 cumulative IPC: 0.364139 (Simulation time: 1 hr 21 min 37 sec) 
Heartbeat CPU 0 instructions: 96000000 cycles: 239926112 heartbeat IPC: 0.444029 cumulative IPC: 0.364903 (Simulation time: 1 hr 21 min 51 sec) 
Heartbeat CPU 0 instructions: 97000002 cycles: 242389431 heartbeat IPC: 0.405957 cumulative IPC: 0.365327 (Simulation time: 1 hr 22 min 10 sec) 
Heartbeat CPU 0 instructions: 98000003 cycles: 246426034 heartbeat IPC: 0.247733 cumulative IPC: 0.363367 (Simulation time: 1 hr 22 min 33 sec) 
Heartbeat CPU 0 instructions: 99000000 cycles: 249391147 heartbeat IPC: 0.337254 cumulative IPC: 0.363051 (Simulation time: 1 hr 22 min 50 sec) 
Heartbeat CPU 0 instructions: 100000000 cycles: 251317107 heartbeat IPC: 0.519222 cumulative IPC: 0.364269 (Simulation time: 1 hr 23 min 4 sec) 
Heartbeat CPU 0 instructions: 101000001 cycles: 255238658 heartbeat IPC: 0.255001 cumulative IPC: 0.362562 (Simulation time: 1 hr 23 min 23 sec) 
Heartbeat CPU 0 instructions: 102000000 cycles: 256866648 heartbeat IPC: 0.614254 cumulative IPC: 0.364184 (Simulation time: 1 hr 23 min 32 sec) 
Heartbeat CPU 0 instructions: 103000001 cycles: 258169104 heartbeat IPC: 0.767781 cumulative IPC: 0.366254 (Simulation time: 1 hr 23 min 39 sec) 
Heartbeat CPU 0 instructions: 104000000 cycles: 261446180 heartbeat IPC: 0.30515 cumulative IPC: 0.365475 (Simulation time: 1 hr 23 min 51 sec) 
Heartbeat CPU 0 instructions: 105000001 cycles: 264624824 heartbeat IPC: 0.3146 cumulative IPC: 0.364854 (Simulation time: 1 hr 24 min 4 sec) 
Heartbeat CPU 0 instructions: 106000002 cycles: 267394620 heartbeat IPC: 0.361038 cumulative IPC: 0.364814 (Simulation time: 1 hr 24 min 15 sec) 
Heartbeat CPU 0 instructions: 107000000 cycles: 269162472 heartbeat IPC: 0.565657 cumulative IPC: 0.366154 (Simulation time: 1 hr 24 min 24 sec) 
Heartbeat CPU 0 instructions: 108000000 cycles: 273148982 heartbeat IPC: 0.250846 cumulative IPC: 0.364445 (Simulation time: 1 hr 24 min 37 sec) 
Heartbeat CPU 0 instructions: 109000000 cycles: 275068960 heartbeat IPC: 0.520839 cumulative IPC: 0.365554 (Simulation time: 1 hr 24 min 44 sec) 
Heartbeat CPU 0 instructions: 110000002 cycles: 276398340 heartbeat IPC: 0.752232 cumulative IPC: 0.367442 (Simulation time: 1 hr 24 min 51 sec) 
Finished CPU 0 instructions: 100000000 cycles: 272151542 cummulative IPC: 0.367442 (Simulation time: 1 hr 24 min 51 sec) 

ChampSim completed all CPUs

Region of Interest Statistics

CPU 0 cummulative IPC: 0.367442 instructions: 100000000 cycles: 272151542
LLC TOTAL     ACCESS:    8716676  HIT:    4213558  MISS:    4503118
LLC LOAD      ACCESS:    2239506  HIT:     973851  MISS:    1265655
LLC RFO       ACCESS:     764919  HIT:     328010  MISS:     436909
LLC PREFETCH  ACCESS:    3551754  HIT:    1357765  MISS:    2193989
LLC WRITEBACK ACCESS:    2160497  HIT:    1553932  MISS:     606565
