
*** ChampSim Multicore Out-of-Order Simulator ***

Warmup Instructions: 10000000
Simulation Instructions: 100000000
Configuration: 2
Number of CPUs: 1
LLC sets: 2048
LLC ways: 16
Off-chip DRAM Channels: 1 Width: 64-bit Data Rate: 1600 MT/s

CPU 0 runs /datasets/cs240c-wi22-a00-public/data/Assignment2-gz/bzip2_281B.trace.gz
CPU 0 L1D next line prefetcher
CPU 0 L2C IP-based stride prefetcher
Heartbeat CPU 0 instructions: 1000000 cycles: 445883 heartbeat IPC: 2.24274 cumulative IPC: 2.24274 (Simulation time: 0 hr 0 min 36 sec) 
Heartbeat CPU 0 instructions: 2000003 cycles: 900143 heartbeat IPC: 2.20139 cumulative IPC: 2.22187 (Simulation time: 0 hr 1 min 14 sec) 
Heartbeat CPU 0 instructions: 3000002 cycles: 1314804 heartbeat IPC: 2.41161 cumulative IPC: 2.28171 (Simulation time: 0 hr 1 min 49 sec) 
Heartbeat CPU 0 instructions: 4000000 cycles: 1753272 heartbeat IPC: 2.28066 cumulative IPC: 2.28145 (Simulation time: 0 hr 2 min 23 sec) 
Heartbeat CPU 0 instructions: 5000002 cycles: 2175272 heartbeat IPC: 2.36967 cumulative IPC: 2.29856 (Simulation time: 0 hr 2 min 56 sec) 
Heartbeat CPU 0 instructions: 6000000 cycles: 2665944 heartbeat IPC: 2.03802 cumulative IPC: 2.25061 (Simulation time: 0 hr 3 min 33 sec) 
Heartbeat CPU 0 instructions: 7000001 cycles: 3193237 heartbeat IPC: 1.89648 cumulative IPC: 2.19213 (Simulation time: 0 hr 4 min 12 sec) 
Heartbeat CPU 0 instructions: 8000000 cycles: 3725870 heartbeat IPC: 1.87746 cumulative IPC: 2.14715 (Simulation time: 0 hr 4 min 48 sec) 
Heartbeat CPU 0 instructions: 9000000 cycles: 4232415 heartbeat IPC: 1.97416 cumulative IPC: 2.12645 (Simulation time: 0 hr 5 min 27 sec) 
Heartbeat CPU 0 instructions: 10000002 cycles: 4685376 heartbeat IPC: 2.2077 cumulative IPC: 2.1343 (Simulation time: 0 hr 6 min 3 sec) 

Warmup complete CPU 0 instructions: 10000002 cycles: 4685376 (Simulation time: 0 hr 6 min 3 sec) 

Heartbeat CPU 0 instructions: 11000001 cycles: 6204681 heartbeat IPC: 0.658195 cumulative IPC: 0.658195 (Simulation time: 0 hr 6 min 40 sec) 
Heartbeat CPU 0 instructions: 12000000 cycles: 7500363 heartbeat IPC: 0.771794 cumulative IPC: 0.710482 (Simulation time: 0 hr 7 min 19 sec) 
Heartbeat CPU 0 instructions: 13000001 cycles: 8854920 heartbeat IPC: 0.738249 cumulative IPC: 0.719503 (Simulation time: 0 hr 8 min 0 sec) 
Heartbeat CPU 0 instructions: 14000000 cycles: 10327784 heartbeat IPC: 0.678949 cumulative IPC: 0.708917 (Simulation time: 0 hr 8 min 34 sec) 
Heartbeat CPU 0 instructions: 15000000 cycles: 11832069 heartbeat IPC: 0.664768 cumulative IPC: 0.699624 (Simulation time: 0 hr 9 min 9 sec) 
Heartbeat CPU 0 instructions: 16000000 cycles: 13381831 heartbeat IPC: 0.64526 cumulative IPC: 0.689936 (Simulation time: 0 hr 9 min 46 sec) 
Heartbeat CPU 0 instructions: 17000000 cycles: 14898219 heartbeat IPC: 0.659462 cumulative IPC: 0.685411 (Simulation time: 0 hr 10 min 20 sec) 
Heartbeat CPU 0 instructions: 18000002 cycles: 16575908 heartbeat IPC: 0.596059 cumulative IPC: 0.672804 (Simulation time: 0 hr 10 min 50 sec) 
Heartbeat CPU 0 instructions: 19000003 cycles: 18042223 heartbeat IPC: 0.681982 cumulative IPC: 0.673812 (Simulation time: 0 hr 11 min 19 sec) 
Heartbeat CPU 0 instructions: 20000000 cycles: 19713119 heartbeat IPC: 0.59848 cumulative IPC: 0.665436 (Simulation time: 0 hr 11 min 52 sec) 
Heartbeat CPU 0 instructions: 21000001 cycles: 21296066 heartbeat IPC: 0.631734 cumulative IPC: 0.662224 (Simulation time: 0 hr 12 min 32 sec) 
Heartbeat CPU 0 instructions: 22000000 cycles: 23170385 heartbeat IPC: 0.533527 cumulative IPC: 0.649175 (Simulation time: 0 hr 13 min 16 sec) 
Heartbeat CPU 0 instructions: 23000001 cycles: 24793704 heartbeat IPC: 0.616022 cumulative IPC: 0.646498 (Simulation time: 0 hr 13 min 45 sec) 
Heartbeat CPU 0 instructions: 24000000 cycles: 26582482 heartbeat IPC: 0.55904 cumulative IPC: 0.639354 (Simulation time: 0 hr 14 min 27 sec) 
Heartbeat CPU 0 instructions: 25000002 cycles: 28277691 heartbeat IPC: 0.589899 cumulative IPC: 0.6358 (Simulation time: 0 hr 15 min 12 sec) 
Heartbeat CPU 0 instructions: 26000003 cycles: 29551996 heartbeat IPC: 0.784742 cumulative IPC: 0.643433 (Simulation time: 0 hr 15 min 55 sec) 
Heartbeat CPU 0 instructions: 27000002 cycles: 30959946 heartbeat IPC: 0.710252 cumulative IPC: 0.647013 (Simulation time: 0 hr 16 min 36 sec) 
Heartbeat CPU 0 instructions: 28000000 cycles: 31926861 heartbeat IPC: 1.03421 cumulative IPC: 0.660757 (Simulation time: 0 hr 17 min 10 sec) 
Heartbeat CPU 0 instructions: 29000001 cycles: 32828624 heartbeat IPC: 1.10894 cumulative IPC: 0.675117 (Simulation time: 0 hr 17 min 42 sec) 
Heartbeat CPU 0 instructions: 30000000 cycles: 33746258 heartbeat IPC: 1.08976 cumulative IPC: 0.68821 (Simulation time: 0 hr 18 min 17 sec) 
Heartbeat CPU 0 instructions: 31000003 cycles: 34763861 heartbeat IPC: 0.982704 cumulative IPC: 0.698174 (Simulation time: 0 hr 18 min 52 sec) 
Heartbeat CPU 0 instructions: 32000000 cycles: 35689140 heartbeat IPC: 1.08075 cumulative IPC: 0.709591 (Simulation time: 0 hr 19 min 25 sec) 
Heartbeat CPU 0 instructions: 33000002 cycles: 36683732 heartbeat IPC: 1.00544 cumulative IPC: 0.718787 (Simulation time: 0 hr 20 min 4 sec) 
Heartbeat CPU 0 instructions: 34000000 cycles: 37632910 heartbeat IPC: 1.05354 cumulative IPC: 0.728431 (Simulation time: 0 hr 20 min 36 sec) 
Heartbeat CPU 0 instructions: 35000000 cycles: 38491229 heartbeat IPC: 1.16507 cumulative IPC: 0.739517 (Simulation time: 0 hr 21 min 3 sec) 
Heartbeat CPU 0 instructions: 36000000 cycles: 39333935 heartbeat IPC: 1.18665 cumulative IPC: 0.750392 (Simulation time: 0 hr 21 min 33 sec) 
Heartbeat CPU 0 instructions: 37000000 cycles: 40186537 heartbeat IPC: 1.17288 cumulative IPC: 0.760538 (Simulation time: 0 hr 22 min 1 sec) 
Heartbeat CPU 0 instructions: 38000002 cycles: 40981125 heartbeat IPC: 1.25852 cumulative IPC: 0.77144 (Simulation time: 0 hr 22 min 30 sec) 
Heartbeat CPU 0 instructions: 39000001 cycles: 41887622 heartbeat IPC: 1.10315 cumulative IPC: 0.779523 (Simulation time: 0 hr 23 min 0 sec) 
Heartbeat CPU 0 instructions: 40000000 cycles: 42821515 heartbeat IPC: 1.07079 cumulative IPC: 0.786655 (Simulation time: 0 hr 23 min 32 sec) 
Heartbeat CPU 0 instructions: 41000002 cycles: 43789299 heartbeat IPC: 1.03329 cumulative IPC: 0.792759 (Simulation time: 0 hr 24 min 4 sec) 
Heartbeat CPU 0 instructions: 42000001 cycles: 44752310 heartbeat IPC: 1.03841 cumulative IPC: 0.798664 (Simulation time: 0 hr 24 min 34 sec) 
Heartbeat CPU 0 instructions: 43000001 cycles: 45704982 heartbeat IPC: 1.04968 cumulative IPC: 0.804493 (Simulation time: 0 hr 25 min 6 sec) 
Heartbeat CPU 0 instructions: 44000000 cycles: 46687593 heartbeat IPC: 1.0177 cumulative IPC: 0.809481 (Simulation time: 0 hr 25 min 40 sec) 
Heartbeat CPU 0 instructions: 45000001 cycles: 47615619 heartbeat IPC: 1.07756 cumulative IPC: 0.815276 (Simulation time: 0 hr 26 min 10 sec) 
Heartbeat CPU 0 instructions: 46000000 cycles: 48523534 heartbeat IPC: 1.10142 cumulative IPC: 0.821202 (Simulation time: 0 hr 26 min 44 sec) 
Heartbeat CPU 0 instructions: 47000000 cycles: 49406512 heartbeat IPC: 1.13253 cumulative IPC: 0.827349 (Simulation time: 0 hr 27 min 15 sec) 
Heartbeat CPU 0 instructions: 48000000 cycles: 50316570 heartbeat IPC: 1.09883 cumulative IPC: 0.832764 (Simulation time: 0 hr 27 min 49 sec) 
Heartbeat CPU 0 instructions: 49000001 cycles: 51259138 heartbeat IPC: 1.06093 cumulative IPC: 0.837381 (Simulation time: 0 hr 28 min 23 sec) 
Heartbeat CPU 0 instructions: 50000003 cycles: 52241345 heartbeat IPC: 1.01812 cumulative IPC: 0.841114 (Simulation time: 0 hr 28 min 53 sec) 
Heartbeat CPU 0 instructions: 51000002 cycles: 53199179 heartbeat IPC: 1.04402 cumulative IPC: 0.84512 (Simulation time: 0 hr 29 min 26 sec) 
Heartbeat CPU 0 instructions: 52000000 cycles: 54165016 heartbeat IPC: 1.03537 cumulative IPC: 0.848834 (Simulation time: 0 hr 29 min 59 sec) 
Heartbeat CPU 0 instructions: 53000001 cycles: 55144205 heartbeat IPC: 1.02125 cumulative IPC: 0.85218 (Simulation time: 0 hr 30 min 31 sec) 
Heartbeat CPU 0 instructions: 54000003 cycles: 56129156 heartbeat IPC: 1.01528 cumulative IPC: 0.855303 (Simulation time: 0 hr 31 min 2 sec) 
Heartbeat CPU 0 instructions: 55000000 cycles: 57094003 heartbeat IPC: 1.03643 cumulative IPC: 0.858637 (Simulation time: 0 hr 31 min 35 sec) 
Heartbeat CPU 0 instructions: 56000000 cycles: 58071254 heartbeat IPC: 1.02328 cumulative IPC: 0.861651 (Simulation time: 0 hr 32 min 7 sec) 
Heartbeat CPU 0 instructions: 57000002 cycles: 59041886 heartbeat IPC: 1.03026 cumulative IPC: 0.864662 (Simulation time: 0 hr 32 min 41 sec) 
Heartbeat CPU 0 instructions: 58000003 cycles: 60017425 heartbeat IPC: 1.02508 cumulative IPC: 0.86749 (Simulation time: 0 hr 33 min 13 sec) 
Heartbeat CPU 0 instructions: 59000003 cycles: 61049753 heartbeat IPC: 0.968684 cumulative IPC: 0.869343 (Simulation time: 0 hr 33 min 48 sec) 
Heartbeat CPU 0 instructions: 60000000 cycles: 62259023 heartbeat IPC: 0.826943 cumulative IPC: 0.868453 (Simulation time: 0 hr 34 min 27 sec) 
Heartbeat CPU 0 instructions: 61000000 cycles: 63466817 heartbeat IPC: 0.827956 cumulative IPC: 0.867621 (Simulation time: 0 hr 35 min 7 sec) 
Heartbeat CPU 0 instructions: 62000003 cycles: 64691923 heartbeat IPC: 0.816258 cumulative IPC: 0.866572 (Simulation time: 0 hr 35 min 45 sec) 
Heartbeat CPU 0 instructions: 63000001 cycles: 65923470 heartbeat IPC: 0.811985 cumulative IPC: 0.865474 (Simulation time: 0 hr 36 min 23 sec) 
Heartbeat CPU 0 instructions: 64000000 cycles: 67245600 heartbeat IPC: 0.756355 cumulative IPC: 0.863168 (Simulation time: 0 hr 36 min 59 sec) 
Heartbeat CPU 0 instructions: 65000001 cycles: 68450359 heartbeat IPC: 0.830042 cumulative IPC: 0.862542 (Simulation time: 0 hr 37 min 38 sec) 
Heartbeat CPU 0 instructions: 66000003 cycles: 69652967 heartbeat IPC: 0.831528 cumulative IPC: 0.861968 (Simulation time: 0 hr 38 min 17 sec) 
Heartbeat CPU 0 instructions: 67000000 cycles: 70864493 heartbeat IPC: 0.825403 cumulative IPC: 0.861299 (Simulation time: 0 hr 38 min 53 sec) 
Heartbeat CPU 0 instructions: 68000000 cycles: 72178464 heartbeat IPC: 0.761052 cumulative IPC: 0.859347 (Simulation time: 0 hr 39 min 24 sec) 
Heartbeat CPU 0 instructions: 69000000 cycles: 73375373 heartbeat IPC: 0.835485 cumulative IPC: 0.858931 (Simulation time: 0 hr 40 min 3 sec) 
Heartbeat CPU 0 instructions: 70000002 cycles: 74577955 heartbeat IPC: 0.831546 cumulative IPC: 0.85846 (Simulation time: 0 hr 40 min 45 sec) 
Heartbeat CPU 0 instructions: 71000003 cycles: 75784926 heartbeat IPC: 0.828521 cumulative IPC: 0.857952 (Simulation time: 0 hr 41 min 27 sec) 
Heartbeat CPU 0 instructions: 72000000 cycles: 76993177 heartbeat IPC: 0.82764 cumulative IPC: 0.857445 (Simulation time: 0 hr 42 min 9 sec) 
Heartbeat CPU 0 instructions: 73000002 cycles: 78296628 heartbeat IPC: 0.767196 cumulative IPC: 0.855847 (Simulation time: 0 hr 42 min 43 sec) 
Heartbeat CPU 0 instructions: 74000000 cycles: 79496133 heartbeat IPC: 0.833676 cumulative IPC: 0.855492 (Simulation time: 0 hr 43 min 24 sec) 
Heartbeat CPU 0 instructions: 75000001 cycles: 80697522 heartbeat IPC: 0.832371 cumulative IPC: 0.855127 (Simulation time: 0 hr 44 min 1 sec) 
Heartbeat CPU 0 instructions: 76000000 cycles: 81906819 heartbeat IPC: 0.826926 cumulative IPC: 0.854685 (Simulation time: 0 hr 44 min 38 sec) 
Heartbeat CPU 0 instructions: 77000001 cycles: 83163922 heartbeat IPC: 0.795481 cumulative IPC: 0.853737 (Simulation time: 0 hr 45 min 13 sec) 
Heartbeat CPU 0 instructions: 78000003 cycles: 84333338 heartbeat IPC: 0.855129 cumulative IPC: 0.853757 (Simulation time: 0 hr 45 min 39 sec) 
Heartbeat CPU 0 instructions: 79000000 cycles: 85252213 heartbeat IPC: 1.08828 cumulative IPC: 0.856432 (Simulation time: 0 hr 46 min 6 sec) 
Heartbeat CPU 0 instructions: 80000000 cycles: 86155656 heartbeat IPC: 1.10688 cumulative IPC: 0.859209 (Simulation time: 0 hr 46 min 35 sec) 
Heartbeat CPU 0 instructions: 81000000 cycles: 87001395 heartbeat IPC: 1.1824 cumulative IPC: 0.86253 (Simulation time: 0 hr 47 min 6 sec) 
Heartbeat CPU 0 instructions: 82000001 cycles: 87893228 heartbeat IPC: 1.12129 cumulative IPC: 0.865303 (Simulation time: 0 hr 47 min 32 sec) 
Heartbeat CPU 0 instructions: 83000000 cycles: 88817299 heartbeat IPC: 1.08217 cumulative IPC: 0.867685 (Simulation time: 0 hr 48 min 1 sec) 
Heartbeat CPU 0 instructions: 84000000 cycles: 89734686 heartbeat IPC: 1.09005 cumulative IPC: 0.870083 (Simulation time: 0 hr 48 min 31 sec) 
Heartbeat CPU 0 instructions: 85000002 cycles: 90670951 heartbeat IPC: 1.06808 cumulative IPC: 0.872239 (Simulation time: 0 hr 49 min 5 sec) 
Heartbeat CPU 0 instructions: 86000002 cycles: 91600532 heartbeat IPC: 1.07575 cumulative IPC: 0.874416 (Simulation time: 0 hr 49 min 43 sec) 
Heartbeat CPU 0 instructions: 87000002 cycles: 92529806 heartbeat IPC: 1.07611 cumulative IPC: 0.87655 (Simulation time: 0 hr 50 min 24 sec) 
Heartbeat CPU 0 instructions: 88000000 cycles: 93578579 heartbeat IPC: 0.953493 cumulative IPC: 0.877457 (Simulation time: 0 hr 51 min 2 sec) 
Heartbeat CPU 0 instructions: 89000002 cycles: 94668611 heartbeat IPC: 0.917406 cumulative IPC: 0.877941 (Simulation time: 0 hr 51 min 40 sec) 
Heartbeat CPU 0 instructions: 90000001 cycles: 95756236 heartbeat IPC: 0.919434 cumulative IPC: 0.878437 (Simulation time: 0 hr 52 min 17 sec) 
Heartbeat CPU 0 instructions: 91000001 cycles: 96850788 heartbeat IPC: 0.913616 cumulative IPC: 0.878855 (Simulation time: 0 hr 52 min 55 sec) 
Heartbeat CPU 0 instructions: 92000000 cycles: 97934940 heartbeat IPC: 0.922379 cumulative IPC: 0.879361 (Simulation time: 0 hr 53 min 34 sec) 
Heartbeat CPU 0 instructions: 93000001 cycles: 99017306 heartbeat IPC: 0.923903 cumulative IPC: 0.879872 (Simulation time: 0 hr 54 min 13 sec) 
Heartbeat CPU 0 instructions: 94000001 cycles: 100097440 heartbeat IPC: 0.925811 cumulative IPC: 0.880392 (Simulation time: 0 hr 54 min 51 sec) 
Heartbeat CPU 0 instructions: 95000000 cycles: 101181544 heartbeat IPC: 0.92242 cumulative IPC: 0.880864 (Simulation time: 0 hr 55 min 32 sec) 
Heartbeat CPU 0 instructions: 96000000 cycles: 102261131 heartbeat IPC: 0.92628 cumulative IPC: 0.881366 (Simulation time: 0 hr 56 min 11 sec) 
Heartbeat CPU 0 instructions: 97000002 cycles: 103343535 heartbeat IPC: 0.923871 cumulative IPC: 0.881833 (Simulation time: 0 hr 56 min 50 sec) 
Heartbeat CPU 0 instructions: 98000002 cycles: 104425762 heartbeat IPC: 0.924021 cumulative IPC: 0.882291 (Simulation time: 0 hr 57 min 31 sec) 
Heartbeat CPU 0 instructions: 99000000 cycles: 105506913 heartbeat IPC: 0.924938 cumulative IPC: 0.882748 (Simulation time: 0 hr 58 min 8 sec) 
Heartbeat CPU 0 instructions: 100000000 cycles: 106592058 heartbeat IPC: 0.921536 cumulative IPC: 0.883161 (Simulation time: 0 hr 58 min 47 sec) 
Heartbeat CPU 0 instructions: 101000000 cycles: 107679038 heartbeat IPC: 0.91998 cumulative IPC: 0.88355 (Simulation time: 0 hr 59 min 26 sec) 
Heartbeat CPU 0 instructions: 102000000 cycles: 108768519 heartbeat IPC: 0.917868 cumulative IPC: 0.883909 (Simulation time: 1 hr 0 min 3 sec) 
Heartbeat CPU 0 instructions: 103000002 cycles: 109857016 heartbeat IPC: 0.9187 cumulative IPC: 0.884269 (Simulation time: 1 hr 0 min 42 sec) 
Heartbeat CPU 0 instructions: 104000000 cycles: 110945425 heartbeat IPC: 0.91877 cumulative IPC: 0.884622 (Simulation time: 1 hr 1 min 17 sec) 
Heartbeat CPU 0 instructions: 105000003 cycles: 112039349 heartbeat IPC: 0.914143 cumulative IPC: 0.884923 (Simulation time: 1 hr 1 min 57 sec) 
Heartbeat CPU 0 instructions: 106000002 cycles: 113135536 heartbeat IPC: 0.912252 cumulative IPC: 0.885199 (Simulation time: 1 hr 2 min 37 sec) 
Heartbeat CPU 0 instructions: 107000001 cycles: 114219152 heartbeat IPC: 0.922835 cumulative IPC: 0.885572 (Simulation time: 1 hr 3 min 19 sec) 
Heartbeat CPU 0 instructions: 108000000 cycles: 115313086 heartbeat IPC: 0.914131 cumulative IPC: 0.885854 (Simulation time: 1 hr 4 min 0 sec) 
Heartbeat CPU 0 instructions: 109000001 cycles: 116407935 heartbeat IPC: 0.913369 cumulative IPC: 0.886124 (Simulation time: 1 hr 4 min 40 sec) 
Heartbeat CPU 0 instructions: 110000002 cycles: 117506911 heartbeat IPC: 0.909939 cumulative IPC: 0.886356 (Simulation time: 1 hr 5 min 22 sec) 
Finished CPU 0 instructions: 100000000 cycles: 112821535 cummulative IPC: 0.886356 (Simulation time: 1 hr 5 min 22 sec) 

ChampSim completed all CPUs

Region of Interest Statistics

CPU 0 cummulative IPC: 0.886356 instructions: 100000000 cycles: 112821535
LLC TOTAL     ACCESS:    2346770  HIT:    2034061  MISS:     312709
LLC LOAD      ACCESS:     882451  HIT:     845687  MISS:      36764
LLC RFO       ACCESS:     180754  HIT:     113070  MISS:      67684
LLC PREFETCH  ACCESS:    1098703  HIT:     910755  MISS:     187948
LLC WRITEBACK ACCESS:     184862  HIT:     164549  MISS:      20313
